data_PCOD8199672
_publ_section_title
;
Structure prediction by ZEFSAII (Michael W. Deem and Ramdas Pophale) SiO2 
 PCOD8199672
Probable space group: P M M M
;
_chemical_formula_sum "Si O2"
_cell_formula_units_Z 64
_cell_length_a 14.725925
_cell_length_b 8.911444
_cell_length_c 24.542842
_cell_angle_alpha 90.000000
_cell_angle_beta 90.000000
_cell_angle_gamma 90.000000
_cell_volume 3220.738895
_symmetry_space_group_name_H-M "P M M M"
_symmetry_group_IT_number 47
_symmetry_cell_setting 'orthorhombic'
loop_
_space_group_symop_operation_xyz
x,y,z
-x,-y,z
x,-y,-z
-x,y,-z
-x,-y,-z
x,y,-z
-x,y,z
x,-y,z
loop_
_atom_site_type_symbol
_atom_site_label
_atom_site_fract_x
_atom_site_fract_y
_atom_site_fract_z
Si Si1 0.105043 0.675235 0.937971
Si Si2 0.282805 0.678716 0.758837
Si Si3 0.280449 0.826277 0.440386
Si Si4 0.902468 0.677974 0.710817
Si Si5 0.100469 0.323402 0.587779
Si Si6 0.742292 0.825754 0.870961
Si Si7 0.600229 0.333378 0.064070
Si Si8 0.394871 0.822350 0.662698
O O1 0.123606 0.500000 0.929181
O O2 0.161372 0.765386 0.892766
O O3 0.000000 0.713600 0.928074
O O4 0.132631 0.720250 0.000000
O O5 0.290320 0.500000 0.757137
O O6 0.181706 0.740040 0.745047
O O7 0.299027 0.739039 0.819121
O O8 0.355089 0.744454 0.716428
O O9 0.327003 0.799960 0.500000
O O10 0.181077 0.753302 0.445012
O O11 0.343054 0.760855 0.391579
O O12 0.266020 0.000000 0.428900
O O13 0.900494 0.500000 0.710652
O O14 0.892705 0.736129 0.649434
O O15 0.000000 0.733344 0.735074
O O16 0.115509 0.500000 0.584501
O O17 0.000000 0.282466 0.564249
O O18 0.667836 0.796393 0.917113
O O19 0.751921 0.000000 0.857656
O O20 0.500000 0.305178 0.088828
O O21 0.634938 0.500000 0.081673
O O22 0.594791 0.324468 0.000000
O O23 0.500000 0.776738 0.656975
O O24 0.383842 0.000000 0.668836
#
# Coordination Sequence:
#
# PCOD8199672 Si02
#       8
#     8   8   8   8   8   8   8   8
#     4   9  19  38  63  88 117 159 209 253 291 336
#     4  11  22  38  61  84 109 146 191 237 284 338
#     4  10  21  36  56  84 117 150 185 228 278 337
#     4   8  15  30  54  81 105 133 174 222 269 318
#     4   9  17  32  55  82 112 146 184 224 268 321
#     4  12  25  37  54  85 124 158 190 234 289 349
#     4   9  19  38  63  87 111 143 187 238 287 337
#     4  10  22  41  62  82 109 145 186 236 293 349
#
# _framework density 19.871216
#
# number of rings (size 3 to 8) (size 9 to 14) (size 15 to 20)
#    0.000    2.250    1.250    3.375    0.000    4.750 
#    0.000    5.000    0.000    1.125    0.000    1.750 
#    0.000    0.000    0.000    0.000    0.000    0.000 
#
# Total GULP energy -793270.844974 kJ/mol
# GULP energy per Si atom -12394.856953 kJ/mol
# Density = 1.982599 g / cm^3
# Si number density = 19.871216 Si / 1000 Ang^3
#
#
#
# Elastic Constant Matrix: (Units=GPa)
#
#
# Indices 1 2 3 4 5 6 
#
# 1 127.8457 41.7384 51.7310 0.0000 0.0000 0.0000
# 2 41.7384 57.2089 37.2129 0.0000 0.0000 0.0000
# 3 51.7310 37.2129 95.5724 0.0000 0.0000 0.0000
# 4 0.0000 0.0000 0.0000 24.9740 0.0000 0.0000
# 5 0.0000 0.0000 0.0000 0.0000 13.8901 0.0000
# 6 0.0000 0.0000 0.0000 0.0000 0.0000 25.2083
#
#
#
# Elastic Compliance Matrix: (Units=1/GPa)
#
#
# Indices 1 2 3 4 5 6 
#
# 1 0.011245 -0.005685 -0.003873 0.000000 0.000000 0.000000
# 2 -0.005685 0.026282 -0.007157 0.000000 0.000000 0.000000
# 3 -0.003873 -0.007157 0.015346 0.000000 0.000000 0.000000
# 4 0.000000 0.000000 0.000000 0.040042 0.000000 0.000000
# 5 0.000000 0.000000 0.000000 0.000000 0.071994 0.000000
# 6 0.000000 0.000000 0.000000 0.000000 0.000000 0.039669
#
#
# Mechanical properties :
#
#
# Convention : Reuss Voigt Hill
#
# Bulk Modulus (GPa) = 51.42770 60.22128 55.82449
# Shear Modulus (GPa) = 20.45080 22.81079 21.63080
#
# Velocity S-wave (km/s) = 3.21154 3.39179 3.30290
# Velocity P-wave (km/s) = 6.29990 6.76096 6.53450
#
# Compressibility (1/GPa) = 0.01944477
#
# Stress axis : x y z
#
# Youngs Moduli (GPa) = 88.92753 38.04826 65.16232
#
# Poissons Ratio (x) = 0.21630 0.25239
# Poissons Ratio (y) = 0.50553 0.46634
# Poissons Ratio (z) = 0.34444 0.27229
#
# Static dielectric constant tensor:
#      x y z
#    x 3.897370 0.000000 0.000000 
#    y 0.000000 3.327670 0.000000 
#    z 0.000000 0.000000 3.617780 
# 
# 
# High freq. dielectric constant tensor:
#      x y z
#    x 1.782750 0.000000 0.000000 
#    y 0.000000 1.747350 0.000000 
#    z 0.000000 0.000000 1.774740 
# 
# From -- ./inp_files/12722.got.cif
#   From: 2010.03.12/outbox.cif.g09.slc.cpg/sg47_7_cif.got.tgz:12722.got - 2010.04.14 03:12:58.
