data_PCOD8199243
_publ_section_title
;
Structure prediction by ZEFSAII (Michael W. Deem and Ramdas Pophale) SiO2 
 PCOD8199243
Probable space group: P M M M
;
_chemical_formula_sum "Si O2"
_cell_formula_units_Z 48
_cell_length_a 7.695211
_cell_length_b 9.190563
_cell_length_c 32.919745
_cell_angle_alpha 90.000000
_cell_angle_beta 90.000000
_cell_angle_gamma 90.000000
_cell_volume 2328.193709
_symmetry_space_group_name_H-M "P M M M"
_symmetry_group_IT_number 47
_symmetry_cell_setting 'orthorhombic'
loop_
_space_group_symop_operation_xyz
x,y,z
-x,-y,z
x,-y,-z
-x,y,-z
-x,-y,-z
x,y,-z
-x,y,z
x,-y,z
loop_
_atom_site_type_symbol
_atom_site_label
_atom_site_fract_x
_atom_site_fract_y
_atom_site_fract_z
Si Si1 0.791769 0.663242 0.913198
Si Si2 0.802195 0.659652 0.326478
Si Si3 0.300013 0.164201 0.749479
Si Si4 0.794926 0.828491 0.404702
Si Si5 0.500000 0.332434 0.451977
Si Si6 0.794184 0.163080 0.163022
Si Si7 0.191621 0.673720 0.000000
O O1 0.727634 0.500000 0.905765
O O2 0.714221 0.754676 0.875826
O O3 0.000000 0.670632 0.914583
O O4 0.717476 0.721042 0.957205
O O5 0.708856 0.500000 0.326384
O O6 0.793525 0.733173 0.282531
O O7 0.728123 0.766112 0.361249
O O8 0.000000 0.633411 0.337386
O O9 0.500000 0.161546 0.737961
O O10 0.270860 0.231377 0.794446
O O11 0.221531 0.000000 0.747653
O O12 0.676257 0.748695 0.437958
O O13 0.000000 0.798154 0.413174
O O14 0.757188 0.000000 0.405180
O O15 0.500000 0.500000 0.436437
O O16 0.500000 0.327146 0.500000
O O17 0.000000 0.170695 0.161658
O O18 0.722754 0.000000 0.160305
O O19 0.177443 0.500000 0.000000
O O20 0.000000 0.743025 0.000000
#
# Coordination Sequence:
#
# PCOD8199243 Si02
#       7
#     8   8   8   8   4   8   4
#     4   8  13  22  38  59  83 113 148 187 236 297
#     4  10  21  37  58  84 113 145 182 228 282 336
#     4  10  21  35  51  72 100 137 178 218 263 318
#     4  10  22  41  66  94 125 164 209 255 303 359
#     4  11  25  43  65  95 131 171 211 255 309 362
#     4   9  17  29  44  63  90 123 158 200 251 305
#     4   7  10  18  33  55  82 109 140 182 234 293
#
# _framework density 20.616841000000001
#
# number of rings (size 3 to 8) (size 9 to 14) (size 15 to 20)
#    0.000    2.667    0.000    2.750    1.167    4.667 
#    0.000    3.750    0.000    2.500    0.000    0.583 
#    0.000    4.667    0.000    0.000    0.000    0.000 
#
# Total GULP energy -594750.372909 kJ/mol
# GULP energy per Si atom -12390.632769 kJ/mol
# Density = 2.056992 g / cm^3
# Si number density = 20.616841 Si / 1000 Ang^3
#
#
#
# Elastic Constant Matrix: (Units=GPa)
#
#
# Indices 1 2 3 4 5 6 
#
# 1 45.9577 28.7454 25.2564 0.0000 0.0000 0.0000
# 2 28.7454 123.3845 75.8795 0.0000 0.0000 0.0000
# 3 25.2564 75.8795 158.4528 0.0000 0.0000 0.0000
# 4 0.0000 0.0000 0.0000 36.9423 0.0000 0.0000
# 5 0.0000 0.0000 0.0000 0.0000 -5.6784 0.0000
# 6 0.0000 0.0000 0.0000 0.0000 0.0000 13.6228
#
#
#
# Elastic Compliance Matrix: (Units=1/GPa)
#
#
# Indices 1 2 3 4 5 6 
#
# 1 0.025808 -0.004937 -0.001750 0.000000 0.000000 0.000000
# 2 -0.004937 0.012432 -0.005167 0.000000 0.000000 0.000000
# 3 -0.001750 -0.005167 0.009064 0.000000 0.000000 0.000000
# 4 0.000000 0.000000 0.000000 0.027069 0.000000 0.000000
# 5 0.000000 0.000000 0.000000 0.000000 -0.176106 0.000000
# 6 0.000000 0.000000 0.000000 0.000000 0.000000 0.073406
#
#
# Mechanical properties :
#
#
# Convention : Reuss Voigt Hill
#
# Bulk Modulus (GPa) = 42.37497 65.28416 53.82957
# Shear Modulus (GPa) = 1539.86624 22.17158 781.01891
#
# Velocity S-wave (km/s) = 27.35907 3.28290 19.48456
# Velocity P-wave (km/s) = 31.91588 6.79000 23.07301
#
# Compressibility (1/GPa) = 0.02359884
#
# Stress axis : x y z
#
# Youngs Moduli (GPa) = 38.74706 80.43570 110.32522
#
# Poissons Ratio (x) = 0.39709 0.19303
# Poissons Ratio (y) = 0.19128 0.57001
# Poissons Ratio (z) = 0.06779 0.41558
#
# Static dielectric constant tensor:
#      x y z
#    x 3.359610 0.000000 0.000000 
#    y 0.000000 3.820440 0.000000 
#    z 0.000000 0.000000 3.963860 
# 
# 
# High freq. dielectric constant tensor:
#      x y z
#    x 1.779820 0.000000 0.000000 
#    y 0.000000 1.789820 0.000000 
#    z 0.000000 0.000000 1.820150 
# 
# From -- ./inp_files/34092.got.cif
#   From: 2010.03.12/outbox.cif.g09.slc.cpg/sg47_18_cif.got.tgz:34092.got - 2010.04.14 03:12:58.
