data_PCOD8199527
_publ_section_title
;
Structure prediction by ZEFSAII (Michael W. Deem and Ramdas Pophale) SiO2 
 PCOD8199527
Probable space group: P M M M
;
_chemical_formula_sum "Si O2"
_cell_formula_units_Z 52
_cell_length_a 8.942237
_cell_length_b 28.511136
_cell_length_c 11.785724
_cell_angle_alpha 90.000000
_cell_angle_beta 90.000000
_cell_angle_gamma 90.000000
_cell_volume 3004.809642
_symmetry_space_group_name_H-M "P M M M"
_symmetry_group_IT_number 47
_symmetry_cell_setting 'orthorhombic'
loop_
_space_group_symop_operation_xyz
x,y,z
-x,-y,z
x,-y,-z
-x,y,-z
-x,-y,-z
x,y,-z
-x,y,z
x,-y,z
loop_
_atom_site_type_symbol
_atom_site_label
_atom_site_fract_x
_atom_site_fract_y
_atom_site_fract_z
Si Si1 0.177452 0.280383 0.271024
Si Si2 0.670270 0.447136 0.713806
Si Si3 0.327073 0.361236 0.131149
Si Si4 0.834198 0.090486 0.135122
Si Si5 0.322089 0.307360 0.500000
Si Si6 0.178143 0.807359 0.873768
Si Si7 0.824505 0.408219 0.500000
Si Si8 0.666491 0.000000 0.864547
O O1 0.222517 0.324678 0.195517
O O2 0.259938 0.280697 0.390757
O O3 0.233986 0.233047 0.210103
O O4 0.000000 0.281300 0.289062
O O5 0.500000 0.440099 0.670479
O O6 0.695854 0.500000 0.757915
O O7 0.704292 0.412687 0.818353
O O8 0.782684 0.437765 0.610721
O O9 0.500000 0.346780 0.147665
O O10 0.281141 0.362146 0.000000
O O11 0.764929 0.141375 0.169415
O O12 0.000000 0.085199 0.185699
O O13 0.740441 0.047218 0.185258
O O14 0.839497 0.088003 0.000000
O O15 0.500000 0.306469 0.500000
O O16 0.267980 0.360532 0.500000
O O17 0.000000 0.808871 0.879234
O O18 0.241105 0.796564 0.000000
O O19 0.000000 0.396862 0.500000
O O20 0.500000 0.000000 0.818648
O O21 0.675302 0.000000 0.000000
#
# Coordination Sequence:
#
# PCOD8199527 Si02
#       8
#     8   8   8   8   4   8   4   4
#     4  11  21  35  56  80 102 129 166 209 256 300
#     4  10  21  37  57  79 106 140 171 202 244 295
#     4  10  21  36  54  77 106 140 173 202 238 292
#     4   8  13  23  39  58  84 124 168 201 234 283
#     4  12  24  39  57  76 102 132 163 204 251 306
#     4   8  15  28  47  72 101 131 164 203 245 291
#     4  12  23  37  58  83 104 128 163 209 257 300
#     4   9  15  21  31  53  87 124 163 208 249 279
#
# _framework density 17.305589999999999
#
# number of rings (size 3 to 8) (size 9 to 14) (size 15 to 20)
#    0.000    2.231    1.538    3.692    0.000    3.385 
#    0.000    3.077    0.000    3.692    0.000    2.154 
#    0.000    0.615    0.000    7.077    0.000    4.615 
#
# Total GULP energy -644693.952349 kJ/mol
# GULP energy per Si atom -12397.960622 kJ/mol
# Density = 1.726620 g / cm^3
# Si number density = 17.305590 Si / 1000 Ang^3
#
#
#
# Elastic Constant Matrix: (Units=GPa)
#
#
# Indices 1 2 3 4 5 6 
#
# 1 86.5355 52.8846 40.0783 0.0000 0.0000 0.0000
# 2 52.8846 165.3502 57.8268 0.0000 0.0000 0.0000
# 3 40.0783 57.8268 98.1227 0.0000 0.0000 0.0000
# 4 0.0000 0.0000 0.0000 10.5232 0.0000 0.0000
# 5 0.0000 0.0000 0.0000 0.0000 17.7659 0.0000
# 6 0.0000 0.0000 0.0000 0.0000 0.0000 11.3820
#
#
#
# Elastic Compliance Matrix: (Units=1/GPa)
#
#
# Indices 1 2 3 4 5 6 
#
# 1 0.015713 -0.003503 -0.004354 0.000000 0.000000 0.000000
# 2 -0.003503 0.008399 -0.003519 0.000000 0.000000 0.000000
# 3 -0.004354 -0.003519 0.014043 0.000000 0.000000 0.000000
# 4 0.000000 0.000000 0.000000 0.095028 0.000000 0.000000
# 5 0.000000 0.000000 0.000000 0.000000 0.056288 0.000000
# 6 0.000000 0.000000 0.000000 0.000000 0.000000 0.087858
#
#
# Mechanical properties :
#
#
# Convention : Reuss Voigt Hill
#
# Bulk Modulus (GPa) = 64.91709 72.39864 68.65787
# Shear Modulus (GPa) = 16.38190 21.21546 18.79868
#
# Velocity S-wave (km/s) = 3.08006 3.50513 3.29945
# Velocity P-wave (km/s) = 7.08821 7.63593 7.36716
#
# Compressibility (1/GPa) = 0.01540426
#
# Stress axis : x y z
#
# Youngs Moduli (GPa) = 63.64118 119.06487 71.20828
#
# Poissons Ratio (x) = 0.41709 0.31001
# Poissons Ratio (y) = 0.22294 0.25057
# Poissons Ratio (z) = 0.27707 0.41897
#
# Static dielectric constant tensor:
#      x y z
#    x 3.160600 0.000000 0.000000 
#    y 0.000000 3.545530 0.000000 
#    z 0.000000 0.000000 3.064850 
# 
# 
# High freq. dielectric constant tensor:
#      x y z
#    x 1.657300 0.000000 0.000000 
#    y 0.000000 1.680700 0.000000 
#    z 0.000000 0.000000 1.631270 
# 
# From -- ./inp_files/15597.got.cif
#   From: 2010.03.12/outbox.cif.g09.slc.cpg/sg47_8_cif.got.tgz:15597.got - 2010.04.14 03:12:58.
