data_PCOD8199347
_publ_section_title
;
Structure prediction by ZEFSAII (Michael W. Deem and Ramdas Pophale) SiO2 
 PCOD8199347
Probable space group: P M M M
;
_chemical_formula_sum "Si O2"
_cell_formula_units_Z 44
_cell_length_a 9.416345
_cell_length_b 7.688345
_cell_length_c 31.405607
_cell_angle_alpha 90.000000
_cell_angle_beta 90.000000
_cell_angle_gamma 90.000000
_cell_volume 2273.643748
_symmetry_space_group_name_H-M "P M M M"
_symmetry_group_IT_number 47
_symmetry_cell_setting 'orthorhombic'
loop_
_space_group_symop_operation_xyz
x,y,z
-x,-y,z
x,-y,-z
-x,y,-z
-x,-y,-z
x,y,-z
-x,y,z
x,-y,z
loop_
_atom_site_type_symbol
_atom_site_label
_atom_site_fract_x
_atom_site_fract_y
_atom_site_fract_z
Si Si1 0.334815 0.000000 0.269343
Si Si2 0.155676 0.699516 0.874368
Si Si3 0.335255 0.701326 0.204569
Si Si4 0.666122 0.796284 0.500000
Si Si5 0.658867 0.794694 0.952255
Si Si6 0.834164 0.000000 0.356010
Si Si7 0.838006 0.695663 0.418652
O O1 0.293782 0.824622 0.243889
O O2 0.500000 0.000000 0.280731
O O3 0.248268 0.000000 0.312325
O O4 0.134976 0.500000 0.863712
O O5 0.250912 0.776659 0.836310
O O6 0.229629 0.714815 0.919907
O O7 0.000000 0.790557 0.875537
O O8 0.500000 0.721356 0.192972
O O9 0.298700 0.500000 0.215857
O O10 0.500000 0.752555 0.500000
O O11 0.735952 0.711458 0.458824
O O12 0.696524 0.000000 0.500000
O O13 0.500000 0.727017 0.941696
O O14 0.662936 0.000000 0.948384
O O15 0.701406 0.736267 0.000000
O O16 0.788853 0.828744 0.382207
O O17 0.000000 0.000000 0.345647
O O18 0.825929 0.500000 0.400364
O O19 0.000000 0.737537 0.432713
#
# Coordination Sequence:
#
# PCOD8199347 Si02
#       7
#     4   8   8   4   8   4   8
#     4  10  22  38  59  85 109 141 185 228 278 338
#     4  10  21  35  52  78 109 138 171 216 269 321
#     4   9  19  37  58  80 108 141 179 225 274 327
#     4  11  22  35  56  87 121 154 193 242 289 331
#     4   9  19  35  53  74 102 138 179 218 257 310
#     4  10  22  39  57  82 115 147 185 234 282 335
#     4  10  21  38  60  84 113 155 200 236 278 334
#
# _framework density 19.352197
#
# number of rings (size 3 to 8) (size 9 to 14) (size 15 to 20)
#    0.000    2.273    0.909    1.636    1.273    6.182 
#    0.000    2.727    0.000    0.000    0.000    0.000 
#    0.000    0.000    0.000    0.000    0.000    0.000 
#
# Total GULP energy -545564.406656 kJ/mol
# GULP energy per Si atom -12399.191060 kJ/mol
# Density = 1.930815 g / cm^3
# Si number density = 19.352197 Si / 1000 Ang^3
#
#
#
# Elastic Constant Matrix: (Units=GPa)
#
#
# Indices 1 2 3 4 5 6 
#
# 1 105.3305 40.9034 84.4676 0.0000 0.0000 0.0000
# 2 40.9034 95.8959 56.2115 0.0000 0.0000 0.0000
# 3 84.4676 56.2115 162.0509 0.0000 0.0000 0.0000
# 4 0.0000 0.0000 0.0000 -4.6099 0.0000 0.0000
# 5 0.0000 0.0000 0.0000 0.0000 48.9036 0.0000
# 6 0.0000 0.0000 0.0000 0.0000 0.0000 18.8996
#
#
#
# Elastic Compliance Matrix: (Units=1/GPa)
#
#
# Indices 1 2 3 4 5 6 
#
# 1 0.016795 -0.002551 -0.007870 0.000000 0.000000 0.000000
# 2 -0.002551 0.013477 -0.003345 0.000000 0.000000 0.000000
# 3 -0.007870 -0.003345 0.011433 0.000000 0.000000 0.000000
# 4 0.000000 0.000000 0.000000 -0.216926 0.000000 0.000000
# 5 0.000000 0.000000 0.000000 0.000000 0.020448 0.000000
# 6 0.000000 0.000000 0.000000 0.000000 0.000000 0.052911
#
#
# Mechanical properties :
#
#
# Convention : Reuss Voigt Hill
#
# Bulk Modulus (GPa) = 70.55117 80.71579 75.63348
# Shear Modulus (GPa) = -71.83408 24.75167 -23.54120
#
# Velocity S-wave (km/s) = -6.09917 3.58021 -3.49156
# Velocity P-wave (km/s) = 3.61446 7.67398 4.78673
#
# Compressibility (1/GPa) = 0.01417411
#
# Stress axis : x y z
#
# Youngs Moduli (GPa) = 59.54006 74.20109 87.46458
#
# Poissons Ratio (x) = 0.18929 0.68831
# Poissons Ratio (y) = 0.15189 0.29258
# Poissons Ratio (z) = 0.46856 0.24821
#
# Static dielectric constant tensor:
#      x y z
#    x 3.788190 0.000000 0.000000 
#    y 0.000000 3.673240 0.000000 
#    z 0.000000 0.000000 3.459730 
# 
# 
# High freq. dielectric constant tensor:
#      x y z
#    x 1.751830 0.000000 0.000000 
#    y 0.000000 1.759060 0.000000 
#    z 0.000000 0.000000 1.743880 
# 
# From -- ./inp_files/33999.got.cif
#   From: 2010.03.12/outbox.cif.g09.slc.cpg/sg47_17_cif.got.tgz:33999.got - 2010.04.14 03:12:58.
