data_PCOD8199830
_publ_section_title
;
Structure prediction by ZEFSAII (Michael W. Deem and Ramdas Pophale) SiO2 
 PCOD8199830
Probable space group: P M M M
;
_chemical_formula_sum "Si O2"
_cell_formula_units_Z 48
_cell_length_a 9.126107
_cell_length_b 9.280243
_cell_length_c 30.949867
_cell_angle_alpha 90.000000
_cell_angle_beta 90.000000
_cell_angle_gamma 90.000000
_cell_volume 2621.221320
_symmetry_space_group_name_H-M "P M M M"
_symmetry_group_IT_number 47
_symmetry_cell_setting 'orthorhombic'
loop_
_space_group_symop_operation_xyz
x,y,z
-x,-y,z
x,-y,-z
-x,y,-z
-x,-y,-z
x,y,-z
-x,y,z
x,-y,z
loop_
_atom_site_type_symbol
_atom_site_label
_atom_site_fract_x
_atom_site_fract_y
_atom_site_fract_z
Si Si1 0.671414 0.167554 0.576302
Si Si2 0.334688 0.328551 0.168157
Si Si3 0.174348 0.162780 0.000000
Si Si4 0.832261 0.167281 0.336732
Si Si5 0.830069 0.332210 0.252252
Si Si6 0.171710 0.666989 0.916707
Si Si7 0.829015 0.330248 0.500000
O O1 0.500000 0.201928 0.573831
O O2 0.730436 0.211153 0.623304
O O3 0.755787 0.263730 0.542115
O O4 0.703209 0.000000 0.566452
O O5 0.500000 0.270713 0.167218
O O6 0.327473 0.500000 0.168605
O O7 0.256876 0.268833 0.211215
O O8 0.251697 0.271482 0.125719
O O9 0.232650 0.244355 0.042460
O O10 0.000000 0.166293 0.000000
O O11 0.234599 0.000000 0.000000
O O12 0.774104 0.253027 0.295197
O O13 0.000000 0.209140 0.347778
O O14 0.818038 0.000000 0.325865
O O15 0.798370 0.500000 0.258755
O O16 0.000000 0.300643 0.243850
O O17 0.208569 0.500000 0.924984
O O18 0.000000 0.690484 0.909699
O O19 0.801560 0.500000 0.500000
O O20 0.000000 0.291677 0.500000
#
# Coordination Sequence:
#
# PCOD8199830 Si02
#       7
#     8   8   4   8   8   8   4
#     4  10  21  37  57  80 106 138 175 212 253 304
#     4   9  17  29  46  69  95 122 155 195 237 282
#     4   9  17  29  46  69  94 118 148 189 234 278
#     4   9  18  33  52  74 101 133 168 205 245 291
#     4   9  17  30  49  72  97 126 161 201 243 286
#     4   9  16  28  48  70  90 116 153 193 230 273
#     4  11  24  39  56  80 108 137 172 215 260 304
#
# _framework density 18.312073000000002
#
# number of rings (size 3 to 8) (size 9 to 14) (size 15 to 20)
#    0.000    2.667    0.000    1.750    0.000    7.000 
#    0.000    2.917    0.000    8.000    0.000    0.000 
#    0.000    0.000    0.000    0.000    0.000    0.000 
#
# Total GULP energy -595275.214412 kJ/mol
# GULP energy per Si atom -12401.566967 kJ/mol
# Density = 1.827039 g / cm^3
# Si number density = 18.312073 Si / 1000 Ang^3
#
#
#
# Elastic Constant Matrix: (Units=GPa)
#
#
# Indices 1 2 3 4 5 6 
#
# 1 95.7879 46.6000 85.6270 0.0000 0.0000 0.0000
# 2 46.6000 64.4295 74.5347 0.0000 0.0000 0.0000
# 3 85.6270 74.5347 195.2522 0.0000 0.0000 0.0000
# 4 0.0000 0.0000 0.0000 5.4667 0.0000 0.0000
# 5 0.0000 0.0000 0.0000 0.0000 2.3473 0.0000
# 6 0.0000 0.0000 0.0000 0.0000 0.0000 16.8267
#
#
#
# Elastic Compliance Matrix: (Units=1/GPa)
#
#
# Indices 1 2 3 4 5 6 
#
# 1 0.018919 -0.007317 -0.005504 0.000000 0.000000 0.000000
# 2 -0.007317 0.030625 -0.008482 0.000000 0.000000 0.000000
# 3 -0.005504 -0.008482 0.010773 0.000000 0.000000 0.000000
# 4 0.000000 0.000000 0.000000 0.182926 0.000000 0.000000
# 5 0.000000 0.000000 0.000000 0.000000 0.426019 0.000000
# 6 0.000000 0.000000 0.000000 0.000000 0.000000 0.059429
#
#
# Mechanical properties :
#
#
# Convention : Reuss Voigt Hill
#
# Bulk Modulus (GPa) = 56.45751 85.44367 70.95059
# Shear Modulus (GPa) = 6.43334 14.84199 10.63766
#
# Velocity S-wave (km/s) = 1.87638 2.85002 2.41282
# Velocity P-wave (km/s) = 5.96591 7.58889 6.82581
#
# Compressibility (1/GPa) = 0.01771243
#
# Stress axis : x y z
#
# Youngs Moduli (GPa) = 52.85596 32.65302 92.82278
#
# Poissons Ratio (x) = 0.23891 0.51090
# Poissons Ratio (y) = 0.38672 0.78732
# Poissons Ratio (z) = 0.29092 0.27696
#
# Static dielectric constant tensor:
#      x y z
#    x 3.322410 0.000000 0.000000 
#    y 0.000000 3.186240 0.000000 
#    z 0.000000 0.000000 3.608250 
# 
# 
# High freq. dielectric constant tensor:
#      x y z
#    x 1.700260 0.000000 0.000000 
#    y 0.000000 1.684610 0.000000 
#    z 0.000000 0.000000 1.726130 
# 
# From -- ./inp_files/13896.got.cif
#   From: 2010.03.12/outbox.cif.g09.slc.cpg/sg47_7_cif.got.tgz:13896.got - 2010.04.14 03:12:58.
