data_PCOD8199605
_publ_section_title
;
Structure prediction by ZEFSAII (Michael W. Deem and Ramdas Pophale) SiO2 
 PCOD8199605
Probable space group: P M M M
;
_chemical_formula_sum "Si O2"
_cell_formula_units_Z 52
_cell_length_a 9.281441
_cell_length_b 14.401822
_cell_length_c 20.265378
_cell_angle_alpha 90.000000
_cell_angle_beta 90.000000
_cell_angle_gamma 90.000000
_cell_volume 2708.866211
_symmetry_space_group_name_H-M "P M M M"
_symmetry_group_IT_number 47
_symmetry_cell_setting 'orthorhombic'
loop_
_space_group_symop_operation_xyz
x,y,z
-x,-y,z
x,-y,-z
-x,y,-z
-x,-y,-z
x,y,-z
-x,y,z
x,-y,z
loop_
_atom_site_type_symbol
_atom_site_label
_atom_site_fract_x
_atom_site_fract_y
_atom_site_fract_z
Si Si1 0.161960 0.610152 0.500000
Si Si2 0.833322 0.778953 0.922389
Si Si3 0.331726 0.892597 0.821972
Si Si4 0.661531 0.602290 0.921627
Si Si5 0.328619 0.105035 0.572146
Si Si6 0.668387 0.215043 0.695683
Si Si7 0.332526 0.395443 0.371770
O O1 0.159307 0.500000 0.500000
O O2 0.245418 0.643009 0.565378
O O3 0.000000 0.650826 0.500000
O O4 0.753847 0.864877 0.887808
O O5 0.768171 0.681705 0.895220
O O6 0.000000 0.780216 0.903858
O O7 0.807462 0.790258 0.000000
O O8 0.500000 0.874108 0.834503
O O9 0.267586 0.829260 0.762418
O O10 0.302584 0.000000 0.805289
O O11 0.500000 0.623513 0.895662
O O12 0.711271 0.500000 0.896329
O O13 0.662031 0.602181 0.000000
O O14 0.272797 0.139726 0.500000
O O15 0.500000 0.110601 0.572910
O O16 0.262363 0.167178 0.630773
O O17 0.277319 0.000000 0.584168
O O18 0.500000 0.192446 0.696998
O O19 0.698177 0.326008 0.689835
O O20 0.500000 0.392097 0.391648
O O21 0.286546 0.500000 0.351050
#
# Coordination Sequence:
#
# PCOD8199605 Si02
#       7
#     4   8   8   8   8   8   8
#     4   9  17  29  45  67  98 135 172 210 251 293
#     4  10  21  36  55  80 109 141 179 222 266 320
#     4  10  21  37  56  77 102 134 175 225 280 335
#     4   8  14  27  50  80 112 143 173 207 250 301
#     4   8  13  21  36  62  94 124 156 197 244 290
#     4   9  17  29  47  70  99 132 166 206 256 313
#     4   9  17  29  47  72 101 132 167 207 251 304
#
# _framework density 19.196223
#
# number of rings (size 3 to 8) (size 9 to 14) (size 15 to 20)
#    0.000    3.000    0.000    2.077    1.077    4.615 
#    0.000    4.615    0.000    2.769    0.000    0.000 
#    0.000    1.231    0.000    0.000    0.000    0.000 
#
# Total GULP energy -644480.879351 kJ/mol
# GULP energy per Si atom -12393.863064 kJ/mol
# Density = 1.915253 g / cm^3
# Si number density = 19.196223 Si / 1000 Ang^3
#
#
#
# Elastic Constant Matrix: (Units=GPa)
#
#
# Indices 1 2 3 4 5 6 
#
# 1 66.1066 43.1000 38.3850 0.0000 0.0000 0.0000
# 2 43.1000 113.2557 56.3217 0.0000 0.0000 0.0000
# 3 38.3850 56.3217 75.7479 0.0000 0.0000 0.0000
# 4 0.0000 0.0000 0.0000 33.4712 0.0000 0.0000
# 5 0.0000 0.0000 0.0000 0.0000 11.3889 0.0000
# 6 0.0000 0.0000 0.0000 0.0000 0.0000 12.9476
#
#
#
# Elastic Compliance Matrix: (Units=1/GPa)
#
#
# Indices 1 2 3 4 5 6 
#
# 1 0.022891 -0.004669 -0.008128 0.000000 0.000000 0.000000
# 2 -0.004669 0.014962 -0.008759 0.000000 0.000000 0.000000
# 3 -0.008128 -0.008759 0.023833 0.000000 0.000000 0.000000
# 4 0.000000 0.000000 0.000000 0.029876 0.000000 0.000000
# 5 0.000000 0.000000 0.000000 0.000000 0.087805 0.000000
# 6 0.000000 0.000000 0.000000 0.000000 0.000000 0.077234
#
#
# Mechanical properties :
#
#
# Convention : Reuss Voigt Hill
#
# Bulk Modulus (GPa) = 53.83921 58.96930 56.40426
# Shear Modulus (GPa) = 16.34490 19.38178 17.86334
#
# Velocity S-wave (km/s) = 2.92115 3.18097 3.05383
# Velocity P-wave (km/s) = 6.28372 6.65412 6.47157
#
# Compressibility (1/GPa) = 0.01857382
#
# Stress axis : x y z
#
# Youngs Moduli (GPa) = 43.68553 66.83486 41.95812
#
# Poissons Ratio (x) = 0.31206 0.34104
# Poissons Ratio (y) = 0.20397 0.36751
# Poissons Ratio (z) = 0.35508 0.58541
#
# Static dielectric constant tensor:
#      x y z
#    x 3.178320 0.000000 0.000000 
#    y 0.000000 3.688340 0.000000 
#    z 0.000000 0.000000 3.451510 
# 
# 
# High freq. dielectric constant tensor:
#      x y z
#    x 1.698290 0.000000 0.000000 
#    y 0.000000 1.756200 0.000000 
#    z 0.000000 0.000000 1.727400 
# 
# From -- ./inp_files/29580.got.cif
#   From: 2010.03.12/outbox.cif.g09.slc.cpg/sg47_15_cif.got.tgz:29580.got - 2010.04.14 03:12:58.
