data_PCOD8199120
_publ_section_title
;
Structure prediction by ZEFSAII (Michael W. Deem and Ramdas Pophale) SiO2 
 PCOD8199120
Probable space group: P M M M
;
_chemical_formula_sum "Si O2"
_cell_formula_units_Z 48
_cell_length_a 7.771507
_cell_length_b 34.281505
_cell_length_c 8.955940
_cell_angle_alpha 90.000000
_cell_angle_beta 90.000000
_cell_angle_gamma 90.000000
_cell_volume 2386.032185
_symmetry_space_group_name_H-M "P M M M"
_symmetry_group_IT_number 47
_symmetry_cell_setting 'orthorhombic'
loop_
_space_group_symop_operation_xyz
x,y,z
-x,-y,z
x,-y,-z
-x,y,-z
-x,-y,-z
x,y,-z
-x,y,z
x,-y,z
loop_
_atom_site_type_symbol
_atom_site_label
_atom_site_fract_x
_atom_site_fract_y
_atom_site_fract_z
Si Si1 0.198479 0.116633 0.164983
Si Si2 0.701919 0.199065 0.167127
Si Si3 0.000000 0.409682 0.676448
Si Si4 0.301377 0.041754 0.662054
Si Si5 0.696096 0.545863 0.828735
Si Si6 0.000000 0.673759 0.821962
Si Si7 0.700975 0.277402 0.675841
O O1 0.237118 0.158301 0.243668
O O2 0.281058 0.079214 0.237331
O O3 0.000000 0.108031 0.161670
O O4 0.278473 0.120095 0.000000
O O5 0.500000 0.198729 0.155087
O O6 0.761090 0.234422 0.272270
O O7 0.782557 0.204129 0.000000
O O8 0.172461 0.433169 0.717719
O O9 0.000000 0.401116 0.500000
O O10 0.000000 0.370558 0.771283
O O11 0.214020 0.049295 0.500000
O O12 0.500000 0.035918 0.637810
O O13 0.229026 0.000000 0.728096
O O14 0.500000 0.558502 0.790177
O O15 0.717633 0.500000 0.805582
O O16 0.738964 0.557045 0.000000
O O17 0.175933 0.692343 0.759279
O O18 0.000000 0.677095 0.000000
O O19 0.730389 0.281007 0.500000
O O20 0.500000 0.285501 0.717167
#
# Coordination Sequence:
#
# PCOD8199120 Si02
#       7
#     8   8   4   8   8   4   8
#     4  10  21  34  50  78 112 141 173 214 262 317
#     4   9  18  34  56  81 109 143 183 224 270 330
#     4  12  25  39  58  89 128 166 206 257 317 372
#     4   9  19  36  55  73  96 131 176 222 267 319
#     4   9  19  38  64  92 124 166 215 263 310 365
#     4  12  26  43  65  88 118 163 211 255 300 362
#     4  10  22  41  64  91 122 153 191 245 306 363
#
# _framework density 20.117079
#
# number of rings (size 3 to 8) (size 9 to 14) (size 15 to 20)
#    0.000    2.167    0.000    3.750    1.167    6.000 
#    0.000    5.000    0.000    0.000    0.000    0.000 
#    0.000    0.000    0.000    0.000    0.000    0.000 
#
# Total GULP energy -594828.371106 kJ/mol
# GULP energy per Si atom -12392.257731 kJ/mol
# Density = 2.007129 g / cm^3
# Si number density = 20.117079 Si / 1000 Ang^3
#
#
#
# Elastic Constant Matrix: (Units=GPa)
#
#
# Indices 1 2 3 4 5 6 
#
# 1 81.9964 50.2436 43.2440 0.0000 0.0000 0.0000
# 2 50.2436 113.7611 44.1982 0.0000 0.0000 0.0000
# 3 43.2440 44.1982 95.5858 0.0000 0.0000 0.0000
# 4 0.0000 0.0000 0.0000 70.9096 0.0000 0.0000
# 5 0.0000 0.0000 0.0000 0.0000 34.3681 0.0000
# 6 0.0000 0.0000 0.0000 0.0000 0.0000 11.6896
#
#
#
# Elastic Compliance Matrix: (Units=1/GPa)
#
#
# Indices 1 2 3 4 5 6 
#
# 1 0.019001 -0.006159 -0.005749 0.000000 0.000000 0.000000
# 2 -0.006159 0.012711 -0.003091 0.000000 0.000000 0.000000
# 3 -0.005749 -0.003091 0.014492 0.000000 0.000000 0.000000
# 4 0.000000 0.000000 0.000000 0.014102 0.000000 0.000000
# 5 0.000000 0.000000 0.000000 0.000000 0.029097 0.000000
# 6 0.000000 0.000000 0.000000 0.000000 0.000000 0.085546
#
#
# Mechanical properties :
#
#
# Convention : Reuss Voigt Hill
#
# Bulk Modulus (GPa) = 61.70087 62.96832 62.33460
# Shear Modulus (GPa) = 23.76997 33.63731 28.70364
#
# Velocity S-wave (km/s) = 3.44114 4.09354 3.78144
# Velocity P-wave (km/s) = 6.82100 7.32882 7.07947
#
# Compressibility (1/GPa) = 0.01620723
#
# Stress axis : x y z
#
# Youngs Moduli (GPa) = 52.62846 78.66933 69.00354
#
# Poissons Ratio (x) = 0.48449 0.39668
# Poissons Ratio (y) = 0.32412 0.21332
# Poissons Ratio (z) = 0.30254 0.24320
#
# Static dielectric constant tensor:
#      x y z
#    x 3.667160 0.000000 0.000000 
#    y 0.000000 -0.218300 0.000000 
#    z 0.000000 0.000000 3.077170 
# 
# 
# High freq. dielectric constant tensor:
#      x y z
#    x 1.788300 0.000000 0.000000 
#    y 0.000000 1.795470 0.000000 
#    z 0.000000 0.000000 1.771150 
# 
# From -- ./inp_files/2621.got.cif
#   From: 2010.03.12/outbox.cif.g09.slc.cpg/sg47_2_cif.got.tgz:2621.got - 2010.04.14 03:12:58.
