data_PCOD8199134
_publ_section_title
;
Structure prediction by ZEFSAII (Michael W. Deem and Ramdas Pophale) SiO2 
 PCOD8199134
Probable space group: P M M M
;
_chemical_formula_sum "Si O2"
_cell_formula_units_Z 44
_cell_length_a 15.066719
_cell_length_b 9.229472
_cell_length_c 16.996696
_cell_angle_alpha 90.000000
_cell_angle_beta 90.000000
_cell_angle_gamma 90.000000
_cell_volume 2363.524192
_symmetry_space_group_name_H-M "P M M M"
_symmetry_group_IT_number 47
_symmetry_cell_setting 'orthorhombic'
loop_
_space_group_symop_operation_xyz
x,y,z
-x,-y,z
x,-y,-z
-x,y,-z
-x,-y,-z
x,y,-z
-x,y,z
x,-y,z
loop_
_atom_site_type_symbol
_atom_site_label
_atom_site_fract_x
_atom_site_fract_y
_atom_site_fract_z
Si Si1 0.500000 0.661513 0.907352
Si Si2 0.601665 0.667846 0.652530
Si Si3 0.324995 0.830384 0.909183
Si Si4 0.105365 0.837055 0.500000
Si Si5 0.248426 0.332192 0.224401
Si Si6 0.101730 0.668184 0.347936
Si Si7 0.394806 0.162290 0.500000
O O1 0.500000 0.500000 0.868344
O O2 0.413943 0.749647 0.880862
O O3 0.500000 0.644880 0.000000
O O4 0.500000 0.709061 0.674352
O O5 0.609428 0.500000 0.629796
O O6 0.663879 0.706538 0.725752
O O7 0.638463 0.756405 0.577938
O O8 0.247145 0.765612 0.854486
O O9 0.337449 0.000000 0.894728
O O10 0.301848 0.797894 0.000000
O O11 0.139889 0.756475 0.422129
O O12 0.000000 0.833179 0.500000
O O13 0.142629 0.000000 0.500000
O O14 0.248048 0.500000 0.199703
O O15 0.159947 0.291486 0.272196
O O16 0.111613 0.500000 0.369539
O O17 0.000000 0.709053 0.328690
O O18 0.500000 0.161935 0.500000
O O19 0.355827 0.000000 0.500000
#
# Coordination Sequence:
#
# PCOD8199134 Si02
#       7
#     4   8   8   4   8   8   4
#     4   9  17  31  53  77 101 134 173 210 249 299
#     4   9  18  32  48  67  95 129 164 205 248 294
#     4  10  21  36  53  76 107 139 171 211 264 319
#     4   9  17  30  51  78 105 135 172 213 262 321
#     4  10  21  34  52  78 101 131 175 216 260 315
#     4   9  18  34  54  76 105 138 173 218 269 316
#     4   9  17  30  47  66  91 129 172 205 239 288
#
# _framework density 18.616268000000002
#
# number of rings (size 3 to 8) (size 9 to 14) (size 15 to 20)
#    0.000    2.636    0.000    1.364    1.273    6.545 
#    0.000    3.636    0.000    0.545    0.000    3.818 
#    0.000    0.000    0.000    0.000    0.000    0.000 
#
# Total GULP energy -545609.326265 kJ/mol
# GULP energy per Si atom -12400.211961 kJ/mol
# Density = 1.857390 g / cm^3
# Si number density = 18.616268 Si / 1000 Ang^3
#
#
#
# Elastic Constant Matrix: (Units=GPa)
#
#
# Indices 1 2 3 4 5 6 
#
# 1 76.3262 38.9123 50.8743 0.0000 0.0000 0.0000
# 2 38.9123 107.7940 73.5165 0.0000 0.0000 0.0000
# 3 50.8743 73.5165 120.4325 0.0000 0.0000 0.0000
# 4 0.0000 0.0000 0.0000 31.6387 0.0000 0.0000
# 5 0.0000 0.0000 0.0000 0.0000 18.0962 0.0000
# 6 0.0000 0.0000 0.0000 0.0000 0.0000 14.9918
#
#
#
# Elastic Compliance Matrix: (Units=1/GPa)
#
#
# Indices 1 2 3 4 5 6 
#
# 1 0.018569 -0.002319 -0.006428 0.000000 0.000000 0.000000
# 2 -0.002319 0.016184 -0.008900 0.000000 0.000000 0.000000
# 3 -0.006428 -0.008900 0.016452 0.000000 0.000000 0.000000
# 4 0.000000 0.000000 0.000000 0.031607 0.000000 0.000000
# 5 0.000000 0.000000 0.000000 0.000000 0.055260 0.000000
# 6 0.000000 0.000000 0.000000 0.000000 0.000000 0.066703
#
#
# Mechanical properties :
#
#
# Convention : Reuss Voigt Hill
#
# Bulk Modulus (GPa) = 62.85267 70.12878 66.49072
# Shear Modulus (GPa) = 20.37729 22.36196 21.36963
#
# Velocity S-wave (km/s) = 3.31206 3.46960 3.39174
# Velocity P-wave (km/s) = 6.96145 7.33507 7.15070
#
# Compressibility (1/GPa) = 0.01591022
#
# Stress axis : x y z
#
# Youngs Moduli (GPa) = 53.85423 61.79102 60.78432
#
# Poissons Ratio (x) = 0.14328 0.39075
# Poissons Ratio (y) = 0.12488 0.54095
# Poissons Ratio (z) = 0.34620 0.54991
#
# Static dielectric constant tensor:
#      x y z
#    x 3.296490 0.000000 0.000000 
#    y 0.000000 3.494390 0.000000 
#    z 0.000000 0.000000 3.378590 
# 
# 
# High freq. dielectric constant tensor:
#      x y z
#    x 1.699290 0.000000 0.000000 
#    y 0.000000 1.723660 0.000000 
#    z 0.000000 0.000000 1.717320 
# 
# From -- ./inp_files/27945.got.cif
#   From: 2010.03.12/outbox.cif.g09.slc.cpg/sg47_14_cif.got.tgz:27945.got - 2010.04.14 03:12:58.
