data_PCOD8199100
_publ_section_title
;
Structure prediction by ZEFSAII (Michael W. Deem and Ramdas Pophale) SiO2 
 PCOD8199100
Probable space group: P M M M
;
_chemical_formula_sum "Si O2"
_cell_formula_units_Z 48
_cell_length_a 34.136241
_cell_length_b 7.782088
_cell_length_c 9.467324
_cell_angle_alpha 90.000000
_cell_angle_beta 90.000000
_cell_angle_gamma 90.000000
_cell_volume 2515.006279
_symmetry_space_group_name_H-M "P M M M"
_symmetry_group_IT_number 47
_symmetry_cell_setting 'orthorhombic'
loop_
_space_group_symop_operation_xyz
x,y,z
-x,-y,z
x,-y,-z
-x,y,-z
-x,-y,-z
x,y,-z
-x,y,z
x,-y,z
loop_
_atom_site_type_symbol
_atom_site_label
_atom_site_fract_x
_atom_site_fract_y
_atom_site_fract_z
Si Si1 0.546142 0.196293 0.661666
Si Si2 0.114617 0.695550 0.654883
Si Si3 0.956485 0.798280 0.159727
Si Si4 0.414351 0.500000 0.830418
Si Si5 0.803023 0.196909 0.656506
Si Si6 0.269521 0.801386 0.834133
Si Si7 0.325320 0.500000 0.833331
O O1 0.558125 0.238849 0.500000
O O2 0.500000 0.218394 0.679843
O O3 0.566505 0.327280 0.768950
O O4 0.558450 0.000000 0.698995
O O5 0.105989 0.776993 0.500000
O O6 0.126082 0.500000 0.638979
O O7 0.076088 0.708402 0.747897
O O8 0.153259 0.783273 0.722691
O O9 0.000000 0.748982 0.215248
O O10 0.950212 0.000000 0.167937
O O11 0.951768 0.733028 0.000000
O O12 0.369541 0.500000 0.777836
O O13 0.418818 0.500000 0.000000
O O14 0.801620 0.284411 0.500000
O O15 0.769881 0.271412 0.759826
O O16 0.792904 0.000000 0.640019
O O17 0.304166 0.675412 0.780923
O O18 0.279878 0.000000 0.795142
O O19 0.262186 0.783670 0.000000
O O20 0.325381 0.500000 0.000000
#
# Coordination Sequence:
#
# PCOD8199100 Si02
#       7
#     8   8   8   4   8   8   4
#     4   9  19  37  59  81 110 152 197 239 286 341
#     4  10  21  34  49  74 105 133 161 195 242 302
#     4   9  19  36  55  73  95 126 165 206 244 286
#     4  11  22  34  53  84 118 150 188 237 291 342
#     4   9  18  33  52  74 100 127 158 203 255 300
#     4   9  18  34  55  75  97 132 177 218 257 311
#     4   9  20  36  52  75 108 144 179 217 268 328
#
# _framework density 19.085440999999999
#
# number of rings (size 3 to 8) (size 9 to 14) (size 15 to 20)
#    0.000    2.667    0.000    2.000    1.167    5.000 
#    0.000    8.333    0.000    2.000    0.000    0.000 
#    0.000    0.000    0.000    0.000    0.000    0.000 
#
# Total GULP energy -594876.754411 kJ/mol
# GULP energy per Si atom -12393.265717 kJ/mol
# Density = 1.904200 g / cm^3
# Si number density = 19.085441 Si / 1000 Ang^3
#
#
#
# Elastic Constant Matrix: (Units=GPa)
#
#
# Indices 1 2 3 4 5 6 
#
# 1 130.2064 56.9017 56.5804 0.0000 0.0000 0.0000
# 2 56.9017 91.9990 43.7022 0.0000 0.0000 0.0000
# 3 56.5804 43.7022 72.2382 0.0000 0.0000 0.0000
# 4 0.0000 0.0000 0.0000 23.2692 0.0000 0.0000
# 5 0.0000 0.0000 0.0000 0.0000 3.7971 0.0000
# 6 0.0000 0.0000 0.0000 0.0000 0.0000 23.6354
#
#
#
# Elastic Compliance Matrix: (Units=1/GPa)
#
#
# Indices 1 2 3 4 5 6 
#
# 1 0.012812 -0.004431 -0.007355 0.000000 0.000000 0.000000
# 2 -0.004431 0.016785 -0.006684 0.000000 0.000000 0.000000
# 3 -0.007355 -0.006684 0.023648 0.000000 0.000000 0.000000
# 4 0.000000 0.000000 0.000000 0.042975 0.000000 0.000000
# 5 0.000000 0.000000 0.000000 0.000000 0.263360 0.000000
# 6 0.000000 0.000000 0.000000 0.000000 0.000000 0.042310
#
#
# Mechanical properties :
#
#
# Convention : Reuss Voigt Hill
#
# Bulk Modulus (GPa) = 61.32873 67.64582 64.48727
# Shear Modulus (GPa) = 11.25454 19.29094 15.27274
#
# Velocity S-wave (km/s) = 2.43099 3.18271 2.83190
# Velocity P-wave (km/s) = 6.33113 7.00191 6.67495
#
# Compressibility (1/GPa) = 0.01630557
#
# Stress axis : x y z
#
# Youngs Moduli (GPa) = 78.04944 59.57562 42.28770
#
# Poissons Ratio (x) = 0.26397 0.31102
# Poissons Ratio (y) = 0.34582 0.28266
# Poissons Ratio (z) = 0.57404 0.39822
#
# Static dielectric constant tensor:
#      x y z
#    x 3.622480 0.000000 0.000000 
#    y 0.000000 3.501810 0.000000 
#    z 0.000000 0.000000 3.591590 
# 
# 
# High freq. dielectric constant tensor:
#      x y z
#    x 1.741250 0.000000 0.000000 
#    y 0.000000 1.746300 0.000000 
#    z 0.000000 0.000000 1.724400 
# 
# From -- ./inp_files/13995.got.cif
#   From: 2010.03.12/outbox.cif.g09.slc.cpg/sg47_7_cif.got.tgz:13995.got - 2010.04.14 03:12:58.
