data_PCOD8199202
_publ_section_title
;
Structure prediction by ZEFSAII (Michael W. Deem and Ramdas Pophale) SiO2 
 PCOD8199202
Probable space group: P M M M
;
_chemical_formula_sum "Si O2"
_cell_formula_units_Z 48
_cell_length_a 9.662759
_cell_length_b 30.668545
_cell_length_c 9.500781
_cell_angle_alpha 90.000000
_cell_angle_beta 90.000000
_cell_angle_gamma 90.000000
_cell_volume 2815.487656
_symmetry_space_group_name_H-M "P M M M"
_symmetry_group_IT_number 47
_symmetry_cell_setting 'orthorhombic'
loop_
_space_group_symop_operation_xyz
x,y,z
-x,-y,z
x,-y,-z
-x,y,-z
-x,-y,-z
x,y,-z
-x,y,z
x,-y,z
loop_
_atom_site_type_symbol
_atom_site_label
_atom_site_fract_x
_atom_site_fract_y
_atom_site_fract_z
Si Si1 0.345951 0.279054 0.667619
Si Si2 0.839338 0.800126 0.337094
Si Si3 0.341248 0.948968 0.340024
Si Si4 0.161678 0.115264 0.163864
Si Si5 0.664498 0.547949 0.842399
Si Si6 0.335115 0.374383 0.343768
O O1 0.348976 0.280650 0.500000
O O2 0.500000 0.268706 0.725215
O O3 0.242752 0.241735 0.721512
O O4 0.294796 0.326839 0.720389
O O5 0.803505 0.810051 0.500000
O O6 0.792322 0.841044 0.244256
O O7 0.000000 0.789759 0.317088
O O8 0.298685 0.936777 0.500000
O O9 0.500000 0.935482 0.313355
O O10 0.244538 0.924870 0.228961
O O11 0.321125 0.000000 0.314544
O O12 0.000000 0.106030 0.186688
O O13 0.198772 0.120143 0.000000
O O14 0.500000 0.551651 0.842514
O O15 0.708024 0.500000 0.784162
O O16 0.729540 0.586596 0.748818
O O17 0.721555 0.553751 0.000000
O O18 0.273318 0.379877 0.500000
O O19 0.500000 0.377423 0.349343
#
# Coordination Sequence:
#
# PCOD8199202 Si02
#       6
#     8   8   8   8   8   8
#     4   8  14  25  41  61  84 109 138 175 219 262
#     4   9  17  30  48  67  87 115 152 189 223 263
#     4   9  19  36  56  77 100 126 158 195 232 271
#     4  10  21  35  50  71 100 130 158 191 232 275
#     4   8  13  20  29  43  67  99 130 159 196 243
#     4   8  13  21  33  49  70  97 129 164 202 247
#
# _framework density 17.048556999999999
#
# number of rings (size 3 to 8) (size 9 to 14) (size 15 to 20)
#    0.000    3.333    0.000    2.500    0.000    3.000 
#    0.000    6.667    0.000    1.000    0.000    0.000 
#    0.000    0.667    0.000    8.333    0.000    9.667 
#
# Total GULP energy -594923.994545 kJ/mol
# GULP energy per Si atom -12394.249886 kJ/mol
# Density = 1.700975 g / cm^3
# Si number density = 17.048557 Si / 1000 Ang^3
#
#
#
# Elastic Constant Matrix: (Units=GPa)
#
#
# Indices 1 2 3 4 5 6 
#
# 1 39.6101 48.7595 32.1208 0.0000 0.0000 0.0000
# 2 48.7595 135.4324 67.1967 0.0000 0.0000 0.0000
# 3 32.1208 67.1967 82.2791 0.0000 0.0000 0.0000
# 4 0.0000 0.0000 0.0000 11.1697 0.0000 0.0000
# 5 0.0000 0.0000 0.0000 0.0000 16.0729 0.0000
# 6 0.0000 0.0000 0.0000 0.0000 0.0000 3.7095
#
#
#
# Elastic Compliance Matrix: (Units=1/GPa)
#
#
# Indices 1 2 3 4 5 6 
#
# 1 0.048144 -0.013464 -0.007799 0.000000 0.000000 0.000000
# 2 -0.013464 0.016179 -0.007957 0.000000 0.000000 0.000000
# 3 -0.007799 -0.007957 0.021697 0.000000 0.000000 0.000000
# 4 0.000000 0.000000 0.000000 0.089528 0.000000 0.000000
# 5 0.000000 0.000000 0.000000 0.000000 0.062216 0.000000
# 6 0.000000 0.000000 0.000000 0.000000 0.000000 0.269580
#
#
# Mechanical properties :
#
#
# Convention : Reuss Voigt Hill
#
# Bulk Modulus (GPa) = 36.25804 61.49731 48.87768
# Shear Modulus (GPa) = 8.69596 13.47339 11.08468
#
# Velocity S-wave (km/s) = 2.26092 2.81427 2.55263
# Velocity P-wave (km/s) = 5.30371 6.83449 6.11718
#
# Compressibility (1/GPa) = 0.02758009
#
# Stress axis : x y z
#
# Youngs Moduli (GPa) = 20.77088 61.80774 46.08863
#
# Poissons Ratio (x) = 0.83215 0.35946
# Poissons Ratio (y) = 0.27965 0.36675
# Poissons Ratio (z) = 0.16200 0.49183
#
# Static dielectric constant tensor:
#      x y z
#    x 2.854580 0.000000 0.000000 
#    y 0.000000 3.471170 0.000000 
#    z 0.000000 0.000000 3.150010 
# 
# 
# High freq. dielectric constant tensor:
#      x y z
#    x 1.613950 0.000000 0.000000 
#    y 0.000000 1.672210 0.000000 
#    z 0.000000 0.000000 1.637910 
# 
# From -- ./inp_files/2506.got.cif
#   From: 2010.03.12/outbox.cif.g09.slc.cpg/sg47_2_cif.got.tgz:2506.got - 2010.04.14 03:12:58.
