data_PCOD8199572
_publ_section_title
;
Structure prediction by ZEFSAII (Michael W. Deem and Ramdas Pophale) SiO2 
 PCOD8199572
Probable space group: P M M M
;
_chemical_formula_sum "Si O2"
_cell_formula_units_Z 56
_cell_length_a 23.376685
_cell_length_b 7.886832
_cell_length_c 14.081629
_cell_angle_alpha 90.000000
_cell_angle_beta 90.000000
_cell_angle_gamma 90.000000
_cell_volume 2596.201597
_symmetry_space_group_name_H-M "P M M M"
_symmetry_group_IT_number 47
_symmetry_cell_setting 'orthorhombic'
loop_
_space_group_symop_operation_xyz
x,y,z
-x,-y,z
x,-y,-z
-x,y,-z
-x,-y,-z
x,y,-z
-x,y,z
x,-y,z
loop_
_atom_site_type_symbol
_atom_site_label
_atom_site_fract_x
_atom_site_fract_y
_atom_site_fract_z
Si Si1 0.564021 0.192192 0.786411
Si Si2 0.381998 0.692621 0.606627
Si Si3 0.933282 0.692181 0.781163
Si Si4 0.136768 0.201902 0.608271
Si Si5 0.738112 0.813406 0.612546
Si Si6 0.254114 0.000000 0.886677
Si Si7 0.875669 0.000000 0.887411
Si Si8 0.671360 0.311706 0.110137
O O1 0.500000 0.260323 0.805833
O O2 0.576788 0.198966 0.673725
O O3 0.609230 0.307398 0.841448
O O4 0.569636 0.000000 0.822174
O O5 0.386528 0.767254 0.500000
O O6 0.402621 0.500000 0.609470
O O7 0.315925 0.699386 0.643789
O O8 0.922001 0.500000 0.818186
O O9 0.909475 0.708649 0.674566
O O10 0.000000 0.732626 0.777576
O O11 0.904654 0.828016 0.850911
O O12 0.124298 0.257389 0.500000
O O13 0.200262 0.263115 0.642461
O O14 0.132628 0.000000 0.619026
O O15 0.740142 0.831634 0.500000
O O16 0.729556 0.000000 0.658576
O O17 0.189398 0.000000 0.849225
O O18 0.285764 0.830452 0.847250
O O19 0.254057 0.000000 0.000000
O O20 0.879660 0.000000 0.000000
O O21 0.697369 0.500000 0.126391
O O22 0.661535 0.274175 0.000000
#
# Coordination Sequence:
#
# PCOD8199572 Si02
#       8
#     8   8   8   8   8   4   4   8
#     4  11  24  40  59  84 116 159 211 258 299 359
#     4  10  21  36  54  78 112 155 201 254 312 363
#     4  11  25  43  64  95 132 171 220 266 309 375
#     4   9  18  35  61  92 128 171 213 257 313 375
#     4   8  15  30  53  81 114 153 199 248 299 360
#     4   9  20  41  67  98 129 157 198 250 310 384
#     4  11  25  46  72  95 124 167 211 267 331 376
#     4  10  21  40  67  96 128 162 194 241 308 375
#
# _framework density 21.569973999999998
#
# number of rings (size 3 to 8) (size 9 to 14) (size 15 to 20)
#    0.000    2.143    1.429    1.929    0.000    6.286 
#    0.000    7.857    0.000    0.000    0.000    0.000 
#    0.000    0.000    0.000    0.000    0.000    0.000 
#
# Total GULP energy -694303.481700 kJ/mol
# GULP energy per Si atom -12398.276459 kJ/mol
# Density = 2.152088 g / cm^3
# Si number density = 21.569974 Si / 1000 Ang^3
#
#
#
# Elastic Constant Matrix: (Units=GPa)
#
#
# Indices 1 2 3 4 5 6 
#
# 1 136.4276 55.9900 29.0239 0.0000 0.0000 0.0000
# 2 55.9900 109.7561 28.5260 0.0000 0.0000 0.0000
# 3 29.0239 28.5260 48.9429 0.0000 0.0000 0.0000
# 4 0.0000 0.0000 0.0000 23.4168 0.0000 0.0000
# 5 0.0000 0.0000 0.0000 0.0000 29.9692 0.0000
# 6 0.0000 0.0000 0.0000 0.0000 0.0000 23.5741
#
#
#
# Elastic Compliance Matrix: (Units=1/GPa)
#
#
# Indices 1 2 3 4 5 6 
#
# 1 0.009726 -0.004080 -0.003389 0.000000 0.000000 0.000000
# 2 -0.004080 0.012450 -0.004836 0.000000 0.000000 0.000000
# 3 -0.003389 -0.004836 0.025261 0.000000 0.000000 0.000000
# 4 0.000000 0.000000 0.000000 0.042704 0.000000 0.000000
# 5 0.000000 0.000000 0.000000 0.000000 0.033368 0.000000
# 6 0.000000 0.000000 0.000000 0.000000 0.000000 0.042419
#
#
# Mechanical properties :
#
#
# Convention : Reuss Voigt Hill
#
# Bulk Modulus (GPa) = 43.81383 58.02294 50.91839
# Shear Modulus (GPa) = 25.23377 27.49781 26.36579
#
# Velocity S-wave (km/s) = 3.42403 3.57433 3.49999
# Velocity P-wave (km/s) = 5.99904 6.63270 6.32381
#
# Compressibility (1/GPa) = 0.02282384
#
# Stress axis : x y z
#
# Youngs Moduli (GPa) = 102.82216 80.32341 39.58727
#
# Poissons Ratio (x) = 0.32776 0.13417
# Poissons Ratio (y) = 0.41956 0.19146
# Poissons Ratio (z) = 0.34848 0.38848
#
# Static dielectric constant tensor:
#      x y z
#    x 4.010620 0.000000 0.000000 
#    y 0.000000 3.839500 0.000000 
#    z 0.000000 0.000000 3.789030 
# 
# 
# High freq. dielectric constant tensor:
#      x y z
#    x 1.843030 0.000000 0.000000 
#    y 0.000000 1.841880 0.000000 
#    z 0.000000 0.000000 1.842060 
# 
# From -- ./inp_files/25246.got.cif
#   From: 2010.03.12/outbox.cif.g09.slc.cpg/sg47_13_cif.got.tgz:25246.got - 2010.04.14 03:12:58.
