data_PCOD8199972
_publ_section_title
;
Structure prediction by ZEFSAII (Michael W. Deem and Ramdas Pophale) SiO2 
 PCOD8199972
Probable space group: P M M M
;
_chemical_formula_sum "Si O2"
_cell_formula_units_Z 44
_cell_length_a 14.836994
_cell_length_b 17.305514
_cell_length_c 9.061159
_cell_angle_alpha 90.000000
_cell_angle_beta 90.000000
_cell_angle_gamma 90.000000
_cell_volume 2326.559562
_symmetry_space_group_name_H-M "P M M M"
_symmetry_group_IT_number 47
_symmetry_cell_setting 'orthorhombic'
loop_
_space_group_symop_operation_xyz
x,y,z
-x,-y,z
x,-y,-z
-x,y,-z
-x,-y,-z
x,y,-z
-x,y,z
x,-y,z
loop_
_atom_site_type_symbol
_atom_site_label
_atom_site_fract_x
_atom_site_fract_y
_atom_site_fract_z
Si Si1 0.395805 0.000000 0.671307
Si Si2 0.675927 0.413836 0.169434
Si Si3 0.500000 0.408576 0.337291
Si Si4 0.242011 0.258759 0.829019
Si Si5 0.104998 0.846204 0.672462
Si Si6 0.107027 0.000000 0.833512
Si Si7 0.394067 0.167419 0.674504
O O1 0.358941 0.082184 0.731624
O O2 0.500000 0.000000 0.706631
O O3 0.377569 0.000000 0.500000
O O4 0.706020 0.500000 0.223483
O O5 0.589822 0.380966 0.256196
O O6 0.756694 0.352178 0.191756
O O7 0.646465 0.417627 0.000000
O O8 0.500000 0.500000 0.345049
O O9 0.500000 0.370965 0.500000
O O10 0.157395 0.226789 0.738359
O O11 0.336668 0.227807 0.767319
O O12 0.231492 0.235979 0.000000
O O13 0.124826 0.853449 0.500000
O O14 0.000000 0.833167 0.705421
O O15 0.141983 0.924214 0.748596
O O16 0.000000 0.000000 0.833079
O O17 0.145134 0.000000 0.000000
O O18 0.375630 0.176802 0.500000
O O19 0.500000 0.180052 0.707644
#
# Coordination Sequence:
#
# PCOD8199972 Si02
#       7
#     4   8   4   8   8   4   8
#     4   7  12  27  49  68  90 130 180 214 243 289
#     4   9  19  36  54  72 101 142 182 219 268 329
#     4   9  17  29  49  77 103 130 169 218 269 319
#     4  11  23  35  52  79 107 138 177 225 276 323
#     4  10  21  38  59  82 110 144 181 220 267 326
#     4   9  17  32  57  86 114 142 174 218 269 316
#     4   9  18  33  52  73 101 139 179 220 262 311
#
# _framework density 18.912046
#
# number of rings (size 3 to 8) (size 9 to 14) (size 15 to 20)
#    0.000    2.636    0.000    2.727    1.273    5.818 
#    0.000    3.182    0.000    2.182    0.000    3.818 
#    0.000    0.000    0.000    0.000    0.000    0.000 
#
# Total GULP energy -545274.756513 kJ/mol
# GULP energy per Si atom -12392.608103 kJ/mol
# Density = 1.886900 g / cm^3
# Si number density = 18.912046 Si / 1000 Ang^3
#
#
#
# Elastic Constant Matrix: (Units=GPa)
#
#
# Indices 1 2 3 4 5 6 
#
# 1 71.2170 46.8679 44.6957 0.0000 0.0000 0.0000
# 2 46.8679 118.5179 52.0014 0.0000 0.0000 0.0000
# 3 44.6957 52.0014 102.6367 0.0000 0.0000 0.0000
# 4 0.0000 0.0000 0.0000 21.8712 0.0000 0.0000
# 5 0.0000 0.0000 0.0000 0.0000 28.6935 0.0000
# 6 0.0000 0.0000 0.0000 0.0000 0.0000 24.9090
#
#
#
# Elastic Compliance Matrix: (Units=1/GPa)
#
#
# Indices 1 2 3 4 5 6 
#
# 1 0.022032 -0.005790 -0.006661 0.000000 0.000000 0.000000
# 2 -0.005790 0.012371 -0.003746 0.000000 0.000000 0.000000
# 3 -0.006661 -0.003746 0.014542 0.000000 0.000000 0.000000
# 4 0.000000 0.000000 0.000000 0.045722 0.000000 0.000000
# 5 0.000000 0.000000 0.000000 0.000000 0.034851 0.000000
# 6 0.000000 0.000000 0.000000 0.000000 0.000000 0.040146
#
#
# Mechanical properties :
#
#
# Convention : Reuss Voigt Hill
#
# Bulk Modulus (GPa) = 60.42142 64.38903 62.40523
# Shear Modulus (GPa) = 24.08746 25.01517 24.55132
#
# Velocity S-wave (km/s) = 3.57271 3.64086 3.60694
# Velocity P-wave (km/s) = 7.00264 7.19687 7.10042
#
# Compressibility (1/GPa) = 0.01655042
#
# Stress axis : x y z
#
# Youngs Moduli (GPa) = 45.38750 80.83397 68.76672
#
# Poissons Ratio (x) = 0.46804 0.45805
# Poissons Ratio (y) = 0.26280 0.25763
# Poissons Ratio (z) = 0.30233 0.30284
#
# Static dielectric constant tensor:
#      x y z
#    x 3.150730 0.000000 0.000000 
#    y 0.000000 3.753150 0.000000 
#    z 0.000000 0.000000 3.472630 
# 
# 
# High freq. dielectric constant tensor:
#      x y z
#    x 1.703670 0.000000 0.000000 
#    y 0.000000 1.743220 0.000000 
#    z 0.000000 0.000000 1.730110 
# 
# From -- ./inp_files/6302.got.cif
#   From: 2010.03.12/outbox.cif.g09.slc.cpg/sg47_4_cif.got.tgz:6302.got - 2010.04.14 03:12:58.
