data_PCOD8199063
_publ_section_title
;
Structure prediction by ZEFSAII (Michael W. Deem and Ramdas Pophale) SiO2 
 PCOD8199063
Probable space group: P M M M
;
_chemical_formula_sum "Si O2"
_cell_formula_units_Z 44
_cell_length_a 29.698816
_cell_length_b 8.087254
_cell_length_c 9.970262
_cell_angle_alpha 90.000000
_cell_angle_beta 90.000000
_cell_angle_gamma 90.000000
_cell_volume 2394.676157
_symmetry_space_group_name_H-M "P M M M"
_symmetry_group_IT_number 47
_symmetry_cell_setting 'orthorhombic'
loop_
_space_group_symop_operation_xyz
x,y,z
-x,-y,z
x,-y,-z
-x,y,-z
-x,-y,-z
x,y,-z
-x,y,z
x,-y,z
loop_
_atom_site_type_symbol
_atom_site_label
_atom_site_fract_x
_atom_site_fract_y
_atom_site_fract_z
Si Si1 0.218431 0.689920 0.350333
Si Si2 0.949814 0.803283 0.149601
Si Si3 0.605476 0.816277 0.840832
Si Si4 0.707672 0.808129 0.848742
Si Si5 0.448829 0.500000 0.840043
Si Si6 0.876611 0.807967 0.351094
O O1 0.231278 0.754841 0.500000
O O2 0.205525 0.500000 0.356011
O O3 0.259984 0.712950 0.251395
O O4 0.174065 0.783189 0.295765
O O5 0.913127 0.725208 0.251361
O O6 0.000000 0.749151 0.195307
O O7 0.946293 0.000000 0.147751
O O8 0.939885 0.735510 0.000000
O O9 0.656723 0.778245 0.798804
O O10 0.574538 0.667682 0.783089
O O11 0.590850 0.000000 0.786551
O O12 0.602020 0.821111 0.000000
O O13 0.719832 0.000000 0.845370
O O14 0.713886 0.739115 0.000000
O O15 0.500000 0.500000 0.789142
O O16 0.445951 0.500000 0.000000
O O17 0.880835 0.727961 0.500000
O O18 0.887299 0.000000 0.360014
#
# Coordination Sequence:
#
# PCOD8199063 Si02
#       6
#     8   8   8   8   4   8
#     4  10  21  34  47  67  96 127 158 195 239 287
#     4   8  14  25  42  65  90 113 141 183 232 276
#     4   8  15  27  41  61  91 123 158 203 247 290
#     4   9  18  32  50  71  93 122 161 200 241 289
#     4   9  16  24  38  62  91 129 169 199 240 295
#     4   9  17  29  45  64  87 116 148 185 230 277
#
# _framework density 18.374092000000001
#
# number of rings (size 3 to 8) (size 9 to 14) (size 15 to 20)
#    0.000    3.182    0.000    2.182    1.273    2.909 
#    0.000    5.455    0.000    0.545    0.000    3.818 
#    0.000    1.455    0.000    4.000    0.000    4.000 
#
# Total GULP energy -545286.188276 kJ/mol
# GULP energy per Si atom -12392.867915 kJ/mol
# Density = 1.833227 g / cm^3
# Si number density = 18.374092 Si / 1000 Ang^3
#
#
#
# Elastic Constant Matrix: (Units=GPa)
#
#
# Indices 1 2 3 4 5 6 
#
# 1 137.8510 47.4776 60.4411 0.0000 0.0000 0.0000
# 2 47.4776 62.8650 25.4454 0.0000 0.0000 0.0000
# 3 60.4411 25.4454 62.4331 0.0000 0.0000 0.0000
# 4 0.0000 0.0000 0.0000 12.4539 0.0000 0.0000
# 5 0.0000 0.0000 0.0000 0.0000 6.1521 0.0000
# 6 0.0000 0.0000 0.0000 0.0000 0.0000 3.3811
#
#
#
# Elastic Compliance Matrix: (Units=1/GPa)
#
#
# Indices 1 2 3 4 5 6 
#
# 1 0.014410 -0.006271 -0.011394 0.000000 0.000000 0.000000
# 2 -0.006271 0.021778 -0.002805 0.000000 0.000000 0.000000
# 3 -0.011394 -0.002805 0.028191 0.000000 0.000000 0.000000
# 4 0.000000 0.000000 0.000000 0.080296 0.000000 0.000000
# 5 0.000000 0.000000 0.000000 0.000000 0.162547 0.000000
# 6 0.000000 0.000000 0.000000 0.000000 0.000000 0.295760
#
#
# Mechanical properties :
#
#
# Convention : Reuss Voigt Hill
#
# Bulk Modulus (GPa) = 42.66469 58.87527 50.76998
# Shear Modulus (GPa) = 7.67181 13.04974 10.36077
#
# Velocity S-wave (km/s) = 2.04558 2.66790 2.37719
# Velocity P-wave (km/s) = 5.37119 6.44999 5.93515
#
# Compressibility (1/GPa) = 0.02343859
#
# Stress axis : x y z
#
# Youngs Moduli (GPa) = 69.39722 45.91691 35.47191
#
# Poissons Ratio (x) = 0.28793 0.40418
# Poissons Ratio (y) = 0.43517 0.09952
# Poissons Ratio (z) = 0.79073 0.12882
#
# Static dielectric constant tensor:
#      x y z
#    x 3.440470 0.000000 0.000000 
#    y 0.000000 3.316420 0.000000 
#    z 0.000000 0.000000 3.319680 
# 
# 
# High freq. dielectric constant tensor:
#      x y z
#    x 1.712440 0.000000 0.000000 
#    y 0.000000 1.699000 0.000000 
#    z 0.000000 0.000000 1.672970 
# 
# From -- ./inp_files/13664.got.cif
#   From: 2010.03.12/outbox.cif.g09.slc.cpg/sg47_7_cif.got.tgz:13664.got - 2010.04.14 03:12:58.
