data_PCOD8199954
_publ_section_title
;
Structure prediction by ZEFSAII (Michael W. Deem and Ramdas Pophale) SiO2 
 PCOD8199954
Probable space group: P M M M
;
_chemical_formula_sum "Si O2"
_cell_formula_units_Z 56
_cell_length_a 15.069624
_cell_length_b 21.757494
_cell_length_c 8.785829
_cell_angle_alpha 90.000000
_cell_angle_beta 90.000000
_cell_angle_gamma 90.000000
_cell_volume 2880.673485
_symmetry_space_group_name_H-M "P M M M"
_symmetry_group_IT_number 47
_symmetry_cell_setting 'orthorhombic'
loop_
_space_group_symop_operation_xyz
x,y,z
-x,-y,z
x,-y,-z
-x,y,-z
-x,-y,-z
x,y,-z
-x,y,z
x,-y,z
loop_
_atom_site_type_symbol
_atom_site_label
_atom_site_fract_x
_atom_site_fract_y
_atom_site_fract_z
Si Si1 0.099139 0.631980 0.682009
Si Si2 0.397135 0.070577 0.325459
Si Si3 0.104537 0.500000 0.665187
Si Si4 0.255771 0.846585 0.821090
Si Si5 0.397310 0.624527 0.178812
Si Si6 0.605212 0.500000 0.327919
Si Si7 0.098502 0.068474 0.180675
Si Si8 0.260124 0.285991 0.320029
O O1 0.098399 0.627599 0.500000
O O2 0.128894 0.564514 0.749157
O O3 0.169367 0.682267 0.739932
O O4 0.000000 0.650022 0.739981
O O5 0.370998 0.084337 0.500000
O O6 0.500000 0.085000 0.298770
O O7 0.343079 0.113798 0.212022
O O8 0.376209 0.000000 0.284937
O O9 0.152055 0.500000 0.500000
O O10 0.000000 0.500000 0.640687
O O11 0.170412 0.883520 0.756987
O O12 0.259597 0.783926 0.729787
O O13 0.249474 0.833206 0.000000
O O14 0.500000 0.632956 0.224244
O O15 0.358059 0.560971 0.246067
O O16 0.345345 0.681776 0.247800
O O17 0.384141 0.622865 0.000000
O O18 0.500000 0.500000 0.317196
O O19 0.639801 0.500000 0.500000
O O20 0.000000 0.088990 0.234303
O O21 0.119549 0.000000 0.243808
O O22 0.103135 0.066687 0.000000
O O23 0.267982 0.290716 0.500000
#
# Coordination Sequence:
#
# PCOD8199954 Si02
#       8
#     8   8   4   8   8   4   8   8
#     4   8  15  29  49  74 104 136 172 218 271 325
#     4   9  19  37  60  84 109 137 169 209 262 320
#     4   7  10  21  44  71  97 125 160 207 261 310
#     4  11  22  35  53  78 109 144 182 222 263 311
#     4  10  21  38  58  79 107 142 180 226 276 323
#     4   9  17  32  57  86 111 137 174 220 271 327
#     4   8  15  30  53  80 107 135 171 216 265 316
#     4  11  23  36  52  76 107 146 188 226 267 318
#
# _framework density 19.439897999999999
#
# number of rings (size 3 to 8) (size 9 to 14) (size 15 to 20)
#    0.000    2.714    0.000    3.643    0.000    4.571 
#    0.000    2.143    0.000    2.571    0.000    5.000 
#    0.000    8.000    0.000    0.000    0.000    0.000 
#
# Total GULP energy -694169.570869 kJ/mol
# GULP energy per Si atom -12395.885194 kJ/mol
# Density = 1.939565 g / cm^3
# Si number density = 19.439898 Si / 1000 Ang^3
#
#
#
# Elastic Constant Matrix: (Units=GPa)
#
#
# Indices 1 2 3 4 5 6 
#
# 1 104.2350 70.5359 31.0070 0.0000 0.0000 0.0000
# 2 70.5359 136.2907 25.7469 0.0000 0.0000 0.0000
# 3 31.0070 25.7469 43.7134 0.0000 0.0000 0.0000
# 4 0.0000 0.0000 0.0000 15.1399 0.0000 0.0000
# 5 0.0000 0.0000 0.0000 0.0000 15.9373 0.0000
# 6 0.0000 0.0000 0.0000 0.0000 0.0000 10.4587
#
#
#
# Elastic Compliance Matrix: (Units=1/GPa)
#
#
# Indices 1 2 3 4 5 6 
#
# 1 0.016755 -0.007231 -0.007626 0.000000 0.000000 0.000000
# 2 -0.007231 0.011376 -0.001572 0.000000 0.000000 0.000000
# 3 -0.007626 -0.001572 0.029211 0.000000 0.000000 0.000000
# 4 0.000000 0.000000 0.000000 0.066051 0.000000 0.000000
# 5 0.000000 0.000000 0.000000 0.000000 0.062746 0.000000
# 6 0.000000 0.000000 0.000000 0.000000 0.000000 0.095614
#
#
# Mechanical properties :
#
#
# Convention : Reuss Voigt Hill
#
# Bulk Modulus (GPa) = 40.83967 59.86874 50.35420
# Shear Modulus (GPa) = 15.49075 18.77045 17.13060
#
# Velocity S-wave (km/s) = 2.82592 3.11072 2.97174
# Velocity P-wave (km/s) = 5.63041 6.61557 6.14278
#
# Compressibility (1/GPa) = 0.02448600
#
# Stress axis : x y z
#
# Youngs Moduli (GPa) = 59.68200 87.90083 34.23338
#
# Poissons Ratio (x) = 0.63561 0.26107
# Poissons Ratio (y) = 0.43156 0.05380
# Poissons Ratio (z) = 0.45514 0.13814
#
# Static dielectric constant tensor:
#      x y z
#    x 3.645620 0.000000 0.000000 
#    y 0.000000 3.699430 0.000000 
#    z 0.000000 0.000000 3.174470 
# 
# 
# High freq. dielectric constant tensor:
#      x y z
#    x 1.760020 0.000000 0.000000 
#    y 0.000000 1.762140 0.000000 
#    z 0.000000 0.000000 1.721560 
# 
# From -- ./inp_files/7422.got.cif
#   From: 2010.03.12/outbox.cif.g09.slc.cpg/sg47_4_cif.got.tgz:7422.got - 2010.04.14 03:12:58.
