data_PCOD8199625
_publ_section_title
;
Structure prediction by ZEFSAII (Michael W. Deem and Ramdas Pophale) SiO2 
 PCOD8199625
Probable space group: P M M M
;
_chemical_formula_sum "Si O2"
_cell_formula_units_Z 48
_cell_length_a 9.323535
_cell_length_b 15.222431
_cell_length_c 17.295335
_cell_angle_alpha 90.000000
_cell_angle_beta 90.000000
_cell_angle_gamma 90.000000
_cell_volume 2454.672731
_symmetry_space_group_name_H-M "P M M M"
_symmetry_group_IT_number 47
_symmetry_cell_setting 'orthorhombic'
loop_
_space_group_symop_operation_xyz
x,y,z
-x,-y,z
x,-y,-z
-x,y,-z
-x,-y,-z
x,y,-z
-x,y,z
x,-y,z
loop_
_atom_site_type_symbol
_atom_site_label
_atom_site_fract_x
_atom_site_fract_y
_atom_site_fract_z
Si Si1 0.844435 0.000000 0.592684
Si Si2 0.172422 0.245848 0.187076
Si Si3 0.332968 0.102513 0.910968
Si Si4 0.334296 0.321179 0.332272
Si Si5 0.670762 0.500000 0.411219
Si Si6 0.346387 0.151316 0.411199
Si Si7 0.169847 0.404859 0.914409
O O1 0.770096 0.912655 0.627305
O O2 0.852065 0.000000 0.500000
O O3 0.000000 0.000000 0.630173
O O4 0.237020 0.157452 0.149756
O O5 0.236165 0.271840 0.269704
O O6 0.230746 0.326410 0.135880
O O7 0.000000 0.238121 0.191310
O O8 0.500000 0.123532 0.896572
O O9 0.301636 0.000000 0.895817
O O10 0.291862 0.126049 0.000000
O O11 0.500000 0.330157 0.304433
O O12 0.274903 0.414915 0.362781
O O13 0.317027 0.254933 0.404259
O O14 0.500000 0.500000 0.415650
O O15 0.730649 0.500000 0.500000
O O16 0.352474 0.126065 0.500000
O O17 0.500000 0.129458 0.372028
O O18 0.215586 0.500000 0.879246
O O19 0.000000 0.398759 0.918213
O O20 0.234801 0.395667 0.000000
#
# Coordination Sequence:
#
# PCOD8199625 Si02
#       7
#     4   8   8   8   4   8   8
#     4   9  17  29  49  77 105 131 160 205 266 321
#     4  11  22  34  53  82 116 152 188 229 278 334
#     4   9  19  38  63  87 113 150 194 239 287 337
#     4  10  21  36  55  81 111 146 183 230 290 339
#     4   9  18  36  63  89 110 141 194 251 293 338
#     4   9  17  32  54  77 101 134 180 224 264 323
#     4   8  15  29  49  73 102 139 180 217 256 308
#
# _framework density 19.554542999999999
#
# number of rings (size 3 to 8) (size 9 to 14) (size 15 to 20)
#    0.000    2.667    0.000    2.750    1.167    5.000 
#    1.500    0.833    0.000    2.000    0.000    3.500 
#    0.000    0.000    0.000    0.000    0.000    0.000 
#
# Total GULP energy -594634.087649 kJ/mol
# GULP energy per Si atom -12388.210159 kJ/mol
# Density = 1.951004 g / cm^3
# Si number density = 19.554543 Si / 1000 Ang^3
#
#
#
# Elastic Constant Matrix: (Units=GPa)
#
#
# Indices 1 2 3 4 5 6 
#
# 1 89.5935 62.9358 36.1691 0.0000 0.0000 0.0000
# 2 62.9358 147.9418 40.8895 0.0000 0.0000 0.0000
# 3 36.1691 40.8895 71.3470 0.0000 0.0000 0.0000
# 4 0.0000 0.0000 0.0000 23.7638 0.0000 0.0000
# 5 0.0000 0.0000 0.0000 0.0000 14.4457 0.0000
# 6 0.0000 0.0000 0.0000 0.0000 0.0000 19.1949
#
#
#
# Elastic Compliance Matrix: (Units=1/GPa)
#
#
# Indices 1 2 3 4 5 6 
#
# 1 0.017559 -0.005952 -0.005490 0.000000 0.000000 0.000000
# 2 -0.005952 0.010049 -0.002742 0.000000 0.000000 0.000000
# 3 -0.005490 -0.002742 0.018371 0.000000 0.000000 0.000000
# 4 0.000000 0.000000 0.000000 0.042081 0.000000 0.000000
# 5 0.000000 0.000000 0.000000 0.000000 0.069225 0.000000
# 6 0.000000 0.000000 0.000000 0.000000 0.000000 0.052097
#
#
# Mechanical properties :
#
#
# Convention : Reuss Voigt Hill
#
# Bulk Modulus (GPa) = 56.78484 65.43012 61.10748
# Shear Modulus (GPa) = 20.52367 22.74008 21.63188
#
# Velocity S-wave (km/s) = 3.24321 3.41384 3.32962
# Velocity P-wave (km/s) = 6.56710 7.00514 6.78965
#
# Compressibility (1/GPa) = 0.01761033
#
# Stress axis : x y z
#
# Youngs Moduli (GPa) = 56.94990 99.50795 54.43475
#
# Poissons Ratio (x) = 0.59232 0.29886
# Poissons Ratio (y) = 0.33899 0.14925
# Poissons Ratio (z) = 0.31267 0.27283
#
# Static dielectric constant tensor:
#      x y z
#    x 3.416140 0.000000 0.000000 
#    y 0.000000 3.842270 0.000000 
#    z 0.000000 0.000000 3.449450 
# 
# 
# High freq. dielectric constant tensor:
#      x y z
#    x 1.732850 0.000000 0.000000 
#    y 0.000000 1.780360 0.000000 
#    z 0.000000 0.000000 1.742650 
# 
# From -- ./inp_files/26538.got.cif
#   From: 2010.03.12/outbox.cif.g09.slc.cpg/sg47_14_cif.got.tgz:26538.got - 2010.04.14 03:12:58.
