data_PCOD8199623
_publ_section_title
;
Structure prediction by ZEFSAII (Michael W. Deem and Ramdas Pophale) SiO2 
 PCOD8199623
Probable space group: P M M M
;
_chemical_formula_sum "Si O2"
_cell_formula_units_Z 48
_cell_length_a 32.302364
_cell_length_b 9.093528
_cell_length_c 8.136700
_cell_angle_alpha 90.000000
_cell_angle_beta 90.000000
_cell_angle_gamma 90.000000
_cell_volume 2390.094205
_symmetry_space_group_name_H-M "P M M M"
_symmetry_group_IT_number 47
_symmetry_cell_setting 'orthorhombic'
loop_
_space_group_symop_operation_xyz
x,y,z
-x,-y,z
x,-y,-z
-x,y,-z
-x,-y,-z
x,y,-z
-x,y,z
x,-y,z
loop_
_atom_site_type_symbol
_atom_site_label
_atom_site_fract_x
_atom_site_fract_y
_atom_site_fract_z
Si Si1 0.733416 0.170161 0.692447
Si Si2 0.345295 0.667247 0.811167
Si Si3 0.903879 0.674459 0.182708
Si Si4 0.500000 0.659928 0.811336
Si Si5 0.816073 0.668237 0.308383
Si Si6 0.422466 0.835999 0.688783
Si Si7 0.047167 0.324683 0.500000
O O1 0.726054 0.196463 0.500000
O O2 0.699209 0.258773 0.792098
O O3 0.778130 0.229804 0.746593
O O4 0.730495 0.000000 0.740039
O O5 0.343101 0.500000 0.746986
O O6 0.378887 0.754643 0.706327
O O7 0.358945 0.672485 0.000000
O O8 0.907273 0.500000 0.188990
O O9 0.856300 0.721822 0.209130
O O10 0.931720 0.738806 0.332444
O O11 0.918106 0.730495 0.000000
O O12 0.500000 0.500000 0.719616
O O13 0.458896 0.749189 0.774636
O O14 0.500000 0.625690 0.000000
O O15 0.826364 0.685635 0.500000
O O16 0.804639 0.500000 0.266406
O O17 0.434196 0.846678 0.500000
O O18 0.419028 0.000000 0.764795
O O19 0.050593 0.500000 0.500000
O O20 0.000000 0.270719 0.500000
#
# Coordination Sequence:
#
# PCOD8199623 Si02
#       7
#     8   8   8   4   8   8   4
#     4  10  21  36  55  81 111 143 181 224 273 330
#     4  11  24  40  58  82 112 147 188 230 274 328
#     4   9  16  26  42  65  94 131 176 222 269 326
#     4  11  24  41  62  90 120 149 186 229 274 328
#     4   9  16  29  49  70  98 138 179 220 269 323
#     4  11  24  41  62  88 116 147 186 230 277 331
#     4   9  16  26  40  62  97 137 175 219 273 330
#
# _framework density 20.082891
#
# number of rings (size 3 to 8) (size 9 to 14) (size 15 to 20)
#    0.000    2.000    0.833    3.000    0.000   10.333 
#    0.000    3.333    0.000    0.000    0.000    0.000 
#    0.000    1.333    0.000    1.500    0.000    1.667 
#
# Total GULP energy -595194.089121 kJ/mol
# GULP energy per Si atom -12399.876857 kJ/mol
# Density = 2.003718 g / cm^3
# Si number density = 20.082891 Si / 1000 Ang^3
#
#
#
# Elastic Constant Matrix: (Units=GPa)
#
#
# Indices 1 2 3 4 5 6 
#
# 1 129.2041 51.6240 51.0195 0.0000 0.0000 0.0000
# 2 51.6240 116.6009 29.8793 0.0000 0.0000 0.0000
# 3 51.0195 29.8793 89.2253 0.0000 0.0000 0.0000
# 4 0.0000 0.0000 0.0000 18.1415 0.0000 0.0000
# 5 0.0000 0.0000 0.0000 0.0000 47.5756 0.0000
# 6 0.0000 0.0000 0.0000 0.0000 0.0000 -379.2826
#
#
#
# Elastic Compliance Matrix: (Units=1/GPa)
#
#
# Indices 1 2 3 4 5 6 
#
# 1 0.011256 -0.003647 -0.005215 0.000000 0.000000 0.000000
# 2 -0.003647 0.010563 -0.001452 0.000000 0.000000 0.000000
# 3 -0.005215 -0.001452 0.014676 0.000000 0.000000 0.000000
# 4 0.000000 0.000000 0.000000 0.055122 0.000000 0.000000
# 5 0.000000 0.000000 0.000000 0.000000 0.021019 0.000000
# 6 0.000000 0.000000 0.000000 0.000000 0.000000 -0.002637
#
#
# Mechanical properties :
#
#
# Convention : Reuss Voigt Hill
#
# Bulk Modulus (GPa) = 63.02411 66.67511 64.84961
# Shear Modulus (GPa) = 36.78717 -49.21261 -6.21272
#
# Velocity S-wave (km/s) = 4.28456 -4.95560 -1.76075
# Velocity P-wave (km/s) = 7.47842 0.72671 5.31295
#
# Compressibility (1/GPa) = 0.01586694
#
# Stress axis : x y z
#
# Youngs Moduli (GPa) = 88.83954 94.66941 68.13975
#
# Poissons Ratio (x) = 0.34528 0.35535
# Poissons Ratio (y) = 0.32402 0.09892
# Poissons Ratio (z) = 0.46330 0.13744
#
# Static dielectric constant tensor:
#      x y z
#    x 3.769790 0.000000 0.000000 
#    y 0.000000 3.566360 0.000000 
#    z 0.000000 0.000000 3.714320 
# 
# 
# High freq. dielectric constant tensor:
#      x y z
#    x 1.788700 0.000000 0.000000 
#    y 0.000000 1.758420 0.000000 
#    z 0.000000 0.000000 1.785010 
# 
# From -- ./inp_files/13974.got.cif
#   From: 2010.03.12/outbox.cif.g09.slc.cpg/sg47_7_cif.got.tgz:13974.got - 2010.04.14 03:12:58.
