data_PCOD8199631
_publ_section_title
;
Structure prediction by ZEFSAII (Michael W. Deem and Ramdas Pophale) SiO2 
 PCOD8199631
Probable space group: P M M M
;
_chemical_formula_sum "Si O2"
_cell_formula_units_Z 48
_cell_length_a 8.974396
_cell_length_b 9.141525
_cell_length_c 30.701255
_cell_angle_alpha 90.000000
_cell_angle_beta 90.000000
_cell_angle_gamma 90.000000
_cell_volume 2518.720687
_symmetry_space_group_name_H-M "P M M M"
_symmetry_group_IT_number 47
_symmetry_cell_setting 'orthorhombic'
loop_
_space_group_symop_operation_xyz
x,y,z
-x,-y,z
x,-y,-z
-x,y,-z
-x,-y,-z
x,y,-z
-x,y,z
x,-y,z
loop_
_atom_site_type_symbol
_atom_site_label
_atom_site_fract_x
_atom_site_fract_y
_atom_site_fract_z
Si Si1 0.327746 0.331358 0.833652
Si Si2 0.830666 0.672687 0.254002
Si Si3 0.823847 0.666828 0.000000
Si Si4 0.673890 0.830098 0.078894
Si Si5 0.825413 0.169598 0.420736
Si Si6 0.672348 0.169677 0.331881
Si Si7 0.671708 0.327517 0.500000
O O1 0.500000 0.307233 0.821548
O O2 0.295707 0.500000 0.845401
O O3 0.230032 0.278017 0.792961
O O4 0.279383 0.233206 0.874371
O O5 0.818836 0.500000 0.258915
O O6 0.728689 0.742080 0.290684
O O7 0.000000 0.727826 0.258902
O O8 0.765697 0.746642 0.042639
O O9 0.766496 0.500000 0.000000
O O10 0.000000 0.674281 0.000000
O O11 0.500000 0.804043 0.069902
O O12 0.715594 0.000000 0.077461
O O13 0.762795 0.220868 0.374271
O O14 0.748444 0.264839 0.457354
O O15 0.000000 0.200075 0.421687
O O16 0.788316 0.000000 0.429380
O O17 0.500000 0.204963 0.340032
O O18 0.700112 0.000000 0.322387
O O19 0.692108 0.500000 0.500000
O O20 0.500000 0.280399 0.500000
#
# Coordination Sequence:
#
# PCOD8199631 Si02
#       7
#     8   8   4   8   8   8   4
#     4   9  18  34  55  78 107 145 186 225 266 317
#     4  10  21  36  55  81 113 148 184 224 272 324
#     4  11  24  39  56  80 110 145 184 225 270 322
#     4  10  21  37  58  84 112 142 179 224 273 325
#     4  10  21  38  60  84 110 143 183 226 275 330
#     4  10  21  37  58  83 110 143 184 228 273 323
#     4  11  24  39  56  82 114 147 184 225 270 322
#
# _framework density 19.057293999999999
#
# number of rings (size 3 to 8) (size 9 to 14) (size 15 to 20)
#    0.000    2.000    0.000    3.000    0.000    9.333 
#    0.000    3.333    0.000    0.000    0.000    0.000 
#    0.000    0.000    0.000    0.000    0.000    0.000 
#
# Total GULP energy -595446.565212 kJ/mol
# GULP energy per Si atom -12405.136775 kJ/mol
# Density = 1.901392 g / cm^3
# Si number density = 19.057294 Si / 1000 Ang^3
#
#
#
# Elastic Constant Matrix: (Units=GPa)
#
#
# Indices 1 2 3 4 5 6 
#
# 1 91.6392 49.0405 63.0815 0.0000 0.0000 0.0000
# 2 49.0405 82.4886 71.0560 0.0000 0.0000 0.0000
# 3 63.0815 71.0560 146.2795 0.0000 0.0000 0.0000
# 4 0.0000 0.0000 0.0000 19.4986 0.0000 0.0000
# 5 0.0000 0.0000 0.0000 0.0000 66.2546 0.0000
# 6 0.0000 0.0000 0.0000 0.0000 0.0000 28.7580
#
#
#
# Elastic Compliance Matrix: (Units=1/GPa)
#
#
# Indices 1 2 3 4 5 6 
#
# 1 0.017428 -0.006684 -0.004269 0.000000 0.000000 0.000000
# 2 -0.006684 0.023408 -0.008488 0.000000 0.000000 0.000000
# 3 -0.004269 -0.008488 0.012800 0.000000 0.000000 0.000000
# 4 0.000000 0.000000 0.000000 0.051286 0.000000 0.000000
# 5 0.000000 0.000000 0.000000 0.000000 0.015093 0.000000
# 6 0.000000 0.000000 0.000000 0.000000 0.000000 0.034773
#
#
# Mechanical properties :
#
#
# Convention : Reuss Voigt Hill
#
# Bulk Modulus (GPa) = 67.77629 76.30706 72.04168
# Shear Modulus (GPa) = 25.17762 32.05085 28.61423
#
# Velocity S-wave (km/s) = 3.63871 4.10544 3.87910
# Velocity P-wave (km/s) = 7.30036 7.91206 7.61236
#
# Compressibility (1/GPa) = 0.01475442
#
# Stress axis : x y z
#
# Youngs Moduli (GPa) = 57.37992 42.71954 78.12237
#
# Poissons Ratio (x) = 0.28553 0.33349
# Poissons Ratio (y) = 0.38352 0.66314
# Poissons Ratio (z) = 0.24494 0.36262
#
# Static dielectric constant tensor:
#      x y z
#    x 3.600910 0.000000 0.000000 
#    y 0.000000 3.486160 0.000000 
#    z 0.000000 0.000000 3.572950 
# 
# 
# High freq. dielectric constant tensor:
#      x y z
#    x 1.748910 0.000000 0.000000 
#    y 0.000000 1.738250 0.000000 
#    z 0.000000 0.000000 1.755600 
# 
# From -- ./inp_files/2771.got.cif
#   From: 2010.03.12/outbox.cif.g09.slc.cpg/sg47_2_cif.got.tgz:2771.got - 2010.04.14 03:12:58.
