data_PCOD8199822
_publ_section_title
;
Structure prediction by ZEFSAII (Michael W. Deem and Ramdas Pophale) SiO2 
 PCOD8199822
Probable space group: P M M M
;
_chemical_formula_sum "Si O2"
_cell_formula_units_Z 44
_cell_length_a 8.930701
_cell_length_b 9.305271
_cell_length_c 28.431728
_cell_angle_alpha 90.000000
_cell_angle_beta 90.000000
_cell_angle_gamma 90.000000
_cell_volume 2362.750321
_symmetry_space_group_name_H-M "P M M M"
_symmetry_group_IT_number 47
_symmetry_cell_setting 'orthorhombic'
loop_
_space_group_symop_operation_xyz
x,y,z
-x,-y,z
x,-y,-z
-x,y,-z
-x,-y,-z
x,y,-z
-x,y,z
x,-y,z
loop_
_atom_site_type_symbol
_atom_site_label
_atom_site_fract_x
_atom_site_fract_y
_atom_site_fract_z
Si Si1 0.326669 0.666089 0.819400
Si Si2 0.321932 0.838642 0.448017
Si Si3 0.321746 0.162275 0.728864
Si Si4 0.321154 0.338066 0.360328
Si Si5 0.824635 0.334290 0.916112
Si Si6 0.324557 0.833046 0.000000
O O1 0.500000 0.698659 0.830198
O O2 0.302914 0.500000 0.806057
O O3 0.265460 0.760115 0.776141
O O4 0.231360 0.710986 0.864669
O O5 0.268329 0.787967 0.500000
O O6 0.500000 0.838128 0.446060
O O7 0.257437 0.732259 0.408333
O O8 0.263781 0.000000 0.437904
O O9 0.500000 0.163159 0.727573
O O10 0.258725 0.247776 0.683816
O O11 0.259399 0.000000 0.727746
O O12 0.500000 0.337078 0.360279
O O13 0.259713 0.500000 0.356853
O O14 0.784325 0.500000 0.926372
O O15 0.743134 0.236494 0.953678
O O16 0.000000 0.306584 0.919546
O O17 0.500000 0.805198 0.000000
O O18 0.283719 0.000000 0.000000
#
# Coordination Sequence:
#
# PCOD8199822 Si02
#       6
#     8   8   8   8   8   4
#     4   9  17  30  48  69  93 121 154 193 235 278
#     4   8  13  20  28  38  56  86 125 169 217 269
#     4   9  16  25  38  56  78 105 139 181 227 274
#     4   9  15  21  30  45  66  93 128 173 223 272
#     4  10  21  37  57  80 105 134 167 201 241 291
#     4  11  24  39  56  80 108 137 170 207 244 282
#
# _framework density 18.622366
#
# number of rings (size 3 to 8) (size 9 to 14) (size 15 to 20)
#    0.000    2.818    0.000    2.727    0.000    8.364 
#    0.000    3.636    0.000    0.000    0.000    0.000 
#    0.000    0.000    0.000    0.000    0.000    0.909 
#
# Total GULP energy -545542.901656 kJ/mol
# GULP energy per Si atom -12398.702310 kJ/mol
# Density = 1.857998 g / cm^3
# Si number density = 18.622366 Si / 1000 Ang^3
#
#
#
# Elastic Constant Matrix: (Units=GPa)
#
#
# Indices 1 2 3 4 5 6 
#
# 1 28.4843 34.1245 36.8911 0.0000 0.0000 0.0000
# 2 34.1245 150.4707 116.6857 0.0000 0.0000 0.0000
# 3 36.8911 116.6857 188.2048 0.0000 0.0000 0.0000
# 4 0.0000 0.0000 0.0000 37.8063 0.0000 0.0000
# 5 0.0000 0.0000 0.0000 0.0000 -5.7787 0.0000
# 6 0.0000 0.0000 0.0000 0.0000 0.0000 10.9421
#
#
#
# Elastic Compliance Matrix: (Units=1/GPa)
#
#
# Indices 1 2 3 4 5 6 
#
# 1 0.050936 -0.007336 -0.005436 0.000000 0.000000 0.000000
# 2 -0.007336 0.013856 -0.007153 0.000000 0.000000 0.000000
# 3 -0.005436 -0.007153 0.010814 0.000000 0.000000 0.000000
# 4 0.000000 0.000000 0.000000 0.026451 0.000000 0.000000
# 5 0.000000 0.000000 0.000000 0.000000 -0.173050 0.000000
# 6 0.000000 0.000000 0.000000 0.000000 0.000000 0.091390
#
#
# Mechanical properties :
#
#
# Convention : Reuss Voigt Hill
#
# Bulk Modulus (GPa) = 27.96716 82.50692 55.23704
# Shear Modulus (GPa) = 69.28558 20.55786 44.92172
#
# Velocity S-wave (km/s) = 6.10625 3.32615 4.91679
# Velocity P-wave (km/s) = 8.04772 7.69107 7.87141
#
# Compressibility (1/GPa) = 0.03575622
#
# Stress axis : x y z
#
# Youngs Moduli (GPa) = 19.63247 72.16893 92.47607
#
# Poissons Ratio (x) = 0.52944 0.50269
# Poissons Ratio (y) = 0.14403 0.66147
# Poissons Ratio (z) = 0.10672 0.51621
#
# Static dielectric constant tensor:
#      x y z
#    x 2.816820 0.000000 0.000000 
#    y 0.000000 3.571320 0.000000 
#    z 0.000000 0.000000 3.701720 
# 
# 
# High freq. dielectric constant tensor:
#      x y z
#    x 1.656860 0.000000 0.000000 
#    y 0.000000 1.726360 0.000000 
#    z 0.000000 0.000000 1.741810 
# 
# From -- ./inp_files/1997.got.cif
#   From: 2010.03.12/outbox.cif.g09.slc.cpg/sg47_1_cif.got.tgz:1997.got - 2010.04.14 03:12:58.
