data_PCOD8199265
_publ_section_title
;
Structure prediction by ZEFSAII (Michael W. Deem and Ramdas Pophale) SiO2 
 PCOD8199265
Probable space group: P M M M
;
_chemical_formula_sum "Si O2"
_cell_formula_units_Z 40
_cell_length_a 9.272906
_cell_length_b 25.510819
_cell_length_c 9.485551
_cell_angle_alpha 90.000000
_cell_angle_beta 90.000000
_cell_angle_gamma 90.000000
_cell_volume 2243.896505
_symmetry_space_group_name_H-M "P M M M"
_symmetry_group_IT_number 47
_symmetry_cell_setting 'orthorhombic'
loop_
_space_group_symop_operation_xyz
x,y,z
-x,-y,z
x,-y,-z
-x,y,-z
-x,-y,-z
x,y,-z
-x,y,z
x,-y,z
loop_
_atom_site_type_symbol
_atom_site_label
_atom_site_fract_x
_atom_site_fract_y
_atom_site_fract_z
Si Si1 0.831727 0.247553 0.162932
Si Si2 0.164141 0.939450 0.663016
Si Si3 0.171842 0.653384 0.341048
Si Si4 0.828455 0.441837 0.841820
Si Si5 0.332850 0.856008 0.163971
O O1 0.774408 0.295883 0.255750
O O2 0.747858 0.196274 0.215075
O O3 0.000000 0.237208 0.187894
O O4 0.798978 0.260549 0.000000
O O5 0.186929 0.925524 0.500000
O O6 0.273634 0.905909 0.754261
O O7 0.000000 0.926978 0.707941
O O8 0.199771 0.000000 0.691254
O O9 0.232382 0.655640 0.500000
O O10 0.234848 0.601339 0.265419
O O11 0.000000 0.651657 0.340964
O O12 0.777400 0.500000 0.794305
O O13 0.000000 0.439263 0.841383
O O14 0.772581 0.429793 0.000000
O O15 0.500000 0.849100 0.198685
O O16 0.304018 0.865861 0.000000
#
# Coordination Sequence:
#
# PCOD8199265 Si02
#       5
#     8   8   8   8   8
#     4   9  17  30  47  64  86 120 158 193 232 280
#     4   9  19  36  56  77 101 130 164 199 235 280
#     4   9  16  24  36  57  83 111 147 191 234 274
#     4   8  13  21  33  50  76 112 149 182 222 276
#     4  10  21  35  51  74 102 129 160 200 244 288
#
# _framework density 17.826135000000001
#
# number of rings (size 3 to 8) (size 9 to 14) (size 15 to 20)
#    0.000    3.000    0.000    2.400    0.000    6.000 
#    0.000    7.000    0.000    0.000    0.000    0.000 
#    0.000    0.800    0.000    9.200    0.000   11.800 
#
# Total GULP energy -495946.001501 kJ/mol
# GULP energy per Si atom -12398.650038 kJ/mol
# Density = 1.778556 g / cm^3
# Si number density = 17.826135 Si / 1000 Ang^3
#
#
#
# Elastic Constant Matrix: (Units=GPa)
#
#
# Indices 1 2 3 4 5 6 
#
# 1 44.3817 47.4163 34.0287 0.0000 0.0000 0.0000
# 2 47.4163 144.8239 80.1903 0.0000 0.0000 0.0000
# 3 34.0287 80.1903 98.4391 0.0000 0.0000 0.0000
# 4 0.0000 0.0000 0.0000 21.9225 0.0000 0.0000
# 5 0.0000 0.0000 0.0000 0.0000 16.4260 0.0000
# 6 0.0000 0.0000 0.0000 0.0000 0.0000 1.1514
#
#
#
# Elastic Compliance Matrix: (Units=1/GPa)
#
#
# Indices 1 2 3 4 5 6 
#
# 1 0.036050 -0.008931 -0.005186 0.000000 0.000000 0.000000
# 2 -0.008931 0.014791 -0.008962 0.000000 0.000000 0.000000
# 3 -0.005186 -0.008962 0.019252 0.000000 0.000000 0.000000
# 4 0.000000 0.000000 0.000000 0.045615 0.000000 0.000000
# 5 0.000000 0.000000 0.000000 0.000000 0.060879 0.000000
# 6 0.000000 0.000000 0.000000 0.000000 0.000000 0.868540
#
#
# Mechanical properties :
#
#
# Convention : Reuss Voigt Hill
#
# Bulk Modulus (GPa) = 41.78072 67.87949 54.83010
# Shear Modulus (GPa) = 4.54849 16.30060 10.42454
#
# Velocity S-wave (km/s) = 1.59910 3.02722 2.42087
# Velocity P-wave (km/s) = 5.18636 7.09789 6.21604
#
# Compressibility (1/GPa) = 0.02393449
#
# Stress axis : x y z
#
# Youngs Moduli (GPa) = 27.73889 67.60645 51.94282
#
# Poissons Ratio (x) = 0.60383 0.26939
# Poissons Ratio (y) = 0.24775 0.46551
# Poissons Ratio (z) = 0.14386 0.60589
#
# Static dielectric constant tensor:
#      x y z
#    x 2.839250 0.000000 0.000000 
#    y 0.000000 3.478250 0.000000 
#    z 0.000000 0.000000 3.366000 
# 
# 
# High freq. dielectric constant tensor:
#      x y z
#    x 1.638100 0.000000 0.000000 
#    y 0.000000 1.703460 0.000000 
#    z 0.000000 0.000000 1.688400 
# 
# From -- ./inp_files/1383.got.cif
#   From: 2010.03.12/outbox.cif.g09.slc.cpg/sg47_1_cif.got.tgz:1383.got - 2010.04.14 03:12:58.
