data_PCOD8199066
_publ_section_title
;
Structure prediction by ZEFSAII (Michael W. Deem and Ramdas Pophale) SiO2 
 PCOD8199066
Probable space group: P M M M
;
_chemical_formula_sum "Si O2"
_cell_formula_units_Z 40
_cell_length_a 9.377243
_cell_length_b 13.789859
_cell_length_c 18.344091
_cell_angle_alpha 90.000000
_cell_angle_beta 90.000000
_cell_angle_gamma 90.000000
_cell_volume 2372.090161
_symmetry_space_group_name_H-M "P M M M"
_symmetry_group_IT_number 47
_symmetry_cell_setting 'orthorhombic'
loop_
_space_group_symop_operation_xyz
x,y,z
-x,-y,z
x,-y,-z
-x,y,-z
-x,-y,-z
x,y,-z
-x,y,z
x,-y,z
loop_
_atom_site_type_symbol
_atom_site_label
_atom_site_fract_x
_atom_site_fract_y
_atom_site_fract_z
Si Si1 0.835014 0.110005 0.799149
Si Si2 0.335719 0.780446 0.916261
Si Si3 0.834898 0.610645 0.852986
Si Si4 0.332971 0.390539 0.583019
Si Si5 0.837126 0.287911 0.703988
O O1 0.740491 0.136603 0.869040
O O2 0.796883 0.179714 0.731320
O O3 0.000000 0.125559 0.821222
O O4 0.803308 0.000000 0.775377
O O5 0.500000 0.772218 0.892207
O O6 0.261598 0.676377 0.904994
O O7 0.321792 0.811495 0.000000
O O8 0.790975 0.500000 0.866644
O O9 0.806290 0.636446 0.768793
O O10 0.000000 0.629404 0.872388
O O11 0.295420 0.363246 0.500000
O O12 0.500000 0.383402 0.596812
O O13 0.280106 0.500000 0.599879
O O14 0.257657 0.313275 0.634741
O O15 0.000000 0.293376 0.678632
#
# Coordination Sequence:
#
# PCOD8199066 Si02
#       5
#     8   8   8   8   8
#     4   9  19  36  55  72  91 119 156 197 241 288
#     4  10  21  34  47  68  98 126 154 194 241 286
#     4   9  18  32  49  69  94 126 163 199 234 277
#     4   9  18  31  46  68 100 134 162 186 218 266
#     4   9  17  30  49  72  95 118 151 196 238 275
#
# _framework density 16.862765
#
# number of rings (size 3 to 8) (size 9 to 14) (size 15 to 20)
#    0.000    2.800    0.000    3.000    0.000    8.000 
#    0.000    5.000    0.000    0.600    0.000    4.200 
#    0.000    0.000    0.000    0.000    0.000    0.000 
#
# Total GULP energy -496010.495685 kJ/mol
# GULP energy per Si atom -12400.262392 kJ/mol
# Density = 1.682438 g / cm^3
# Si number density = 16.862765 Si / 1000 Ang^3
#
#
#
# Elastic Constant Matrix: (Units=GPa)
#
#
# Indices 1 2 3 4 5 6 
#
# 1 78.5745 49.3809 56.4450 0.0000 0.0000 0.0000
# 2 49.3809 120.4823 51.4823 0.0000 0.0000 0.0000
# 3 56.4450 51.4823 95.5400 0.0000 0.0000 0.0000
# 4 0.0000 0.0000 0.0000 17.1109 0.0000 0.0000
# 5 0.0000 0.0000 0.0000 0.0000 29.5941 0.0000
# 6 0.0000 0.0000 0.0000 0.0000 0.0000 18.1329
#
#
#
# Elastic Compliance Matrix: (Units=1/GPa)
#
#
# Indices 1 2 3 4 5 6 
#
# 1 0.024185 -0.004946 -0.011623 0.000000 0.000000 0.000000
# 2 -0.004946 0.011794 -0.003433 0.000000 0.000000 0.000000
# 3 -0.011623 -0.003433 0.019184 0.000000 0.000000 0.000000
# 4 0.000000 0.000000 0.000000 0.058442 0.000000 0.000000
# 5 0.000000 0.000000 0.000000 0.000000 0.033791 0.000000
# 6 0.000000 0.000000 0.000000 0.000000 0.000000 0.055148
#
#
# Mechanical properties :
#
#
# Convention : Reuss Voigt Hill
#
# Bulk Modulus (GPa) = 65.97185 67.69036 66.83111
# Shear Modulus (GPa) = 20.19375 22.12015 21.15695
#
# Velocity S-wave (km/s) = 3.46430 3.62577 3.54595
# Velocity P-wave (km/s) = 7.43031 7.59983 7.51555
#
# Compressibility (1/GPa) = 0.01515798
#
# Stress axis : x y z
#
# Youngs Moduli (GPa) = 41.34855 84.78798 52.12688
#
# Poissons Ratio (x) = 0.41933 0.60588
# Poissons Ratio (y) = 0.20450 0.17897
# Poissons Ratio (z) = 0.48061 0.29111
#
# Static dielectric constant tensor:
#      x y z
#    x 3.139570 0.000000 0.000000 
#    y 0.000000 3.220210 0.000000 
#    z 0.000000 0.000000 2.954810 
# 
# 
# High freq. dielectric constant tensor:
#      x y z
#    x 1.650860 0.000000 0.000000 
#    y 0.000000 1.645030 0.000000 
#    z 0.000000 0.000000 1.635380 
# 
# From -- ./inp_files/3700.got.cif
#   From: 2010.03.12/outbox.cif.g09.slc.cpg/sg47_2_cif.got.tgz:3700.got - 2010.04.14 03:12:58.
