data_PCOD8199962
_publ_section_title
;
Structure prediction by ZEFSAII (Michael W. Deem and Ramdas Pophale) SiO2 
 PCOD8199962
Probable space group: P M M M
;
_chemical_formula_sum "Si O2"
_cell_formula_units_Z 64
_cell_length_a 14.833930
_cell_length_b 24.932643
_cell_length_c 8.809057
_cell_angle_alpha 90.000000
_cell_angle_beta 90.000000
_cell_angle_gamma 90.000000
_cell_volume 3258.021636
_symmetry_space_group_name_H-M "P M M M"
_symmetry_group_IT_number 47
_symmetry_cell_setting 'orthorhombic'
loop_
_space_group_symop_operation_xyz
x,y,z
-x,-y,z
x,-y,-z
-x,y,-z
-x,-y,-z
x,y,-z
-x,y,z
x,-y,z
loop_
_atom_site_type_symbol
_atom_site_label
_atom_site_fract_x
_atom_site_fract_y
_atom_site_fract_z
Si Si1 0.780048 0.255300 0.676131
Si Si2 0.896780 0.838289 0.180433
Si Si3 0.600912 0.560032 0.180455
Si Si4 0.238591 0.367312 0.175884
Si Si5 0.898504 0.437385 0.669857
Si Si6 0.402423 0.910253 0.821985
Si Si7 0.789173 0.941467 0.819675
Si Si8 0.598861 0.799603 0.328179
O O1 0.804150 0.251990 0.500000
O O2 0.845573 0.213947 0.760265
O O3 0.793205 0.315101 0.734011
O O4 0.675364 0.243160 0.710589
O O5 0.849772 0.892801 0.245672
O O6 0.000000 0.837537 0.237832
O O7 0.892778 0.837749 0.000000
O O8 0.500000 0.575160 0.235133
O O9 0.626120 0.500000 0.240553
O O10 0.669726 0.605373 0.241901
O O11 0.605929 0.559068 0.000000
O O12 0.159755 0.409955 0.199682
O O13 0.249006 0.352658 0.000000
O O14 0.862098 0.424244 0.500000
O O15 0.895019 0.500000 0.700855
O O16 0.000000 0.415952 0.684998
O O17 0.500000 0.930442 0.754200
O O18 0.313907 0.939553 0.754945
O O19 0.390528 0.847693 0.789179
O O20 0.405182 0.919485 0.000000
O O21 0.829320 0.000000 0.773062
O O22 0.786500 0.935683 0.000000
O O23 0.610808 0.821639 0.500000
O O24 0.500000 0.772514 0.308784
#
# Coordination Sequence:
#
# PCOD8199962 Si02
#       8
#     8   8   8   8   8   8   8   8
#     4  11  23  38  56  77 105 143 181 221 273 328
#     4  10  21  38  59  80 104 136 178 228 276 324
#     4   8  15  30  52  79 113 150 184 219 263 314
#     4  11  22  34  54  84 114 143 181 228 272 317
#     4   9  19  37  59  81 108 143 179 217 267 325
#     4   9  16  27  48  77 107 139 172 208 253 307
#     4   9  17  30  51  81 114 141 169 213 268 325
#     4   9  18  33  53  75 100 134 175 216 259 309
#
# _framework density 19.643823000000001
#
# number of rings (size 3 to 8) (size 9 to 14) (size 15 to 20)
#    0.000    2.500    1.250    1.875    0.000    3.250 
#    0.000    3.125    0.000    2.625    0.000    7.000 
#    0.000    0.000    0.000    0.000    0.000    0.000 
#
# Total GULP energy -793116.083163 kJ/mol
# GULP energy per Si atom -12392.438799 kJ/mol
# Density = 1.959911 g / cm^3
# Si number density = 19.643823 Si / 1000 Ang^3
#
#
#
# Elastic Constant Matrix: (Units=GPa)
#
#
# Indices 1 2 3 4 5 6 
#
# 1 136.3043 65.4012 22.1306 0.0000 0.0000 0.0000
# 2 65.4012 105.6567 12.5297 0.0000 0.0000 0.0000
# 3 22.1306 12.5297 15.8501 0.0000 0.0000 0.0000
# 4 0.0000 0.0000 0.0000 13.2505 0.0000 0.0000
# 5 0.0000 0.0000 0.0000 0.0000 20.8995 0.0000
# 6 0.0000 0.0000 0.0000 0.0000 0.0000 12.2673
#
#
#
# Elastic Compliance Matrix: (Units=1/GPa)
#
#
# Indices 1 2 3 4 5 6 
#
# 1 0.012280 -0.006144 -0.012289 0.000000 0.000000 0.000000
# 2 -0.006144 0.013518 -0.002108 0.000000 0.000000 0.000000
# 3 -0.012289 -0.002108 0.081915 0.000000 0.000000 0.000000
# 4 0.000000 0.000000 0.000000 0.075469 0.000000 0.000000
# 5 0.000000 0.000000 0.000000 0.000000 0.047848 0.000000
# 6 0.000000 0.000000 0.000000 0.000000 0.000000 0.081518
#
#
# Mechanical properties :
#
#
# Convention : Reuss Voigt Hill
#
# Bulk Modulus (GPa) = 15.00776 50.88156 32.94466
# Shear Modulus (GPa) = 13.30363 19.80009 16.55186
#
# Velocity S-wave (km/s) = 2.60521 3.17827 2.90590
# Velocity P-wave (km/s) = 4.08730 6.27908 5.29778
#
# Compressibility (1/GPa) = 0.06663218
#
# Stress axis : x y z
#
# Youngs Moduli (GPa) = 81.43590 73.97804 12.20780
#
# Poissons Ratio (x) = 0.45450 0.15002
# Poissons Ratio (y) = 0.50032 0.02573
# Poissons Ratio (z) = 1.00073 0.15592
#
# Static dielectric constant tensor:
#      x y z
#    x 3.958220 0.000000 0.000000 
#    y 0.000000 3.499880 0.000000 
#    z 0.000000 0.000000 3.234360 
# 
# 
# High freq. dielectric constant tensor:
#      x y z
#    x 1.777070 0.000000 0.000000 
#    y 0.000000 1.758040 0.000000 
#    z 0.000000 0.000000 1.728050 
# 
# From -- ./inp_files/7898.got.cif
#   From: 2010.03.12/outbox.cif.g09.slc.cpg/sg47_4_cif.got.tgz:7898.got - 2010.04.14 03:12:58.
