data_PCOD8199682
_publ_section_title
;
Structure prediction by ZEFSAII (Michael W. Deem and Ramdas Pophale) SiO2 
 PCOD8199682
Probable space group: P M M M
;
_chemical_formula_sum "Si O2"
_cell_formula_units_Z 48
_cell_length_a 15.591042
_cell_length_b 7.784960
_cell_length_c 19.394557
_cell_angle_alpha 90.000000
_cell_angle_beta 90.000000
_cell_angle_gamma 90.000000
_cell_volume 2354.026736
_symmetry_space_group_name_H-M "P M M M"
_symmetry_group_IT_number 47
_symmetry_cell_setting 'orthorhombic'
loop_
_space_group_symop_operation_xyz
x,y,z
-x,-y,z
x,-y,-z
-x,y,-z
-x,-y,-z
x,y,-z
-x,y,z
x,-y,z
loop_
_atom_site_type_symbol
_atom_site_label
_atom_site_fract_x
_atom_site_fract_y
_atom_site_fract_z
Si Si1 0.595144 0.195919 0.845015
Si Si2 0.094885 0.000000 0.725192
Si Si3 0.761366 0.796392 0.920780
Si Si4 0.146759 0.000000 0.575256
Si Si5 0.100006 0.307831 0.184801
Si Si6 0.596053 0.700749 0.695146
Si Si7 0.277801 0.695837 0.423508
O O1 0.500000 0.283901 0.855444
O O2 0.671124 0.279280 0.890723
O O3 0.624040 0.205948 0.765285
O O4 0.586187 0.000000 0.867471
O O5 0.136095 0.825686 0.757022
O O6 0.087453 0.000000 0.642345
O O7 0.000000 0.000000 0.754613
O O8 0.843312 0.713504 0.883671
O O9 0.765063 0.000000 0.910183
O O10 0.766609 0.742028 0.000000
O O11 0.199124 0.175439 0.580539
O O12 0.098867 0.000000 0.500000
O O13 0.112890 0.500000 0.214611
O O14 0.000000 0.278022 0.165622
O O15 0.500000 0.753300 0.674927
O O16 0.605079 0.500000 0.708391
O O17 0.653847 0.762486 0.631826
O O18 0.319340 0.704662 0.500000
O O19 0.247401 0.500000 0.407910
#
# Coordination Sequence:
#
# PCOD8199682 Si02
#       7
#     8   4   8   4   8   8   8
#     4   9  19  34  52  77 111 149 192 242 288 337
#     4  10  22  41  63  87 117 149 187 234 282 337
#     4  10  21  36  57  85 116 155 198 239 293 353
#     4  10  22  37  57  85 115 148 186 229 279 338
#     4  10  22  40  62  90 121 153 192 238 292 352
#     4   9  18  31  48  71  99 138 186 232 282 334
#     4   9  19  34  51  76 110 146 184 228 280 335
#
# _framework density 20.390592999999999
#
# number of rings (size 3 to 8) (size 9 to 14) (size 15 to 20)
#    0.000    2.500    0.833    0.000    3.500    2.833 
#    0.000    5.000    0.000    1.500    0.000    8.167 
#    0.000    0.000    0.000    0.000    0.000    0.000 
#
# Total GULP energy -594795.584956 kJ/mol
# GULP energy per Si atom -12391.574687 kJ/mol
# Density = 2.034418 g / cm^3
# Si number density = 20.390593 Si / 1000 Ang^3
#
#
#
# Elastic Constant Matrix: (Units=GPa)
#
#
# Indices 1 2 3 4 5 6 
#
# 1 80.9126 28.4537 57.8114 0.0000 0.0000 0.0000
# 2 28.4537 83.5823 42.9925 0.0000 0.0000 0.0000
# 3 57.8114 42.9925 130.7691 0.0000 0.0000 0.0000
# 4 0.0000 0.0000 0.0000 18.5293 0.0000 0.0000
# 5 0.0000 0.0000 0.0000 0.0000 27.7459 0.0000
# 6 0.0000 0.0000 0.0000 0.0000 0.0000 14.6304
#
#
#
# Elastic Compliance Matrix: (Units=1/GPa)
#
#
# Indices 1 2 3 4 5 6 
#
# 1 0.018495 -0.002516 -0.007349 0.000000 0.000000 0.000000
# 2 -0.002516 0.014742 -0.003734 0.000000 0.000000 0.000000
# 3 -0.007349 -0.003734 0.012124 0.000000 0.000000 0.000000
# 4 0.000000 0.000000 0.000000 0.053969 0.000000 0.000000
# 5 0.000000 0.000000 0.000000 0.000000 0.036041 0.000000
# 6 0.000000 0.000000 0.000000 0.000000 0.000000 0.068351
#
#
# Mechanical properties :
#
#
# Convention : Reuss Voigt Hill
#
# Bulk Modulus (GPa) = 55.06201 61.53101 58.29651
# Shear Modulus (GPa) = 21.09945 23.24821 22.17383
#
# Velocity S-wave (km/s) = 3.22026 3.38027 3.30123
# Velocity P-wave (km/s) = 6.39446 6.74363 6.57136
#
# Compressibility (1/GPa) = 0.01816134
#
# Stress axis : x y z
#
# Youngs Moduli (GPa) = 54.06975 67.83552 82.48294
#
# Poissons Ratio (x) = 0.17067 0.60618
# Poissons Ratio (y) = 0.13603 0.30801
# Poissons Ratio (z) = 0.39736 0.25332
#
# Static dielectric constant tensor:
#      x y z
#    x 3.651970 0.000000 0.000000 
#    y 0.000000 3.727090 0.000000 
#    z 0.000000 0.000000 3.767010 
# 
# 
# High freq. dielectric constant tensor:
#      x y z
#    x 1.782420 0.000000 0.000000 
#    y 0.000000 1.795760 0.000000 
#    z 0.000000 0.000000 1.794460 
# 
# From -- ./inp_files/9167.got.cif
#   From: 2010.03.12/outbox.cif.g09.slc.cpg/sg47_5_cif.got.tgz:9167.got - 2010.04.14 03:12:58.
