data_PCOD8199981
_publ_section_title
;
Structure prediction by ZEFSAII (Michael W. Deem and Ramdas Pophale) SiO2 
 PCOD8199981
Probable space group: P M M M
;
_chemical_formula_sum "Si O2"
_cell_formula_units_Z 44
_cell_length_a 8.878151
_cell_length_b 32.578333
_cell_length_c 7.657452
_cell_angle_alpha 90.000000
_cell_angle_beta 90.000000
_cell_angle_gamma 90.000000
_cell_volume 2214.805884
_symmetry_space_group_name_H-M "P M M M"
_symmetry_group_IT_number 47
_symmetry_cell_setting 'orthorhombic'
loop_
_space_group_symop_operation_xyz
x,y,z
-x,-y,z
x,-y,-z
-x,y,-z
-x,-y,-z
x,y,-z
-x,y,z
x,-y,z
loop_
_atom_site_type_symbol
_atom_site_label
_atom_site_fract_x
_atom_site_fract_y
_atom_site_fract_z
Si Si1 0.822012 0.711013 0.198212
Si Si2 0.820386 0.862918 0.500000
Si Si3 0.677746 0.916329 0.203497
Si Si4 0.328872 0.456331 0.705609
Si Si5 0.666590 0.369985 0.798613
Si Si6 0.821386 0.230413 0.500000
Si Si7 0.168763 0.000000 0.206253
O O1 0.762788 0.667721 0.277085
O O2 0.761324 0.746972 0.324989
O O3 0.000000 0.708349 0.202409
O O4 0.765798 0.719994 0.000000
O O5 0.755256 0.882152 0.322651
O O6 0.763775 0.816068 0.500000
O O7 0.000000 0.867200 0.500000
O O8 0.500000 0.916092 0.233778
O O9 0.741335 0.959989 0.269045
O O10 0.717745 0.907960 0.000000
O O11 0.323590 0.456364 0.500000
O O12 0.500000 0.455253 0.775077
O O13 0.255815 0.500000 0.772479
O O14 0.249648 0.414249 0.770979
O O15 0.500000 0.370560 0.709853
O O16 0.649709 0.361197 0.000000
O O17 0.000000 0.231383 0.500000
O O18 0.000000 0.000000 0.286708
O O19 0.159240 0.000000 0.000000
#
# Coordination Sequence:
#
# PCOD8199981 Si02
#       7
#     8   4   8   8   8   4   4
#     4   9  18  34  54  74  98 128 162 203 254 310
#     4  11  23  38  58  85 113 142 189 242 283 332
#     4  10  21  38  59  84 119 159 193 230 281 338
#     4   8  14  24  38  59  89 123 156 189 230 284
#     4   9  17  28  44  69  95 118 153 199 243 290
#     4   9  20  37  56  78 100 130 173 215 259 316
#     4   9  17  32  57  88 118 151 197 244 281 320
#
# _framework density 19.866299999999999
#
# number of rings (size 3 to 8) (size 9 to 14) (size 15 to 20)
#    0.000    2.818    0.000    1.636    1.273    3.636 
#    0.000    7.273    0.000    2.727    0.000    3.818 
#    0.000    0.000    0.000    0.000    0.000    0.000 
#
# Total GULP energy -545138.037738 kJ/mol
# GULP energy per Si atom -12389.500858 kJ/mol
# Density = 1.982108 g / cm^3
# Si number density = 19.866300 Si / 1000 Ang^3
#
#
#
# Elastic Constant Matrix: (Units=GPa)
#
#
# Indices 1 2 3 4 5 6 
#
# 1 59.8488 48.3031 31.3108 0.0000 0.0000 0.0000
# 2 48.3031 216.4838 75.3613 0.0000 0.0000 0.0000
# 3 31.3108 75.3613 87.5743 0.0000 0.0000 0.0000
# 4 0.0000 0.0000 0.0000 27.7466 0.0000 0.0000
# 5 0.0000 0.0000 0.0000 0.0000 18.7604 0.0000
# 6 0.0000 0.0000 0.0000 0.0000 0.0000 24.9354
#
#
#
# Elastic Compliance Matrix: (Units=1/GPa)
#
#
# Indices 1 2 3 4 5 6 
#
# 1 0.021908 -0.003086 -0.005177 0.000000 0.000000 0.000000
# 2 -0.003086 0.007030 -0.004946 0.000000 0.000000 0.000000
# 3 -0.005177 -0.004946 0.017526 0.000000 0.000000 0.000000
# 4 0.000000 0.000000 0.000000 0.036041 0.000000 0.000000
# 5 0.000000 0.000000 0.000000 0.000000 0.053304 0.000000
# 6 0.000000 0.000000 0.000000 0.000000 0.000000 0.040104
#
#
# Mechanical properties :
#
#
# Convention : Reuss Voigt Hill
#
# Bulk Modulus (GPa) = 49.88681 74.87305 62.37993
# Shear Modulus (GPa) = 23.92211 28.21724 26.06967
#
# Velocity S-wave (km/s) = 3.47386 3.77285 3.62644
# Velocity P-wave (km/s) = 6.42309 7.53323 7.00020
#
# Compressibility (1/GPa) = 0.02004538
#
# Stress axis : x y z
#
# Youngs Moduli (GPa) = 45.64551 142.25584 57.05780
#
# Poissons Ratio (x) = 0.43899 0.29540
# Poissons Ratio (y) = 0.14086 0.28220
# Poissons Ratio (z) = 0.23632 0.70359
#
# Static dielectric constant tensor:
#      x y z
#    x 3.439440 0.000000 0.000000 
#    y 0.000000 3.951880 0.000000 
#    z 0.000000 0.000000 3.578890 
# 
# 
# High freq. dielectric constant tensor:
#      x y z
#    x 1.732450 0.000000 0.000000 
#    y 0.000000 1.787640 0.000000 
#    z 0.000000 0.000000 1.770690 
# 
# From -- ./inp_files/2353.got.cif
#   From: 2010.03.12/outbox.cif.g09.slc.cpg/sg47_2_cif.got.tgz:2353.got - 2010.04.14 03:12:58.
