data_PCOD8199222
_publ_section_title
;
Structure prediction by ZEFSAII (Michael W. Deem and Ramdas Pophale) SiO2 
 PCOD8199222
Probable space group: P M M M
;
_chemical_formula_sum "Si O2"
_cell_formula_units_Z 44
_cell_length_a 9.325588
_cell_length_b 9.319555
_cell_length_c 28.161635
_cell_angle_alpha 90.000000
_cell_angle_beta 90.000000
_cell_angle_gamma 90.000000
_cell_volume 2447.536999
_symmetry_space_group_name_H-M "P M M M"
_symmetry_group_IT_number 47
_symmetry_cell_setting 'orthorhombic'
loop_
_space_group_symop_operation_xyz
x,y,z
-x,-y,z
x,-y,-z
-x,y,-z
-x,-y,-z
x,y,-z
-x,y,z
x,-y,z
loop_
_atom_site_type_symbol
_atom_site_label
_atom_site_fract_x
_atom_site_fract_y
_atom_site_fract_z
Si Si1 0.155797 0.830850 0.000000
Si Si2 0.666360 0.834130 0.724224
Si Si3 0.333913 0.667796 0.817715
Si Si4 0.834687 0.168063 0.631895
Si Si5 0.171312 0.836168 0.897335
Si Si6 0.662913 0.666423 0.554685
O O1 0.232471 0.790590 0.050016
O O2 0.000000 0.755783 0.000000
O O3 0.132726 0.000000 0.000000
O O4 0.500000 0.808992 0.712899
O O5 0.717078 0.742726 0.769295
O O6 0.754377 0.777643 0.679058
O O7 0.700067 0.000000 0.735177
O O8 0.500000 0.702038 0.827690
O O9 0.304591 0.500000 0.812800
O O10 0.241097 0.728480 0.860516
O O11 0.772225 0.243609 0.585778
O O12 0.000000 0.209480 0.637105
O O13 0.810888 0.000000 0.625117
O O14 0.000000 0.820873 0.896183
O O15 0.215751 0.000000 0.885288
O O16 0.699717 0.697153 0.500000
O O17 0.500000 0.713767 0.565816
O O18 0.683128 0.500000 0.566595
#
# Coordination Sequence:
#
# PCOD8199222 Si02
#       6
#     4   8   8   8   8   8
#     4   7  12  26  48  73  98 124 160 205 248 291
#     4   9  18  34  54  72  94 130 173 211 247 292
#     4  10  21  35  50  72 103 135 166 203 249 299
#     4  10  21  35  52  78 109 135 162 203 254 303
#     4   9  17  31  53  77  99 127 165 208 251 295
#     4   9  19  36  56  77 102 135 175 213 247 289
#
# _framework density 17.977257000000002
#
# number of rings (size 3 to 8) (size 9 to 14) (size 15 to 20)
#    0.000    2.818    0.000    2.727    0.000    5.091 
#    0.000    7.273    0.000    4.364    0.000    0.000 
#    0.000    0.000    0.000    0.000    0.000    0.000 
#
# Total GULP energy -545474.446296 kJ/mol
# GULP energy per Si atom -12397.146507 kJ/mol
# Density = 1.793634 g / cm^3
# Si number density = 17.977257 Si / 1000 Ang^3
#
#
#
# Elastic Constant Matrix: (Units=GPa)
#
#
# Indices 1 2 3 4 5 6 
#
# 1 69.5720 39.0948 67.1559 0.0000 0.0000 0.0000
# 2 39.0948 61.9406 60.0695 0.0000 0.0000 0.0000
# 3 67.1559 60.0695 149.2965 0.0000 0.0000 0.0000
# 4 0.0000 0.0000 0.0000 -4.3660 0.0000 0.0000
# 5 0.0000 0.0000 0.0000 0.0000 83.4241 0.0000
# 6 0.0000 0.0000 0.0000 0.0000 0.0000 26.9127
#
#
#
# Elastic Compliance Matrix: (Units=1/GPa)
#
#
# Indices 1 2 3 4 5 6 
#
# 1 0.028166 -0.009004 -0.009047 0.000000 0.000000 0.000000
# 2 -0.009004 0.029353 -0.007760 0.000000 0.000000 0.000000
# 3 -0.009047 -0.007760 0.013890 0.000000 0.000000 0.000000
# 4 0.000000 0.000000 0.000000 -0.229045 0.000000 0.000000
# 5 0.000000 0.000000 0.000000 0.000000 0.011987 0.000000
# 6 0.000000 0.000000 0.000000 0.000000 0.000000 0.037157
#
#
# Mechanical properties :
#
#
# Convention : Reuss Voigt Hill
#
# Bulk Modulus (GPa) = 50.53775 68.16108 59.34942
# Shear Modulus (GPa) = -99.45216 28.82675 -35.31270
#
# Velocity S-wave (km/s) = -7.44588 4.00873 -4.43685
# Velocity P-wave (km/s) = 6.76377 7.70870 2.61491
#
# Compressibility (1/GPa) = 0.01978719
#
# Stress axis : x y z
#
# Youngs Moduli (GPa) = 35.50430 34.06785 71.99557
#
# Poissons Ratio (x) = 0.30674 0.65132
# Poissons Ratio (y) = 0.31967 0.55870
# Poissons Ratio (z) = 0.32120 0.26437
#
# Static dielectric constant tensor:
#      x y z
#    x 3.168950 0.000000 0.000000 
#    y 0.000000 3.148470 0.000000 
#    z 0.000000 0.000000 3.532970 
# 
# 
# High freq. dielectric constant tensor:
#      x y z
#    x 1.680130 0.000000 0.000000 
#    y 0.000000 1.680950 0.000000 
#    z 0.000000 0.000000 1.711980 
# 
# From -- ./inp_files/2052.got.cif
#   From: 2010.03.12/outbox.cif.g09.slc.cpg/sg47_2_cif.got.tgz:2052.got - 2010.04.14 03:12:58.
