data_PCOD8199886
_publ_section_title
;
Structure prediction by ZEFSAII (Michael W. Deem and Ramdas Pophale) SiO2 
 PCOD8199886
Probable space group: P M M M
;
_chemical_formula_sum "Si O2"
_cell_formula_units_Z 49
_cell_length_a 10.065656
_cell_length_b 29.328064
_cell_length_c 8.047148
_cell_angle_alpha 90.000000
_cell_angle_beta 90.000000
_cell_angle_gamma 90.000000
_cell_volume 2375.568009
_symmetry_space_group_name_H-M "P M M M"
_symmetry_group_IT_number 47
_symmetry_cell_setting 'orthorhombic'
loop_
_space_group_symop_operation_xyz
x,y,z
-x,-y,z
x,-y,-z
-x,y,-z
-x,-y,-z
x,y,-z
-x,y,z
x,-y,z
loop_
_atom_site_type_symbol
_atom_site_label
_atom_site_fract_x
_atom_site_fract_y
_atom_site_fract_z
Si Si1 0.000000 0.000000 0.500000
Si Si2 0.500000 0.051323 0.697921
Si Si3 0.000000 0.930011 0.188744
Si Si4 0.650679 0.551805 0.694618
Si Si5 0.743338 0.889040 0.690445
Si Si6 0.148130 0.374438 0.810663
Si Si7 0.848900 0.722465 0.310300
Si Si8 0.649728 0.204719 0.810943
O O1 0.000000 0.036849 0.348697
O O2 0.500000 0.050471 0.500000
O O3 0.370448 0.077610 0.762884
O O4 0.500000 0.000000 0.769891
O O5 0.127570 0.897235 0.199003
O O6 0.000000 0.952152 0.000000
O O7 0.673899 0.557258 0.500000
O O8 0.500000 0.565260 0.741750
O O9 0.679099 0.500000 0.750278
O O10 0.751097 0.584195 0.789889
O O11 0.772572 0.902039 0.500000
O O12 0.698657 0.836708 0.697283
O O13 0.191323 0.330672 0.703108
O O14 0.000000 0.390758 0.758136
O O15 0.149737 0.358255 0.000000
O O16 0.838158 0.738000 0.500000
O O17 0.746238 0.752193 0.205582
O O18 0.000000 0.729539 0.244149
O O19 0.500000 0.218801 0.757541
O O20 0.651896 0.187839 0.000000
#
# Coordination Sequence:
#
# PCOD8199886 Si02
#       8
#     1   4   4   8   8   8   8   8
#     4  12  26  52  68 100 136 172 214 270 312 378
#     4   9  20  36  65  95 127 167 210 254 311 364
#     4  12  27  45  71 100 133 173 214 263 318 371
#     4   9  19  36  57  82 114 155 203 252 300 354
#     4  11  22  42  67  95 130 168 211 260 309 372
#     4  10  21  37  57  84 119 155 195 246 304 367
#     4  10  22  40  63  89 116 154 204 255 311 374
#     4  11  24  41  62  90 127 164 206 257 310 373
#
# _framework density 20.626646000000001
#
# number of rings (size 3 to 8) (size 9 to 14) (size 15 to 20)
#    0.000    1.714    1.633    2.571    2.286    4.571 
#    0.000    2.449    0.000    1.959    0.000    0.000 
#    0.000    0.000    0.000    0.000    0.000    0.000 
#
# Total GULP energy -607060.849913 kJ/mol
# GULP energy per Si atom -12388.996937 kJ/mol
# Density = 2.057970 g / cm^3
# Si number density = 20.626646 Si / 1000 Ang^3
#
#
#
# Elastic Constant Matrix: (Units=GPa)
#
#
# Indices 1 2 3 4 5 6 
#
# 1 151.7164 76.9920 30.9478 0.0000 0.0000 0.0000
# 2 76.9920 116.7935 19.1007 0.0000 0.0000 0.0000
# 3 30.9478 19.1007 76.3760 0.0000 0.0000 0.0000
# 4 0.0000 0.0000 0.0000 59.7132 0.0000 0.0000
# 5 0.0000 0.0000 0.0000 0.0000 21.5513 0.0000
# 6 0.0000 0.0000 0.0000 0.0000 0.0000 102.2180
#
#
#
# Elastic Compliance Matrix: (Units=1/GPa)
#
#
# Indices 1 2 3 4 5 6 
#
# 1 0.010378 -0.006416 -0.002601 0.000000 0.000000 0.000000
# 2 -0.006416 0.012894 -0.000625 0.000000 0.000000 0.000000
# 3 -0.002601 -0.000625 0.014303 0.000000 0.000000 0.000000
# 4 0.000000 0.000000 0.000000 0.016747 0.000000 0.000000
# 5 0.000000 0.000000 0.000000 0.000000 0.046401 0.000000
# 6 0.000000 0.000000 0.000000 0.000000 0.000000 0.009783
#
#
# Mechanical properties :
#
#
# Convention : Reuss Voigt Hill
#
# Bulk Modulus (GPa) = 54.66844 66.55187 60.61016
# Shear Modulus (GPa) = 36.79598 51.21953 44.00776
#
# Velocity S-wave (km/s) = 4.22821 4.98855 4.62404
# Velocity P-wave (km/s) = 7.09918 8.09419 7.61296
#
# Compressibility (1/GPa) = 0.01829209
#
# Stress axis : x y z
#
# Youngs Moduli (GPa) = 96.36214 77.55749 69.91482
#
# Poissons Ratio (x) = 0.49759 0.18181
# Poissons Ratio (y) = 0.61823 0.04369
# Poissons Ratio (z) = 0.25059 0.04846
#
# Static dielectric constant tensor:
#      x y z
#    x 3.851360 0.000000 0.000000 
#    y 0.000000 3.610310 0.000000 
#    z 0.000000 0.000000 3.647240 
# 
# 
# High freq. dielectric constant tensor:
#      x y z
#    x 1.808750 0.000000 0.000000 
#    y 0.000000 1.804470 0.000000 
#    z 0.000000 0.000000 1.805250 
# 
# From -- ./inp_files/2821.got.cif
#   From: 2010.03.12/outbox.cif.g09.slc.cpg/sg47_2_cif.got.tgz:2821.got - 2010.04.14 03:12:58.
