data_PCOD8199300
_publ_section_title
;
Structure prediction by ZEFSAII (Michael W. Deem and Ramdas Pophale) SiO2 
 PCOD8199300
Probable space group: P M M M
;
_chemical_formula_sum "Si O2"
_cell_formula_units_Z 44
_cell_length_a 8.100063
_cell_length_b 29.956126
_cell_length_c 9.540099
_cell_angle_alpha 90.000000
_cell_angle_beta 90.000000
_cell_angle_gamma 90.000000
_cell_volume 2314.871707
_symmetry_space_group_name_H-M "P M M M"
_symmetry_group_IT_number 47
_symmetry_cell_setting 'orthorhombic'
loop_
_space_group_symop_operation_xyz
x,y,z
-x,-y,z
x,-y,-z
-x,y,-z
-x,-y,-z
x,y,-z
-x,y,z
x,-y,z
loop_
_atom_site_type_symbol
_atom_site_label
_atom_site_fract_x
_atom_site_fract_y
_atom_site_fract_z
Si Si1 0.193359 0.195821 0.342586
Si Si2 0.694153 0.275276 0.154175
Si Si3 0.500000 0.950315 0.165604
Si Si4 0.190788 0.109398 0.164535
Si Si5 0.191821 0.548456 0.346909
Si Si6 0.314485 0.626819 0.163843
O O1 0.266136 0.190333 0.500000
O O2 0.264516 0.239955 0.272975
O O3 0.241313 0.153330 0.249416
O O4 0.000000 0.201217 0.349925
O O5 0.500000 0.280378 0.139978
O O6 0.764546 0.324175 0.196505
O O7 0.764456 0.260835 0.000000
O O8 0.672034 0.926806 0.212997
O O9 0.500000 0.000000 0.231307
O O10 0.500000 0.953049 0.000000
O O11 0.000000 0.094082 0.198070
O O12 0.207682 0.119925 0.000000
O O13 0.268338 0.560461 0.500000
O O14 0.264287 0.500000 0.296177
O O15 0.217417 0.587714 0.237825
O O16 0.000000 0.542652 0.364725
O O17 0.500000 0.625276 0.220907
O O18 0.306547 0.617559 0.000000
#
# Coordination Sequence:
#
# PCOD8199300 Si02
#       6
#     8   8   4   8   8   8
#     4  10  21  35  51  75 106 137 172 215 260 307
#     4   9  19  35  53  73 100 134 169 207 253 306
#     4   9  18  32  53  83 111 137 179 229 272 319
#     4   9  18  33  53  77 107 143 180 221 270 320
#     4   9  19  35  52  71  97 129 165 205 250 301
#     4   9  19  35  52  73 101 130 163 205 253 304
#
# _framework density 19.007532999999999
#
# number of rings (size 3 to 8) (size 9 to 14) (size 15 to 20)
#    0.000    2.818    0.000    2.182    1.273    4.727 
#    0.000   10.000    0.000    1.091    0.000    2.545 
#    0.000    0.000    0.000    0.000    0.000    0.000 
#
# Total GULP energy -545159.145380 kJ/mol
# GULP energy per Si atom -12389.980577 kJ/mol
# Density = 1.896427 g / cm^3
# Si number density = 19.007533 Si / 1000 Ang^3
#
#
#
# Elastic Constant Matrix: (Units=GPa)
#
#
# Indices 1 2 3 4 5 6 
#
# 1 51.6357 54.3597 32.0686 0.0000 0.0000 0.0000
# 2 54.3597 161.2654 67.6754 0.0000 0.0000 0.0000
# 3 32.0686 67.6754 75.0750 0.0000 0.0000 0.0000
# 4 0.0000 0.0000 0.0000 2.3016 0.0000 0.0000
# 5 0.0000 0.0000 0.0000 0.0000 30.2611 0.0000
# 6 0.0000 0.0000 0.0000 0.0000 0.0000 30.8154
#
#
#
# Elastic Compliance Matrix: (Units=1/GPa)
#
#
# Indices 1 2 3 4 5 6 
#
# 1 0.031770 -0.008065 -0.006300 0.000000 0.000000 0.000000
# 2 -0.008065 0.012021 -0.007392 0.000000 0.000000 0.000000
# 3 -0.006300 -0.007392 0.022674 0.000000 0.000000 0.000000
# 4 0.000000 0.000000 0.000000 0.434483 0.000000 0.000000
# 5 0.000000 0.000000 0.000000 0.000000 0.033046 0.000000
# 6 0.000000 0.000000 0.000000 0.000000 0.000000 0.032451
#
#
# Mechanical properties :
#
#
# Convention : Reuss Voigt Hill
#
# Bulk Modulus (GPa) = 43.57021 66.24260 54.90640
# Shear Modulus (GPa) = 8.09571 21.60044 14.84808
#
# Velocity S-wave (km/s) = 2.06603 3.37473 2.79797
# Velocity P-wave (km/s) = 5.35384 7.07894 6.27595
#
# Compressibility (1/GPa) = 0.02295146
#
# Stress axis : x y z
#
# Youngs Moduli (GPa) = 31.47631 83.18478 44.10280
#
# Poissons Ratio (x) = 0.67089 0.27787
# Poissons Ratio (y) = 0.25386 0.32599
# Poissons Ratio (z) = 0.19832 0.61486
#
# Static dielectric constant tensor:
#      x y z
#    x 3.429480 0.000000 0.000000 
#    y 0.000000 3.795830 0.000000 
#    z 0.000000 0.000000 3.280700 
# 
# 
# High freq. dielectric constant tensor:
#      x y z
#    x 1.729380 0.000000 0.000000 
#    y 0.000000 1.742860 0.000000 
#    z 0.000000 0.000000 1.723960 
# 
# From -- ./inp_files/2132.got.cif
#   From: 2010.03.12/outbox.cif.g09.slc.cpg/sg47_2_cif.got.tgz:2132.got - 2010.04.14 03:12:58.
