data_PCOD8199955
_publ_section_title
;
Structure prediction by ZEFSAII (Michael W. Deem and Ramdas Pophale) SiO2 
 PCOD8199955
Probable space group: P M M M
;
_chemical_formula_sum "Si O2"
_cell_formula_units_Z 48
_cell_length_a 9.110284
_cell_length_b 15.282345
_cell_length_c 17.333220
_cell_angle_alpha 90.000000
_cell_angle_beta 90.000000
_cell_angle_gamma 90.000000
_cell_volume 2413.243609
_symmetry_space_group_name_H-M "P M M M"
_symmetry_group_IT_number 47
_symmetry_cell_setting 'orthorhombic'
loop_
_space_group_symop_operation_xyz
x,y,z
-x,-y,z
x,-y,-z
-x,y,-z
-x,-y,-z
x,y,-z
-x,y,z
x,-y,z
loop_
_atom_site_type_symbol
_atom_site_label
_atom_site_fract_x
_atom_site_fract_y
_atom_site_fract_z
Si Si1 0.328041 0.102768 0.696470
Si Si2 0.663458 0.659506 0.000000
Si Si3 0.838362 0.899991 0.153885
Si Si4 0.829037 0.762783 0.410418
Si Si5 0.664402 0.135871 0.000000
Si Si6 0.663825 0.397400 0.160248
Si Si7 0.171785 0.599214 0.310419
O O1 0.500000 0.120303 0.703660
O O2 0.253954 0.139974 0.775095
O O3 0.263478 0.158433 0.626058
O O4 0.296066 0.000000 0.681743
O O5 0.742750 0.628547 0.920966
O O6 0.500000 0.617093 0.000000
O O7 0.654902 0.761774 0.000000
O O8 0.750267 0.894803 0.074873
O O9 0.000000 0.854688 0.146974
O O10 0.862773 0.000000 0.174351
O O11 0.790689 0.760452 0.500000
O O12 0.784700 0.666980 0.377621
O O13 0.000000 0.781689 0.394962
O O14 0.500000 0.095328 0.000000
O O15 0.500000 0.355825 0.163766
O O16 0.655099 0.500000 0.166306
O O17 0.756687 0.362568 0.232206
O O18 0.226409 0.500000 0.331125
O O19 0.000000 0.597269 0.295967
#
# Coordination Sequence:
#
# PCOD8199955 Si02
#       7
#     8   4   8   8   4   8   8
#     4  10  22  40  62  87 115 149 189 236 291 346
#     4   9  19  32  47  74 108 143 184 227 270 319
#     4  10  21  38  58  79 107 146 191 236 282 334
#     4  10  22  39  60  87 117 151 189 230 282 345
#     4  11  22  33  49  79 116 151 190 235 281 330
#     4   9  17  32  54  76 102 142 188 230 274 325
#     4   9  19  36  57  83 115 149 188 234 282 333
#
# _framework density 19.890243000000002
#
# number of rings (size 3 to 8) (size 9 to 14) (size 15 to 20)
#    0.000    2.333    0.000    1.750    2.333    5.667 
#    0.000    4.583    0.000    2.000    0.000    3.500 
#    0.000    0.000    0.000    0.000    0.000    0.000 
#
# Total GULP energy -595007.868524 kJ/mol
# GULP energy per Si atom -12395.997261 kJ/mol
# Density = 1.984497 g / cm^3
# Si number density = 19.890243 Si / 1000 Ang^3
#
#
#
# Elastic Constant Matrix: (Units=GPa)
#
#
# Indices 1 2 3 4 5 6 
#
# 1 102.1828 44.8038 72.5113 0.0000 0.0000 0.0000
# 2 44.8038 68.7636 57.8864 0.0000 0.0000 0.0000
# 3 72.5113 57.8864 176.6900 0.0000 0.0000 0.0000
# 4 0.0000 0.0000 0.0000 35.8968 0.0000 0.0000
# 5 0.0000 0.0000 0.0000 0.0000 27.1570 0.0000
# 6 0.0000 0.0000 0.0000 0.0000 0.0000 22.4156
#
#
#
# Elastic Compliance Matrix: (Units=1/GPa)
#
#
# Indices 1 2 3 4 5 6 
#
# 1 0.015741 -0.006653 -0.004280 0.000000 0.000000 0.000000
# 2 -0.006653 0.022893 -0.004770 0.000000 0.000000 0.000000
# 3 -0.004280 -0.004770 0.008979 0.000000 0.000000 0.000000
# 4 0.000000 0.000000 0.000000 0.027858 0.000000 0.000000
# 5 0.000000 0.000000 0.000000 0.000000 0.036823 0.000000
# 6 0.000000 0.000000 0.000000 0.000000 0.000000 0.044612
#
#
# Mechanical properties :
#
#
# Convention : Reuss Voigt Hill
#
# Bulk Modulus (GPa) = 61.70364 77.55991 69.63177
# Shear Modulus (GPa) = 25.81146 28.58955 27.20050
#
# Velocity S-wave (km/s) = 3.60626 3.79537 3.70202
# Velocity P-wave (km/s) = 6.95914 7.63447 7.30461
#
# Compressibility (1/GPa) = 0.01620650
#
# Stress axis : x y z
#
# Youngs Moduli (GPa) = 63.52900 43.68221 111.37353
#
# Poissons Ratio (x) = 0.29062 0.47670
# Poissons Ratio (y) = 0.42266 0.53122
# Poissons Ratio (z) = 0.27192 0.20835
#
# Static dielectric constant tensor:
#      x y z
#    x 3.858400 0.000000 0.000000 
#    y 0.000000 3.600360 0.000000 
#    z 0.000000 0.000000 3.467760 
# 
# 
# High freq. dielectric constant tensor:
#      x y z
#    x 1.764890 0.000000 0.000000 
#    y 0.000000 1.773120 0.000000 
#    z 0.000000 0.000000 1.779350 
# 
# From -- ./inp_files/6526.got.cif
#   From: 2010.03.12/outbox.cif.g09.slc.cpg/sg47_4_cif.got.tgz:6526.got - 2010.04.14 03:12:58.
