data_PCOD8199086
_publ_section_title
;
Structure prediction by ZEFSAII (Michael W. Deem and Ramdas Pophale) SiO2 
 PCOD8199086
Probable space group: P M M M
;
_chemical_formula_sum "Si O2"
_cell_formula_units_Z 32
_cell_length_a 9.100193
_cell_length_b 10.461124
_cell_length_c 17.588579
_cell_angle_alpha 90.000000
_cell_angle_beta 90.000000
_cell_angle_gamma 90.000000
_cell_volume 1674.401895
_symmetry_space_group_name_H-M "P M M M"
_symmetry_group_IT_number 47
_symmetry_cell_setting 'orthorhombic'
loop_
_space_group_symop_operation_xyz
x,y,z
-x,-y,z
x,-y,-z
-x,y,-z
-x,-y,-z
x,y,-z
-x,y,z
x,-y,z
loop_
_atom_site_type_symbol
_atom_site_label
_atom_site_fract_x
_atom_site_fract_y
_atom_site_fract_z
Si Si1 0.673020 0.246814 0.912846
Si Si2 0.175720 0.355737 0.336337
Si Si3 0.169260 0.858296 0.220598
Si Si4 0.836627 0.500000 0.089756
Si Si5 0.840782 0.349898 0.500000
O O1 0.500000 0.259895 0.903655
O O2 0.737774 0.138856 0.857719
O O3 0.747787 0.376872 0.883275
O O4 0.714755 0.214431 0.000000
O O5 0.226390 0.500000 0.312458
O O6 0.234055 0.249633 0.277246
O O7 0.241347 0.316714 0.420155
O O8 0.000000 0.351806 0.341572
O O9 0.000000 0.828480 0.200986
O O10 0.185122 0.000000 0.257058
O O11 0.000000 0.500000 0.126934
O O12 0.849894 0.500000 0.000000
O O13 0.867339 0.500000 0.500000
O O14 0.000000 0.280534 0.500000
#
# Coordination Sequence:
#
# PCOD8199086 Si02
#       5
#     8   8   8   4   4
#     4  10  21  36  53  73  99 133 175 219 260 307
#     4   8  14  26  46  71  99 132 168 207 255 309
#     4  10  21  34  48  72 105 136 172 220 266 308
#     4   9  17  31  53  79 103 126 157 204 261 311
#     4   7  10  20  41  69  98 127 162 204 250 303
#
# _framework density 19.111302999999999
#
# number of rings (size 3 to 8) (size 9 to 14) (size 15 to 20)
#    0.000    3.000    0.000    2.625    1.750    4.000 
#    0.000    3.125    0.000    3.750    0.000    0.875 
#    0.000    5.000    0.000    0.000    0.000    0.000 
#
# Total GULP energy -396457.344786 kJ/mol
# GULP energy per Si atom -12389.292025 kJ/mol
# Density = 1.906780 g / cm^3
# Si number density = 19.111303 Si / 1000 Ang^3
#
#
#
# Elastic Constant Matrix: (Units=GPa)
#
#
# Indices 1 2 3 4 5 6 
#
# 1 49.3905 24.2617 32.9770 0.0000 0.0000 0.0000
# 2 24.2617 107.6951 65.2046 0.0000 0.0000 0.0000
# 3 32.9770 65.2046 125.0344 0.0000 0.0000 0.0000
# 4 0.0000 0.0000 0.0000 17.8122 0.0000 0.0000
# 5 0.0000 0.0000 0.0000 0.0000 7.7275 0.0000
# 6 0.0000 0.0000 0.0000 0.0000 0.0000 15.0000
#
#
#
# Elastic Compliance Matrix: (Units=1/GPa)
#
#
# Indices 1 2 3 4 5 6 
#
# 1 0.024990 -0.002396 -0.005342 0.000000 0.000000 0.000000
# 2 -0.002396 0.013800 -0.006565 0.000000 0.000000 0.000000
# 3 -0.005342 -0.006565 0.012830 0.000000 0.000000 0.000000
# 4 0.000000 0.000000 0.000000 0.056141 0.000000 0.000000
# 5 0.000000 0.000000 0.000000 0.000000 0.129407 0.000000
# 6 0.000000 0.000000 0.000000 0.000000 0.000000 0.066667
#
#
# Mechanical properties :
#
#
# Convention : Reuss Voigt Hill
#
# Bulk Modulus (GPa) = 43.44805 58.55630 51.00217
# Shear Modulus (GPa) = 14.70108 18.75306 16.72707
#
# Velocity S-wave (km/s) = 2.77652 3.13590 2.96166
# Velocity P-wave (km/s) = 5.74998 6.61951 6.20001
#
# Compressibility (1/GPa) = 0.02301599
#
# Stress axis : x y z
#
# Youngs Moduli (GPa) = 40.01576 72.46491 77.94207
#
# Poissons Ratio (x) = 0.17360 0.41634
# Poissons Ratio (y) = 0.09587 0.51166
# Poissons Ratio (z) = 0.21375 0.47571
#
# Static dielectric constant tensor:
#      x y z
#    x 3.034300 0.000000 0.000000 
#    y 0.000000 3.438530 0.000000 
#    z 0.000000 0.000000 3.841200 
# 
# 
# High freq. dielectric constant tensor:
#      x y z
#    x 1.691590 0.000000 0.000000 
#    y 0.000000 1.727780 0.000000 
#    z 0.000000 0.000000 1.747590 
# 
# From -- ./inp_files/26079.got.cif
#   From: 2010.03.12/outbox.cif.g09.slc.cpg/sg47_14_cif.got.tgz:26079.got - 2010.04.14 03:12:58.
