data_PCOD8199695
_publ_section_title
;
Structure prediction by ZEFSAII (Michael W. Deem and Ramdas Pophale) SiO2 
 PCOD8199695
Probable space group: P M M M
;
_chemical_formula_sum "Si O2"
_cell_formula_units_Z 40
_cell_length_a 10.800523
_cell_length_b 8.980456
_cell_length_c 22.645857
_cell_angle_alpha 90.000000
_cell_angle_beta 90.000000
_cell_angle_gamma 90.000000
_cell_volume 2196.503684
_symmetry_space_group_name_H-M "P M M M"
_symmetry_group_IT_number 47
_symmetry_cell_setting 'orthorhombic'
loop_
_space_group_symop_operation_xyz
x,y,z
-x,-y,z
x,-y,-z
-x,y,-z
-x,-y,-z
x,y,-z
-x,y,z
x,-y,z
loop_
_atom_site_type_symbol
_atom_site_label
_atom_site_fract_x
_atom_site_fract_y
_atom_site_fract_z
Si Si1 0.500000 0.674883 0.565301
Si Si2 0.242008 0.675842 0.612200
Si Si3 0.855556 0.832068 0.726688
Si Si4 0.361824 0.676695 0.066467
Si Si5 0.141647 0.323977 0.150770
Si Si6 0.141453 0.837842 0.500000
O O1 0.500000 0.500000 0.555647
O O2 0.500000 0.749955 0.500000
O O3 0.382945 0.724962 0.602802
O O4 0.220472 0.500000 0.612345
O O5 0.206458 0.739951 0.674997
O O6 0.166466 0.743480 0.558359
O O7 0.824525 0.753110 0.787995
O O8 0.000000 0.833013 0.714174
O O9 0.803255 0.000000 0.728157
O O10 0.500000 0.727022 0.089405
O O11 0.356844 0.500000 0.066397
O O12 0.245955 0.736900 0.105145
O O13 0.342874 0.737222 0.000000
O O14 0.152699 0.500000 0.159241
O O15 0.000000 0.282849 0.130497
O O16 0.000000 0.875574 0.500000
O O17 0.210901 0.000000 0.500000
#
# Coordination Sequence:
#
# PCOD8199695 Si02
#       6
#     4   8   8   8   8   4
#     4   9  18  36  56  76 102 128 157 202 257 302
#     4  11  21  36  58  78  99 130 170 211 251 302
#     4  10  21  37  54  73 103 138 168 207 260 308
#     4   8  14  26  46  74 107 138 168 208 259 307
#     4   9  17  30  50  76 103 133 173 215 253 302
#     4  11  23  36  51  76 108 135 162 203 256 307
#
# _framework density 18.210758999999999
#
# number of rings (size 3 to 8) (size 9 to 14) (size 15 to 20)
#    0.000    2.400    1.000    2.700    0.000    4.800 
#    1.800    4.500    0.000    0.600    0.000    4.200 
#    0.000    0.000    0.000    0.000    0.000    0.000 
#
# Total GULP energy -495722.639251 kJ/mol
# GULP energy per Si atom -12393.065981 kJ/mol
# Density = 1.816931 g / cm^3
# Si number density = 18.210759 Si / 1000 Ang^3
#
#
#
# Elastic Constant Matrix: (Units=GPa)
#
#
# Indices 1 2 3 4 5 6 
#
# 1 119.8351 40.3173 88.2223 0.0000 0.0000 0.0000
# 2 40.3173 70.1422 49.8691 0.0000 0.0000 0.0000
# 3 88.2223 49.8691 140.0397 0.0000 0.0000 0.0000
# 4 0.0000 0.0000 0.0000 -1.4115 0.0000 0.0000
# 5 0.0000 0.0000 0.0000 0.0000 71.6737 0.0000
# 6 0.0000 0.0000 0.0000 0.0000 0.0000 -3.2857
#
#
#
# Elastic Compliance Matrix: (Units=1/GPa)
#
#
# Indices 1 2 3 4 5 6 
#
# 1 0.015938 -0.002708 -0.009076 0.000000 0.000000 0.000000
# 2 -0.002708 0.019550 -0.005256 0.000000 0.000000 0.000000
# 3 -0.009076 -0.005256 0.014730 0.000000 0.000000 0.000000
# 4 0.000000 0.000000 0.000000 -0.708474 0.000000 0.000000
# 5 0.000000 0.000000 0.000000 0.000000 0.013952 0.000000
# 6 0.000000 0.000000 0.000000 0.000000 0.000000 -0.304354
#
#
# Mechanical properties :
#
#
# Convention : Reuss Voigt Hill
#
# Bulk Modulus (GPa) = 61.96562 76.31494 69.14028
# Shear Modulus (GPa) = -5.49935 23.50254 9.00159
#
# Velocity S-wave (km/s) = -1.73965 3.59637 2.22570
# Velocity P-wave (km/s) = 5.48321 7.69692 6.68237
#
# Compressibility (1/GPa) = 0.01613798
#
# Stress axis : x y z
#
# Youngs Moduli (GPa) = 62.74442 51.15052 67.88758
#
# Poissons Ratio (x) = 0.13852 0.61615
# Poissons Ratio (y) = 0.16992 0.35681
# Poissons Ratio (z) = 0.56947 0.26884
#
# Static dielectric constant tensor:
#      x y z
#    x 3.582230 0.000000 0.000000 
#    y 0.000000 3.207940 0.000000 
#    z 0.000000 0.000000 3.408540 
# 
# 
# High freq. dielectric constant tensor:
#      x y z
#    x 1.710580 0.000000 0.000000 
#    y 0.000000 1.686020 0.000000 
#    z 0.000000 0.000000 1.705030 
# 
# From -- ./inp_files/10675.got.cif
#   From: 2010.03.12/outbox.cif.g09.slc.cpg/sg47_6_cif.got.tgz:10675.got - 2010.04.14 03:12:58.
