data_PCOD8199409
_publ_section_title
;
Structure prediction by ZEFSAII (Michael W. Deem and Ramdas Pophale) SiO2 
 PCOD8199409
Probable space group: P M M M
;
_chemical_formula_sum "Si O2"
_cell_formula_units_Z 56
_cell_length_a 14.347815
_cell_length_b 9.048046
_cell_length_c 23.699093
_cell_angle_alpha 90.000000
_cell_angle_beta 90.000000
_cell_angle_gamma 90.000000
_cell_volume 3076.608909
_symmetry_space_group_name_H-M "P M M M"
_symmetry_group_IT_number 47
_symmetry_cell_setting 'orthorhombic'
loop_
_space_group_symop_operation_xyz
x,y,z
-x,-y,z
x,-y,-z
-x,y,-z
-x,-y,-z
x,y,-z
-x,y,z
x,-y,z
loop_
_atom_site_type_symbol
_atom_site_label
_atom_site_fract_x
_atom_site_fract_y
_atom_site_fract_z
Si Si1 0.236395 0.173127 0.063823
Si Si2 0.609808 0.666624 0.436800
Si Si3 0.263307 0.674058 0.764672
Si Si4 0.607008 0.827518 0.849270
Si Si5 0.896772 0.824416 0.437545
Si Si6 0.893814 0.326688 0.147898
Si Si7 0.738739 0.174773 0.355353
O O1 0.332873 0.213474 0.095383
O O2 0.147524 0.249754 0.092436
O O3 0.217541 0.000000 0.065738
O O4 0.245645 0.231215 0.000000
O O5 0.641087 0.714335 0.500000
O O6 0.500000 0.672881 0.432061
O O7 0.644905 0.500000 0.424148
O O8 0.647871 0.780302 0.390566
O O9 0.274773 0.500000 0.758065
O O10 0.354178 0.735810 0.796471
O O11 0.168814 0.717005 0.798084
O O12 0.257882 0.747557 0.704297
O O13 0.500000 0.782738 0.860721
O O14 0.616017 0.000000 0.834570
O O15 0.869157 0.765821 0.500000
O O16 0.826454 0.763323 0.390833
O O17 0.000000 0.768152 0.421631
O O18 0.893771 0.000000 0.438074
O O19 0.889967 0.500000 0.136970
O O20 0.000000 0.273086 0.158306
O O21 0.740190 0.000000 0.346482
#
# Coordination Sequence:
#
# PCOD8199409 Si02
#       7
#     8   8   8   8   8   8   8
#     4   9  18  32  51  79 111 136 162 200 246 298
#     4   9  19  36  55  74  99 132 167 203 248 302
#     4  10  21  36  52  71  98 132 169 210 254 298
#     4   9  18  34  55  76 100 132 168 206 247 291
#     4   8  15  29  48  71 100 130 158 192 239 295
#     4   9  19  36  55  73  97 134 176 213 250 292
#     4  11  21  32  51  78 103 129 165 208 252 297
#
# _framework density 18.201857
#
# number of rings (size 3 to 8) (size 9 to 14) (size 15 to 20)
#    0.000    2.714    0.000    2.143    0.000    4.286 
#    0.000    3.571    0.000    1.286    0.000    9.000 
#    0.000    0.000    0.000    0.000    0.000    0.000 
#
# Total GULP energy -694339.097990 kJ/mol
# GULP energy per Si atom -12398.912464 kJ/mol
# Density = 1.816043 g / cm^3
# Si number density = 18.201857 Si / 1000 Ang^3
#
#
#
# Elastic Constant Matrix: (Units=GPa)
#
#
# Indices 1 2 3 4 5 6 
#
# 1 118.5223 38.7266 65.9205 0.0000 0.0000 0.0000
# 2 38.7266 49.9007 49.9163 0.0000 0.0000 0.0000
# 3 65.9205 49.9163 158.8290 0.0000 0.0000 0.0000
# 4 0.0000 0.0000 0.0000 23.1351 0.0000 0.0000
# 5 0.0000 0.0000 0.0000 0.0000 32.2121 0.0000
# 6 0.0000 0.0000 0.0000 0.0000 0.0000 23.7923
#
#
#
# Elastic Compliance Matrix: (Units=1/GPa)
#
#
# Indices 1 2 3 4 5 6 
#
# 1 0.012242 -0.006444 -0.003056 0.000000 0.000000 0.000000
# 2 -0.006444 0.032621 -0.007577 0.000000 0.000000 0.000000
# 3 -0.003056 -0.007577 0.009946 0.000000 0.000000 0.000000
# 4 0.000000 0.000000 0.000000 0.043224 0.000000 0.000000
# 5 0.000000 0.000000 0.000000 0.000000 0.031044 0.000000
# 6 0.000000 0.000000 0.000000 0.000000 0.000000 0.042030
#
#
# Mechanical properties :
#
#
# Convention : Reuss Voigt Hill
#
# Bulk Modulus (GPa) = 48.41648 70.70874 59.56261
# Shear Modulus (GPa) = 23.56850 27.34047 25.45449
#
# Velocity S-wave (km/s) = 3.60229 3.87986 3.74365
# Velocity P-wave (km/s) = 6.63020 7.68130 7.17502
#
# Compressibility (1/GPa) = 0.02065413
#
# Stress axis : x y z
#
# Youngs Moduli (GPa) = 81.68277 30.65534 100.54540
#
# Poissons Ratio (x) = 0.19755 0.30725
# Poissons Ratio (y) = 0.52639 0.76187
# Poissons Ratio (z) = 0.24961 0.23229
#
# Static dielectric constant tensor:
#      x y z
#    x 3.522430 0.000000 0.000000 
#    y 0.000000 3.241460 0.000000 
#    z 0.000000 0.000000 3.450700 
# 
# 
# High freq. dielectric constant tensor:
#      x y z
#    x 1.709360 0.000000 0.000000 
#    y 0.000000 1.691370 0.000000 
#    z 0.000000 0.000000 1.707230 
# 
# From -- ./inp_files/7248.got.cif
#   From: 2010.03.12/outbox.cif.g09.slc.cpg/sg47_4_cif.got.tgz:7248.got - 2010.04.14 03:12:58.
