data_PCOD8199312
_publ_section_title
;
Structure prediction by ZEFSAII (Michael W. Deem and Ramdas Pophale) SiO2 
 PCOD8199312
Probable space group: P M M M
;
_chemical_formula_sum "Si O2"
_cell_formula_units_Z 44
_cell_length_a 14.292509
_cell_length_b 9.056122
_cell_length_c 18.108681
_cell_angle_alpha 90.000000
_cell_angle_beta 90.000000
_cell_angle_gamma 90.000000
_cell_volume 2343.891787
_symmetry_space_group_name_H-M "P M M M"
_symmetry_group_IT_number 47
_symmetry_cell_setting 'orthorhombic'
loop_
_space_group_symop_operation_xyz
x,y,z
-x,-y,z
x,-y,-z
-x,y,-z
-x,-y,-z
x,y,-z
-x,y,z
x,-y,z
loop_
_atom_site_type_symbol
_atom_site_label
_atom_site_fract_x
_atom_site_fract_y
_atom_site_fract_z
Si Si1 0.201597 0.675066 0.639345
Si Si2 0.394502 0.328617 0.856195
Si Si3 0.601397 0.674821 0.690677
Si Si4 0.890285 0.172571 0.500000
Si Si5 0.890640 0.828015 0.777194
Si Si6 0.223557 0.171699 0.081561
O O1 0.188873 0.500000 0.631207
O O2 0.311727 0.721577 0.638946
O O3 0.153219 0.755403 0.571952
O O4 0.155239 0.726888 0.715048
O O5 0.500000 0.301111 0.884421
O O6 0.369297 0.500000 0.857027
O O7 0.382616 0.263405 0.773295
O O8 0.323763 0.248069 0.910417
O O9 0.500000 0.732142 0.659767
O O10 0.597185 0.500000 0.696790
O O11 0.000000 0.203973 0.500000
O O12 0.867922 0.000000 0.500000
O O13 0.849880 0.776527 0.856223
O O14 0.000000 0.796173 0.778630
O O15 0.869876 0.000000 0.760444
O O16 0.241972 0.000000 0.089878
O O17 0.183158 0.209955 0.000000
#
# Coordination Sequence:
#
# PCOD8199312 Si02
#       6
#     8   8   8   4   8   8
#     4  11  21  36  62  90 113 140 180 229 272 317
#     4   9  17  32  54  78 106 142 182 222 269 329
#     4   8  15  30  54  83 112 141 175 216 265 321
#     4  11  25  43  60  81 116 156 185 217 268 325
#     4  10  21  37  56  77 105 144 186 227 278 336
#     4  10  21  35  51  75 108 144 185 233 278 323
#
# _framework density 18.772196999999998
#
# number of rings (size 3 to 8) (size 9 to 14) (size 15 to 20)
#    0.000    2.273    1.818    2.455    0.000    4.727 
#    0.000    4.091    0.000    4.909    0.000    2.545 
#    0.000    0.000    0.000    0.000    0.000    0.000 
#
# Total GULP energy -545437.836936 kJ/mol
# GULP energy per Si atom -12396.314476 kJ/mol
# Density = 1.872947 g / cm^3
# Si number density = 18.772197 Si / 1000 Ang^3
#
#
#
# Elastic Constant Matrix: (Units=GPa)
#
#
# Indices 1 2 3 4 5 6 
#
# 1 142.6461 54.8413 77.6292 0.0000 0.0000 0.0000
# 2 54.8413 50.6622 55.2235 0.0000 0.0000 0.0000
# 3 77.6292 55.2235 126.8270 0.0000 0.0000 0.0000
# 4 0.0000 0.0000 0.0000-2985.1018 0.0000 0.0000
# 5 0.0000 0.0000 0.0000 0.0000 33.6489 0.0000
# 6 0.0000 0.0000 0.0000 0.0000 0.0000 26.1153
#
#
#
# Elastic Compliance Matrix: (Units=1/GPa)
#
#
# Indices 1 2 3 4 5 6 
#
# 1 0.012739 -0.010070 -0.003413 0.000000 0.000000 0.000000
# 2 -0.010070 0.045531 -0.013661 0.000000 0.000000 0.000000
# 3 -0.003413 -0.013661 0.015922 0.000000 0.000000 0.000000
# 4 0.000000 0.000000 0.000000 -0.000335 0.000000 0.000000
# 5 0.000000 0.000000 0.000000 0.000000 0.029719 0.000000
# 6 0.000000 0.000000 0.000000 0.000000 0.000000 0.038292
#
#
# Mechanical properties :
#
#
# Convention : Reuss Voigt Hill
#
# Bulk Modulus (GPa) = 50.24207 77.28038 63.76122
# Shear Modulus (GPa) = 24.65607 -576.23809 -275.79101
#
# Velocity S-wave (km/s) = 3.62807 -17.53938 -12.13398
# Velocity P-wave (km/s) = 6.66128 19.20720 12.73860
#
# Compressibility (1/GPa) = 0.01990364
#
# Stress axis : x y z
#
# Youngs Moduli (GPa) = 78.49885 21.96325 62.80552
#
# Poissons Ratio (x) = 0.22117 0.21434
# Poissons Ratio (y) = 0.79048 0.85801
# Poissons Ratio (z) = 0.26790 0.30005
#
# Static dielectric constant tensor:
#      x y z
#    x 3.831100 0.000000 0.000000 
#    y 0.000000 3.260400 0.000000 
#    z 0.000000 0.000000 5.429380 
# 
# 
# High freq. dielectric constant tensor:
#      x y z
#    x 1.742440 0.000000 0.000000 
#    y 0.000000 1.708900 0.000000 
#    z 0.000000 0.000000 1.721110 
# 
# From -- ./inp_files/6206.got.cif
#   From: 2010.03.12/outbox.cif.g09.slc.cpg/sg47_4_cif.got.tgz:6206.got - 2010.04.14 03:12:58.
