data_PCOD8199291
_publ_section_title
;
Structure prediction by ZEFSAII (Michael W. Deem and Ramdas Pophale) SiO2 
 PCOD8199291
Probable space group: P M M M
;
_chemical_formula_sum "Si O2"
_cell_formula_units_Z 40
_cell_length_a 29.068646
_cell_length_b 9.326353
_cell_length_c 7.633351
_cell_angle_alpha 90.000000
_cell_angle_beta 90.000000
_cell_angle_gamma 90.000000
_cell_volume 2069.435454
_symmetry_space_group_name_H-M "P M M M"
_symmetry_group_IT_number 47
_symmetry_cell_setting 'orthorhombic'
loop_
_space_group_symop_operation_xyz
x,y,z
-x,-y,z
x,-y,-z
-x,y,-z
-x,-y,-z
x,y,-z
-x,y,z
x,-y,z
loop_
_atom_site_type_symbol
_atom_site_label
_atom_site_fract_x
_atom_site_fract_y
_atom_site_fract_z
Si Si1 0.863265 0.156804 0.799472
Si Si2 0.394911 0.671203 0.500000
Si Si3 0.291098 0.330649 0.500000
Si Si4 0.553701 0.835576 0.799164
Si Si5 0.051440 0.660361 0.293214
Si Si6 0.223087 0.668008 0.797633
O O1 0.912904 0.228841 0.786175
O O2 0.822672 0.255117 0.721647
O O3 0.864113 0.000000 0.706920
O O4 0.851230 0.135478 0.000000
O O5 0.398070 0.500000 0.500000
O O6 0.342687 0.729866 0.500000
O O7 0.418617 0.729251 0.325017
O O8 0.293251 0.500000 0.500000
O O9 0.265211 0.278504 0.323430
O O10 0.500000 0.808378 0.768218
O O11 0.565878 0.000000 0.753245
O O12 0.566962 0.801664 0.000000
O O13 0.055476 0.663334 0.500000
O O14 0.062252 0.500000 0.224007
O O15 0.000000 0.705524 0.234348
O O16 0.213984 0.500000 0.775134
O O17 0.234443 0.706024 0.000000
#
# Coordination Sequence:
#
# PCOD8199291 Si02
#       6
#     8   4   4   8   8   8
#     4  10  21  35  51  75 105 132 161 205 262 315
#     4  11  22  34  53  86 122 149 181 234 295 344
#     4   9  20  36  54  79 107 141 182 220 271 333
#     4   9  19  37  59  81 110 154 202 239 274 325
#     4   9  19  35  53  74 100 131 168 207 246 297
#     4   9  18  35  57  76  98 134 180 224 262 310
#
# _framework density 19.328944
#
# number of rings (size 3 to 8) (size 9 to 14) (size 15 to 20)
#    0.000    2.600    0.000    2.400    1.400    5.200 
#    0.000    8.000    0.000    2.400    0.000    0.000 
#    0.000    0.000    0.000    0.000    0.000    0.000 
#
# Total GULP energy -495864.781911 kJ/mol
# GULP energy per Si atom -12396.619548 kJ/mol
# Density = 1.928495 g / cm^3
# Si number density = 19.328944 Si / 1000 Ang^3
#
#
#
# Elastic Constant Matrix: (Units=GPa)
#
#
# Indices 1 2 3 4 5 6 
#
# 1 142.8630 71.0127 61.1360 0.0000 0.0000 0.0000
# 2 71.0127 102.1505 46.2625 0.0000 0.0000 0.0000
# 3 61.1360 46.2625 90.0740 0.0000 0.0000 0.0000
# 4 0.0000 0.0000 0.0000 21.7563 0.0000 0.0000
# 5 0.0000 0.0000 0.0000 0.0000 8.9643 0.0000
# 6 0.0000 0.0000 0.0000 0.0000 0.0000 5.9459
#
#
#
# Elastic Compliance Matrix: (Units=1/GPa)
#
#
# Indices 1 2 3 4 5 6 
#
# 1 0.012292 -0.006212 -0.005153 0.000000 0.000000 0.000000
# 2 -0.006212 0.015896 -0.003948 0.000000 0.000000 0.000000
# 3 -0.005153 -0.003948 0.016627 0.000000 0.000000 0.000000
# 4 0.000000 0.000000 0.000000 0.045964 0.000000 0.000000
# 5 0.000000 0.000000 0.000000 0.000000 0.111554 0.000000
# 6 0.000000 0.000000 0.000000 0.000000 0.000000 0.168182
#
#
# Mechanical properties :
#
#
# Convention : Reuss Voigt Hill
#
# Bulk Modulus (GPa) = 70.47218 76.87888 73.67553
# Shear Modulus (GPa) = 12.31921 17.77839 15.04880
#
# Velocity S-wave (km/s) = 2.52731 3.03608 2.79330
# Velocity P-wave (km/s) = 6.71230 7.22154 6.97157
#
# Compressibility (1/GPa) = 0.01419000
#
# Stress axis : x y z
#
# Youngs Moduli (GPa) = 81.35050 62.90975 60.14268
#
# Poissons Ratio (x) = 0.39078 0.30991
# Poissons Ratio (y) = 0.50533 0.23745
# Poissons Ratio (z) = 0.41919 0.24837
#
# Static dielectric constant tensor:
#      x y z
#    x 3.740940 0.000000 0.000000 
#    y 0.000000 3.660700 0.000000 
#    z 0.000000 0.000000 3.514180 
# 
# 
# High freq. dielectric constant tensor:
#      x y z
#    x 1.749230 0.000000 0.000000 
#    y 0.000000 1.739870 0.000000 
#    z 0.000000 0.000000 1.754420 
# 
# From -- ./inp_files/13010.got.cif
#   From: 2010.03.12/outbox.cif.g09.slc.cpg/sg47_7_cif.got.tgz:13010.got - 2010.04.14 03:12:58.
