data_PCOD8199867
_publ_section_title
;
Structure prediction by ZEFSAII (Michael W. Deem and Ramdas Pophale) SiO2 
 PCOD8199867
Probable space group: P M M M
;
_chemical_formula_sum "Si O2"
_cell_formula_units_Z 40
_cell_length_a 7.697811
_cell_length_b 29.071171
_cell_length_c 9.194820
_cell_angle_alpha 90.000000
_cell_angle_beta 90.000000
_cell_angle_gamma 90.000000
_cell_volume 2057.657092
_symmetry_space_group_name_H-M "P M M M"
_symmetry_group_IT_number 47
_symmetry_cell_setting 'orthorhombic'
loop_
_space_group_symop_operation_xyz
x,y,z
-x,-y,z
x,-y,-z
-x,y,-z
-x,-y,-z
x,y,-z
-x,y,z
x,-y,z
loop_
_atom_site_type_symbol
_atom_site_label
_atom_site_fract_x
_atom_site_fract_y
_atom_site_fract_z
Si Si1 0.194882 0.589656 0.833551
Si Si2 0.700813 0.500000 0.671250
Si Si3 0.202510 0.910229 0.160904
Si Si4 0.799596 0.821241 0.669382
Si Si5 0.500000 0.344030 0.170835
Si Si6 0.296771 0.000000 0.338067
Si Si7 0.500000 0.248160 0.669423
O O1 0.208154 0.544651 0.735857
O O2 0.329173 0.628177 0.778276
O O3 0.000000 0.609715 0.819155
O O4 0.237560 0.576083 0.000000
O O5 0.500000 0.500000 0.715657
O O6 0.728964 0.500000 0.500000
O O7 0.273157 0.865479 0.244406
O O8 0.238211 0.955438 0.252083
O O9 0.000000 0.904110 0.142895
O O10 0.288622 0.913855 0.000000
O O11 0.781466 0.833208 0.500000
O O12 0.675028 0.779159 0.713031
O O13 0.000000 0.808849 0.708519
O O14 0.500000 0.295260 0.245672
O O15 0.500000 0.335668 0.000000
O O16 0.500000 0.000000 0.352644
O O17 0.212938 0.000000 0.500000
O O18 0.500000 0.259404 0.500000
#
# Coordination Sequence:
#
# PCOD8199867 Si02
#       7
#     8   4   8   8   4   4   4
#     4  10  21  38  60  84 113 154 198 235 278 336
#     4  11  22  35  56  87 121 154 191 236 283 333
#     4  10  21  37  57  82 111 142 179 226 277 328
#     4   9  19  37  59  82 110 145 184 228 278 334
#     4  10  22  39  57  82 114 147 186 236 289 336
#     4  11  24  37  52  78 112 149 186 221 264 326
#     4  10  22  38  59  84 111 144 187 234 282 340
#
# _framework density 19.439585000000001
#
# number of rings (size 3 to 8) (size 9 to 14) (size 15 to 20)
#    0.000    2.000    1.000    1.800    1.400    7.600 
#    0.000    0.000    0.000    0.000    0.000    0.000 
#    0.000    0.000    0.000    0.000    0.000    0.000 
#
# Total GULP energy -496037.004186 kJ/mol
# GULP energy per Si atom -12400.925105 kJ/mol
# Density = 1.939534 g / cm^3
# Si number density = 19.439585 Si / 1000 Ang^3
#
#
#
# Elastic Constant Matrix: (Units=GPa)
#
#
# Indices 1 2 3 4 5 6 
#
# 1 104.5361 62.8741 38.4146 0.0000 0.0000 0.0000
# 2 62.8741 176.3759 75.5198 0.0000 0.0000 0.0000
# 3 38.4146 75.5198 98.3794 0.0000 0.0000 0.0000
# 4 0.0000 0.0000 0.0000 42.0947 0.0000 0.0000
# 5 0.0000 0.0000 0.0000 0.0000 18.7280 0.0000
# 6 0.0000 0.0000 0.0000 0.0000 0.0000 12.3445
#
#
#
# Elastic Compliance Matrix: (Units=1/GPa)
#
#
# Indices 1 2 3 4 5 6 
#
# 1 0.012481 -0.003519 -0.002172 0.000000 0.000000 0.000000
# 2 -0.003519 0.009438 -0.005871 0.000000 0.000000 0.000000
# 3 -0.002172 -0.005871 0.015519 0.000000 0.000000 0.000000
# 4 0.000000 0.000000 0.000000 0.023756 0.000000 0.000000
# 5 0.000000 0.000000 0.000000 0.000000 0.053396 0.000000
# 6 0.000000 0.000000 0.000000 0.000000 0.000000 0.081007
#
#
# Mechanical properties :
#
#
# Convention : Reuss Voigt Hill
#
# Bulk Modulus (GPa) = 69.85982 81.43427 75.64704
# Shear Modulus (GPa) = 22.37206 28.13231 25.25219
#
# Velocity S-wave (km/s) = 3.39610 3.80829 3.60809
# Velocity P-wave (km/s) = 7.16888 7.83067 7.50707
#
# Compressibility (1/GPa) = 0.01431438
#
# Stress axis : x y z
#
# Youngs Moduli (GPa) = 80.12270 105.95539 64.43517
#
# Poissons Ratio (x) = 0.37287 0.13995
# Poissons Ratio (y) = 0.28196 0.37828
# Poissons Ratio (z) = 0.17403 0.62204
#
# Static dielectric constant tensor:
#      x y z
#    x 3.801200 0.000000 0.000000 
#    y 0.000000 3.436920 0.000000 
#    z 0.000000 0.000000 3.844130 
# 
# 
# High freq. dielectric constant tensor:
#      x y z
#    x 1.767250 0.000000 0.000000 
#    y 0.000000 1.749400 0.000000 
#    z 0.000000 0.000000 1.759300 
# 
# From -- ./inp_files/1912.got.cif
#   From: 2010.03.12/outbox.cif.g09.slc.cpg/sg47_1_cif.got.tgz:1912.got - 2010.04.14 03:12:58.
