data_PCOD8199781
_publ_section_title
;
Structure prediction by ZEFSAII (Michael W. Deem and Ramdas Pophale) SiO2 
 PCOD8199781
Probable space group: P M M M
;
_chemical_formula_sum "Si O2"
_cell_formula_units_Z 56
_cell_length_a 13.765785
_cell_length_b 13.765785
_cell_length_c 14.458938
_cell_angle_alpha 90.000000
_cell_angle_beta 90.000000
_cell_angle_gamma 90.000000
_cell_volume 2739.923013
_symmetry_space_group_name_H-M "P M M M"
_symmetry_group_IT_number 47
_symmetry_cell_setting 'orthorhombic'
loop_
_space_group_symop_operation_xyz
x,y,z
-x,-y,z
x,-y,-z
-x,y,-z
-x,-y,-z
x,y,-z
-x,y,z
x,-y,z
loop_
_atom_site_type_symbol
_atom_site_label
_atom_site_fract_x
_atom_site_fract_y
_atom_site_fract_z
Si Si1 0.606427 0.106427 0.250000
Si Si2 0.892766 0.716587 0.393828
Si Si3 0.816742 0.107300 0.283769
Si Si4 0.886743 0.800748 0.893687
Si Si5 0.392700 0.316742 0.783769
Si Si6 0.216587 0.392766 0.106172
Si Si7 0.699252 0.386743 0.393687
O O1 0.500000 0.111759 0.301751
O O2 0.702634 0.112549 0.314652
O O3 0.612549 0.202634 0.185348
O O4 0.611759 0.000000 0.198249
O O5 0.883591 0.745933 0.500000
O O6 0.880394 0.816019 0.338264
O O7 0.811465 0.637378 0.367632
O O8 0.000000 0.673626 0.371725
O O9 0.825511 0.129071 0.173443
O O10 0.858079 0.000000 0.303878
O O11 0.862622 0.688535 0.867632
O O12 0.000000 0.817365 0.876287
O O13 0.858765 0.824043 0.000000
O O14 0.500000 0.358079 0.803878
O O15 0.316019 0.380394 0.838264
O O16 0.370929 0.325511 0.673443
O O17 0.173626 0.500000 0.128275
O O18 0.245933 0.383591 0.000000
O O19 0.675957 0.358765 0.500000
O O20 0.682635 0.500000 0.376287
#
# Coordination Sequence:
#
# PCOD8199781 Si02
#       7
#     8   8   8   8   8   8   8
#     4   9  18  34  58  84 107 138 180 222 265 316
#     4  10  21  37  56  80 110 143 183 226 268 318
#     4  11  21  36  59  82 110 145 178 219 272 326
#     4  10  21  37  56  80 110 143 183 226 268 318
#     4  11  21  36  59  82 110 145 178 219 272 326
#     4  10  21  37  56  80 110 143 183 226 268 318
#     4  10  21  37  56  80 110 143 183 226 268 318
#
# _framework density 20.438531000000001
#
# number of rings (size 3 to 8) (size 9 to 14) (size 15 to 20)
#    0.000    1.857    2.857    0.857    0.000    4.000 
#    0.000    5.714    0.000    5.143    0.000    8.000 
#    0.000    0.000    0.000    0.000    0.000    0.000 
#
# Total GULP energy -693760.233051 kJ/mol
# GULP energy per Si atom -12388.575590 kJ/mol
# Density = 2.039201 g / cm^3
# Si number density = 20.438531 Si / 1000 Ang^3
#
#
#
# Elastic Constant Matrix: (Units=GPa)
#
#
# Indices 1 2 3 4 5 6 
#
# 1 84.8798 0.2641 11.0482 0.0000 0.0000 0.0000
# 2 0.2641 84.8798 11.0482 0.0000 0.0000 0.0000
# 3 11.0482 11.0482 36.4350 0.0000 0.0000 0.0000
# 4 0.0000 0.0000 0.0000 18.8675 0.0000 0.0000
# 5 0.0000 0.0000 0.0000 0.0000 18.8675 0.0000
# 6 0.0000 0.0000 0.0000 0.0000 0.0000 24.7062
#
#
#
# Elastic Compliance Matrix: (Units=1/GPa)
#
#
# Indices 1 2 3 4 5 6 
#
# 1 0.012283 0.000465 -0.003866 0.000000 0.000000 0.000000
# 2 0.000465 0.012283 -0.003866 0.000000 0.000000 0.000000
# 3 -0.003866 -0.003866 0.029790 0.000000 0.000000 0.000000
# 4 0.000000 0.000000 0.000000 0.053001 0.000000 0.000000
# 5 0.000000 0.000000 0.000000 0.000000 0.053001 0.000000
# 6 0.000000 0.000000 0.000000 0.000000 0.000000 0.040476
#
#
# Mechanical properties :
#
#
# Convention : Reuss Voigt Hill
#
# Bulk Modulus (GPa) = 25.11040 27.87951 26.49495
# Shear Modulus (GPa) = 21.86830 24.74387 23.30609
#
# Velocity S-wave (km/s) = 3.27456 3.48321 3.38050
# Velocity P-wave (km/s) = 5.15844 5.46327 5.31304
#
# Compressibility (1/GPa) = 0.03982414
#
# Stress axis : x y z
#
# Youngs Moduli (GPa) = 81.41290 81.41284 33.56784
#
# Poissons Ratio (x) = -0.03785 0.12976
# Poissons Ratio (y) = -0.03785 0.12976
# Poissons Ratio (z) = 0.31471 0.31471
#
# Static dielectric constant tensor:
#      x y z
#    x 3.895040 0.000000 0.000000 
#    y 0.000000 3.895040 0.000000 
#    z 0.000000 0.000000 3.557800 
# 
# 
# High freq. dielectric constant tensor:
#      x y z
#    x 1.808130 0.000000 0.000000 
#    y 0.000000 1.808130 0.000000 
#    z 0.000000 0.000000 1.762060 
# 
# From -- ./inp_files/23842.got.cif
#   From: 2010.03.12/outbox.cif.g09.slc.cpg/sg47_12_cif.got.tgz:23842.got - 2010.04.14 03:12:58.
