data_PCOD8199984
_publ_section_title
;
Structure prediction by ZEFSAII (Michael W. Deem and Ramdas Pophale) SiO2 
 PCOD8199984
Probable space group: P M M M
;
_chemical_formula_sum "Si O2"
_cell_formula_units_Z 48
_cell_length_a 32.368147
_cell_length_b 8.078923
_cell_length_c 9.150216
_cell_angle_alpha 90.000000
_cell_angle_beta 90.000000
_cell_angle_gamma 90.000000
_cell_volume 2392.779354
_symmetry_space_group_name_H-M "P M M M"
_symmetry_group_IT_number 47
_symmetry_cell_setting 'orthorhombic'
loop_
_space_group_symop_operation_xyz
x,y,z
-x,-y,z
x,-y,-z
-x,y,-z
-x,-y,-z
x,y,-z
-x,y,z
x,-y,z
loop_
_atom_site_type_symbol
_atom_site_label
_atom_site_fract_x
_atom_site_fract_y
_atom_site_fract_z
Si Si1 0.657377 0.308194 0.661545
Si Si2 0.046885 0.000000 0.674309
Si Si3 0.097056 0.316047 0.326214
Si Si4 0.419759 0.305084 0.162870
Si Si5 0.733706 0.810177 0.835477
Si Si6 0.809526 0.691926 0.334311
Si Si7 0.500000 0.195226 0.666912
O O1 0.658615 0.225395 0.500000
O O2 0.647789 0.500000 0.643350
O O3 0.620409 0.227069 0.756648
O O4 0.701291 0.289729 0.738987
O O5 0.068423 0.167770 0.735823
O O6 0.049123 0.000000 0.500000
O O7 0.000000 0.000000 0.730704
O O8 0.095193 0.319040 0.500000
O O9 0.083047 0.500000 0.269196
O O10 0.143928 0.279904 0.276658
O O11 0.414700 0.500000 0.149364
O O12 0.460041 0.265052 0.254436
O O13 0.422961 0.227597 0.000000
O O14 0.779412 0.793586 0.769934
O O15 0.720378 0.000000 0.834596
O O16 0.733506 0.738950 0.000000
O O17 0.805028 0.757932 0.500000
O O18 0.797550 0.500000 0.327604
O O19 0.500000 0.257532 0.500000
O O20 0.500000 0.000000 0.676458
#
# Coordination Sequence:
#
# PCOD8199984 Si02
#       7
#     8   4   8   8   8   8   4
#     4  10  21  38  60  83 106 137 178 219 261 314
#     4   9  16  24  38  64  97 137 179 215 265 328
#     4   8  15  27  42  64  95 130 172 221 268 320
#     4  10  21  38  61  86 110 140 179 222 270 321
#     4  11  24  37  50  75 109 141 174 214 263 318
#     4   9  18  33  53  75  98 131 177 222 265 316
#     4  11  24  39  56  82 114 147 182 221 268 320
#
# _framework density 20.060352999999999
#
# number of rings (size 3 to 8) (size 9 to 14) (size 15 to 20)
#    0.000    2.333    0.000    3.500    1.167    8.333 
#    0.000    1.667    0.000    0.000    0.000    0.000 
#    0.000    1.333    0.000    3.667    0.000    3.667 
#
# Total GULP energy -595124.654217 kJ/mol
# GULP energy per Si atom -12398.430296 kJ/mol
# Density = 2.001470 g / cm^3
# Si number density = 20.060353 Si / 1000 Ang^3
#
#
#
# Elastic Constant Matrix: (Units=GPa)
#
#
# Indices 1 2 3 4 5 6 
#
# 1 149.3742 43.2076 58.4486 0.0000 0.0000 0.0000
# 2 43.2076 63.3180 25.6066 0.0000 0.0000 0.0000
# 3 58.4486 25.6066 127.7298 0.0000 0.0000 0.0000
# 4 0.0000 0.0000 0.0000 18.2892 0.0000 0.0000
# 5 0.0000 0.0000 0.0000 0.0000 0.7715 0.0000
# 6 0.0000 0.0000 0.0000 0.0000 0.0000 -64.0168
#
#
#
# Elastic Compliance Matrix: (Units=1/GPa)
#
#
# Indices 1 2 3 4 5 6 
#
# 1 0.009471 -0.005126 -0.003306 0.000000 0.000000 0.000000
# 2 -0.005126 0.019961 -0.001656 0.000000 0.000000 0.000000
# 3 -0.003306 -0.001656 0.009674 0.000000 0.000000 0.000000
# 4 0.000000 0.000000 0.000000 0.054677 0.000000 0.000000
# 5 0.000000 0.000000 0.000000 0.000000 1.296110 0.000000
# 6 0.000000 0.000000 0.000000 0.000000 0.000000 -0.015621
#
#
# Mechanical properties :
#
#
# Convention : Reuss Voigt Hill
#
# Bulk Modulus (GPa) = 52.82782 66.10529 59.46656
# Shear Modulus (GPa) = 3.56950 5.21940 4.39445
#
# Velocity S-wave (km/s) = 1.33538 1.61478 1.48168
# Velocity P-wave (km/s) = 5.36370 6.04164 5.71273
#
# Compressibility (1/GPa) = 0.01892942
#
# Stress axis : x y z
#
# Youngs Moduli (GPa) = 105.58561 50.09811 103.37004
#
# Poissons Ratio (x) = 0.25679 0.34177
# Poissons Ratio (y) = 0.54121 0.17119
# Poissons Ratio (z) = 0.34910 0.08297
#
# Static dielectric constant tensor:
#      x y z
#    x 3.677030 0.000000 0.000000 
#    y 0.000000 3.625680 0.000000 
#    z 0.000000 0.000000 3.641070 
# 
# 
# High freq. dielectric constant tensor:
#      x y z
#    x 1.787470 0.000000 0.000000 
#    y 0.000000 1.774520 0.000000 
#    z 0.000000 0.000000 1.759230 
# 
# From -- ./inp_files/13860.got.cif
#   From: 2010.03.12/outbox.cif.g09.slc.cpg/sg47_7_cif.got.tgz:13860.got - 2010.04.14 03:12:58.
