data_PCOD8199433
_publ_section_title
;
Structure prediction by ZEFSAII (Michael W. Deem and Ramdas Pophale) SiO2 
 PCOD8199433
Probable space group: P M M M
;
_chemical_formula_sum "Si O2"
_cell_formula_units_Z 44
_cell_length_a 8.811509
_cell_length_b 28.627268
_cell_length_c 9.133184
_cell_angle_alpha 90.000000
_cell_angle_beta 90.000000
_cell_angle_gamma 90.000000
_cell_volume 2303.840455
_symmetry_space_group_name_H-M "P M M M"
_symmetry_group_IT_number 47
_symmetry_cell_setting 'orthorhombic'
loop_
_space_group_symop_operation_xyz
x,y,z
-x,-y,z
x,-y,-z
-x,y,-z
-x,-y,-z
x,y,-z
-x,y,z
x,-y,z
loop_
_atom_site_type_symbol
_atom_site_label
_atom_site_fract_x
_atom_site_fract_y
_atom_site_fract_z
Si Si1 0.174594 0.766957 0.332207
Si Si2 0.822283 0.413700 0.830617
Si Si3 0.672163 0.149838 0.825347
Si Si4 0.320549 0.500000 0.666117
Si Si5 0.319847 0.049408 0.836243
Si Si6 0.323625 0.329077 0.670269
O O1 0.206860 0.780023 0.500000
O O2 0.216138 0.811191 0.234828
O O3 0.276427 0.723078 0.283968
O O4 0.000000 0.753652 0.306167
O O5 0.735952 0.454066 0.746143
O O6 0.774503 0.364009 0.766858
O O7 0.000000 0.421058 0.808678
O O8 0.776151 0.415944 0.000000
O O9 0.500000 0.160046 0.772531
O O10 0.730777 0.098854 0.763705
O O11 0.679290 0.149463 0.000000
O O12 0.500000 0.500000 0.668595
O O13 0.259293 0.500000 0.500000
O O14 0.500000 0.051474 0.843985
O O15 0.269620 0.000000 0.756540
O O16 0.253538 0.047482 0.000000
O O17 0.287113 0.338163 0.500000
O O18 0.500000 0.336441 0.704700
#
# Coordination Sequence:
#
# PCOD8199433 Si02
#       6
#     8   8   8   4   8   8
#     4  10  21  36  53  73 100 137 177 214 256 308
#     4  11  24  40  59  86 118 149 181 218 263 313
#     4   9  17  29  48  75 102 128 163 209 260 311
#     4  11  24  41  62  88 116 149 190 229 264 306
#     4   7  10  19  38  65  95 124 156 199 251 304
#     4  10  21  38  60  83 105 134 176 221 264 313
#
# _framework density 19.098545999999999
#
# number of rings (size 3 to 8) (size 9 to 14) (size 15 to 20)
#    0.000    2.455    0.000    4.364    0.000    8.727 
#    0.000    0.000    0.000    1.091    0.000    6.364 
#    0.000    0.000    0.000    0.000    0.000    0.000 
#
# Total GULP energy -545312.711023 kJ/mol
# GULP energy per Si atom -12393.470705 kJ/mol
# Density = 1.905508 g / cm^3
# Si number density = 19.098546 Si / 1000 Ang^3
#
#
#
# Elastic Constant Matrix: (Units=GPa)
#
#
# Indices 1 2 3 4 5 6 
#
# 1 44.8603 25.7679 30.2938 0.0000 0.0000 0.0000
# 2 25.7679 140.2202 53.9039 0.0000 0.0000 0.0000
# 3 30.2938 53.9039 70.0970 0.0000 0.0000 0.0000
# 4 0.0000 0.0000 0.0000 30.7876 0.0000 0.0000
# 5 0.0000 0.0000 0.0000 0.0000 25.2733 0.0000
# 6 0.0000 0.0000 0.0000 0.0000 0.0000 -57.6786
#
#
#
# Elastic Compliance Matrix: (Units=1/GPa)
#
#
# Indices 1 2 3 4 5 6 
#
# 1 0.031539 -0.000789 -0.013023 0.000000 0.000000 0.000000
# 2 -0.000789 0.010144 -0.007460 0.000000 0.000000 0.000000
# 3 -0.013023 -0.007460 0.025631 0.000000 0.000000 0.000000
# 4 0.000000 0.000000 0.000000 0.032481 0.000000 0.000000
# 5 0.000000 0.000000 0.000000 0.000000 0.039567 0.000000
# 6 0.000000 0.000000 0.000000 0.000000 0.000000 -0.017337
#
#
# Mechanical properties :
#
#
# Convention : Reuss Voigt Hill
#
# Bulk Modulus (GPa) = 40.37227 52.78986 46.58106
# Shear Modulus (GPa) = 28.93071 9.35726 19.14398
#
# Velocity S-wave (km/s) = 3.89628 2.21587 3.16947
# Velocity P-wave (km/s) = 6.43632 5.85214 6.15117
#
# Compressibility (1/GPa) = 0.02476948
#
# Stress axis : x y z
#
# Youngs Moduli (GPa) = 31.70634 98.57623 39.01566
#
# Poissons Ratio (x) = 0.07782 0.50811
# Poissons Ratio (y) = 0.02503 0.29105
# Poissons Ratio (z) = 0.41292 0.73536
#
# Static dielectric constant tensor:
#      x y z
#    x 3.350160 0.000000 0.000000 
#    y 0.000000 4.019950 0.000000 
#    z 0.000000 0.000000 3.297110 
# 
# 
# High freq. dielectric constant tensor:
#      x y z
#    x 1.726960 0.000000 0.000000 
#    y 0.000000 1.770000 0.000000 
#    z 0.000000 0.000000 1.712590 
# 
# From -- ./inp_files/2275.got.cif
#   From: 2010.03.12/outbox.cif.g09.slc.cpg/sg47_2_cif.got.tgz:2275.got - 2010.04.14 03:12:58.
