data_PCOD8199485
_publ_section_title
;
Structure prediction by ZEFSAII (Michael W. Deem and Ramdas Pophale) SiO2 
 PCOD8199485
Probable space group: P M M M
;
_chemical_formula_sum "Si O2"
_cell_formula_units_Z 48
_cell_length_a 9.978759
_cell_length_b 8.861513
_cell_length_c 28.850787
_cell_angle_alpha 90.000000
_cell_angle_beta 90.000000
_cell_angle_gamma 90.000000
_cell_volume 2551.185732
_symmetry_space_group_name_H-M "P M M M"
_symmetry_group_IT_number 47
_symmetry_cell_setting 'orthorhombic'
loop_
_space_group_symop_operation_xyz
x,y,z
-x,-y,z
x,-y,-z
-x,y,-z
-x,-y,-z
x,y,-z
-x,y,z
x,-y,z
loop_
_atom_site_type_symbol
_atom_site_label
_atom_site_fract_x
_atom_site_fract_y
_atom_site_fract_z
Si Si1 0.652588 0.323961 0.124320
Si Si2 0.754707 0.178695 0.599602
Si Si3 0.651907 0.821115 0.779898
Si Si4 0.847015 0.173900 0.053773
Si Si5 0.000000 0.331740 0.554088
Si Si6 0.848629 0.820836 0.299480
Si Si7 0.500000 0.321018 0.553150
O O1 0.500000 0.278387 0.111843
O O2 0.665642 0.500000 0.133479
O O3 0.700527 0.239978 0.170666
O O4 0.747386 0.278604 0.082198
O O5 0.873700 0.232995 0.567527
O O6 0.784343 0.230449 0.652080
O O7 0.624760 0.260920 0.581424
O O8 0.736728 0.000000 0.595764
O O9 0.500000 0.766363 0.768839
O O10 0.753410 0.756498 0.741172
O O11 0.658133 0.000000 0.781226
O O12 0.000000 0.211433 0.067532
O O13 0.815120 0.000000 0.064660
O O14 0.823411 0.209193 0.000000
O O15 0.000000 0.500000 0.577077
O O16 0.000000 0.354225 0.500000
O O17 0.000000 0.755649 0.294490
O O18 0.854681 0.000000 0.297212
O O19 0.500000 0.500000 0.553358
O O20 0.500000 0.261388 0.500000
#
# Coordination Sequence:
#
# PCOD8199485 Si02
#       7
#     8   8   8   8   4   8   4
#     4  10  21  36  53  78 115 151 185 228 277 329
#     4  11  22  38  62  89 115 145 189 240 283 333
#     4   9  18  33  56  80 105 144 189 228 272 328
#     4   9  19  36  57  81 109 143 187 236 282 331
#     4  11  23  39  59  83 117 157 189 225 280 341
#     4   9  18  34  56  84 113 139 175 227 280 327
#     4  11  25  43  59  81 117 155 189 229 284 345
#
# _framework density 18.814782000000001
#
# number of rings (size 3 to 8) (size 9 to 14) (size 15 to 20)
#    0.000    2.167    0.833    2.500    1.167    6.000 
#    0.000    5.833    0.000    0.000    0.000    0.000 
#    0.000    0.000    0.000    0.000    0.000    0.000 
#
# Total GULP energy -595229.339264 kJ/mol
# GULP energy per Si atom -12400.611235 kJ/mol
# Density = 1.877196 g / cm^3
# Si number density = 18.814782 Si / 1000 Ang^3
#
#
#
# Elastic Constant Matrix: (Units=GPa)
#
#
# Indices 1 2 3 4 5 6 
#
# 1 141.0677 28.9676 73.9354 0.0000 0.0000 0.0000
# 2 28.9676 38.5205 26.7691 0.0000 0.0000 0.0000
# 3 73.9354 26.7691 114.6911 0.0000 0.0000 0.0000
# 4 0.0000 0.0000 0.0000 4.5656 0.0000 0.0000
# 5 0.0000 0.0000 0.0000 0.0000 40.9032 0.0000
# 6 0.0000 0.0000 0.0000 0.0000 0.0000 17.8042
#
#
#
# Elastic Compliance Matrix: (Units=1/GPa)
#
#
# Indices 1 2 3 4 5 6 
#
# 1 0.011216 -0.004070 -0.006281 0.000000 0.000000 0.000000
# 2 -0.004070 0.032463 -0.004953 0.000000 0.000000 0.000000
# 3 -0.006281 -0.004953 0.013924 0.000000 0.000000 0.000000
# 4 0.000000 0.000000 0.000000 0.219028 0.000000 0.000000
# 5 0.000000 0.000000 0.000000 0.000000 0.024448 0.000000
# 6 0.000000 0.000000 0.000000 0.000000 0.000000 0.056167
#
#
# Mechanical properties :
#
#
# Convention : Reuss Voigt Hill
#
# Bulk Modulus (GPa) = 37.04316 61.51373 49.27844
# Shear Modulus (GPa) = 12.59916 23.62842 18.11379
#
# Velocity S-wave (km/s) = 2.59055 3.54763 3.10618
# Velocity P-wave (km/s) = 5.35528 7.03891 6.25401
#
# Compressibility (1/GPa) = 0.02699554
#
# Stress axis : x y z
#
# Youngs Moduli (GPa) = 89.15583 30.80428 71.81890
#
# Poissons Ratio (x) = 0.12538 0.45107
# Poissons Ratio (y) = 0.36288 0.35573
# Poissons Ratio (z) = 0.55995 0.15258
#
# Static dielectric constant tensor:
#      x y z
#    x 3.697150 0.000000 0.000000 
#    y 0.000000 3.328710 0.000000 
#    z 0.000000 0.000000 3.540860 
# 
# 
# High freq. dielectric constant tensor:
#      x y z
#    x 1.741440 0.000000 0.000000 
#    y 0.000000 1.716330 0.000000 
#    z 0.000000 0.000000 1.736750 
# 
# From -- ./inp_files/34159.got.cif
#   From: 2010.03.12/outbox.cif.g09.slc.cpg/sg47_18_cif.got.tgz:34159.got - 2010.04.14 03:12:58.
