data_PCOD8199934
_publ_section_title
;
Structure prediction by ZEFSAII (Michael W. Deem and Ramdas Pophale) SiO2 
 PCOD8199934
Probable space group: P M M M
;
_chemical_formula_sum "Si O2"
_cell_formula_units_Z 52
_cell_length_a 8.814240
_cell_length_b 19.314386
_cell_length_c 15.559100
_cell_angle_alpha 90.000000
_cell_angle_beta 90.000000
_cell_angle_gamma 90.000000
_cell_volume 2648.806602
_symmetry_space_group_name_H-M "P M M M"
_symmetry_group_IT_number 47
_symmetry_cell_setting 'orthorhombic'
loop_
_space_group_symop_operation_xyz
x,y,z
-x,-y,z
x,-y,-z
-x,y,-z
-x,-y,-z
x,y,-z
-x,y,z
x,-y,z
loop_
_atom_site_type_symbol
_atom_site_label
_atom_site_fract_x
_atom_site_fract_y
_atom_site_fract_z
Si Si1 0.820469 0.420291 0.500000
Si Si2 0.331914 0.576148 0.100994
Si Si3 0.825236 0.693517 0.810997
Si Si4 0.179097 0.164993 0.097960
Si Si5 0.320882 0.920628 0.754871
Si Si6 0.322191 0.681481 0.631726
Si Si7 0.679700 0.165333 0.593509
O O1 0.763120 0.500000 0.500000
O O2 0.761083 0.381524 0.584734
O O3 0.000000 0.417829 0.500000
O O4 0.500000 0.601169 0.131302
O O5 0.298571 0.500000 0.140301
O O6 0.199055 0.627930 0.128178
O O7 0.328767 0.570879 0.000000
O O8 0.772414 0.761560 0.862205
O O9 0.715572 0.680571 0.731494
O O10 0.000000 0.698807 0.782276
O O11 0.250987 0.104761 0.155558
O O12 0.000000 0.156043 0.098767
O O13 0.240528 0.159630 0.000000
O O14 0.500000 0.910654 0.760417
O O15 0.251464 0.878528 0.673036
O O16 0.275120 0.000000 0.741279
O O17 0.500000 0.672149 0.616356
O O18 0.264357 0.755358 0.596098
O O19 0.729534 0.134580 0.500000
O O20 0.500000 0.162780 0.602291
#
# Coordination Sequence:
#
# PCOD8199934 Si02
#       7
#     4   8   8   8   8   8   8
#     4  11  25  43  61  87 124 159 196 246 300 354
#     4   9  19  36  56  79 109 145 185 231 286 346
#     4  11  22  36  57  85 115 148 193 246 297 352
#     4  10  22  39  58  82 115 158 204 248 298 358
#     4  10  21  37  59  89 122 153 191 243 298 354
#     4  11  21  37  62  87 113 151 197 242 288 347
#     4   9  17  33  59  89 117 147 187 233 284 345
#
# _framework density 19.631481999999998
#
# number of rings (size 3 to 8) (size 9 to 14) (size 15 to 20)
#    0.000    1.923    2.308    2.077    0.000    4.308 
#    0.000    3.846    0.000    0.000    0.000    1.077 
#    0.000    0.000    0.000    0.000    0.000    0.000 
#
# Total GULP energy -644713.143611 kJ/mol
# GULP energy per Si atom -12398.329685 kJ/mol
# Density = 1.958680 g / cm^3
# Si number density = 19.631482 Si / 1000 Ang^3
#
#
#
# Elastic Constant Matrix: (Units=GPa)
#
#
# Indices 1 2 3 4 5 6 
#
# 1 36.3891 38.6203 25.6955 0.0000 0.0000 0.0000
# 2 38.6203 132.9075 73.2976 0.0000 0.0000 0.0000
# 3 25.6955 73.2976 139.6000 0.0000 0.0000 0.0000
# 4 0.0000 0.0000 0.0000 33.8700 0.0000 0.0000
# 5 0.0000 0.0000 0.0000 0.0000 27.1959 0.0000
# 6 0.0000 0.0000 0.0000 0.0000 0.0000 24.5696
#
#
#
# Elastic Compliance Matrix: (Units=1/GPa)
#
#
# Indices 1 2 3 4 5 6 
#
# 1 0.040045 -0.010657 -0.001775 0.000000 0.000000 0.000000
# 2 -0.010657 0.013427 -0.005088 0.000000 0.000000 0.000000
# 3 -0.001775 -0.005088 0.010162 0.000000 0.000000 0.000000
# 4 0.000000 0.000000 0.000000 0.029525 0.000000 0.000000
# 5 0.000000 0.000000 0.000000 0.000000 0.036770 0.000000
# 6 0.000000 0.000000 0.000000 0.000000 0.000000 0.040701
#
#
# Mechanical properties :
#
#
# Convention : Reuss Voigt Hill
#
# Bulk Modulus (GPa) = 34.97466 64.90260 49.93863
# Shear Modulus (GPa) = 23.23403 28.54597 25.89000
#
# Velocity S-wave (km/s) = 3.44395 3.81739 3.63547
# Velocity P-wave (km/s) = 5.80247 7.24998 6.56623
#
# Compressibility (1/GPa) = 0.02859213
#
# Stress axis : x y z
#
# Youngs Moduli (GPa) = 24.97191 74.47703 98.40881
#
# Poissons Ratio (x) = 0.79372 0.17470
# Poissons Ratio (y) = 0.26613 0.50073
# Poissons Ratio (z) = 0.04433 0.37896
#
# Static dielectric constant tensor:
#      x y z
#    x 3.321780 0.000000 0.000000 
#    y 0.000000 3.779390 0.000000 
#    z 0.000000 0.000000 3.707710 
# 
# 
# High freq. dielectric constant tensor:
#      x y z
#    x 1.742030 0.000000 0.000000 
#    y 0.000000 1.766540 0.000000 
#    z 0.000000 0.000000 1.775150 
# 
# From -- ./inp_files/21451.got.cif
#   From: 2010.03.12/outbox.cif.g09.slc.cpg/sg47_11_cif.got.tgz:21451.got - 2010.04.14 03:12:58.
