data_PCOD8199444
_publ_section_title
;
Structure prediction by ZEFSAII (Michael W. Deem and Ramdas Pophale) SiO2 
 PCOD8199444
Probable space group: P M M M
;
_chemical_formula_sum "Si O2"
_cell_formula_units_Z 64
_cell_length_a 18.617373
_cell_length_b 9.477589
_cell_length_c 20.400539
_cell_angle_alpha 90.000000
_cell_angle_beta 90.000000
_cell_angle_gamma 90.000000
_cell_volume 3599.630420
_symmetry_space_group_name_H-M "P M M M"
_symmetry_group_IT_number 47
_symmetry_cell_setting 'orthorhombic'
loop_
_space_group_symop_operation_xyz
x,y,z
-x,-y,z
x,-y,-z
-x,y,-z
-x,-y,-z
x,y,-z
-x,y,z
x,-y,z
loop_
_atom_site_type_symbol
_atom_site_label
_atom_site_fract_x
_atom_site_fract_y
_atom_site_fract_z
Si Si1 0.693442 0.337375 0.075400
Si Si2 0.169785 0.664053 0.306129
Si Si3 0.337255 0.158456 0.571975
Si Si4 0.663686 0.335090 0.307141
Si Si5 0.580032 0.667349 0.180571
Si Si6 0.833441 0.158890 0.572147
Si Si7 0.916679 0.337642 0.178516
Si Si8 0.165405 0.835474 0.923799
O O1 0.713663 0.500000 0.091613
O O2 0.625364 0.285315 0.117221
O O3 0.760188 0.239992 0.094690
O O4 0.671768 0.318953 0.000000
O O5 0.158273 0.500000 0.319315
O O6 0.253078 0.701892 0.294735
O O7 0.136919 0.742353 0.369795
O O8 0.127303 0.714081 0.241909
O O9 0.365173 0.206805 0.500000
O O10 0.367806 0.261007 0.627872
O O11 0.251905 0.164632 0.572422
O O12 0.363726 0.000000 0.586704
O O13 0.652314 0.500000 0.317069
O O14 0.619019 0.275778 0.245709
O O15 0.500000 0.732207 0.175522
O O16 0.575887 0.500000 0.183462
O O17 0.860861 0.209652 0.500000
O O18 0.860316 0.000000 0.585276
O O19 0.897845 0.500000 0.161220
O O20 0.897508 0.238384 0.117256
O O21 0.000000 0.319570 0.194558
O O22 0.171039 0.000000 0.905693
O O23 0.146865 0.813891 0.000000
#
# Coordination Sequence:
#
# PCOD8199444 Si02
#       8
#     8   8   8   8   8   8   8   8
#     4   9  17  31  53  77  99 126 161 199 237 281
#     4   9  17  29  46  69  95 122 156 198 241 285
#     4   8  14  25  41  62  88 115 145 188 239 283
#     4   9  16  26  43  66  91 120 153 191 234 280
#     4   9  17  29  46  70 100 130 160 198 241 281
#     4   8  14  25  42  66  94 121 152 193 240 287
#     4  10  21  36  53  73  99 131 165 201 241 287
#     4  10  21  36  54  76 101 128 159 198 243 290
#
# _framework density 17.779603000000002
#
# number of rings (size 3 to 8) (size 9 to 14) (size 15 to 20)
#    0.000    3.000    0.000    1.875    0.000    4.500 
#    0.000    8.125    0.000    2.250    0.000    7.000 
#    0.000    0.000    0.000    0.000    0.000    0.000 
#
# Total GULP energy -793436.752042 kJ/mol
# GULP energy per Si atom -12397.449251 kJ/mol
# Density = 1.773914 g / cm^3
# Si number density = 17.779603 Si / 1000 Ang^3
#
#
#
# Elastic Constant Matrix: (Units=GPa)
#
#
# Indices 1 2 3 4 5 6 
#
# 1 63.3078 30.3803 47.8459 0.0000 0.0000 0.0000
# 2 30.3803 63.7966 53.0753 0.0000 0.0000 0.0000
# 3 47.8459 53.0753 122.8398 0.0000 0.0000 0.0000
# 4 0.0000 0.0000 0.0000 27.3557 0.0000 0.0000
# 5 0.0000 0.0000 0.0000 0.0000 6.6259 0.0000
# 6 0.0000 0.0000 0.0000 0.0000 0.0000 9.1895
#
#
#
# Elastic Compliance Matrix: (Units=1/GPa)
#
#
# Indices 1 2 3 4 5 6 
#
# 1 0.023604 -0.005607 -0.006771 0.000000 0.000000 0.000000
# 2 -0.005607 0.025803 -0.008965 0.000000 0.000000 0.000000
# 3 -0.006771 -0.008965 0.014651 0.000000 0.000000 0.000000
# 4 0.000000 0.000000 0.000000 0.036555 0.000000 0.000000
# 5 0.000000 0.000000 0.000000 0.000000 0.150924 0.000000
# 6 0.000000 0.000000 0.000000 0.000000 0.000000 0.108820
#
#
# Mechanical properties :
#
#
# Convention : Reuss Voigt Hill
#
# Bulk Modulus (GPa) = 46.78898 56.94968 51.86933
# Shear Modulus (GPa) = 12.19014 16.54373 14.36694
#
# Velocity S-wave (km/s) = 2.62129 3.05370 2.84572
# Velocity P-wave (km/s) = 5.96110 6.67337 6.32727
#
# Compressibility (1/GPa) = 0.02137256
#
# Stress axis : x y z
#
# Youngs Moduli (GPa) = 42.36581 38.75490 68.25297
#
# Poissons Ratio (x) = 0.21731 0.46214
# Poissons Ratio (y) = 0.23755 0.61187
# Poissons Ratio (z) = 0.28686 0.34743
#
# Static dielectric constant tensor:
#      x y z
#    x 3.058270 0.000000 0.000000 
#    y 0.000000 3.219930 0.000000 
#    z 0.000000 0.000000 3.622500 
# 
# 
# High freq. dielectric constant tensor:
#      x y z
#    x 1.654210 0.000000 0.000000 
#    y 0.000000 1.668380 0.000000 
#    z 0.000000 0.000000 1.702330 
# 
# From -- ./inp_files/9952.got.cif
#   From: 2010.03.12/outbox.cif.g09.slc.cpg/sg47_5_cif.got.tgz:9952.got - 2010.04.14 03:12:58.
