data_PCOD8199486
_publ_section_title
;
Structure prediction by ZEFSAII (Michael W. Deem and Ramdas Pophale) SiO2 
 PCOD8199486
Probable space group: P M M M
;
_chemical_formula_sum "Si O2"
_cell_formula_units_Z 64
_cell_length_a 9.078893
_cell_length_b 28.964016
_cell_length_c 14.356450
_cell_angle_alpha 90.000000
_cell_angle_beta 90.000000
_cell_angle_gamma 90.000000
_cell_volume 3775.189350
_symmetry_space_group_name_H-M "P M M M"
_symmetry_group_IT_number 47
_symmetry_cell_setting 'orthorhombic'
loop_
_space_group_symop_operation_xyz
x,y,z
-x,-y,z
x,-y,-z
-x,y,-z
-x,-y,-z
x,y,-z
-x,y,z
x,-y,z
loop_
_atom_site_type_symbol
_atom_site_label
_atom_site_fract_x
_atom_site_fract_y
_atom_site_fract_z
Si Si1 0.830274 0.448390 0.729977
Si Si2 0.173674 0.227187 0.225478
Si Si3 0.169024 0.684401 0.892710
Si Si4 0.327404 0.269684 0.606894
Si Si5 0.673563 0.407981 0.894366
Si Si6 0.323933 0.851177 0.107141
Si Si7 0.333682 0.625344 0.390989
Si Si8 0.335819 0.951219 0.889689
O O1 0.807191 0.500000 0.689479
O O2 0.745332 0.446117 0.828261
O O3 0.772197 0.411055 0.657438
O O4 0.000000 0.437832 0.748925
O O5 0.218386 0.271678 0.165855
O O6 0.235811 0.234351 0.329410
O O7 0.248313 0.183599 0.177677
O O8 0.000000 0.219230 0.229353
O O9 0.270916 0.642125 0.860698
O O10 0.000000 0.670795 0.873896
O O11 0.196191 0.696912 0.000000
O O12 0.289140 0.258116 0.500000
O O13 0.500000 0.263089 0.625524
O O14 0.280955 0.322459 0.630046
O O15 0.500000 0.409844 0.884696
O O16 0.724779 0.417782 0.000000
O O17 0.500000 0.848647 0.116509
O O18 0.263445 0.902217 0.139473
O O19 0.277843 0.840452 0.000000
O O20 0.327286 0.615707 0.500000
O O21 0.500000 0.618107 0.353963
O O22 0.500000 0.952694 0.847903
O O23 0.255318 0.000000 0.858485
O O24 0.346128 0.950016 0.000000
#
# Coordination Sequence:
#
# PCOD8199486 Si02
#       8
#     8   8   8   8   8   8   8   8
#     4  11  24  38  52  73 100 128 155 183 220 269
#     4  11  21  30  44  68  98 129 158 191 232 277
#     4   9  18  32  48  67  94 127 158 186 222 271
#     4   9  19  36  55  73  93 118 151 191 232 276
#     4  10  21  36  54  74  93 117 154 198 237 271
#     4   9  17  28  43  65  94 130 169 204 239 279
#     4   9  19  37  60  82 100 119 146 183 228 275
#     4   7  10  19  37  60  85 116 159 208 247 275
#
# _framework density 16.952791999999999
#
# number of rings (size 3 to 8) (size 9 to 14) (size 15 to 20)
#    0.000    2.625    0.000    4.125    0.000    7.000 
#    0.000    5.000    0.000    0.375    0.000    1.750 
#    0.000    0.500    0.000    5.750    0.000    1.875 
#
# Total GULP energy -793221.534476 kJ/mol
# GULP energy per Si atom -12394.086476 kJ/mol
# Density = 1.691421 g / cm^3
# Si number density = 16.952792 Si / 1000 Ang^3
#
#
#
# Elastic Constant Matrix: (Units=GPa)
#
#
# Indices 1 2 3 4 5 6 
#
# 1 57.7894 45.7762 29.6602 0.0000 0.0000 0.0000
# 2 45.7762 114.2714 55.3585 0.0000 0.0000 0.0000
# 3 29.6602 55.3585 68.3260 0.0000 0.0000 0.0000
# 4 0.0000 0.0000 0.0000 17.0984 0.0000 0.0000
# 5 0.0000 0.0000 0.0000 0.0000 21.9632 0.0000
# 6 0.0000 0.0000 0.0000 0.0000 0.0000 12.9722
#
#
#
# Elastic Compliance Matrix: (Units=1/GPa)
#
#
# Indices 1 2 3 4 5 6 
#
# 1 0.026245 -0.008221 -0.004732 0.000000 0.000000 0.000000
# 2 -0.008221 0.016980 -0.010189 0.000000 0.000000 0.000000
# 3 -0.004732 -0.010189 0.024945 0.000000 0.000000 0.000000
# 4 0.000000 0.000000 0.000000 0.058485 0.000000 0.000000
# 5 0.000000 0.000000 0.000000 0.000000 0.045531 0.000000
# 6 0.000000 0.000000 0.000000 0.000000 0.000000 0.077088
#
#
# Mechanical properties :
#
#
# Convention : Reuss Voigt Hill
#
# Bulk Modulus (GPa) = 45.69072 55.77518 50.73295
# Shear Modulus (GPa) = 16.50960 17.71289 17.11125
#
# Velocity S-wave (km/s) = 3.12405 3.23590 3.18047
# Velocity P-wave (km/s) = 6.32639 6.85077 6.59380
#
# Compressibility (1/GPa) = 0.02188628
#
# Stress axis : x y z
#
# Youngs Moduli (GPa) = 38.10241 58.89133 40.08796
#
# Poissons Ratio (x) = 0.48415 0.18970
# Poissons Ratio (y) = 0.31324 0.40846
# Poissons Ratio (z) = 0.18030 0.60004
#
# Static dielectric constant tensor:
#      x y z
#    x 3.026930 0.000000 0.000000 
#    y 0.000000 3.426290 0.000000 
#    z 0.000000 0.000000 3.064910 
# 
# 
# High freq. dielectric constant tensor:
#      x y z
#    x 1.641960 0.000000 0.000000 
#    y 0.000000 1.650010 0.000000 
#    z 0.000000 0.000000 1.634890 
# 
# From -- ./inp_files/14370.got.cif
#   From: 2010.03.12/outbox.cif.g09.slc.cpg/sg47_8_cif.got.tgz:14370.got - 2010.04.14 03:12:58.
