data_PCOD8199383
_publ_section_title
;
Structure prediction by ZEFSAII (Michael W. Deem and Ramdas Pophale) SiO2 
 PCOD8199383
Probable space group: P M M M
;
_chemical_formula_sum "Si O2"
_cell_formula_units_Z 64
_cell_length_a 24.004038
_cell_length_b 14.564205
_cell_length_c 9.375763
_cell_angle_alpha 90.000000
_cell_angle_beta 90.000000
_cell_angle_gamma 90.000000
_cell_volume 3277.764216
_symmetry_space_group_name_H-M "P M M M"
_symmetry_group_IT_number 47
_symmetry_cell_setting 'orthorhombic'
loop_
_space_group_symop_operation_xyz
x,y,z
-x,-y,z
x,-y,-z
-x,y,-z
-x,-y,-z
x,y,-z
-x,y,z
x,-y,z
loop_
_atom_site_type_symbol
_atom_site_label
_atom_site_fract_x
_atom_site_fract_y
_atom_site_fract_z
Si Si1 0.843654 0.892297 0.667370
Si Si2 0.437906 0.601275 0.169487
Si Si3 0.437750 0.108034 0.661049
Si Si4 0.938886 0.600736 0.748971
Si Si5 0.233742 0.762724 0.831000
Si Si6 0.362392 0.236557 0.832113
Si Si7 0.937229 0.798136 0.156424
Si Si8 0.180336 0.603149 0.343424
O O1 0.836872 0.871528 0.500000
O O2 0.791005 0.851958 0.752671
O O3 0.899074 0.841867 0.721916
O O4 0.847588 0.000000 0.698555
O O5 0.500000 0.629066 0.221125
O O6 0.422539 0.500000 0.227924
O O7 0.393084 0.673054 0.229789
O O8 0.436126 0.600199 0.000000
O O9 0.428180 0.142977 0.500000
O O10 0.500000 0.136402 0.712325
O O11 0.390720 0.148432 0.762856
O O12 0.430971 0.000000 0.668132
O O13 0.935361 0.500000 0.827245
O O14 0.933144 0.687274 0.854613
O O15 0.886880 0.608280 0.641679
O O16 0.000000 0.607498 0.671537
O O17 0.298200 0.757581 0.789387
O O18 0.203540 0.670995 0.776429
O O19 0.224077 0.770765 0.000000
O O20 0.370155 0.227665 0.000000
O O21 0.000000 0.829081 0.192212
O O22 0.919256 0.835016 0.000000
O O23 0.203845 0.629667 0.500000
O O24 0.199135 0.500000 0.301471
#
# Coordination Sequence:
#
# PCOD8199383 Si02
#       8
#     8   8   8   8   8   8   8   8
#     4  11  25  44  64  83 106 144 194 244 296 354
#     4   8  14  27  50  80 113 147 181 220 268 320
#     4   9  19  36  57  83 116 151 184 221 275 343
#     4   9  18  32  54  88 125 155 185 224 275 338
#     4  11  24  40  58  83 114 151 195 242 294 346
#     4  10  21  35  55  84 114 146 190 239 282 330
#     4  10  21  37  60  91 123 152 183 227 287 350
#     4  10  21  37  58  84 116 154 194 236 283 340
#
# _framework density 19.525504999999999
#
# number of rings (size 3 to 8) (size 9 to 14) (size 15 to 20)
#    0.000    2.250    1.250    1.875    0.000    5.250 
#    0.000   10.625    0.000    0.375    0.000    1.750 
#    0.000    0.000    0.000    0.000    0.000    0.000 
#
# Total GULP energy -793102.379919 kJ/mol
# GULP energy per Si atom -12392.224686 kJ/mol
# Density = 1.948106 g / cm^3
# Si number density = 19.525505 Si / 1000 Ang^3
#
#
#
# Elastic Constant Matrix: (Units=GPa)
#
#
# Indices 1 2 3 4 5 6 
#
# 1 145.8655 62.7107 52.6389 0.0000 0.0000 0.0000
# 2 62.7107 116.1632 48.0020 0.0000 0.0000 0.0000
# 3 52.6389 48.0020 77.4647 0.0000 0.0000 0.0000
# 4 0.0000 0.0000 0.0000 22.6661 0.0000 0.0000
# 5 0.0000 0.0000 0.0000 0.0000 22.6413 0.0000
# 6 0.0000 0.0000 0.0000 0.0000 0.0000 16.6402
#
#
#
# Elastic Compliance Matrix: (Units=1/GPa)
#
#
# Indices 1 2 3 4 5 6 
#
# 1 0.010038 -0.003496 -0.004655 0.000000 0.000000 0.000000
# 2 -0.003496 0.012789 -0.005549 0.000000 0.000000 0.000000
# 3 -0.004655 -0.005549 0.019511 0.000000 0.000000 0.000000
# 4 0.000000 0.000000 0.000000 0.044119 0.000000 0.000000
# 5 0.000000 0.000000 0.000000 0.000000 0.044167 0.000000
# 6 0.000000 0.000000 0.000000 0.000000 0.000000 0.060095
#
#
# Mechanical properties :
#
#
# Convention : Reuss Voigt Hill
#
# Bulk Modulus (GPa) = 66.94355 74.02184 70.48270
# Shear Modulus (GPa) = 22.41153 24.13232 23.27192
#
# Velocity S-wave (km/s) = 3.39161 3.51941 3.45610
# Velocity P-wave (km/s) = 7.04961 7.38293 7.21819
#
# Compressibility (1/GPa) = 0.01493796
#
# Stress axis : x y z
#
# Youngs Moduli (GPa) = 99.61755 78.19311 51.25245
#
# Poissons Ratio (x) = 0.27333 0.23859
# Poissons Ratio (y) = 0.34822 0.28442
# Poissons Ratio (z) = 0.46374 0.43393
#
# Static dielectric constant tensor:
#      x y z
#    x 3.692780 0.000000 0.000000 
#    y 0.000000 3.681690 0.000000 
#    z 0.000000 0.000000 3.269900 
# 
# 
# High freq. dielectric constant tensor:
#      x y z
#    x 1.762000 0.000000 0.000000 
#    y 0.000000 1.766080 0.000000 
#    z 0.000000 0.000000 1.734970 
# 
# From -- ./inp_files/12769.got.cif
#   From: 2010.03.12/outbox.cif.g09.slc.cpg/sg47_7_cif.got.tgz:12769.got - 2010.04.14 03:12:58.
