data_PCOD8199689
_publ_section_title
;
Structure prediction by ZEFSAII (Michael W. Deem and Ramdas Pophale) SiO2 
 PCOD8199689
Probable space group: P M M M
;
_chemical_formula_sum "Si O2"
_cell_formula_units_Z 32
_cell_length_a 15.493312
_cell_length_b 12.472632
_cell_length_c 8.061889
_cell_angle_alpha 90.000000
_cell_angle_beta 90.000000
_cell_angle_gamma 90.000000
_cell_volume 1557.898610
_symmetry_space_group_name_H-M "P M M M"
_symmetry_group_IT_number 47
_symmetry_cell_setting 'orthorhombic'
loop_
_space_group_symop_operation_xyz
x,y,z
-x,-y,z
x,-y,-z
-x,y,-z
-x,-y,-z
x,y,-z
-x,y,z
x,-y,z
loop_
_atom_site_type_symbol
_atom_site_label
_atom_site_fract_x
_atom_site_fract_y
_atom_site_fract_z
Si Si1 0.500000 0.383830 0.805513
Si Si2 0.149712 0.773021 0.811692
Si Si3 0.904779 0.000000 0.692446
Si Si4 0.593746 0.877382 0.500000
Si Si5 0.656215 0.765279 0.809487
Si Si6 0.000000 0.621696 0.801834
O O1 0.500000 0.500000 0.717841
O O2 0.411470 0.325482 0.754521
O O3 0.500000 0.398004 0.000000
O O4 0.147320 0.892307 0.736463
O O5 0.245679 0.723290 0.795552
O O6 0.083331 0.687109 0.732091
O O7 0.121848 0.787913 0.000000
O O8 0.918526 0.000000 0.500000
O O9 0.000000 0.000000 0.778196
O O10 0.500000 0.817368 0.500000
O O11 0.645932 0.855887 0.669937
O O12 0.574264 0.000000 0.500000
O O13 0.638058 0.805955 0.000000
O O14 0.000000 0.500000 0.729840
O O15 0.000000 0.614835 0.000000
#
# Coordination Sequence:
#
# PCOD8199689 Si02
#       6
#     4   8   4   4   8   4
#     4   9  18  37  63  86 115 155 198 248 298 350
#     4  10  21  36  58  87 119 155 194 244 296 350
#     4  11  23  37  57  86 117 156 199 245 300 351
#     4  11  24  40  60  85 116 161 199 240 301 352
#     4  10  22  39  59  90 123 154 199 246 296 357
#     4   9  18  35  59  86 116 153 198 245 294 350
#
# _framework density 20.540488
#
# number of rings (size 3 to 8) (size 9 to 14) (size 15 to 20)
#    0.000    2.000    2.500    0.375    3.500    2.000 
#    0.000    7.500    0.000    1.500    0.000    0.000 
#    0.000    0.000    0.000    0.000    0.000    0.000 
#
# Total GULP energy -396475.155328 kJ/mol
# GULP energy per Si atom -12389.848604 kJ/mol
# Density = 2.049374 g / cm^3
# Si number density = 20.540488 Si / 1000 Ang^3
#
#
#
# Elastic Constant Matrix: (Units=GPa)
#
#
# Indices 1 2 3 4 5 6 
#
# 1 166.3369 70.0099 29.9285 0.0000 0.0000 0.0000
# 2 70.0099 143.0460 24.8793 0.0000 0.0000 0.0000
# 3 29.9285 24.8793 81.9694 0.0000 0.0000 0.0000
# 4 0.0000 0.0000 0.0000 4.2831 0.0000 0.0000
# 5 0.0000 0.0000 0.0000 0.0000 -1.1088 0.0000
# 6 0.0000 0.0000 0.0000 0.0000 0.0000 16.0499
#
#
#
# Elastic Compliance Matrix: (Units=1/GPa)
#
#
# Indices 1 2 3 4 5 6 
#
# 1 0.007812 -0.003513 -0.001786 0.000000 0.000000 0.000000
# 2 -0.003513 0.008960 -0.001437 0.000000 0.000000 0.000000
# 3 -0.001786 -0.001437 0.013288 0.000000 0.000000 0.000000
# 4 0.000000 0.000000 0.000000 0.233478 0.000000 0.000000
# 5 0.000000 0.000000 0.000000 0.000000 -0.901852 0.000000
# 6 0.000000 0.000000 0.000000 0.000000 0.000000 0.062306
#
#
# Mechanical properties :
#
#
# Convention : Reuss Voigt Hill
#
# Bulk Modulus (GPa) = 60.28365 71.22084 65.75225
# Shear Modulus (GPa) = -8.97652 21.61380 6.31864
#
# Velocity S-wave (km/s) = -2.09276 3.24736 1.75581
# Velocity P-wave (km/s) = 4.85519 6.98636 6.01590
#
# Compressibility (1/GPa) = 0.01658825
#
# Stress axis : x y z
#
# Youngs Moduli (GPa) = 128.01370 111.60950 75.25619
#
# Poissons Ratio (x) = 0.39204 0.13441
# Poissons Ratio (y) = 0.44966 0.10814
# Poissons Ratio (z) = 0.22864 0.16038
#
# Static dielectric constant tensor:
#      x y z
#    x 3.936290 0.000000 0.000000 
#    y 0.000000 3.840560 0.000000 
#    z 0.000000 0.000000 3.548430 
# 
# 
# High freq. dielectric constant tensor:
#      x y z
#    x 1.819480 0.000000 0.000000 
#    y 0.000000 1.782660 0.000000 
#    z 0.000000 0.000000 1.786380 
# 
# From -- ./inp_files/5257.got.cif
#   From: 2010.03.12/outbox.cif.g09.slc.cpg/sg47_3_cif.got.tgz:5257.got - 2010.04.14 03:12:58.
