data_PCOD8199326
_publ_section_title
;
Structure prediction by ZEFSAII (Michael W. Deem and Ramdas Pophale) SiO2 
 PCOD8199326
Probable space group: P M M M
;
_chemical_formula_sum "Si O2"
_cell_formula_units_Z 48
_cell_length_a 32.572343
_cell_length_b 7.990550
_cell_length_c 9.435610
_cell_angle_alpha 90.000000
_cell_angle_beta 90.000000
_cell_angle_gamma 90.000000
_cell_volume 2455.815040
_symmetry_space_group_name_H-M "P M M M"
_symmetry_group_IT_number 47
_symmetry_cell_setting 'orthorhombic'
loop_
_space_group_symop_operation_xyz
x,y,z
-x,-y,z
x,-y,-z
-x,y,-z
-x,-y,-z
x,y,-z
-x,y,z
x,-y,z
loop_
_atom_site_type_symbol
_atom_site_label
_atom_site_fract_x
_atom_site_fract_y
_atom_site_fract_z
Si Si1 0.423225 0.697192 0.661712
Si Si2 0.738693 0.306570 0.156340
Si Si3 0.953519 0.500000 0.669187
Si Si4 0.665519 0.192767 0.659979
Si Si5 0.500000 0.300545 0.160228
Si Si6 0.186303 0.698785 0.338552
Si Si7 0.901708 0.813511 0.331571
O O1 0.433551 0.746318 0.500000
O O2 0.418234 0.500000 0.678653
O O3 0.381043 0.782094 0.712580
O O4 0.459633 0.767674 0.760064
O O5 0.748307 0.500000 0.138734
O O6 0.695618 0.289406 0.235918
O O7 0.776053 0.227543 0.246384
O O8 0.736373 0.222456 0.000000
O O9 0.952012 0.500000 0.500000
O O10 0.931664 0.331418 0.728937
O O11 0.000000 0.500000 0.725456
O O12 0.670057 0.264663 0.500000
O O13 0.677467 0.000000 0.664463
O O14 0.500000 0.500000 0.164474
O O15 0.500000 0.232363 0.000000
O O16 0.194544 0.754306 0.500000
O O17 0.182007 0.500000 0.328609
O O18 0.144560 0.779902 0.278547
O O19 0.902342 0.802836 0.500000
O O20 0.915716 0.000000 0.281097
#
# Coordination Sequence:
#
# PCOD8199326 Si02
#       7
#     8   8   4   8   4   8   8
#     4   9  17  31  52  74  96 124 160 202 247 296
#     4  10  21  35  52  76 104 134 169 209 256 309
#     4   9  16  26  40  62  97 135 169 211 263 314
#     4  10  21  36  53  74 101 134 172 211 253 303
#     4   9  17  29  48  75 100 122 156 203 250 297
#     4   9  16  29  49  69  94 130 169 210 254 301
#     4   9  16  26  42  65  93 128 171 213 256 310
#
# _framework density 19.545445999999998
#
# number of rings (size 3 to 8) (size 9 to 14) (size 15 to 20)
#    0.000    2.667    0.833    1.250    0.000    4.667 
#    0.000    5.417    0.000    2.500    0.000    0.000 
#    0.000    1.333    0.000    1.500    0.000    1.667 
#
# Total GULP energy -595087.801876 kJ/mol
# GULP energy per Si atom -12397.662539 kJ/mol
# Density = 1.950096 g / cm^3
# Si number density = 19.545446 Si / 1000 Ang^3
#
#
#
# Elastic Constant Matrix: (Units=GPa)
#
#
# Indices 1 2 3 4 5 6 
#
# 1 160.0807 42.8814 70.9811 0.0000 0.0000 0.0000
# 2 42.8814 60.8107 21.2940 0.0000 0.0000 0.0000
# 3 70.9811 21.2940 89.2290 0.0000 0.0000 0.0000
# 4 0.0000 0.0000 0.0000 7.9705 0.0000 0.0000
# 5 0.0000 0.0000 0.0000 0.0000 5.4874 0.0000
# 6 0.0000 0.0000 0.0000 0.0000 0.0000 11.2504
#
#
#
# Elastic Compliance Matrix: (Units=1/GPa)
#
#
# Indices 1 2 3 4 5 6 
#
# 1 0.010924 -0.005085 -0.007477 0.000000 0.000000 0.000000
# 2 -0.005085 0.020311 -0.000802 0.000000 0.000000 0.000000
# 3 -0.007477 -0.000802 0.017346 0.000000 0.000000 0.000000
# 4 0.000000 0.000000 0.000000 0.125463 0.000000 0.000000
# 5 0.000000 0.000000 0.000000 0.000000 0.182236 0.000000
# 6 0.000000 0.000000 0.000000 0.000000 0.000000 0.088886
#
#
# Mechanical properties :
#
#
# Convention : Reuss Voigt Hill
#
# Bulk Modulus (GPa) = 45.75807 64.49260 55.12534
# Shear Modulus (GPa) = 10.43453 16.60592 13.52022
#
# Velocity S-wave (km/s) = 2.31305 2.91796 2.63293
# Velocity P-wave (km/s) = 5.53132 6.66487 6.12438
#
# Compressibility (1/GPa) = 0.02185407
#
# Stress axis : x y z
#
# Youngs Moduli (GPa) = 91.53951 49.23392 57.65003
#
# Poissons Ratio (x) = 0.25037 0.43103
# Poissons Ratio (y) = 0.46551 0.04623
# Poissons Ratio (z) = 0.68440 0.03948
#
# Static dielectric constant tensor:
#      x y z
#    x 3.661080 0.000000 0.000000 
#    y 0.000000 3.431690 0.000000 
#    z 0.000000 0.000000 3.432120 
# 
# 
# High freq. dielectric constant tensor:
#      x y z
#    x 1.767290 0.000000 0.000000 
#    y 0.000000 1.748490 0.000000 
#    z 0.000000 0.000000 1.720450 
# 
# From -- ./inp_files/13988.got.cif
#   From: 2010.03.12/outbox.cif.g09.slc.cpg/sg47_7_cif.got.tgz:13988.got - 2010.04.14 03:12:58.
