data_PCOD8199887
_publ_section_title
;
Structure prediction by ZEFSAII (Michael W. Deem and Ramdas Pophale) SiO2 
 PCOD8199887
Probable space group: P M M M
;
_chemical_formula_sum "Si O2"
_cell_formula_units_Z 40
_cell_length_a 14.476598
_cell_length_b 9.148313
_cell_length_c 16.595235
_cell_angle_alpha 90.000000
_cell_angle_beta 90.000000
_cell_angle_gamma 90.000000
_cell_volume 2197.814005
_symmetry_space_group_name_H-M "P M M M"
_symmetry_group_IT_number 47
_symmetry_cell_setting 'orthorhombic'
loop_
_space_group_symop_operation_xyz
x,y,z
-x,-y,z
x,-y,-z
-x,y,-z
-x,-y,-z
x,y,-z
-x,y,z
x,-y,z
loop_
_atom_site_type_symbol
_atom_site_label
_atom_site_fract_x
_atom_site_fract_y
_atom_site_fract_z
Si Si1 0.893310 0.332879 0.908988
Si Si2 0.392986 0.666287 0.908971
Si Si3 0.249688 0.828059 0.195801
Si Si4 0.759522 0.172887 0.380114
Si Si5 0.603016 0.828351 0.500000
Si Si6 0.108597 0.672882 0.500000
O O1 0.876382 0.500000 0.883337
O O2 0.841397 0.227329 0.848439
O O3 0.000000 0.291895 0.903750
O O4 0.856945 0.308208 0.000000
O O5 0.500000 0.677357 0.887867
O O6 0.358008 0.500000 0.900674
O O7 0.340793 0.765679 0.845456
O O8 0.374263 0.721383 0.000000
O O9 0.246271 0.776798 0.288019
O O10 0.253875 0.000000 0.189133
O O11 0.662263 0.218594 0.421525
O O12 0.845038 0.257095 0.420691
O O13 0.777113 0.000000 0.389962
O O14 0.500000 0.754934 0.500000
O O15 0.588938 0.000000 0.500000
O O16 0.125848 0.500000 0.500000
O O17 0.000000 0.710070 0.500000
#
# Coordination Sequence:
#
# PCOD8199887 Si02
#       6
#     8   8   8   8   4   4
#     4   9  19  36  55  73  97 135 180 220 260 307
#     4   9  19  36  55  74 101 142 187 223 259 308
#     4  11  22  33  50  79 111 139 169 212 265 314
#     4   9  20  36  52  76 108 138 167 201 251 315
#     4   8  14  30  56  75  90 123 167 202 234 284
#     4  10  21  37  58  81 102 129 169 216 260 300
#
# _framework density 18.199901000000001
#
# number of rings (size 3 to 8) (size 9 to 14) (size 15 to 20)
#    0.000    2.600    0.000    3.300    0.000    8.000 
#    0.000    8.000    0.000    4.800    0.000    0.000 
#    0.000    0.000    0.000    0.000    0.000    0.000 
#
# Total GULP energy -495969.570592 kJ/mol
# GULP energy per Si atom -12399.239265 kJ/mol
# Density = 1.815848 g / cm^3
# Si number density = 18.199901 Si / 1000 Ang^3
#
#
#
# Elastic Constant Matrix: (Units=GPa)
#
#
# Indices 1 2 3 4 5 6 
#
# 1 124.1277 43.3541 68.7219 0.0000 0.0000 0.0000
# 2 43.3541 62.3873 58.5864 0.0000 0.0000 0.0000
# 3 68.7219 58.5864 156.5950 0.0000 0.0000 0.0000
# 4 0.0000 0.0000 0.0000 19.1750 0.0000 0.0000
# 5 0.0000 0.0000 0.0000 0.0000 46.9122 0.0000
# 6 0.0000 0.0000 0.0000 0.0000 0.0000 20.5921
#
#
#
# Elastic Compliance Matrix: (Units=1/GPa)
#
#
# Indices 1 2 3 4 5 6 
#
# 1 0.011591 -0.005053 -0.003196 0.000000 0.000000 0.000000
# 2 -0.005053 0.026914 -0.007851 0.000000 0.000000 0.000000
# 3 -0.003196 -0.007851 0.010726 0.000000 0.000000 0.000000
# 4 0.000000 0.000000 0.000000 0.052151 0.000000 0.000000
# 5 0.000000 0.000000 0.000000 0.000000 0.021316 0.000000
# 6 0.000000 0.000000 0.000000 0.000000 0.000000 0.048562
#
#
# Mechanical properties :
#
#
# Convention : Reuss Voigt Hill
#
# Bulk Modulus (GPa) = 58.72439 76.04830 67.38634
# Shear Modulus (GPa) = 23.90767 28.83236 26.37001
#
# Velocity S-wave (km/s) = 3.62832 3.98452 3.81058
# Velocity P-wave (km/s) = 7.06323 7.94004 7.51444
#
# Compressibility (1/GPa) = 0.01702870
#
# Stress axis : x y z
#
# Youngs Moduli (GPa) = 86.27685 37.15586 93.23221
#
# Poissons Ratio (x) = 0.18776 0.29797
# Poissons Ratio (y) = 0.43598 0.73201
# Poissons Ratio (z) = 0.27574 0.29173
#
# Static dielectric constant tensor:
#      x y z
#    x 3.437170 0.000000 0.000000 
#    y 0.000000 3.190020 0.000000 
#    z 0.000000 0.000000 3.435330 
# 
# 
# High freq. dielectric constant tensor:
#      x y z
#    x 1.715720 0.000000 0.000000 
#    y 0.000000 1.690740 0.000000 
#    z 0.000000 0.000000 1.706280 
# 
# From -- ./inp_files/23361.got.cif
#   From: 2010.03.12/outbox.cif.g09.slc.cpg/sg47_12_cif.got.tgz:23361.got - 2010.04.14 03:12:58.
