data_PCOD8199309
_publ_section_title
;
Structure prediction by ZEFSAII (Michael W. Deem and Ramdas Pophale) SiO2 
 PCOD8199309
Probable space group: P M M M
;
_chemical_formula_sum "Si O2"
_cell_formula_units_Z 48
_cell_length_a 8.077325
_cell_length_b 9.340510
_cell_length_c 32.281136
_cell_angle_alpha 90.000000
_cell_angle_beta 90.000000
_cell_angle_gamma 90.000000
_cell_volume 2435.493399
_symmetry_space_group_name_H-M "P M M M"
_symmetry_group_IT_number 47
_symmetry_cell_setting 'orthorhombic'
loop_
_space_group_symop_operation_xyz
x,y,z
-x,-y,z
x,-y,-z
-x,y,-z
-x,-y,-z
x,y,-z
-x,y,z
x,-y,z
loop_
_atom_site_type_symbol
_atom_site_label
_atom_site_fract_x
_atom_site_fract_y
_atom_site_fract_z
Si Si1 0.310270 0.656169 0.500000
Si Si2 0.306152 0.336443 0.650120
Si Si3 0.810056 0.840324 0.575468
Si Si4 0.807888 0.157370 0.818807
Si Si5 0.808039 0.331369 0.101788
Si Si6 0.305033 0.660028 0.256062
Si Si7 0.500000 0.330427 0.046271
O O1 0.218026 0.500000 0.500000
O O2 0.500000 0.621460 0.500000
O O3 0.274322 0.744112 0.458904
O O4 0.500000 0.315297 0.642799
O O5 0.255700 0.500000 0.640372
O O6 0.208262 0.229993 0.620469
O O7 0.256986 0.297117 0.697139
O O8 0.000000 0.851356 0.563605
O O9 0.731507 0.000000 0.575752
O O10 0.744722 0.256830 0.856112
O O11 0.776424 0.227739 0.774551
O O12 0.000000 0.137086 0.824804
O O13 0.722411 0.000000 0.820595
O O14 0.796734 0.500000 0.109272
O O15 0.672690 0.280152 0.067790
O O16 0.000000 0.290453 0.089471
O O17 0.500000 0.663840 0.250235
O O18 0.239091 0.500000 0.246365
O O19 0.500000 0.500000 0.044773
O O20 0.500000 0.265425 0.000000
#
# Coordination Sequence:
#
# PCOD8199309 Si02
#       7
#     4   8   8   8   8   8   4
#     4  11  24  41  62  86 108 135 176 223 268 318
#     4   9  19  37  58  80 107 141 182 223 265 318
#     4  11  24  39  56  82 114 144 176 217 265 318
#     4  10  21  35  51  75 108 143 180 225 274 324
#     4   9  18  33  53  77 107 144 183 226 279 335
#     4   9  19  35  55  79 107 140 180 226 271 318
#     4   9  18  32  53  83 111 137 179 233 283 334
#
# _framework density 19.708532999999999
#
# number of rings (size 3 to 8) (size 9 to 14) (size 15 to 20)
#    0.000    2.333    0.000    3.000    1.167    8.333 
#    0.000    6.667    0.000    1.000    0.000    2.333 
#    0.000    0.000    0.000    0.000    0.000    0.000 
#
# Total GULP energy -595003.034182 kJ/mol
# GULP energy per Si atom -12395.896545 kJ/mol
# Density = 1.966368 g / cm^3
# Si number density = 19.708533 Si / 1000 Ang^3
#
#
#
# Elastic Constant Matrix: (Units=GPa)
#
#
# Indices 1 2 3 4 5 6 
#
# 1 60.9466 30.9349 38.7432 0.0000 0.0000 0.0000
# 2 30.9349 118.0544 71.7141 0.0000 0.0000 0.0000
# 3 38.7432 71.7141 144.0141 0.0000 0.0000 0.0000
# 4 0.0000 0.0000 0.0000 -4.1410 0.0000 0.0000
# 5 0.0000 0.0000 0.0000 0.0000 65.3597 0.0000
# 6 0.0000 0.0000 0.0000 0.0000 0.0000 20.6458
#
#
#
# Elastic Compliance Matrix: (Units=1/GPa)
#
#
# Indices 1 2 3 4 5 6 
#
# 1 0.020459 -0.002893 -0.004064 0.000000 0.000000 0.000000
# 2 -0.002893 0.012553 -0.005473 0.000000 0.000000 0.000000
# 3 -0.004064 -0.005473 0.010762 0.000000 0.000000 0.000000
# 4 0.000000 0.000000 0.000000 -0.241487 0.000000 0.000000
# 5 0.000000 0.000000 0.000000 0.000000 0.015300 0.000000
# 6 0.000000 0.000000 0.000000 0.000000 0.000000 0.048436
#
#
# Mechanical properties :
#
#
# Convention : Reuss Voigt Hill
#
# Bulk Modulus (GPa) = 52.86382 67.31105 60.08743
# Shear Modulus (GPa) = -48.63218 28.48108 -10.07555
#
# Velocity S-wave (km/s) = -4.97285 3.80559 -2.26349
# Velocity P-wave (km/s) = 2.46806 7.31693 4.87063
#
# Compressibility (1/GPa) = 0.01891653
#
# Stress axis : x y z
#
# Youngs Moduli (GPa) = 48.87773 79.66057 92.91707
#
# Poissons Ratio (x) = 0.23043 0.37758
# Poissons Ratio (y) = 0.14138 0.50853
# Poissons Ratio (z) = 0.19862 0.43598
#
# Static dielectric constant tensor:
#      x y z
#    x 3.535230 0.000000 0.000000 
#    y 0.000000 3.909040 0.000000 
#    z 0.000000 0.000000 3.872110 
# 
# 
# High freq. dielectric constant tensor:
#      x y z
#    x 1.762150 0.000000 0.000000 
#    y 0.000000 1.762050 0.000000 
#    z 0.000000 0.000000 1.770050 
# 
# From -- ./inp_files/34074.got.cif
#   From: 2010.03.12/outbox.cif.g09.slc.cpg/sg47_18_cif.got.tgz:34074.got - 2010.04.14 03:12:58.
