data_PCOD8199373
_publ_section_title
;
Structure prediction by ZEFSAII (Michael W. Deem and Ramdas Pophale) SiO2 
 PCOD8199373
Probable space group: P M M M
;
_chemical_formula_sum "Si O2"
_cell_formula_units_Z 56
_cell_length_a 9.041687
_cell_length_b 20.739378
_cell_length_c 14.561104
_cell_angle_alpha 90.000000
_cell_angle_beta 90.000000
_cell_angle_gamma 90.000000
_cell_volume 2730.483143
_symmetry_space_group_name_H-M "P M M M"
_symmetry_group_IT_number 47
_symmetry_cell_setting 'orthorhombic'
loop_
_space_group_symop_operation_xyz
x,y,z
-x,-y,z
x,-y,-z
-x,y,-z
-x,-y,-z
x,y,-z
-x,y,z
x,-y,z
loop_
_atom_site_type_symbol
_atom_site_label
_atom_site_fract_x
_atom_site_fract_y
_atom_site_fract_z
Si Si1 0.674774 0.107171 0.218872
Si Si2 0.823875 0.500000 0.103895
Si Si3 0.163871 0.098506 0.400188
Si Si4 0.670964 0.424912 0.604762
Si Si5 0.831725 0.000000 0.108262
Si Si6 0.162339 0.250023 0.599874
Si Si7 0.174638 0.378154 0.218095
Si Si8 0.328965 0.745525 0.774557
O O1 0.500000 0.100151 0.212741
O O2 0.724713 0.079815 0.318331
O O3 0.750292 0.064558 0.141186
O O4 0.723359 0.181752 0.200667
O O5 0.763397 0.563122 0.156620
O O6 0.000000 0.500000 0.103878
O O7 0.762227 0.500000 0.000000
O O8 0.217788 0.071048 0.500000
O O9 0.154190 0.174179 0.408796
O O10 0.000000 0.070903 0.377602
O O11 0.709713 0.404791 0.500000
O O12 0.500000 0.409999 0.626618
O O13 0.704580 0.500000 0.618332
O O14 0.773570 0.385710 0.675834
O O15 0.000000 0.000000 0.144062
O O16 0.824602 0.000000 0.000000
O O17 0.197431 0.280156 0.500000
O O18 0.295403 0.268282 0.667291
O O19 0.000000 0.274471 0.635604
O O20 0.238028 0.311121 0.173750
O O21 0.000000 0.375985 0.213933
O O22 0.500000 0.736562 0.795906
#
# Coordination Sequence:
#
# PCOD8199373 Si02
#       8
#     8   4   8   8   4   8   8   8
#     4  10  21  38  61  89 122 158 194 238 289 343
#     4   9  20  40  62  83 106 134 177 233 292 349
#     4   8  14  27  50  80 116 157 196 235 278 324
#     4   9  18  33  53  78 113 157 198 240 292 345
#     4  11  25  45  70  95 116 145 189 238 292 359
#     4   8  14  26  45  71 105 147 194 236 271 314
#     4  11  21  35  58  85 112 148 192 241 290 338
#     4  10  21  35  53  81 117 154 189 229 283 342
#
# _framework density 20.50919
#
# number of rings (size 3 to 8) (size 9 to 14) (size 15 to 20)
#    0.000    2.571    0.714    2.786    0.000    3.714 
#    0.000    4.643    0.000    8.143    0.000    0.000 
#    0.000    0.000    0.000    0.000    0.000    0.000 
#
# Total GULP energy -693908.072511 kJ/mol
# GULP energy per Si atom -12391.215581 kJ/mol
# Density = 2.046251 g / cm^3
# Si number density = 20.509190 Si / 1000 Ang^3
#
#
#
# Elastic Constant Matrix: (Units=GPa)
#
#
# Indices 1 2 3 4 5 6 
#
# 1 85.3477 50.4412 30.3165 0.0000 0.0000 0.0000
# 2 50.4412 134.3128 45.4436 0.0000 0.0000 0.0000
# 3 30.3165 45.4436 85.7873 0.0000 0.0000 0.0000
# 4 0.0000 0.0000 0.0000 7.9860 0.0000 0.0000
# 5 0.0000 0.0000 0.0000 0.0000 12.0417 0.0000
# 6 0.0000 0.0000 0.0000 0.0000 0.0000 27.1621
#
#
#
# Elastic Compliance Matrix: (Units=1/GPa)
#
#
# Indices 1 2 3 4 5 6 
#
# 1 0.015647 -0.004880 -0.002944 0.000000 0.000000 0.000000
# 2 -0.004880 0.010593 -0.003887 0.000000 0.000000 0.000000
# 3 -0.002944 -0.003887 0.014756 0.000000 0.000000 0.000000
# 4 0.000000 0.000000 0.000000 0.125220 0.000000 0.000000
# 5 0.000000 0.000000 0.000000 0.000000 0.083045 0.000000
# 6 0.000000 0.000000 0.000000 0.000000 0.000000 0.036816
#
#
# Mechanical properties :
#
#
# Convention : Reuss Voigt Hill
#
# Bulk Modulus (GPa) = 56.90349 61.98340 59.44344
# Shear Modulus (GPa) = 15.85506 21.38771 18.62138
#
# Velocity S-wave (km/s) = 2.78343 3.23280 3.01649
# Velocity P-wave (km/s) = 6.17540 6.65000 6.41709
#
# Compressibility (1/GPa) = 0.01757361
#
# Stress axis : x y z
#
# Youngs Moduli (GPa) = 63.91106 94.40152 67.76789
#
# Poissons Ratio (x) = 0.46067 0.19954
# Poissons Ratio (y) = 0.31188 0.26341
# Poissons Ratio (z) = 0.18818 0.36693
#
# Static dielectric constant tensor:
#      x y z
#    x 3.572580 0.000000 0.000000 
#    y 0.000000 3.955210 0.000000 
#    z 0.000000 0.000000 3.678960 
# 
# 
# High freq. dielectric constant tensor:
#      x y z
#    x 1.788270 0.000000 0.000000 
#    y 0.000000 1.817970 0.000000 
#    z 0.000000 0.000000 1.770230 
# 
# From -- ./inp_files/21663.got.cif
#   From: 2010.03.12/outbox.cif.g09.slc.cpg/sg47_11_cif.got.tgz:21663.got - 2010.04.14 03:12:58.
