data_PCOD8199021
_publ_section_title
;
Structure prediction by ZEFSAII (Michael W. Deem and Ramdas Pophale) SiO2 
 PCOD8199021
Probable space group: P M M M
;
_chemical_formula_sum "Si O2"
_cell_formula_units_Z 44
_cell_length_a 13.371990
_cell_length_b 11.499478
_cell_length_c 16.750870
_cell_angle_alpha 90.000000
_cell_angle_beta 90.000000
_cell_angle_gamma 90.000000
_cell_volume 2575.796436
_symmetry_space_group_name_H-M "P M M M"
_symmetry_group_IT_number 47
_symmetry_cell_setting 'orthorhombic'
loop_
_space_group_symop_operation_xyz
x,y,z
-x,-y,z
x,-y,-z
-x,y,-z
-x,-y,-z
x,y,-z
-x,y,z
x,-y,z
loop_
_atom_site_type_symbol
_atom_site_label
_atom_site_fract_x
_atom_site_fract_y
_atom_site_fract_z
Si Si1 0.000000 0.137489 0.588619
Si Si2 0.805269 0.861518 0.685828
Si Si3 0.388516 0.137928 0.410092
Si Si4 0.117056 0.500000 0.909633
Si Si5 0.799059 0.737853 0.851694
Si Si6 0.888356 0.136786 0.000000
Si Si7 0.611569 0.632033 0.092481
O O1 0.101271 0.178414 0.631991
O O2 0.000000 0.191944 0.500000
O O3 0.000000 0.000000 0.583467
O O4 0.700957 0.816487 0.646706
O O5 0.824284 0.797430 0.768718
O O6 0.803585 0.000000 0.699312
O O7 0.370699 0.185263 0.500000
O O8 0.500000 0.177447 0.380196
O O9 0.383557 0.000000 0.411888
O O10 0.148356 0.386492 0.860459
O O11 0.000000 0.500000 0.918053
O O12 0.164200 0.500000 0.000000
O O13 0.832147 0.823175 0.921375
O O14 0.679784 0.719715 0.857484
O O15 0.000000 0.190392 0.000000
O O16 0.892415 0.000000 0.000000
O O17 0.500000 0.644373 0.126213
O O18 0.650601 0.500000 0.103373
O O19 0.615214 0.666600 0.000000
#
# Coordination Sequence:
#
# PCOD8199021 Si02
#       7
#     4   8   8   4   8   4   8
#     4   9  18  34  54  74 103 142 178 208 245 307
#     4  10  21  32  48  78 113 141 168 206 259 317
#     4   8  14  28  51  76 103 136 172 209 252 305
#     4  11  22  36  55  75  95 132 182 236 268 291
#     4  12  21  35  54  77 106 136 174 224 266 307
#     4  11  24  37  52  71 102 147 183 208 256 320
#     4   9  17  32  53  74  95 127 174 224 268 303
#
# _framework density 17.082094999999999
#
# number of rings (size 3 to 8) (size 9 to 14) (size 15 to 20)
#    0.000    2.091    2.727    2.727    2.545    2.909 
#    0.000    0.000    0.000    2.182    0.000    3.182 
#    0.000    1.455    0.000    0.000    0.000    0.000 
#
# Total GULP energy -545430.628603 kJ/mol
# GULP energy per Si atom -12396.150650 kJ/mol
# Density = 1.704322 g / cm^3
# Si number density = 17.082095 Si / 1000 Ang^3
#
#
#
# Elastic Constant Matrix: (Units=GPa)
#
#
# Indices 1 2 3 4 5 6 
#
# 1 132.8668 31.4498 66.2783 0.0000 0.0000 0.0000
# 2 31.4498 49.2818 37.3585 0.0000 0.0000 0.0000
# 3 66.2783 37.3585 132.9844 0.0000 0.0000 0.0000
# 4 0.0000 0.0000 0.0000 -1.9814 0.0000 0.0000
# 5 0.0000 0.0000 0.0000 0.0000 12.4692 0.0000
# 6 0.0000 0.0000 0.0000 0.0000 0.0000 18.6536
#
#
#
# Elastic Compliance Matrix: (Units=1/GPa)
#
#
# Indices 1 2 3 4 5 6 
#
# 1 0.010461 -0.003461 -0.004242 0.000000 0.000000 0.000000
# 2 -0.003461 0.026927 -0.005840 0.000000 0.000000 0.000000
# 3 -0.004242 -0.005840 0.011274 0.000000 0.000000 0.000000
# 4 0.000000 0.000000 0.000000 -0.504698 0.000000 0.000000
# 5 0.000000 0.000000 0.000000 0.000000 0.080198 0.000000
# 6 0.000000 0.000000 0.000000 0.000000 0.000000 0.053609
#
#
# Mechanical properties :
#
#
# Convention : Reuss Voigt Hill
#
# Bulk Modulus (GPa) = 46.34262 65.03403 55.68833
# Shear Modulus (GPa) = -17.36397 17.83136 0.23370
#
# Velocity S-wave (km/s) = -3.19172 3.23439 0.37028
# Velocity P-wave (km/s) = 3.68856 7.21821 5.73184
#
# Compressibility (1/GPa) = 0.02157841
#
# Stress axis : x y z
#
# Youngs Moduli (GPa) = 95.58987 37.13795 88.69818
#
# Poissons Ratio (x) = 0.12852 0.37623
# Poissons Ratio (y) = 0.33080 0.51796
# Poissons Ratio (z) = 0.40546 0.21687
#
# Static dielectric constant tensor:
#      x y z
#    x 3.606700 0.000000 0.000000 
#    y 0.000000 2.847140 0.000000 
#    z 0.000000 0.000000 3.177640 
# 
# 
# High freq. dielectric constant tensor:
#      x y z
#    x 1.685630 0.000000 0.000000 
#    y 0.000000 1.615630 0.000000 
#    z 0.000000 0.000000 1.645880 
# 
# From -- ./inp_files/23506.got.cif
#   From: 2010.03.12/outbox.cif.g09.slc.cpg/sg47_12_cif.got.tgz:23506.got - 2010.04.14 03:12:58.
