data_PCOD8199281
_publ_section_title
;
Structure prediction by ZEFSAII (Michael W. Deem and Ramdas Pophale) SiO2 
 PCOD8199281
Probable space group: P M M M
;
_chemical_formula_sum "Si O2"
_cell_formula_units_Z 56
_cell_length_a 19.904609
_cell_length_b 9.331286
_cell_length_c 15.240834
_cell_angle_alpha 90.000000
_cell_angle_beta 90.000000
_cell_angle_gamma 90.000000
_cell_volume 2830.765437
_symmetry_space_group_name_H-M "P M M M"
_symmetry_group_IT_number 47
_symmetry_cell_setting 'orthorhombic'
loop_
_space_group_symop_operation_xyz
x,y,z
-x,-y,z
x,-y,-z
-x,y,-z
-x,-y,-z
x,y,-z
-x,y,z
x,-y,z
loop_
_atom_site_type_symbol
_atom_site_label
_atom_site_fract_x
_atom_site_fract_y
_atom_site_fract_z
Si Si1 0.659181 0.831782 0.603138
Si Si2 0.799803 0.156201 0.900238
Si Si3 0.074500 0.660610 0.860737
Si Si4 0.422131 0.334550 0.743051
Si Si5 0.071840 0.662672 0.346224
Si Si6 0.787093 0.659704 0.398678
Si Si7 0.674871 0.666638 0.899018
O O1 0.645789 0.801159 0.500000
O O2 0.600348 0.761641 0.660583
O O3 0.728979 0.762473 0.638170
O O4 0.662354 0.000000 0.621630
O O5 0.872323 0.229011 0.897999
O O6 0.740708 0.253418 0.859815
O O7 0.802586 0.000000 0.853250
O O8 0.779758 0.133577 0.000000
O O9 0.092669 0.500000 0.892427
O O10 0.075743 0.668002 0.757091
O O11 0.000000 0.702062 0.895123
O O12 0.500000 0.305280 0.759447
O O13 0.407759 0.500000 0.719105
O O14 0.386042 0.291806 0.834435
O O15 0.071711 0.500000 0.380818
O O16 0.139825 0.735399 0.383369
O O17 0.000000 0.733790 0.376881
O O18 0.773963 0.641326 0.500000
O O19 0.783727 0.500000 0.354237
O O20 0.691983 0.500000 0.894205
O O21 0.656600 0.709178 0.000000
#
# Coordination Sequence:
#
# PCOD8199281 Si02
#       7
#     8   8   8   8   8   8   8
#     4  10  22  39  57  80 114 153 190 229 273 324
#     4  10  21  35  51  74 104 137 176 224 273 318
#     4   9  18  32  49  70  99 137 180 225 272 322
#     4  10  22  39  61  90 117 143 179 222 271 326
#     4   8  15  28  46  71 102 134 171 218 269 317
#     4   9  17  30  51  78 105 136 177 224 272 320
#     4   9  19  37  60  85 114 147 181 219 268 330
#
# _framework density 19.782634999999999
#
# number of rings (size 3 to 8) (size 9 to 14) (size 15 to 20)
#    0.000    2.714    0.000    1.714    2.000    4.000 
#    0.000    5.714    0.000    1.286    0.000    5.000 
#    0.000    0.000    0.000    0.000    0.000    0.000 
#
# Total GULP energy -693922.355977 kJ/mol
# GULP energy per Si atom -12391.470642 kJ/mol
# Density = 1.973761 g / cm^3
# Si number density = 19.782635 Si / 1000 Ang^3
#
#
#
# Elastic Constant Matrix: (Units=GPa)
#
#
# Indices 1 2 3 4 5 6 
#
# 1 162.3636 73.1600 45.4103 0.0000 0.0000 0.0000
# 2 73.1600 98.7175 39.9672 0.0000 0.0000 0.0000
# 3 45.4103 39.9672 58.6975 0.0000 0.0000 0.0000
# 4 0.0000 0.0000 0.0000 18.6904 0.0000 0.0000
# 5 0.0000 0.0000 0.0000 0.0000 29.6085 0.0000
# 6 0.0000 0.0000 0.0000 0.0000 0.0000 6.6947
#
#
#
# Elastic Compliance Matrix: (Units=1/GPa)
#
#
# Indices 1 2 3 4 5 6 
#
# 1 0.009777 -0.005776 -0.003631 0.000000 0.000000 0.000000
# 2 -0.005776 0.017397 -0.007378 0.000000 0.000000 0.000000
# 3 -0.003631 -0.007378 0.024869 0.000000 0.000000 0.000000
# 4 0.000000 0.000000 0.000000 0.053503 0.000000 0.000000
# 5 0.000000 0.000000 0.000000 0.000000 0.033774 0.000000
# 6 0.000000 0.000000 0.000000 0.000000 0.000000 0.149371
#
#
# Mechanical properties :
#
#
# Convention : Reuss Voigt Hill
#
# Bulk Modulus (GPa) = 54.12853 70.76152 62.44502
# Shear Modulus (GPa) = 15.22446 21.74814 18.48630
#
# Velocity S-wave (km/s) = 2.77715 3.31925 3.06023
# Velocity P-wave (km/s) = 6.14040 7.10894 6.64235
#
# Compressibility (1/GPa) = 0.01847455
#
# Stress axis : x y z
#
# Youngs Moduli (GPa) = 102.27994 57.48048 40.21064
#
# Poissons Ratio (x) = 0.33199 0.14601
# Poissons Ratio (y) = 0.59074 0.29665
# Poissons Ratio (z) = 0.37140 0.42406
#
# Static dielectric constant tensor:
#      x y z
#    x 3.479550 0.000000 0.000000 
#    y 0.000000 3.639350 0.000000 
#    z 0.000000 0.000000 3.469250 
# 
# 
# High freq. dielectric constant tensor:
#      x y z
#    x 1.779010 0.000000 0.000000 
#    y 0.000000 1.742310 0.000000 
#    z 0.000000 0.000000 1.761580 
# 
# From -- ./inp_files/11235.got.cif
#   From: 2010.03.12/outbox.cif.g09.slc.cpg/sg47_6_cif.got.tgz:11235.got - 2010.04.14 03:12:58.
