data_PCOD8199563
_publ_section_title
;
Structure prediction by ZEFSAII (Michael W. Deem and Ramdas Pophale) SiO2 
 PCOD8199563
Probable space group: P M M M
;
_chemical_formula_sum "Si O2"
_cell_formula_units_Z 48
_cell_length_a 9.246750
_cell_length_b 32.101810
_cell_length_c 8.168331
_cell_angle_alpha 90.000000
_cell_angle_beta 90.000000
_cell_angle_gamma 90.000000
_cell_volume 2424.666231
_symmetry_space_group_name_H-M "P M M M"
_symmetry_group_IT_number 47
_symmetry_cell_setting 'orthorhombic'
loop_
_space_group_symop_operation_xyz
x,y,z
-x,-y,z
x,-y,-z
-x,y,-z
-x,-y,-z
x,y,-z
-x,y,z
x,-y,z
loop_
_atom_site_type_symbol
_atom_site_label
_atom_site_fract_x
_atom_site_fract_y
_atom_site_fract_z
Si Si1 0.334689 0.348406 0.687870
Si Si2 0.671445 0.953363 0.000000
Si Si3 0.161373 0.423477 0.188266
Si Si4 0.661982 0.739238 0.187479
Si Si5 0.657904 0.500000 0.311489
Si Si6 0.329674 0.900083 0.312762
Si Si7 0.834878 0.815401 0.689052
O O1 0.320063 0.361395 0.500000
O O2 0.500000 0.352918 0.749172
O O3 0.233387 0.378395 0.792371
O O4 0.283483 0.300667 0.710222
O O5 0.723652 0.931786 0.829644
O O6 0.500000 0.954474 0.000000
O O7 0.735796 0.000000 0.000000
O O8 0.255038 0.458582 0.273110
O O9 0.000000 0.422702 0.264663
O O10 0.152126 0.435139 0.000000
O O11 0.500000 0.752287 0.244219
O O12 0.768921 0.777682 0.209339
O O13 0.662295 0.725535 0.000000
O O14 0.500000 0.500000 0.221834
O O15 0.626468 0.500000 0.500000
O O16 0.290834 0.915403 0.500000
O O17 0.500000 0.892609 0.299285
O O18 0.251923 0.857111 0.271383
O O19 0.822270 0.803562 0.500000
O O20 0.000000 0.822283 0.743190
#
# Coordination Sequence:
#
# PCOD8199563 Si02
#       7
#     8   4   8   8   4   8   8
#     4  10  21  38  60  84 110 144 186 228 272 327
#     4   9  18  32  53  83 113 141 183 237 287 340
#     4  11  24  40  59  85 116 148 183 225 274 328
#     4  10  21  36  56  82 111 145 185 229 277 330
#     4  11  24  41  62  88 114 143 184 229 274 328
#     4   9  18  33  54  79 109 146 186 231 284 340
#     4  10  21  36  54  78 109 145 185 231 281 332
#
# _framework density 19.796538999999999
#
# number of rings (size 3 to 8) (size 9 to 14) (size 15 to 20)
#    0.000    2.000    0.000    3.000    1.167    9.000 
#    0.000    1.667    0.000    1.000    0.000    2.333 
#    0.000    0.000    0.000    0.000    0.000    0.000 
#
# Total GULP energy -595191.011108 kJ/mol
# GULP energy per Si atom -12399.812731 kJ/mol
# Density = 1.975148 g / cm^3
# Si number density = 19.796539 Si / 1000 Ang^3
#
#
#
# Elastic Constant Matrix: (Units=GPa)
#
#
# Indices 1 2 3 4 5 6 
#
# 1 98.0037 62.3489 33.8044 0.0000 0.0000 0.0000
# 2 62.3489 134.9694 45.8859 0.0000 0.0000 0.0000
# 3 33.8044 45.8859 81.3951 0.0000 0.0000 0.0000
# 4 0.0000 0.0000 0.0000 38.5848 0.0000 0.0000
# 5 0.0000 0.0000 0.0000 0.0000 25.1691 0.0000
# 6 0.0000 0.0000 0.0000 0.0000 0.0000 -12.8289
#
#
#
# Elastic Compliance Matrix: (Units=1/GPa)
#
#
# Indices 1 2 3 4 5 6 
#
# 1 0.014973 -0.005941 -0.002869 0.000000 0.000000 0.000000
# 2 -0.005941 0.011523 -0.004029 0.000000 0.000000 0.000000
# 3 -0.002869 -0.004029 0.015748 0.000000 0.000000 0.000000
# 4 0.000000 0.000000 0.000000 0.025917 0.000000 0.000000
# 5 0.000000 0.000000 0.000000 0.000000 0.039731 0.000000
# 6 0.000000 0.000000 0.000000 0.000000 0.000000 -0.077949
#
#
# Mechanical properties :
#
#
# Convention : Reuss Voigt Hill
#
# Bulk Modulus (GPa) = 60.36237 66.49406 63.42821
# Shear Modulus (GPa) = 81.77286 21.67359 51.72322
#
# Velocity S-wave (km/s) = 6.43400 3.31239 5.11704
# Velocity P-wave (km/s) = 9.26027 6.94917 8.18668
#
# Compressibility (1/GPa) = 0.01656661
#
# Stress axis : x y z
#
# Youngs Moduli (GPa) = 66.78593 86.78027 63.49823
#
# Poissons Ratio (x) = 0.51560 0.18218
# Poissons Ratio (y) = 0.39680 0.25581
# Poissons Ratio (z) = 0.19162 0.34961
#
# Static dielectric constant tensor:
#      x y z
#    x 3.678470 0.000000 0.000000 
#    y 0.000000 3.575620 0.000000 
#    z 0.000000 0.000000 3.703710 
# 
# 
# High freq. dielectric constant tensor:
#      x y z
#    x 1.761910 0.000000 0.000000 
#    y 0.000000 1.771030 0.000000 
#    z 0.000000 0.000000 1.778220 
# 
# From -- ./inp_files/2545.got.cif
#   From: 2010.03.12/outbox.cif.g09.slc.cpg/sg47_2_cif.got.tgz:2545.got - 2010.04.14 03:12:58.
