data_PCOD8199851
_publ_section_title
;
Structure prediction by ZEFSAII (Michael W. Deem and Ramdas Pophale) SiO2 
 PCOD8199851
Probable space group: P M M M
;
_chemical_formula_sum "Si O2"
_cell_formula_units_Z 48
_cell_length_a 30.612455
_cell_length_b 8.787427
_cell_length_c 9.269414
_cell_angle_alpha 90.000000
_cell_angle_beta 90.000000
_cell_angle_gamma 90.000000
_cell_volume 2493.516058
_symmetry_space_group_name_H-M "P M M M"
_symmetry_group_IT_number 47
_symmetry_cell_setting 'orthorhombic'
loop_
_space_group_symop_operation_xyz
x,y,z
-x,-y,z
x,-y,-z
-x,y,-z
-x,-y,-z
x,y,-z
-x,y,z
x,-y,z
loop_
_atom_site_type_symbol
_atom_site_label
_atom_site_fract_x
_atom_site_fract_y
_atom_site_fract_z
Si Si1 0.747551 0.823956 0.668754
Si Si2 0.500000 0.320563 0.663861
Si Si3 0.578912 0.821861 0.166152
Si Si4 0.669233 0.322886 0.834613
Si Si5 0.916146 0.824543 0.166955
Si Si6 0.825476 0.323577 0.832324
Si Si7 0.000000 0.818980 0.337267
O O1 0.749941 0.790224 0.500000
O O2 0.709347 0.723173 0.735445
O O3 0.793304 0.777811 0.738164
O O4 0.738154 0.000000 0.701658
O O5 0.500000 0.500000 0.673158
O O6 0.500000 0.262245 0.500000
O O7 0.543196 0.260930 0.739373
O O8 0.626664 0.768811 0.216845
O O9 0.574488 0.000000 0.190966
O O10 0.571214 0.776757 0.000000
O O11 0.659360 0.500000 0.815103
O O12 0.681007 0.283352 0.000000
O O13 0.874444 0.724051 0.208748
O O14 0.956702 0.758632 0.257690
O O15 0.906017 0.000000 0.205192
O O16 0.928434 0.806846 0.000000
O O17 0.818490 0.500000 0.795353
O O18 0.816077 0.290412 0.000000
O O19 0.000000 0.756962 0.500000
O O20 0.000000 0.000000 0.331159
#
# Coordination Sequence:
#
# PCOD8199851 Si02
#       7
#     8   4   8   8   8   8   4
#     4  11  24  39  56  81 112 146 183 223 270 324
#     4  11  24  39  56  82 116 153 190 229 278 332
#     4  10  21  38  61  87 113 145 187 232 277 326
#     4  10  21  38  61  87 113 144 183 226 273 325
#     4   9  17  31  52  76 102 135 175 218 265 317
#     4  10  21  37  57  81 108 140 180 225 273 324
#     4   9  17  29  48  75 104 134 172 219 266 313
#
# _framework density 19.249925999999999
#
# number of rings (size 3 to 8) (size 9 to 14) (size 15 to 20)
#    0.000    2.000    0.000    3.250    0.000   10.333 
#    0.000    2.083    0.000    2.500    0.000    0.000 
#    0.000    0.000    0.000    0.000    0.000    0.000 
#
# Total GULP energy -595441.109037 kJ/mol
# GULP energy per Si atom -12405.023105 kJ/mol
# Density = 1.920611 g / cm^3
# Si number density = 19.249926 Si / 1000 Ang^3
#
#
#
# Elastic Constant Matrix: (Units=GPa)
#
#
# Indices 1 2 3 4 5 6 
#
# 1 119.1599 20.0993 64.9223 0.0000 0.0000 0.0000
# 2 20.0993 44.1786 31.6068 0.0000 0.0000 0.0000
# 3 64.9223 31.6068 92.2676 0.0000 0.0000 0.0000
# 4 0.0000 0.0000 0.0000 25.8563 0.0000 0.0000
# 5 0.0000 0.0000 0.0000 0.0000 -92.8076 0.0000
# 6 0.0000 0.0000 0.0000 0.0000 0.0000 43.7698
#
#
#
# Elastic Compliance Matrix: (Units=1/GPa)
#
#
# Indices 1 2 3 4 5 6 
#
# 1 0.013635 0.000875 -0.009894 0.000000 0.000000 0.000000
# 2 0.000875 0.030040 -0.010906 0.000000 0.000000 0.000000
# 3 -0.009894 -0.010906 0.021535 0.000000 0.000000 0.000000
# 4 0.000000 0.000000 0.000000 0.038675 0.000000 0.000000
# 5 0.000000 0.000000 0.000000 0.000000 -0.010775 0.000000
# 6 0.000000 0.000000 0.000000 0.000000 0.000000 0.022847
#
#
# Mechanical properties :
#
#
# Convention : Reuss Voigt Hill
#
# Bulk Modulus (GPa) = 39.43088 54.31810 46.87449
# Shear Modulus (GPa) = 30.43951 4.62888 17.53420
#
# Velocity S-wave (km/s) = 3.98084 1.55237 3.02134
# Velocity P-wave (km/s) = 6.45427 5.61175 6.04770
#
# Compressibility (1/GPa) = 0.02536083
#
# Stress axis : x y z
#
# Youngs Moduli (GPa) = 73.34127 33.28911 46.43510
#
# Poissons Ratio (x) = -0.02913 0.45941
# Poissons Ratio (y) = -0.06417 0.50642
# Poissons Ratio (z) = 0.72561 0.36305
#
# Static dielectric constant tensor:
#      x y z
#    x 3.634660 0.000000 0.000000 
#    y 0.000000 3.506970 0.000000 
#    z 0.000000 0.000000 3.558670 
# 
# 
# High freq. dielectric constant tensor:
#      x y z
#    x 1.763180 0.000000 0.000000 
#    y 0.000000 1.748080 0.000000 
#    z 0.000000 0.000000 1.744620 
# 
# From -- ./inp_files/13898.got.cif
#   From: 2010.03.12/outbox.cif.g09.slc.cpg/sg47_7_cif.got.tgz:13898.got - 2010.04.14 03:12:58.
