data_PCOD8199254
_publ_section_title
;
Structure prediction by ZEFSAII (Michael W. Deem and Ramdas Pophale) SiO2 
 PCOD8199254
Probable space group: P M M M
;
_chemical_formula_sum "Si O2"
_cell_formula_units_Z 64
_cell_length_a 18.568297
_cell_length_b 9.322317
_cell_length_c 20.143046
_cell_angle_alpha 90.000000
_cell_angle_beta 90.000000
_cell_angle_gamma 90.000000
_cell_volume 3486.752214
_symmetry_space_group_name_H-M "P M M M"
_symmetry_group_IT_number 47
_symmetry_cell_setting 'orthorhombic'
loop_
_space_group_symop_operation_xyz
x,y,z
-x,-y,z
x,-y,-z
-x,y,-z
-x,-y,-z
x,y,-z
-x,y,z
x,-y,z
loop_
_atom_site_type_symbol
_atom_site_label
_atom_site_fract_x
_atom_site_fract_y
_atom_site_fract_z
Si Si1 0.582910 0.666289 0.301325
Si Si2 0.664594 0.169190 0.187132
Si Si3 0.831242 0.831494 0.817178
Si Si4 0.324040 0.664990 0.574674
Si Si5 0.081587 0.665744 0.076980
Si Si6 0.818022 0.168107 0.575260
Si Si7 0.417075 0.335159 0.923121
Si Si8 0.919519 0.170506 0.690878
O O1 0.500000 0.711080 0.298856
O O2 0.593518 0.500000 0.282161
O O3 0.625831 0.762487 0.249931
O O4 0.610580 0.697996 0.375678
O O5 0.748235 0.209559 0.191643
O O6 0.633211 0.231350 0.119008
O O7 0.651741 0.000000 0.188053
O O8 0.861612 0.758981 0.882965
O O9 0.874541 0.771742 0.753573
O O10 0.841880 0.000000 0.825210
O O11 0.349037 0.706013 0.500000
O O12 0.300531 0.500000 0.578392
O O13 0.255597 0.756952 0.596954
O O14 0.093189 0.500000 0.094587
O O15 0.000000 0.712104 0.094920
O O16 0.096846 0.694037 0.000000
O O17 0.839807 0.207993 0.500000
O O18 0.881646 0.222846 0.623075
O O19 0.804897 0.000000 0.584023
O O20 0.500000 0.307053 0.903889
O O21 0.397218 0.500000 0.907875
O O22 0.403777 0.299689 0.000000
O O23 0.000000 0.235365 0.693164
O O24 0.922506 0.000000 0.692551
#
# Coordination Sequence:
#
# PCOD8199254 Si02
#       8
#     8   8   8   8   8   8   8   8
#     4  10  21  36  54  76 102 134 173 215 258 307
#     4  11  23  36  52  77 108 139 172 213 259 306
#     4  10  21  35  51  73 102 136 172 209 250 299
#     4   9  18  33  53  76 102 133 168 207 253 304
#     4   9  19  36  56  78 104 132 164 206 254 301
#     4   9  17  30  50  75 102 132 165 203 248 298
#     4   9  19  37  59  80 103 134 172 212 255 306
#     4   9  17  30  49  72  98 129 167 210 250 288
#
# _framework density 18.355191000000001
#
# number of rings (size 3 to 8) (size 9 to 14) (size 15 to 20)
#    0.000    2.500    0.000    2.625    0.000    6.750 
#    0.000    6.875    0.000    1.125    0.000    4.375 
#    0.000    0.000    0.000    0.000    0.000    0.000 
#
# Total GULP energy -793704.474051 kJ/mol
# GULP energy per Si atom -12401.632407 kJ/mol
# Density = 1.831341 g / cm^3
# Si number density = 18.355191 Si / 1000 Ang^3
#
#
#
# Elastic Constant Matrix: (Units=GPa)
#
#
# Indices 1 2 3 4 5 6 
#
# 1 155.7997 62.3534 86.9555 0.0000 0.0000 0.0000
# 2 62.3534 53.0688 48.6436 0.0000 0.0000 0.0000
# 3 86.9555 48.6436 116.9566 0.0000 0.0000 0.0000
# 4 0.0000 0.0000 0.0000 25.3156 0.0000 0.0000
# 5 0.0000 0.0000 0.0000 0.0000 40.3045 0.0000
# 6 0.0000 0.0000 0.0000 0.0000 0.0000 27.4991
#
#
#
# Elastic Compliance Matrix: (Units=1/GPa)
#
#
# Indices 1 2 3 4 5 6 
#
# 1 0.014232 -0.011350 -0.005861 0.000000 0.000000 0.000000
# 2 -0.011350 0.039504 -0.007992 0.000000 0.000000 0.000000
# 3 -0.005861 -0.007992 0.016231 0.000000 0.000000 0.000000
# 4 0.000000 0.000000 0.000000 0.039501 0.000000 0.000000
# 5 0.000000 0.000000 0.000000 0.000000 0.024811 0.000000
# 6 0.000000 0.000000 0.000000 0.000000 0.000000 0.036365
#
#
# Mechanical properties :
#
#
# Convention : Reuss Voigt Hill
#
# Bulk Modulus (GPa) = 51.11707 80.19222 65.65465
# Shear Modulus (GPa) = 21.97119 27.14868 24.55993
#
# Velocity S-wave (km/s) = 3.46352 3.85004 3.66189
# Velocity P-wave (km/s) = 6.62601 7.97168 7.32979
#
# Compressibility (1/GPa) = 0.01956293
#
# Stress axis : x y z
#
# Youngs Moduli (GPa) = 70.26515 25.31360 61.60883
#
# Poissons Ratio (x) = 0.28730 0.36107
# Poissons Ratio (y) = 0.79749 0.49238
# Poissons Ratio (z) = 0.41180 0.20231
#
# Static dielectric constant tensor:
#      x y z
#    x 3.468670 0.000000 0.000000 
#    y 0.000000 3.197020 0.000000 
#    z 0.000000 0.000000 3.498490 
# 
# 
# High freq. dielectric constant tensor:
#      x y z
#    x 1.713710 0.000000 0.000000 
#    y 0.000000 1.693040 0.000000 
#    z 0.000000 0.000000 1.725330 
# 
# From -- ./inp_files/11566.got.cif
#   From: 2010.03.12/outbox.cif.g09.slc.cpg/sg47_6_cif.got.tgz:11566.got - 2010.04.14 03:12:58.
