data_PCOD8199858
_publ_section_title
;
Structure prediction by ZEFSAII (Michael W. Deem and Ramdas Pophale) SiO2 
 PCOD8199858
Probable space group: P M M M
;
_chemical_formula_sum "Si O2"
_cell_formula_units_Z 48
_cell_length_a 32.424865
_cell_length_b 7.982422
_cell_length_c 9.081575
_cell_angle_alpha 90.000000
_cell_angle_beta 90.000000
_cell_angle_gamma 90.000000
_cell_volume 2350.574574
_symmetry_space_group_name_H-M "P M M M"
_symmetry_group_IT_number 47
_symmetry_cell_setting 'orthorhombic'
loop_
_space_group_symop_operation_xyz
x,y,z
-x,-y,z
x,-y,-z
-x,y,-z
-x,-y,-z
x,y,-z
-x,y,z
x,-y,z
loop_
_atom_site_type_symbol
_atom_site_label
_atom_site_fract_x
_atom_site_fract_y
_atom_site_fract_z
Si Si1 0.580806 0.696501 0.836665
Si Si2 0.500000 0.802540 0.667865
Si Si3 0.735059 0.808777 0.834202
Si Si4 0.954026 0.000000 0.825616
Si Si5 0.813196 0.305685 0.331432
Si Si6 0.657908 0.693230 0.337733
Si Si7 0.101600 0.690999 0.827624
O O1 0.587209 0.500000 0.852371
O O2 0.539982 0.731398 0.746078
O O3 0.620474 0.777402 0.754164
O O4 0.577488 0.776735 0.000000
O O5 0.500000 0.739663 0.500000
O O6 0.500000 0.000000 0.678430
O O7 0.779166 0.797225 0.756502
O O8 0.701158 0.706259 0.745281
O O9 0.720832 0.000000 0.836685
O O10 0.738313 0.736805 0.000000
O O11 0.931666 0.828450 0.773444
O O12 0.000000 0.000000 0.757456
O O13 0.956428 0.000000 0.000000
O O14 0.814073 0.245160 0.500000
O O15 0.801799 0.500000 0.319661
O O16 0.857193 0.267755 0.260521
O O17 0.660844 0.777956 0.500000
O O18 0.647455 0.500000 0.358350
O O19 0.086161 0.500000 0.794247
O O20 0.111096 0.711719 0.000000
#
# Coordination Sequence:
#
# PCOD8199858 Si02
#       7
#     8   4   8   4   8   8   8
#     4  10  21  38  61  86 110 141 183 228 275 329
#     4  11  24  39  56  82 114 147 182 223 276 332
#     4  11  24  38  54  80 113 148 185 226 274 329
#     4   9  18  32  53  83 115 147 189 241 291 344
#     4  10  21  37  57  81 109 143 185 233 283 334
#     4  10  21  38  60  84 110 143 183 226 273 326
#     4   9  18  33  54  80 111 148 189 236 290 344
#
# _framework density 20.420539000000002
#
# number of rings (size 3 to 8) (size 9 to 14) (size 15 to 20)
#    0.000    2.000    0.000    3.000    1.167    9.000 
#    0.000    1.667    0.000    1.000    0.000    2.333 
#    0.000    0.000    0.000    0.000    0.000    0.000 
#
# Total GULP energy -595224.703788 kJ/mol
# GULP energy per Si atom -12400.514662 kJ/mol
# Density = 2.037406 g / cm^3
# Si number density = 20.420539 Si / 1000 Ang^3
#
#
#
# Elastic Constant Matrix: (Units=GPa)
#
#
# Indices 1 2 3 4 5 6 
#
# 1 155.6044 39.0077 77.2212 0.0000 0.0000 0.0000
# 2 39.0077 57.5287 28.9051 0.0000 0.0000 0.0000
# 3 77.2212 28.9051 159.5930 0.0000 0.0000 0.0000
# 4 0.0000 0.0000 0.0000 17.6165 0.0000 0.0000
# 5 0.0000 0.0000 0.0000 0.0000 -110.5329 0.0000
# 6 0.0000 0.0000 0.0000 0.0000 0.0000-1353.9874
#
#
#
# Elastic Compliance Matrix: (Units=1/GPa)
#
#
# Indices 1 2 3 4 5 6 
#
# 1 0.009410 -0.004503 -0.003738 0.000000 0.000000 0.000000
# 2 -0.004503 0.021277 -0.001675 0.000000 0.000000 0.000000
# 3 -0.003738 -0.001675 0.008378 0.000000 0.000000 0.000000
# 4 0.000000 0.000000 0.000000 0.056765 0.000000 0.000000
# 5 0.000000 0.000000 0.000000 0.000000 -0.009047 0.000000
# 6 0.000000 0.000000 0.000000 0.000000 0.000000 -0.000739
#
#
# Mechanical properties :
#
#
# Convention : Reuss Voigt Hill
#
# Bulk Modulus (GPa) = 51.98979 73.66599 62.82789
# Shear Modulus (GPa) = 44.52871 -274.20795 -114.83962
#
# Velocity S-wave (km/s) = 4.67474 -11.60052 -7.50729
# Velocity P-wave (km/s) = 7.39273 11.96982 6.65673
#
# Compressibility (1/GPa) = 0.01923455
#
# Stress axis : x y z
#
# Youngs Moduli (GPa) = 106.26747 46.99849 119.36202
#
# Poissons Ratio (x) = 0.21162 0.44615
# Poissons Ratio (y) = 0.47848 0.19993
# Poissons Ratio (z) = 0.39720 0.07872
#
# Static dielectric constant tensor:
#      x y z
#    x 3.714670 0.000000 0.000000 
#    y 0.000000 3.605800 0.000000 
#    z 0.000000 0.000000 3.973410 
# 
# 
# High freq. dielectric constant tensor:
#      x y z
#    x 1.799620 0.000000 0.000000 
#    y 0.000000 1.788080 0.000000 
#    z 0.000000 0.000000 1.803140 
# 
# From -- ./inp_files/13924.got.cif
#   From: 2010.03.12/outbox.cif.g09.slc.cpg/sg47_7_cif.got.tgz:13924.got - 2010.04.14 03:12:58.
