data_PCOD8199119
_publ_section_title
;
Structure prediction by ZEFSAII (Michael W. Deem and Ramdas Pophale) SiO2 
 PCOD8199119
Probable space group: P M M M
;
_chemical_formula_sum "Si O2"
_cell_formula_units_Z 48
_cell_length_a 34.025403
_cell_length_b 7.744663
_cell_length_c 9.210319
_cell_angle_alpha 90.000000
_cell_angle_beta 90.000000
_cell_angle_gamma 90.000000
_cell_volume 2427.059787
_symmetry_space_group_name_H-M "P M M M"
_symmetry_group_IT_number 47
_symmetry_cell_setting 'orthorhombic'
loop_
_space_group_symop_operation_xyz
x,y,z
-x,-y,z
x,-y,-z
-x,y,-z
-x,-y,-z
x,y,-z
-x,y,z
x,-y,z
loop_
_atom_site_type_symbol
_atom_site_label
_atom_site_fract_x
_atom_site_fract_y
_atom_site_fract_z
Si Si1 0.545528 0.196966 0.831535
Si Si2 0.116836 0.304372 0.658533
Si Si3 0.956705 0.798009 0.165114
Si Si4 0.412658 0.500000 0.665898
Si Si5 0.800750 0.196986 0.661150
Si Si6 0.274577 0.796095 0.829104
Si Si7 0.319847 0.500000 0.668280
O O1 0.500000 0.234739 0.799869
O O2 0.571502 0.326484 0.738959
O O3 0.556005 0.000000 0.788103
O O4 0.554906 0.227854 0.000000
O O5 0.108458 0.220937 0.500000
O O6 0.129170 0.500000 0.641690
O O7 0.077472 0.296588 0.750709
O O8 0.155301 0.215051 0.729474
O O9 0.000000 0.750012 0.228201
O O10 0.949471 0.000000 0.177424
O O11 0.954636 0.736031 0.000000
O O12 0.426599 0.500000 0.500000
O O13 0.366274 0.500000 0.680060
O O14 0.799130 0.286087 0.500000
O O15 0.768067 0.269631 0.771252
O O16 0.790375 0.000000 0.640391
O O17 0.305858 0.676006 0.746857
O O18 0.282740 0.000000 0.797383
O O19 0.276407 0.759384 0.000000
O O20 0.305944 0.500000 0.500000
#
# Coordination Sequence:
#
# PCOD8199119 Si02
#       7
#     8   8   8   4   8   8   4
#     4   9  19  37  61  88 119 159 205 250 299 356
#     4  10  21  34  50  78 111 139 170 209 255 312
#     4   9  19  36  55  73  96 131 175 219 262 310
#     4  11  24  38  55  86 122 158 200 249 303 354
#     4   9  18  34  56  80 107 141 178 217 268 330
#     4  10  22  40  62  89 117 146 189 245 299 350
#     4  11  25  42  60  83 118 162 203 243 292 356
#
# _framework density 19.777014999999999
#
# number of rings (size 3 to 8) (size 9 to 14) (size 15 to 20)
#    0.000    2.333    0.000    2.750    1.167    7.333 
#    0.000    8.333    0.000    0.000    0.000    0.000 
#    0.000    0.000    0.000    0.000    0.000    0.000 
#
# Total GULP energy -594906.909679 kJ/mol
# GULP energy per Si atom -12393.893952 kJ/mol
# Density = 1.973200 g / cm^3
# Si number density = 19.777015 Si / 1000 Ang^3
#
#
#
# Elastic Constant Matrix: (Units=GPa)
#
#
# Indices 1 2 3 4 5 6 
#
# 1 110.0846 49.4817 63.5705 0.0000 0.0000 0.0000
# 2 49.4817 88.0351 55.1863 0.0000 0.0000 0.0000
# 3 63.5705 55.1863 107.4242 0.0000 0.0000 0.0000
# 4 0.0000 0.0000 0.0000 20.3845 0.0000 0.0000
# 5 0.0000 0.0000 0.0000 0.0000 1.8618 0.0000
# 6 0.0000 0.0000 0.0000 0.0000 0.0000 4.7017
#
#
#
# Elastic Compliance Matrix: (Units=1/GPa)
#
#
# Indices 1 2 3 4 5 6 
#
# 1 0.014766 -0.004162 -0.006600 0.000000 0.000000 0.000000
# 2 -0.004162 0.017928 -0.006747 0.000000 0.000000 0.000000
# 3 -0.006600 -0.006747 0.016681 0.000000 0.000000 0.000000
# 4 0.000000 0.000000 0.000000 0.049057 0.000000 0.000000
# 5 0.000000 0.000000 0.000000 0.000000 0.537106 0.000000
# 6 0.000000 0.000000 0.000000 0.000000 0.000000 0.212689
#
#
# Mechanical properties :
#
#
# Convention : Reuss Voigt Hill
#
# Bulk Modulus (GPa) = 69.65496 71.33567 70.49531
# Shear Modulus (GPa) = 5.63043 14.54329 10.08686
#
# Velocity S-wave (km/s) = 1.68912 2.71470 2.26083
# Velocity P-wave (km/s) = 6.25306 6.78044 6.52209
#
# Compressibility (1/GPa) = 0.01435648
#
# Stress axis : x y z
#
# Youngs Moduli (GPa) = 67.72307 55.77855 59.95012
#
# Poissons Ratio (x) = 0.23217 0.39566
# Poissons Ratio (y) = 0.28188 0.40448
# Poissons Ratio (z) = 0.44696 0.37633
#
# Static dielectric constant tensor:
#      x y z
#    x 3.699070 0.000000 0.000000 
#    y 0.000000 3.550850 0.000000 
#    z 0.000000 0.000000 3.733110 
# 
# 
# High freq. dielectric constant tensor:
#      x y z
#    x 1.773630 0.000000 0.000000 
#    y 0.000000 1.774100 0.000000 
#    z 0.000000 0.000000 1.762210 
# 
# From -- ./inp_files/13994.got.cif
#   From: 2010.03.12/outbox.cif.g09.slc.cpg/sg47_7_cif.got.tgz:13994.got - 2010.04.14 03:12:58.
