data_PCOD8199147
_publ_section_title
;
Structure prediction by ZEFSAII (Michael W. Deem and Ramdas Pophale) SiO2 
 PCOD8199147
Probable space group: P M M M
;
_chemical_formula_sum "Si O2"
_cell_formula_units_Z 64
_cell_length_a 28.726748
_cell_length_b 8.739865
_cell_length_c 14.334929
_cell_angle_alpha 90.000000
_cell_angle_beta 90.000000
_cell_angle_gamma 90.000000
_cell_volume 3599.040512
_symmetry_space_group_name_H-M "P M M M"
_symmetry_group_IT_number 47
_symmetry_cell_setting 'orthorhombic'
loop_
_space_group_symop_operation_xyz
x,y,z
-x,-y,z
x,-y,-z
-x,y,-z
-x,-y,-z
x,y,-z
-x,y,z
x,-y,z
loop_
_atom_site_type_symbol
_atom_site_label
_atom_site_fract_x
_atom_site_fract_y
_atom_site_fract_z
Si Si1 0.126333 0.817763 0.396331
Si Si2 0.874658 0.182157 0.103625
Si Si3 0.948160 0.182077 0.250923
Si Si4 0.695963 0.818086 0.755596
Si Si5 0.375878 0.819202 0.603530
Si Si6 0.375539 0.680362 0.107344
Si Si7 0.199702 0.181862 0.750828
Si Si8 0.447016 0.818890 0.243271
O O1 0.126579 0.746559 0.500000
O O2 0.079865 0.762008 0.342547
O O3 0.172260 0.760459 0.341219
O O4 0.126590 0.000000 0.400602
O O5 0.920646 0.238535 0.158750
O O6 0.828240 0.238159 0.157472
O O7 0.874729 0.000000 0.099149
O O8 0.874960 0.253653 0.000000
O O9 0.000000 0.253549 0.251546
O O10 0.950840 0.000000 0.250709
O O11 0.669776 0.765988 0.660812
O O12 0.670316 0.750880 0.845613
O O13 0.748219 0.750652 0.751787
O O14 0.695419 0.000000 0.765149
O O15 0.376021 0.743988 0.500000
O O16 0.421640 0.767277 0.660910
O O17 0.375603 0.000000 0.593096
O O18 0.373806 0.500000 0.118732
O O19 0.422531 0.742186 0.154716
O O20 0.376109 0.731390 0.000000
O O21 0.201882 0.000000 0.749557
O O22 0.500000 0.762145 0.248422
O O23 0.443299 0.000000 0.230464
#
# Coordination Sequence:
#
# PCOD8199147 Si02
#       8
#     8   8   8   8   8   8   8   8
#     4   8  13  20  29  43  66  94 123 161 208 251
#     4   8  13  20  28  39  58  84 116 159 209 252
#     4   8  13  19  25  35  54  84 125 167 202 243
#     4   9  17  29  46  67  88 112 145 182 218 258
#     4   8  14  25  42  66  93 115 137 170 210 249
#     4  10  21  35  49  66  90 119 148 179 218 262
#     4   8  14  23  34  51  73  94 122 164 210 251
#     4   9  18  32  50  72  95 119 149 183 216 251
#
# _framework density 17.782516999999999
#
# number of rings (size 3 to 8) (size 9 to 14) (size 15 to 20)
#    0.000    3.500    0.000    2.625    0.000    3.250 
#    0.000    8.750    0.000    6.000    0.000    3.500 
#    0.000    0.000    0.000    0.000    0.000   10.000 
#
# Total GULP energy -793152.646783 kJ/mol
# GULP energy per Si atom -12393.010106 kJ/mol
# Density = 1.774204 g / cm^3
# Si number density = 17.782517 Si / 1000 Ang^3
#
#
#
# Elastic Constant Matrix: (Units=GPa)
#
#
# Indices 1 2 3 4 5 6 
#
# 1 197.2456 14.1583 101.1213 0.0000 0.0000 0.0000
# 2 14.1583 12.2962 16.9865 0.0000 0.0000 0.0000
# 3 101.1213 16.9865 192.3258 0.0000 0.0000 0.0000
# 4 0.0000 0.0000 0.0000 4.8216 0.0000 0.0000
# 5 0.0000 0.0000 0.0000 0.0000 14.1512 0.0000
# 6 0.0000 0.0000 0.0000 0.0000 0.0000 2.2555
#
#
#
# Elastic Compliance Matrix: (Units=1/GPa)
#
#
# Indices 1 2 3 4 5 6 
#
# 1 0.007065 -0.003421 -0.003412 0.000000 0.000000 0.000000
# 2 -0.003421 0.094284 -0.006529 0.000000 0.000000 0.000000
# 3 -0.003412 -0.006529 0.007570 0.000000 0.000000 0.000000
# 4 0.000000 0.000000 0.000000 0.207402 0.000000 0.000000
# 5 0.000000 0.000000 0.000000 0.000000 0.070665 0.000000
# 6 0.000000 0.000000 0.000000 0.000000 0.000000 0.443363
#
#
# Mechanical properties :
#
#
# Convention : Reuss Voigt Hill
#
# Bulk Modulus (GPa) = 12.16614 74.04443 43.10529
# Shear Modulus (GPa) = 5.65309 22.21909 13.93609
#
# Velocity S-wave (km/s) = 1.78491 3.53865 2.80249
# Velocity P-wave (km/s) = 3.33232 7.64365 5.89617
#
# Compressibility (1/GPa) = 0.08219531
#
# Stress axis : x y z
#
# Youngs Moduli (GPa) = 141.54712 10.60627 132.09467
#
# Poissons Ratio (x) = 0.03628 0.45076
# Poissons Ratio (y) = 0.48418 0.86242
# Poissons Ratio (z) = 0.48302 0.06925
#
# Static dielectric constant tensor:
#      x y z
#    x 3.617500 0.000000 0.000000 
#    y 0.000000 2.611070 0.000000 
#    z 0.000000 0.000000 3.632140 
# 
# 
# High freq. dielectric constant tensor:
#      x y z
#    x 1.695290 0.000000 0.000000 
#    y 0.000000 1.618410 0.000000 
#    z 0.000000 0.000000 1.694770 
# 
# From -- ./inp_files/14272.got.cif
#   From: 2010.03.12/outbox.cif.g09.slc.cpg/sg47_8_cif.got.tgz:14272.got - 2010.04.14 03:12:58.
