data_PCOD8199157
_publ_section_title
;
Structure prediction by ZEFSAII (Michael W. Deem and Ramdas Pophale) SiO2 
 PCOD8199157
Probable space group: P M M M
;
_chemical_formula_sum "Si O2"
_cell_formula_units_Z 44
_cell_length_a 9.682508
_cell_length_b 9.118670
_cell_length_c 28.173412
_cell_angle_alpha 90.000000
_cell_angle_beta 90.000000
_cell_angle_gamma 90.000000
_cell_volume 2487.475488
_symmetry_space_group_name_H-M "P M M M"
_symmetry_group_IT_number 47
_symmetry_cell_setting 'orthorhombic'
loop_
_space_group_symop_operation_xyz
x,y,z
-x,-y,z
x,-y,-z
-x,y,-z
-x,-y,-z
x,y,-z
-x,y,z
x,-y,z
loop_
_atom_site_type_symbol
_atom_site_label
_atom_site_fract_x
_atom_site_fract_y
_atom_site_fract_z
Si Si1 0.340959 0.171865 0.767278
Si Si2 0.838691 0.331165 0.690660
Si Si3 0.152960 0.673978 0.583691
Si Si4 0.340729 0.671564 0.862677
Si Si5 0.844847 0.674302 0.052408
Si Si6 0.655785 0.324804 0.500000
O O1 0.500000 0.213303 0.757296
O O2 0.249975 0.227999 0.724074
O O3 0.288836 0.247586 0.815505
O O4 0.319913 0.000000 0.772936
O O5 0.795894 0.500000 0.698686
O O6 0.804654 0.280760 0.636939
O O7 0.000000 0.309651 0.701651
O O8 0.146646 0.500000 0.580378
O O9 0.264970 0.736057 0.546535
O O10 0.000000 0.736040 0.571353
O O11 0.500000 0.705312 0.872921
O O12 0.312621 0.500000 0.855416
O O13 0.256843 0.736957 0.907400
O O14 0.838496 0.500000 0.052695
O O15 0.000000 0.727832 0.063709
O O16 0.799618 0.731029 0.000000
O O17 0.653968 0.500000 0.500000
O O18 0.500000 0.262561 0.500000
#
# Coordination Sequence:
#
# PCOD8199157 Si02
#       6
#     8   8   8   8   8   4
#     4  10  21  35  49  67  94 127 160 195 238 286
#     4   9  18  32  50  72  95 121 158 200 238 279
#     4   8  14  25  40  59  87 121 151 182 225 274
#     4   9  17  29  46  68  92 119 153 191 229 271
#     4   8  14  25  42  66  94 119 144 180 227 274
#     4   9  15  21  33  59  92 121 150 183 220 266
#
# _framework density 17.688617000000001
#
# number of rings (size 3 to 8) (size 9 to 14) (size 15 to 20)
#    0.000    3.182    0.000    2.455    0.000    4.364 
#    0.000    5.455    0.000    0.545    0.000    4.455 
#    0.000    5.091    0.000    0.000    0.000    0.000 
#
# Total GULP energy -545441.897166 kJ/mol
# GULP energy per Si atom -12396.406754 kJ/mol
# Density = 1.764836 g / cm^3
# Si number density = 17.688617 Si / 1000 Ang^3
#
#
#
# Elastic Constant Matrix: (Units=GPa)
#
#
# Indices 1 2 3 4 5 6 
#
# 1 100.9953 25.3929 93.5909 0.0000 0.0000 0.0000
# 2 25.3929 28.9071 33.8876 0.0000 0.0000 0.0000
# 3 93.5909 33.8876 167.4961 0.0000 0.0000 0.0000
# 4 0.0000 0.0000 0.0000 -0.1297 0.0000 0.0000
# 5 0.0000 0.0000 0.0000 0.0000 36.6329 0.0000
# 6 0.0000 0.0000 0.0000 0.0000 0.0000 15.6767
#
#
#
# Elastic Compliance Matrix: (Units=1/GPa)
#
#
# Indices 1 2 3 4 5 6 
#
# 1 0.021363 -0.006256 -0.010671 0.000000 0.000000 0.000000
# 2 -0.006256 0.047182 -0.006050 0.000000 0.000000 0.000000
# 3 -0.010671 -0.006050 0.013157 0.000000 0.000000 0.000000
# 4 0.000000 0.000000 0.000000 -7.708193 0.000000 0.000000
# 5 0.000000 0.000000 0.000000 0.000000 0.027298 0.000000
# 6 0.000000 0.000000 0.000000 0.000000 0.000000 0.063789
#
#
# Mechanical properties :
#
#
# Convention : Reuss Voigt Hill
#
# Bulk Modulus (GPa) = 27.97446 67.01568 47.49507
# Shear Modulus (GPa) = -0.66867 20.07112 9.70123
#
# Velocity S-wave (km/s) = -0.61550 3.37217 2.34443
# Velocity P-wave (km/s) = 3.91716 7.28908 5.85127
#
# Compressibility (1/GPa) = 0.03574689
#
# Stress axis : x y z
#
# Youngs Moduli (GPa) = 46.80882 21.19474 76.00468
#
# Poissons Ratio (x) = 0.13260 0.81108
# Poissons Ratio (y) = 0.29285 0.45982
# Poissons Ratio (z) = 0.49952 0.12823
#
# Static dielectric constant tensor:
#      x y z
#    x 3.417520 0.000000 0.000000 
#    y 0.000000 2.753940 0.000000 
#    z 0.000000 0.000000 3.596080 
# 
# 
# High freq. dielectric constant tensor:
#      x y z
#    x 1.683380 0.000000 0.000000 
#    y 0.000000 1.628240 0.000000 
#    z 0.000000 0.000000 1.698010 
# 
# From -- ./inp_files/13599.got.cif
#   From: 2010.03.12/outbox.cif.g09.slc.cpg/sg47_7_cif.got.tgz:13599.got - 2010.04.14 03:12:58.
