data_PCOD8199126
_publ_section_title
;
Structure prediction by ZEFSAII (Michael W. Deem and Ramdas Pophale) SiO2 
 PCOD8199126
Probable space group: P M M M
;
_chemical_formula_sum "Si O2"
_cell_formula_units_Z 52
_cell_length_a 19.674212
_cell_length_b 15.011869
_cell_length_c 9.302821
_cell_angle_alpha 90.000000
_cell_angle_beta 90.000000
_cell_angle_gamma 90.000000
_cell_volume 2747.557420
_symmetry_space_group_name_H-M "P M M M"
_symmetry_group_IT_number 47
_symmetry_cell_setting 'orthorhombic'
loop_
_space_group_symop_operation_xyz
x,y,z
-x,-y,z
x,-y,-z
-x,y,-z
-x,-y,-z
x,y,-z
-x,y,z
x,-y,z
loop_
_atom_site_type_symbol
_atom_site_label
_atom_site_fract_x
_atom_site_fract_y
_atom_site_fract_z
Si Si1 0.922278 0.104184 0.666999
Si Si2 0.698989 0.727623 0.336303
Si Si3 0.623455 0.098825 0.340336
Si Si4 0.924753 0.403636 0.170317
Si Si5 0.500000 0.106189 0.841431
Si Si6 0.576175 0.398789 0.329707
Si Si7 0.166001 0.755166 0.828220
O O1 0.910346 0.126728 0.500000
O O2 0.865580 0.155173 0.761052
O O3 0.000000 0.130067 0.711226
O O4 0.910796 0.000000 0.695661
O O5 0.717085 0.697623 0.500000
O O6 0.685160 0.833294 0.335782
O O7 0.635384 0.668780 0.275768
O O8 0.761258 0.722156 0.227869
O O9 0.592165 0.093388 0.500000
O O10 0.566581 0.140722 0.237962
O O11 0.647867 0.000000 0.290665
O O12 0.894199 0.500000 0.216200
O O13 0.880681 0.323994 0.231376
O O14 0.000000 0.393749 0.235033
O O15 0.927691 0.397127 0.000000
O O16 0.500000 0.000000 0.839323
O O17 0.500000 0.146435 0.000000
O O18 0.574072 0.393868 0.500000
O O19 0.500000 0.372130 0.272113
O O20 0.593448 0.500000 0.279665
O O21 0.168745 0.765696 0.000000
#
# Coordination Sequence:
#
# PCOD8199126 Si02
#       7
#     8   8   8   8   4   8   8
#     4   9  19  37  60  83 108 143 186 228 270 317
#     4  10  21  34  51  74 102 139 180 218 263 320
#     4   9  18  32  49  69  94 126 166 207 244 294
#     4   8  15  30  52  76 102 136 177 215 254 307
#     4   9  17  29  47  71  96 121 150 192 249 301
#     4   8  15  30  53  78 100 126 170 230 284 323
#     4  11  22  34  51  79 114 146 179 221 270 320
#
# _framework density 18.925901
#
# number of rings (size 3 to 8) (size 9 to 14) (size 15 to 20)
#    0.000    2.846    0.000    2.538    1.077    4.000 
#    0.000    2.308    0.000    1.385    0.000    6.462 
#    0.000    0.000    0.000    0.000    0.000    0.000 
#
# Total GULP energy -644274.276701 kJ/mol
# GULP energy per Si atom -12389.889937 kJ/mol
# Density = 1.888282 g / cm^3
# Si number density = 18.925901 Si / 1000 Ang^3
#
#
#
# Elastic Constant Matrix: (Units=GPa)
#
#
# Indices 1 2 3 4 5 6 
#
# 1 117.8170 61.7821 41.5673 0.0000 0.0000 0.0000
# 2 61.7821 105.3973 28.6252 0.0000 0.0000 0.0000
# 3 41.5673 28.6252 63.0695 0.0000 0.0000 0.0000
# 4 0.0000 0.0000 0.0000 14.3672 0.0000 0.0000
# 5 0.0000 0.0000 0.0000 0.0000 33.2032 0.0000
# 6 0.0000 0.0000 0.0000 0.0000 0.0000 18.6448
#
#
#
# Elastic Compliance Matrix: (Units=1/GPa)
#
#
# Indices 1 2 3 4 5 6 
#
# 1 0.014186 -0.006589 -0.006360 0.000000 0.000000 0.000000
# 2 -0.006589 0.013882 -0.001958 0.000000 0.000000 0.000000
# 3 -0.006360 -0.001958 0.020936 0.000000 0.000000 0.000000
# 4 0.000000 0.000000 0.000000 0.069603 0.000000 0.000000
# 5 0.000000 0.000000 0.000000 0.000000 0.030118 0.000000
# 6 0.000000 0.000000 0.000000 0.000000 0.000000 0.053634
#
#
# Mechanical properties :
#
#
# Convention : Reuss Voigt Hill
#
# Bulk Modulus (GPa) = 52.10680 61.13701 56.62191
# Shear Modulus (GPa) = 20.95833 23.53032 22.24433
#
# Velocity S-wave (km/s) = 3.33136 3.52985 3.43204
# Velocity P-wave (km/s) = 6.51068 6.99904 6.75928
#
# Compressibility (1/GPa) = 0.01919135
#
# Stress axis : x y z
#
# Youngs Moduli (GPa) = 70.48960 72.03629 47.76546
#
# Poissons Ratio (x) = 0.47462 0.30377
# Poissons Ratio (y) = 0.46443 0.09353
# Poissons Ratio (z) = 0.44828 0.14106
#
# Static dielectric constant tensor:
#      x y z
#    x 3.520900 0.000000 0.000000 
#    y 0.000000 3.667440 0.000000 
#    z 0.000000 0.000000 3.175500 
# 
# 
# High freq. dielectric constant tensor:
#      x y z
#    x 1.728650 0.000000 0.000000 
#    y 0.000000 1.741970 0.000000 
#    z 0.000000 0.000000 1.698890 
# 
# From -- ./inp_files/10972.got.cif
#   From: 2010.03.12/outbox.cif.g09.slc.cpg/sg47_6_cif.got.tgz:10972.got - 2010.04.14 03:12:58.
