data_PCOD8199355
_publ_section_title
;
Structure prediction by ZEFSAII (Michael W. Deem and Ramdas Pophale) SiO2 
 PCOD8199355
Probable space group: P M M M
;
_chemical_formula_sum "Si O2"
_cell_formula_units_Z 56
_cell_length_a 14.399451
_cell_length_b 9.210715
_cell_length_c 23.375974
_cell_angle_alpha 90.000000
_cell_angle_beta 90.000000
_cell_angle_gamma 90.000000
_cell_volume 3100.337650
_symmetry_space_group_name_H-M "P M M M"
_symmetry_group_IT_number 47
_symmetry_cell_setting 'orthorhombic'
loop_
_space_group_symop_operation_xyz
x,y,z
-x,-y,z
x,-y,-z
-x,y,-z
-x,-y,-z
x,y,-z
-x,y,z
x,-y,z
loop_
_atom_site_type_symbol
_atom_site_label
_atom_site_fract_x
_atom_site_fract_y
_atom_site_fract_z
Si Si1 0.390575 0.163380 0.063896
Si Si2 0.737305 0.328032 0.144693
Si Si3 0.754018 0.668170 0.432840
Si Si4 0.106813 0.831354 0.644407
Si Si5 0.393193 0.831348 0.637975
Si Si6 0.744957 0.834591 0.261774
Si Si7 0.102776 0.672578 0.936447
O O1 0.500000 0.167993 0.068981
O O2 0.352791 0.272251 0.111533
O O3 0.354715 0.000000 0.075797
O O4 0.359913 0.212717 0.000000
O O5 0.734896 0.500000 0.146205
O O6 0.740173 0.272550 0.208920
O O7 0.826349 0.265776 0.110422
O O8 0.759785 0.691977 0.500000
O O9 0.752321 0.500000 0.415761
O O10 0.845726 0.740016 0.405896
O O11 0.659043 0.740668 0.410748
O O12 0.160380 0.801728 0.703723
O O13 0.000000 0.782805 0.651575
O O14 0.115132 0.000000 0.627671
O O15 0.500000 0.780639 0.641768
O O16 0.344473 0.802842 0.698828
O O17 0.385167 0.000000 0.621349
O O18 0.743452 0.000000 0.239852
O O19 0.104452 0.500000 0.936005
O O20 0.000000 0.729288 0.920522
O O21 0.130502 0.727959 0.000000
#
# Coordination Sequence:
#
# PCOD8199355 Si02
#       7
#     8   8   8   8   8   8   8
#     4   9  19  36  55  73  96 130 169 207 254 312
#     4  11  21  31  49  78 105 130 165 209 255 301
#     4  10  21  35  52  80 116 145 169 204 254 312
#     4   9  19  37  59  79 101 136 181 223 260 298
#     4   9  19  37  59  78  98 133 180 223 260 299
#     4   9  19  35  52  73 103 136 170 210 256 305
#     4   8  15  29  47  67  95 130 163 196 240 295
#
# _framework density 18.062549000000001
#
# number of rings (size 3 to 8) (size 9 to 14) (size 15 to 20)
#    0.000    2.714    0.000    3.000    0.000    6.857 
#    0.000    5.000    0.000    1.286    0.000    5.000 
#    0.000    0.000    0.000    0.000    0.000    0.000 
#
# Total GULP energy -694360.243396 kJ/mol
# GULP energy per Si atom -12399.290061 kJ/mol
# Density = 1.802144 g / cm^3
# Si number density = 18.062549 Si / 1000 Ang^3
#
#
#
# Elastic Constant Matrix: (Units=GPa)
#
#
# Indices 1 2 3 4 5 6 
#
# 1 133.6854 50.5591 60.7796 0.0000 0.0000 0.0000
# 2 50.5591 81.3713 65.0304 0.0000 0.0000 0.0000
# 3 60.7796 65.0304 117.7930 0.0000 0.0000 0.0000
# 4 0.0000 0.0000 0.0000 28.5864 0.0000 0.0000
# 5 0.0000 0.0000 0.0000 0.0000 9.8845 0.0000
# 6 0.0000 0.0000 0.0000 0.0000 0.0000 16.2997
#
#
#
# Elastic Compliance Matrix: (Units=1/GPa)
#
#
# Indices 1 2 3 4 5 6 
#
# 1 0.010420 -0.003897 -0.003225 0.000000 0.000000 0.000000
# 2 -0.003897 0.023450 -0.010935 0.000000 0.000000 0.000000
# 3 -0.003225 -0.010935 0.016191 0.000000 0.000000 0.000000
# 4 0.000000 0.000000 0.000000 0.034982 0.000000 0.000000
# 5 0.000000 0.000000 0.000000 0.000000 0.101169 0.000000
# 6 0.000000 0.000000 0.000000 0.000000 0.000000 0.061351
#
#
# Mechanical properties :
#
#
# Convention : Reuss Voigt Hill
#
# Bulk Modulus (GPa) = 71.70569 76.17642 73.94106
# Shear Modulus (GPa) = 17.34145 21.38616 19.36381
#
# Velocity S-wave (km/s) = 3.10187 3.44467 3.27776
# Velocity P-wave (km/s) = 7.25352 7.62143 7.43975
#
# Compressibility (1/GPa) = 0.01394589
#
# Stress axis : x y z
#
# Youngs Moduli (GPa) = 95.96490 42.64391 61.76317
#
# Poissons Ratio (x) = 0.16618 0.19921
# Poissons Ratio (y) = 0.37397 0.67540
# Poissons Ratio (z) = 0.30953 0.46633
#
# Static dielectric constant tensor:
#      x y z
#    x 3.584390 0.000000 0.000000 
#    y 0.000000 3.223840 0.000000 
#    z 0.000000 0.000000 3.259680 
# 
# 
# High freq. dielectric constant tensor:
#      x y z
#    x 1.706230 0.000000 0.000000 
#    y 0.000000 1.686780 0.000000 
#    z 0.000000 0.000000 1.697250 
# 
# From -- ./inp_files/11211.got.cif
#   From: 2010.03.12/outbox.cif.g09.slc.cpg/sg47_6_cif.got.tgz:11211.got - 2010.04.14 03:12:58.
