data_PCOD8199528
_publ_section_title
;
Structure prediction by ZEFSAII (Michael W. Deem and Ramdas Pophale) SiO2 
 PCOD8199528
Probable space group: P M M M
;
_chemical_formula_sum "Si O2"
_cell_formula_units_Z 52
_cell_length_a 8.927023
_cell_length_b 13.951630
_cell_length_c 21.529136
_cell_angle_alpha 90.000000
_cell_angle_beta 90.000000
_cell_angle_gamma 90.000000
_cell_volume 2681.379008
_symmetry_space_group_name_H-M "P M M M"
_symmetry_group_IT_number 47
_symmetry_cell_setting 'orthorhombic'
loop_
_space_group_symop_operation_xyz
x,y,z
-x,-y,z
x,-y,-z
-x,y,-z
-x,-y,-z
x,y,-z
-x,y,z
x,-y,z
loop_
_atom_site_type_symbol
_atom_site_label
_atom_site_fract_x
_atom_site_fract_y
_atom_site_fract_z
Si Si1 0.168159 0.612695 0.000000
Si Si2 0.325126 0.792413 0.569587
Si Si3 0.824162 0.294014 0.246289
Si Si4 0.671934 0.608058 0.356446
Si Si5 0.176389 0.108021 0.318194
Si Si6 0.677493 0.103093 0.930807
Si Si7 0.322365 0.299097 0.118957
O O1 0.255574 0.642664 0.061794
O O2 0.159346 0.500000 0.000000
O O3 0.000000 0.656346 0.000000
O O4 0.263160 0.807803 0.500000
O O5 0.500000 0.814429 0.572733
O O6 0.291781 0.682051 0.588244
O O7 0.245787 0.867260 0.615100
O O8 0.780117 0.369654 0.298953
O O9 0.770726 0.186465 0.266870
O O10 0.742193 0.332028 0.184635
O O11 0.000000 0.297095 0.234411
O O12 0.500000 0.620019 0.334431
O O13 0.703011 0.500000 0.380151
O O14 0.000000 0.114792 0.326245
O O15 0.225638 0.000000 0.298251
O O16 0.500000 0.102287 0.934837
O O17 0.730511 0.188185 0.886509
O O18 0.735887 0.000000 0.905408
O O19 0.741841 0.121207 0.000000
O O20 0.500000 0.312488 0.117635
#
# Coordination Sequence:
#
# PCOD8199528 Si02
#       7
#     4   8   8   8   8   8   8
#     4  11  25  43  60  79 106 140 177 219 268 319
#     4   9  18  32  51  79 112 141 173 218 270 320
#     4  10  21  36  54  77 106 140 176 220 269 315
#     4   9  18  34  55  77 102 135 176 220 265 318
#     4   9  19  36  55  75 105 147 189 224 259 305
#     4   8  14  27  49  77 106 132 159 195 243 300
#     4  11  21  36  59  84 108 138 175 217 264 315
#
# _framework density 19.393006
#
# number of rings (size 3 to 8) (size 9 to 14) (size 15 to 20)
#    0.000    2.538    0.769    1.615    0.000    4.000 
#    0.000    3.077    0.000    1.846    0.000    4.308 
#    0.000    0.000    0.000    0.000    0.000    0.000 
#
# Total GULP energy -644575.998881 kJ/mol
# GULP energy per Si atom -12395.692286 kJ/mol
# Density = 1.934887 g / cm^3
# Si number density = 19.393006 Si / 1000 Ang^3
#
#
#
# Elastic Constant Matrix: (Units=GPa)
#
#
# Indices 1 2 3 4 5 6 
#
# 1 60.6023 21.0393 34.5792 0.0000 0.0000 0.0000
# 2 21.0393 71.3095 11.5777 0.0000 0.0000 0.0000
# 3 34.5792 11.5777 106.6060 0.0000 0.0000 0.0000
# 4 0.0000 0.0000 0.0000 12.0596 0.0000 0.0000
# 5 0.0000 0.0000 0.0000 0.0000 22.7373 0.0000
# 6 0.0000 0.0000 0.0000 0.0000 0.0000 24.4826
#
#
#
# Elastic Compliance Matrix: (Units=1/GPa)
#
#
# Indices 1 2 3 4 5 6 
#
# 1 0.022162 -0.005468 -0.006595 0.000000 0.000000 0.000000
# 2 -0.005468 0.015624 0.000077 0.000000 0.000000 0.000000
# 3 -0.006595 0.000077 0.011511 0.000000 0.000000 0.000000
# 4 0.000000 0.000000 0.000000 0.082921 0.000000 0.000000
# 5 0.000000 0.000000 0.000000 0.000000 0.043981 0.000000
# 6 0.000000 0.000000 0.000000 0.000000 0.000000 0.040845
#
#
# Mechanical properties :
#
#
# Convention : Reuss Voigt Hill
#
# Bulk Modulus (GPa) = 39.48590 41.43445 40.46017
# Shear Modulus (GPa) = 20.04338 23.27735 21.66037
#
# Velocity S-wave (km/s) = 3.21835 3.46829 3.34566
# Velocity P-wave (km/s) = 5.84940 6.11970 5.98608
#
# Compressibility (1/GPa) = 0.02532550
#
# Stress axis : x y z
#
# Youngs Moduli (GPa) = 45.12160 64.00320 86.87257
#
# Poissons Ratio (x) = 0.34997 0.57291
# Poissons Ratio (y) = 0.24673 -0.00667
# Poissons Ratio (z) = 0.29757 -0.00492
#
# Static dielectric constant tensor:
#      x y z
#    x 3.381980 0.000000 0.000000 
#    y 0.000000 3.804000 0.000000 
#    z 0.000000 0.000000 3.464770 
# 
# 
# High freq. dielectric constant tensor:
#      x y z
#    x 1.738600 0.000000 0.000000 
#    y 0.000000 1.759650 0.000000 
#    z 0.000000 0.000000 1.746310 
# 
# From -- ./inp_files/10988.got.cif
#   From: 2010.03.12/outbox.cif.g09.slc.cpg/sg47_6_cif.got.tgz:10988.got - 2010.04.14 03:12:58.
