data_PCOD8199913
_publ_section_title
;
Structure prediction by ZEFSAII (Michael W. Deem and Ramdas Pophale) SiO2 
 PCOD8199913
Probable space group: P M M M
;
_chemical_formula_sum "Si O2"
_cell_formula_units_Z 48
_cell_length_a 9.536343
_cell_length_b 29.245746
_cell_length_c 8.803019
_cell_angle_alpha 90.000000
_cell_angle_beta 90.000000
_cell_angle_gamma 90.000000
_cell_volume 2455.139685
_symmetry_space_group_name_H-M "P M M M"
_symmetry_group_IT_number 47
_symmetry_cell_setting 'orthorhombic'
loop_
_space_group_symop_operation_xyz
x,y,z
-x,-y,z
x,-y,-z
-x,y,-z
-x,-y,-z
x,y,-z
-x,y,z
x,-y,z
loop_
_atom_site_type_symbol
_atom_site_label
_atom_site_fract_x
_atom_site_fract_y
_atom_site_fract_z
Si Si1 0.256845 0.391050 0.320392
Si Si2 0.664898 0.216487 0.321157
Si Si3 0.836916 0.701955 0.820790
Si Si4 0.000000 0.450001 0.678910
Si Si5 0.657543 0.947428 0.822033
Si Si6 0.500000 0.551867 0.821085
Si Si7 0.158992 0.128524 0.321014
O O1 0.282865 0.390387 0.500000
O O2 0.237558 0.339712 0.264246
O O3 0.127998 0.420684 0.265132
O O4 0.374753 0.417897 0.235374
O O5 0.683891 0.225748 0.500000
O O6 0.500000 0.215310 0.277351
O O7 0.746709 0.254530 0.226809
O O8 0.738483 0.169448 0.270171
O O9 0.000000 0.707174 0.769818
O O10 0.826754 0.694595 0.000000
O O11 0.000000 0.500000 0.756829
O O12 0.000000 0.456031 0.500000
O O13 0.500000 0.934048 0.767384
O O14 0.775827 0.918278 0.739215
O O15 0.687281 0.000000 0.781624
O O16 0.670303 0.938836 0.000000
O O17 0.500000 0.500000 0.752265
O O18 0.500000 0.548273 0.000000
O O19 0.152696 0.125515 0.500000
O O20 0.000000 0.135431 0.257079
#
# Coordination Sequence:
#
# PCOD8199913 Si02
#       7
#     8   8   8   4   8   4   8
#     4  11  22  39  64  90 119 156 198 244 291 344
#     4  10  22  40  63  88 114 149 196 244 293 352
#     4  11  24  41  61  87 121 156 192 237 295 358
#     4   9  18  34  59  91 119 145 189 243 288 335
#     4   9  19  36  57  82 115 157 203 248 294 349
#     4  11  25  43  61  87 125 163 197 239 292 347
#     4  10  21  37  58  86 119 154 194 245 300 354
#
# _framework density 19.550823000000001
#
# number of rings (size 3 to 8) (size 9 to 14) (size 15 to 20)
#    0.000    1.833    0.833    3.250    1.167    6.000 
#    0.000    2.500    0.000    2.000    0.000    0.000 
#    0.000    0.000    0.000    0.000    0.000    0.000 
#
# Total GULP energy -595051.415012 kJ/mol
# GULP energy per Si atom -12396.904479 kJ/mol
# Density = 1.950632 g / cm^3
# Si number density = 19.550823 Si / 1000 Ang^3
#
#
#
# Elastic Constant Matrix: (Units=GPa)
#
#
# Indices 1 2 3 4 5 6 
#
# 1 157.0917 69.2941 35.2977 0.0000 0.0000 0.0000
# 2 69.2941 129.7291 30.3317 0.0000 0.0000 0.0000
# 3 35.2977 30.3317 43.1862 0.0000 0.0000 0.0000
# 4 0.0000 0.0000 0.0000 37.9253 0.0000 0.0000
# 5 0.0000 0.0000 0.0000 0.0000 41.4352 0.0000
# 6 0.0000 0.0000 0.0000 0.0000 0.0000 -210.1501
#
#
#
# Elastic Compliance Matrix: (Units=1/GPa)
#
#
# Indices 1 2 3 4 5 6 
#
# 1 0.009093 -0.003732 -0.004811 0.000000 0.000000 0.000000
# 2 -0.003732 0.010755 -0.004503 0.000000 0.000000 0.000000
# 3 -0.004811 -0.004503 0.030250 0.000000 0.000000 0.000000
# 4 0.000000 0.000000 0.000000 0.026368 0.000000 0.000000
# 5 0.000000 0.000000 0.000000 0.000000 0.024134 0.000000
# 6 0.000000 0.000000 0.000000 0.000000 0.000000 -0.004759
#
#
# Mechanical properties :
#
#
# Convention : Reuss Voigt Hill
#
# Bulk Modulus (GPa) = 41.65637 66.65044 54.15341
# Shear Modulus (GPa) = 38.48075 -13.15233 12.66421
#
# Velocity S-wave (km/s) = 4.44130 -2.59651 2.54787
# Velocity P-wave (km/s) = 6.90313 5.01754 6.03444
#
# Compressibility (1/GPa) = 0.02400593
#
# Stress axis : x y z
#
# Youngs Moduli (GPa) = 109.97560 92.98214 33.05756
#
# Poissons Ratio (x) = 0.34702 0.15903
# Poissons Ratio (y) = 0.41045 0.14886
# Poissons Ratio (z) = 0.52906 0.41871
#
# Static dielectric constant tensor:
#      x y z
#    x 3.820670 0.000000 0.000000 
#    y 0.000000 3.961930 0.000000 
#    z 0.000000 0.000000 3.395580 
# 
# 
# High freq. dielectric constant tensor:
#      x y z
#    x 1.777990 0.000000 0.000000 
#    y 0.000000 1.777020 0.000000 
#    z 0.000000 0.000000 1.748870 
# 
# From -- ./inp_files/2542.got.cif
#   From: 2010.03.12/outbox.cif.g09.slc.cpg/sg47_2_cif.got.tgz:2542.got - 2010.04.14 03:12:58.
