data_PCOD8199061
_publ_section_title
;
Structure prediction by ZEFSAII (Michael W. Deem and Ramdas Pophale) SiO2 
 PCOD8199061
Probable space group: P M M M
;
_chemical_formula_sum "Si O2"
_cell_formula_units_Z 44
_cell_length_a 9.340416
_cell_length_b 13.737763
_cell_length_c 21.289295
_cell_angle_alpha 90.000000
_cell_angle_beta 90.000000
_cell_angle_gamma 90.000000
_cell_volume 2731.766147
_symmetry_space_group_name_H-M "P M M M"
_symmetry_group_IT_number 47
_symmetry_cell_setting 'orthorhombic'
loop_
_space_group_symop_operation_xyz
x,y,z
-x,-y,z
x,-y,-z
-x,y,-z
-x,-y,-z
x,y,-z
-x,y,z
x,-y,z
loop_
_atom_site_type_symbol
_atom_site_label
_atom_site_fract_x
_atom_site_fract_y
_atom_site_fract_z
Si Si1 0.665510 0.610742 0.875000
Si Si2 0.164901 0.217038 0.071941
Si Si3 0.167903 0.388392 0.500000
Si Si4 0.336502 0.709045 0.745297
Si Si5 0.169959 0.612444 0.364339
Si Si6 0.665426 0.889903 0.174620
O O1 0.500000 0.629500 0.891960
O O2 0.710283 0.500000 0.887731
O O3 0.762078 0.677956 0.919063
O O4 0.692940 0.634762 0.802104
O O5 0.240619 0.134946 0.113800
O O6 0.000000 0.225371 0.092253
O O7 0.180178 0.184504 0.000000
O O8 0.210719 0.500000 0.500000
O O9 0.224451 0.346665 0.566985
O O10 0.000000 0.375317 0.500000
O O11 0.500000 0.702768 0.722841
O O12 0.237464 0.681916 0.687359
O O13 0.296507 0.818322 0.767750
O O14 0.217734 0.500000 0.354700
O O15 0.000000 0.619952 0.359141
O O16 0.500000 0.874631 0.155456
O O17 0.697100 0.000000 0.196169
#
# Coordination Sequence:
#
# PCOD8199061 Si02
#       6
#     8   8   4   8   8   8
#     4   9  18  32  48  65  88 121 157 187 215 254
#     4  10  21  34  47  67  94 118 141 177 226 273
#     4   7  12  24  39  57  86 123 158 184 203 235
#     4   9  17  29  45  66  90 112 139 181 227 263
#     4   9  16  26  42  64  91 124 156 180 206 247
#     4   9  19  36  54  68  84 111 147 184 223 270
#
# _framework density 16.106797
#
# number of rings (size 3 to 8) (size 9 to 14) (size 15 to 20)
#    0.000    3.000    0.000    3.273    0.000    6.909 
#    0.000    4.091    0.000    1.636    0.000    0.636 
#    0.000    5.091    0.000    0.000    0.000    0.000 
#
# Total GULP energy -545330.907217 kJ/mol
# GULP energy per Si atom -12393.884255 kJ/mol
# Density = 1.607014 g / cm^3
# Si number density = 16.106797 Si / 1000 Ang^3
#
#
#
# Elastic Constant Matrix: (Units=GPa)
#
#
# Indices 1 2 3 4 5 6 
#
# 1 64.5470 37.3728 50.0632 0.0000 0.0000 0.0000
# 2 37.3728 97.9576 43.1521 0.0000 0.0000 0.0000
# 3 50.0632 43.1521 105.7130 0.0000 0.0000 0.0000
# 4 0.0000 0.0000 0.0000 14.9843 0.0000 0.0000
# 5 0.0000 0.0000 0.0000 0.0000 2.8495 0.0000
# 6 0.0000 0.0000 0.0000 0.0000 0.0000 15.8574
#
#
#
# Elastic Compliance Matrix: (Units=1/GPa)
#
#
# Indices 1 2 3 4 5 6 
#
# 1 0.026833 -0.005657 -0.010398 0.000000 0.000000 0.000000
# 2 -0.005657 0.013639 -0.002889 0.000000 0.000000 0.000000
# 3 -0.010398 -0.002889 0.015563 0.000000 0.000000 0.000000
# 4 0.000000 0.000000 0.000000 0.066736 0.000000 0.000000
# 5 0.000000 0.000000 0.000000 0.000000 0.350935 0.000000
# 6 0.000000 0.000000 0.000000 0.000000 0.000000 0.063062
#
#
# Mechanical properties :
#
#
# Convention : Reuss Voigt Hill
#
# Bulk Modulus (GPa) = 55.10298 58.82152 56.96225
# Shear Modulus (GPa) = 8.61023 15.91355 12.26189
#
# Velocity S-wave (km/s) = 2.31459 3.14666 2.76214
# Velocity P-wave (km/s) = 6.43649 7.05698 6.75386
#
# Compressibility (1/GPa) = 0.01814784
#
# Stress axis : x y z
#
# Youngs Moduli (GPa) = 37.26777 73.31856 64.25429
#
# Poissons Ratio (x) = 0.41473 0.66814
# Poissons Ratio (y) = 0.21081 0.18561
# Poissons Ratio (z) = 0.38752 0.21179
#
# Static dielectric constant tensor:
#      x y z
#    x 2.961600 0.000000 0.000000 
#    y 0.000000 3.015720 0.000000 
#    z 0.000000 0.000000 3.105840 
# 
# 
# High freq. dielectric constant tensor:
#      x y z
#    x 1.611880 0.000000 0.000000 
#    y 0.000000 1.599280 0.000000 
#    z 0.000000 0.000000 1.614320 
# 
# From -- ./inp_files/10856.got.cif
#   From: 2010.03.12/outbox.cif.g09.slc.cpg/sg47_6_cif.got.tgz:10856.got - 2010.04.14 03:12:58.
