data_PCOD8199458
_publ_section_title
;
Structure prediction by ZEFSAII (Michael W. Deem and Ramdas Pophale) SiO2 
 PCOD8199458
Probable space group: P M M M
;
_chemical_formula_sum "Si O2"
_cell_formula_units_Z 44
_cell_length_a 8.785131
_cell_length_b 9.572873
_cell_length_c 28.101669
_cell_angle_alpha 90.000000
_cell_angle_beta 90.000000
_cell_angle_gamma 90.000000
_cell_volume 2363.320669
_symmetry_space_group_name_H-M "P M M M"
_symmetry_group_IT_number 47
_symmetry_cell_setting 'orthorhombic'
loop_
_space_group_symop_operation_xyz
x,y,z
-x,-y,z
x,-y,-z
-x,y,-z
-x,-y,-z
x,y,-z
-x,y,z
x,-y,z
loop_
_atom_site_type_symbol
_atom_site_label
_atom_site_fract_x
_atom_site_fract_y
_atom_site_fract_z
Si Si1 0.824570 0.336296 0.262784
Si Si2 0.679851 0.340155 0.000000
Si Si3 0.323442 0.661919 0.639031
Si Si4 0.680907 0.842921 0.447622
Si Si5 0.178740 0.840037 0.917637
Si Si6 0.323961 0.840062 0.181374
O O1 0.796722 0.500000 0.255333
O O2 0.770740 0.289927 0.315021
O O3 0.723345 0.256444 0.224786
O O4 0.000000 0.295205 0.256269
O O5 0.738806 0.263348 0.953311
O O6 0.738411 0.500000 0.000000
O O7 0.500000 0.334356 0.000000
O O8 0.500000 0.698061 0.648060
O O9 0.299790 0.500000 0.628216
O O10 0.254621 0.742881 0.593534
O O11 0.739607 0.794833 0.500000
O O12 0.500000 0.836397 0.447288
O O13 0.736969 0.000000 0.437213
O O14 0.226098 0.797323 0.864526
O O15 0.000000 0.821163 0.923706
O O16 0.227816 0.000000 0.928427
O O17 0.500000 0.815426 0.169216
O O18 0.291837 0.000000 0.195699
#
# Coordination Sequence:
#
# PCOD8199458 Si02
#       6
#     8   4   8   8   8   8
#     4  10  21  36  53  74 103 139 175 212 258 310
#     4  11  24  39  56  82 114 147 184 223 262 306
#     4   9  17  29  46  69  96 126 163 207 252 300
#     4   8  14  25  42  66  95 124 156 199 251 303
#     4  10  21  38  60  84 110 142 179 218 263 314
#     4  10  21  37  58  83 108 136 173 216 261 310
#
# _framework density 18.617871000000001
#
# number of rings (size 3 to 8) (size 9 to 14) (size 15 to 20)
#    0.000    2.455    0.000    2.727    0.000    6.909 
#    0.000    3.636    0.000    0.545    0.000    3.818 
#    0.000    0.000    0.000    0.000    0.000    0.000 
#
# Total GULP energy -545649.505404 kJ/mol
# GULP energy per Si atom -12401.125123 kJ/mol
# Density = 1.857550 g / cm^3
# Si number density = 18.617871 Si / 1000 Ang^3
#
#
#
# Elastic Constant Matrix: (Units=GPa)
#
#
# Indices 1 2 3 4 5 6 
#
# 1 46.3563 30.4717 27.0837 0.0000 0.0000 0.0000
# 2 30.4717 84.4245 74.0966 0.0000 0.0000 0.0000
# 3 27.0837 74.0966 131.4227 0.0000 0.0000 0.0000
# 4 0.0000 0.0000 0.0000 112.2320 0.0000 0.0000
# 5 0.0000 0.0000 0.0000 0.0000 -23.2828 0.0000
# 6 0.0000 0.0000 0.0000 0.0000 0.0000 22.9505
#
#
#
# Elastic Compliance Matrix: (Units=1/GPa)
#
#
# Indices 1 2 3 4 5 6 
#
# 1 0.028284 -0.010081 -0.000145 0.000000 0.000000 0.000000
# 2 -0.010081 0.027041 -0.013168 0.000000 0.000000 0.000000
# 3 -0.000145 -0.013168 0.015063 0.000000 0.000000 0.000000
# 4 0.000000 0.000000 0.000000 0.008910 0.000000 0.000000
# 5 0.000000 0.000000 0.000000 0.000000 -0.042950 0.000000
# 6 0.000000 0.000000 0.000000 0.000000 0.000000 0.043572
#
#
# Mechanical properties :
#
#
# Convention : Reuss Voigt Hill
#
# Bulk Modulus (GPa) = 42.37497 58.38970 50.38234
# Shear Modulus (GPa) = 37.15416 31.08340 34.11878
#
# Velocity S-wave (km/s) = 4.47208 4.09044 4.28551
# Velocity P-wave (km/s) = 7.03390 7.33070 7.18384
#
# Compressibility (1/GPa) = 0.02359884
#
# Stress axis : x y z
#
# Youngs Moduli (GPa) = 35.35628 36.98099 66.38729
#
# Poissons Ratio (x) = 0.37282 0.00961
# Poissons Ratio (y) = 0.35644 0.87420
# Poissons Ratio (z) = 0.00512 0.48697
#
# Static dielectric constant tensor:
#      x y z
#    x 3.291900 0.000000 0.000000 
#    y 0.000000 3.471380 0.000000 
#    z 0.000000 0.000000 3.630130 
# 
# 
# High freq. dielectric constant tensor:
#      x y z
#    x 1.709190 0.000000 0.000000 
#    y 0.000000 1.718040 0.000000 
#    z 0.000000 0.000000 1.735290 
# 
# From -- ./inp_files/33904.got.cif
#   From: 2010.03.12/outbox.cif.g09.slc.cpg/sg47_17_cif.got.tgz:33904.got - 2010.04.14 03:12:58.
