data_PCOD8199763
_publ_section_title
;
Structure prediction by ZEFSAII (Michael W. Deem and Ramdas Pophale) SiO2 
 PCOD8199763
Probable space group: P M M M
;
_chemical_formula_sum "Si O2"
_cell_formula_units_Z 56
_cell_length_a 21.659265
_cell_length_b 9.161227
_cell_length_c 13.632549
_cell_angle_alpha 90.000000
_cell_angle_beta 90.000000
_cell_angle_gamma 90.000000
_cell_volume 2705.044579
_symmetry_space_group_name_H-M "P M M M"
_symmetry_group_IT_number 47
_symmetry_cell_setting 'orthorhombic'
loop_
_space_group_symop_operation_xyz
x,y,z
-x,-y,z
x,-y,-z
-x,y,-z
-x,-y,-z
x,y,-z
-x,y,z
x,-y,z
loop_
_atom_site_type_symbol
_atom_site_label
_atom_site_fract_x
_atom_site_fract_y
_atom_site_fract_z
Si Si1 0.161724 0.833933 0.248487
Si Si2 0.747476 0.669119 0.615821
Si Si3 0.385623 0.338570 0.882653
Si Si4 0.927301 0.332557 0.110799
Si Si5 0.377249 0.833683 0.383572
Si Si6 0.725715 0.161599 0.109446
Si Si7 0.500000 0.161089 0.882959
Si Si8 0.500000 0.666684 0.616779
O O1 0.190961 0.742420 0.338067
O O2 0.101750 0.760995 0.199640
O O3 0.210005 0.833769 0.161540
O O4 0.146740 0.000000 0.282871
O O5 0.755327 0.683338 0.500000
O O6 0.742965 0.500000 0.647982
O O7 0.685445 0.752456 0.651674
O O8 0.392539 0.500000 0.841101
O O9 0.323012 0.269955 0.839672
O O10 0.441303 0.244492 0.840189
O O11 0.385857 0.334840 0.000000
O O12 0.906123 0.500000 0.123284
O O13 0.000000 0.317713 0.124185
O O14 0.909066 0.279090 0.000000
O O15 0.379126 0.835093 0.500000
O O16 0.438214 0.749124 0.344249
O O17 0.376342 0.000000 0.343100
O O18 0.696302 0.000000 0.110181
O O19 0.738663 0.216108 0.000000
O O20 0.500000 0.000000 0.839018
O O21 0.500000 0.159315 0.000000
O O22 0.500000 0.500000 0.655667
O O23 0.500000 0.667379 0.500000
#
# Coordination Sequence:
#
# PCOD8199763 Si02
#       8
#     8   8   8   8   8   8   4   4
#     4  11  22  35  56  85 115 148 185 227 275 326
#     4  10  21  37  56  78 107 146 192 240 289 342
#     4   9  16  25  39  61  88 120 163 213 258 303
#     4   9  19  37  61  90 125 162 195 226 264 316
#     4   9  16  27  45  70 100 134 176 229 287 344
#     4   9  18  32  48  70 103 138 170 206 254 314
#     4   9  15  23  37  56  81 118 162 207 258 313
#     4   9  15  23  39  66  99 134 174 221 278 347
#
# _framework density 20.702061
#
# number of rings (size 3 to 8) (size 9 to 14) (size 15 to 20)
#    0.000    2.571    0.000    3.000    0.000    8.286 
#    0.000    2.143    0.000    1.286    0.000    4.000 
#    0.000    0.000    0.000    0.000    0.000    1.000 
#
# Total GULP energy -694191.726384 kJ/mol
# GULP energy per Si atom -12396.280828 kJ/mol
# Density = 2.065494 g / cm^3
# Si number density = 20.702061 Si / 1000 Ang^3
#
#
#
# Elastic Constant Matrix: (Units=GPa)
#
#
# Indices 1 2 3 4 5 6 
#
# 1 84.9357 52.6917 21.6611 0.0000 0.0000 0.0000
# 2 52.6917 167.6997 35.7346 0.0000 0.0000 0.0000
# 3 21.6611 35.7346 52.9668 0.0000 0.0000 0.0000
# 4 0.0000 0.0000 0.0000 23.1482 0.0000 0.0000
# 5 0.0000 0.0000 0.0000 0.0000 95.5523 0.0000
# 6 0.0000 0.0000 0.0000 0.0000 0.0000 41.2303
#
#
#
# Elastic Compliance Matrix: (Units=1/GPa)
#
#
# Indices 1 2 3 4 5 6 
#
# 1 0.015156 -0.004019 -0.003487 0.000000 0.000000 0.000000
# 2 -0.004019 0.008030 -0.003774 0.000000 0.000000 0.000000
# 3 -0.003487 -0.003774 0.022852 0.000000 0.000000 0.000000
# 4 0.000000 0.000000 0.000000 0.043200 0.000000 0.000000
# 5 0.000000 0.000000 0.000000 0.000000 0.010465 0.000000
# 6 0.000000 0.000000 0.000000 0.000000 0.000000 0.024254
#
#
# Mechanical properties :
#
#
# Convention : Reuss Voigt Hill
#
# Bulk Modulus (GPa) = 42.59202 58.41966 50.50584
# Shear Modulus (GPa) = 32.39537 45.02046 38.70792
#
# Velocity S-wave (km/s) = 3.96009 4.66841 4.32876
# Velocity P-wave (km/s) = 6.44424 7.57227 7.03091
#
# Compressibility (1/GPa) = 0.02347858
#
# Stress axis : x y z
#
# Youngs Moduli (GPa) = 65.97970 124.53238 43.76031
#
# Poissons Ratio (x) = 0.50051 0.15258
# Poissons Ratio (y) = 0.26518 0.16515
# Poissons Ratio (z) = 0.23005 0.46997
#
# Static dielectric constant tensor:
#      x y z
#    x 3.594400 0.000000 0.000000 
#    y 0.000000 4.087770 0.000000 
#    z 0.000000 0.000000 3.517050 
# 
# 
# High freq. dielectric constant tensor:
#      x y z
#    x 1.789350 0.000000 0.000000 
#    y 0.000000 1.819610 0.000000 
#    z 0.000000 0.000000 1.804270 
# 
# From -- ./inp_files/25230.got.cif
#   From: 2010.03.12/outbox.cif.g09.slc.cpg/sg47_13_cif.got.tgz:25230.got - 2010.04.14 03:12:58.
