data_PCOD8199881
_publ_section_title
;
Structure prediction by ZEFSAII (Michael W. Deem and Ramdas Pophale) SiO2 
 PCOD8199881
Probable space group: P M M M
;
_chemical_formula_sum "Si O2"
_cell_formula_units_Z 48
_cell_length_a 9.596554
_cell_length_b 8.982478
_cell_length_c 28.605673
_cell_angle_alpha 90.000000
_cell_angle_beta 90.000000
_cell_angle_gamma 90.000000
_cell_volume 2465.832904
_symmetry_space_group_name_H-M "P M M M"
_symmetry_group_IT_number 47
_symmetry_cell_setting 'orthorhombic'
loop_
_space_group_symop_operation_xyz
x,y,z
-x,-y,z
x,-y,-z
-x,y,-z
-x,-y,-z
x,y,-z
-x,y,z
x,-y,z
loop_
_atom_site_type_symbol
_atom_site_label
_atom_site_fract_x
_atom_site_fract_y
_atom_site_fract_z
Si Si1 0.659185 0.323562 0.129562
Si Si2 0.744724 0.173759 0.599611
Si Si3 0.840159 0.676628 0.783056
Si Si4 0.842578 0.172916 0.054257
Si Si5 0.000000 0.323897 0.553449
Si Si6 0.659444 0.826644 0.294683
Si Si7 0.500000 0.664399 0.553901
O O1 0.500000 0.264641 0.134242
O O2 0.660224 0.500000 0.128061
O O3 0.751752 0.263770 0.172739
O O4 0.727920 0.265268 0.082157
O O5 0.875297 0.268567 0.584903
O O6 0.701346 0.207574 0.652479
O O7 0.628189 0.232460 0.565598
O O8 0.772195 0.000000 0.591442
O O9 0.837647 0.500000 0.781162
O O10 0.767151 0.736900 0.736811
O O11 0.000000 0.734552 0.786369
O O12 0.000000 0.222970 0.067791
O O13 0.823096 0.000000 0.065711
O O14 0.815741 0.204875 0.000000
O O15 0.000000 0.500000 0.550880
O O16 0.000000 0.260262 0.500000
O O17 0.500000 0.773624 0.286118
O O18 0.673848 0.000000 0.283066
O O19 0.500000 0.500000 0.578970
O O20 0.500000 0.630727 0.500000
#
# Coordination Sequence:
#
# PCOD8199881 Si02
#       7
#     8   8   8   8   4   8   4
#     4  10  21  37  57  83 117 154 194 241 291 346
#     4  11  23  41  63  88 119 157 199 242 291 352
#     4  10  22  39  60  87 115 148 192 238 286 344
#     4   9  19  36  57  82 114 153 198 245 292 346
#     4  11  25  43  61  87 123 157 195 245 296 349
#     4  10  22  41  61  85 117 150 187 234 286 341
#     4  11  23  39  61  91 123 155 195 243 294 347
#
# _framework density 19.466038999999999
#
# number of rings (size 3 to 8) (size 9 to 14) (size 15 to 20)
#    0.000    1.833    0.833    3.000    1.167    8.667 
#    0.000    2.500    0.000    0.000    0.000    0.000 
#    0.000    0.000    0.000    0.000    0.000    0.000 
#
# Total GULP energy -595158.316813 kJ/mol
# GULP energy per Si atom -12399.131600 kJ/mol
# Density = 1.942173 g / cm^3
# Si number density = 19.466039 Si / 1000 Ang^3
#
#
#
# Elastic Constant Matrix: (Units=GPa)
#
#
# Indices 1 2 3 4 5 6 
#
# 1 176.0362 33.4113 59.7412 0.0000 0.0000 0.0000
# 2 33.4113 35.2602 31.1640 0.0000 0.0000 0.0000
# 3 59.7412 31.1640 86.6094 0.0000 0.0000 0.0000
# 4 0.0000 0.0000 0.0000 26.3085 0.0000 0.0000
# 5 0.0000 0.0000 0.0000 0.0000 40.3800 0.0000
# 6 0.0000 0.0000 0.0000 0.0000 0.0000 37.0773
#
#
#
# Elastic Compliance Matrix: (Units=1/GPa)
#
#
# Indices 1 2 3 4 5 6 
#
# 1 0.007756 -0.003843 -0.003967 0.000000 0.000000 0.000000
# 2 -0.003843 0.043490 -0.012998 0.000000 0.000000 0.000000
# 3 -0.003967 -0.012998 0.018960 0.000000 0.000000 0.000000
# 4 0.000000 0.000000 0.000000 0.038011 0.000000 0.000000
# 5 0.000000 0.000000 0.000000 0.000000 0.024765 0.000000
# 6 0.000000 0.000000 0.000000 0.000000 0.000000 0.026971
#
#
# Mechanical properties :
#
#
# Convention : Reuss Voigt Hill
#
# Bulk Modulus (GPa) = 34.97798 60.72655 47.85227
# Shear Modulus (GPa) = 23.68560 32.32576 28.00568
#
# Velocity S-wave (km/s) = 3.49200 4.07950 3.79713
# Velocity P-wave (km/s) = 5.85376 7.31120 6.62269
#
# Compressibility (1/GPa) = 0.02858941
#
# Stress axis : x y z
#
# Youngs Moduli (GPa) = 128.92421 22.99374 52.74388
#
# Poissons Ratio (x) = 0.08837 0.20925
# Poissons Ratio (y) = 0.49550 0.68555
# Poissons Ratio (z) = 0.51149 0.29887
#
# Static dielectric constant tensor:
#      x y z
#    x 3.674880 0.000000 0.000000 
#    y 0.000000 3.478660 0.000000 
#    z 0.000000 0.000000 3.602020 
# 
# 
# High freq. dielectric constant tensor:
#      x y z
#    x 1.774720 0.000000 0.000000 
#    y 0.000000 1.752640 0.000000 
#    z 0.000000 0.000000 1.764420 
# 
# From -- ./inp_files/13874.got.cif
#   From: 2010.03.12/outbox.cif.g09.slc.cpg/sg47_7_cif.got.tgz:13874.got - 2010.04.14 03:12:58.
