data_PCOD8199679
_publ_section_title
;
Structure prediction by ZEFSAII (Michael W. Deem and Ramdas Pophale) SiO2 
 PCOD8199679
Probable space group: P M M M
;
_chemical_formula_sum "Si O2"
_cell_formula_units_Z 48
_cell_length_a 15.128545
_cell_length_b 18.932982
_cell_length_c 8.751583
_cell_angle_alpha 90.000000
_cell_angle_beta 90.000000
_cell_angle_gamma 90.000000
_cell_volume 2506.702530
_symmetry_space_group_name_H-M "P M M M"
_symmetry_group_IT_number 47
_symmetry_cell_setting 'orthorhombic'
loop_
_space_group_symop_operation_xyz
x,y,z
-x,-y,z
x,-y,-z
-x,y,-z
-x,-y,-z
x,y,-z
-x,y,z
x,-y,z
loop_
_atom_site_type_symbol
_atom_site_label
_atom_site_fract_x
_atom_site_fract_y
_atom_site_fract_z
Si Si1 0.156526 0.830996 0.181221
Si Si2 0.598357 0.678753 0.318332
Si Si3 0.753179 0.579739 0.681364
Si Si4 0.500000 0.916555 0.825536
Si Si5 0.000000 0.083167 0.323101
Si Si6 0.898481 0.675529 0.820426
Si Si7 0.343915 0.833045 0.681437
O O1 0.086493 0.886097 0.244186
O O2 0.132422 0.752253 0.237812
O O3 0.250650 0.853621 0.246585
O O4 0.156492 0.835107 0.000000
O O5 0.597971 0.677844 0.500000
O O6 0.500000 0.661098 0.256150
O O7 0.667578 0.621367 0.253755
O O8 0.627133 0.755749 0.259806
O O9 0.752849 0.581198 0.500000
O O10 0.748792 0.500000 0.743994
O O11 0.842955 0.615219 0.737764
O O12 0.413712 0.889775 0.738737
O O13 0.500000 0.000000 0.817605
O O14 0.500000 0.889491 0.000000
O O15 0.000000 0.104222 0.500000
O O16 0.000000 0.000000 0.298197
O O17 0.000000 0.664156 0.774489
O O18 0.884150 0.668626 0.000000
O O19 0.337470 0.835790 0.500000
#
# Coordination Sequence:
#
# PCOD8199679 Si02
#       7
#     8   8   8   4   4   8   8
#     4  11  22  39  63  91 121 157 201 247 298 360
#     4   9  17  32  56  86 115 148 192 239 289 345
#     4  10  21  36  56  86 121 154 192 242 298 353
#     4  11  25  43  61  87 124 161 198 246 304 360
#     4  11  25  43  63  91 124 157 196 245 301 358
#     4  10  21  38  59  84 113 151 199 244 292 353
#     4  11  21  37  63  92 119 154 202 252 298 354
#
# _framework density 19.148662999999999
#
# number of rings (size 3 to 8) (size 9 to 14) (size 15 to 20)
#    0.000    1.667    3.333    1.500    0.000    4.000 
#    0.000    3.333    0.000    0.000    0.000    1.167 
#    0.000    0.000    0.000    0.000    0.000    0.000 
#
# Total GULP energy -595384.841526 kJ/mol
# GULP energy per Si atom -12403.850865 kJ/mol
# Density = 1.910508 g / cm^3
# Si number density = 19.148663 Si / 1000 Ang^3
#
#
#
# Elastic Constant Matrix: (Units=GPa)
#
#
# Indices 1 2 3 4 5 6 
#
# 1 176.4205 68.7075 39.9460 0.0000 0.0000 0.0000
# 2 68.7075 115.9198 41.5766 0.0000 0.0000 0.0000
# 3 39.9460 41.5766 57.1970 0.0000 0.0000 0.0000
# 4 0.0000 0.0000 0.0000 26.3340 0.0000 0.0000
# 5 0.0000 0.0000 0.0000 0.0000 19.5077 0.0000
# 6 0.0000 0.0000 0.0000 0.0000 0.0000 38.7042
#
#
#
# Elastic Compliance Matrix: (Units=1/GPa)
#
#
# Indices 1 2 3 4 5 6 
#
# 1 0.007683 -0.003557 -0.002780 0.000000 0.000000 0.000000
# 2 -0.003557 0.013315 -0.007195 0.000000 0.000000 0.000000
# 3 -0.002780 -0.007195 0.024655 0.000000 0.000000 0.000000
# 4 0.000000 0.000000 0.000000 0.037974 0.000000 0.000000
# 5 0.000000 0.000000 0.000000 0.000000 0.051262 0.000000
# 6 0.000000 0.000000 0.000000 0.000000 0.000000 0.025837
#
#
# Mechanical properties :
#
#
# Convention : Reuss Voigt Hill
#
# Bulk Modulus (GPa) = 53.79376 72.22195 63.00785
# Shear Modulus (GPa) = 25.77496 30.19633 27.98564
#
# Velocity S-wave (km/s) = 3.67283 3.97538 3.82710
# Velocity P-wave (km/s) = 6.79264 7.67267 7.24603
#
# Compressibility (1/GPa) = 0.01858952
#
# Stress axis : x y z
#
# Youngs Moduli (GPa) = 130.15839 75.10162 40.55914
#
# Poissons Ratio (x) = 0.26710 0.11277
# Poissons Ratio (y) = 0.46291 0.29182
# Poissons Ratio (z) = 0.36190 0.54036
#
# Static dielectric constant tensor:
#      x y z
#    x 3.694440 0.000000 0.000000 
#    y 0.000000 3.583800 0.000000 
#    z 0.000000 0.000000 3.363200 
# 
# 
# High freq. dielectric constant tensor:
#      x y z
#    x 1.763810 0.000000 0.000000 
#    y 0.000000 1.744200 0.000000 
#    z 0.000000 0.000000 1.730900 
# 
# From -- ./inp_files/6421.got.cif
#   From: 2010.03.12/outbox.cif.g09.slc.cpg/sg47_4_cif.got.tgz:6421.got - 2010.04.14 03:12:58.
