data_PCOD8199849
_publ_section_title
;
Structure prediction by ZEFSAII (Michael W. Deem and Ramdas Pophale) SiO2 
 PCOD8199849
Probable space group: P M M M
;
_chemical_formula_sum "Si O2"
_cell_formula_units_Z 52
_cell_length_a 8.938845
_cell_length_b 10.860741
_cell_length_c 30.387808
_cell_angle_alpha 90.000000
_cell_angle_beta 90.000000
_cell_angle_gamma 90.000000
_cell_volume 2950.123774
_symmetry_space_group_name_H-M "P M M M"
_symmetry_group_IT_number 47
_symmetry_cell_setting 'orthorhombic'
loop_
_space_group_symop_operation_xyz
x,y,z
-x,-y,z
x,-y,-z
-x,y,-z
-x,-y,-z
x,y,-z
-x,y,z
x,-y,z
loop_
_atom_site_type_symbol
_atom_site_label
_atom_site_fract_x
_atom_site_fract_y
_atom_site_fract_z
Si Si1 0.823379 0.000000 0.449703
Si Si2 0.322464 0.768283 0.586414
Si Si3 0.836638 0.143933 0.916309
Si Si4 0.821612 0.857985 0.182246
Si Si5 0.334801 0.852683 0.000000
Si Si6 0.169698 0.357494 0.667231
Si Si7 0.322650 0.632665 0.500000
Si Si8 0.677103 0.358260 0.760142
O O1 0.763590 0.106623 0.419153
O O2 0.757415 0.000000 0.500000
O O3 0.000000 0.000000 0.452358
O O4 0.500000 0.786520 0.586697
O O5 0.272389 0.707458 0.631475
O O6 0.264401 0.693771 0.544284
O O7 0.767481 0.165132 0.867924
O O8 0.739459 0.201833 0.955642
O O9 0.000000 0.205963 0.918633
O O10 0.852463 0.000000 0.924993
O O11 0.739094 0.749836 0.208697
O O12 0.000000 0.842858 0.186594
O O13 0.778442 0.000000 0.196437
O O14 0.500000 0.799384 0.000000
O O15 0.333043 0.000000 0.000000
O O16 0.168370 0.500000 0.655349
O O17 0.244658 0.333129 0.713927
O O18 0.000000 0.305254 0.667469
O O19 0.248672 0.500000 0.500000
O O20 0.500000 0.628155 0.500000
O O21 0.500000 0.342280 0.755289
O O22 0.713890 0.500000 0.776071
#
# Coordination Sequence:
#
# PCOD8199849 Si02
#       8
#     4   8   8   8   4   8   4   8
#     4  11  23  39  57  77 109 145 177 211 251 298
#     4  11  21  36  58  81 108 138 174 213 252 301
#     4   8  14  25  41  62  93 133 172 211 259 314
#     4   9  18  33  53  78 107 139 177 222 271 321
#     4   9  15  21  33  59  94 131 172 215 258 306
#     4  10  21  38  59  82 108 137 170 212 262 310
#     4   9  18  31  51  80 108 133 162 201 250 299
#     4  10  21  37  57  81 108 140 179 221 266 321
#
# _framework density 17.626379
#
# number of rings (size 3 to 8) (size 9 to 14) (size 15 to 20)
#    0.000    2.385    0.769    3.231    0.000    4.615 
#    1.385    1.538    0.000    1.846    0.000    0.538 
#    0.000    4.308    0.000    0.000    0.000    0.000 
#
# Total GULP energy -644283.910142 kJ/mol
# GULP energy per Si atom -12390.075195 kJ/mol
# Density = 1.758626 g / cm^3
# Si number density = 17.626379 Si / 1000 Ang^3
#
#
#
# Elastic Constant Matrix: (Units=GPa)
#
#
# Indices 1 2 3 4 5 6 
#
# 1 87.8373 36.0566 47.0663 0.0000 0.0000 0.0000
# 2 36.0566 87.3287 53.0913 0.0000 0.0000 0.0000
# 3 47.0663 53.0913 113.7204 0.0000 0.0000 0.0000
# 4 0.0000 0.0000 0.0000 32.3251 0.0000 0.0000
# 5 0.0000 0.0000 0.0000 0.0000 28.7544 0.0000
# 6 0.0000 0.0000 0.0000 0.0000 0.0000 18.8580
#
#
#
# Elastic Compliance Matrix: (Units=1/GPa)
#
#
# Indices 1 2 3 4 5 6 
#
# 1 0.015341 -0.003454 -0.004736 0.000000 0.000000 0.000000
# 2 -0.003454 0.016767 -0.006398 0.000000 0.000000 0.000000
# 3 -0.004736 -0.006398 0.013741 0.000000 0.000000 0.000000
# 4 0.000000 0.000000 0.000000 0.030936 0.000000 0.000000
# 5 0.000000 0.000000 0.000000 0.000000 0.034777 0.000000
# 6 0.000000 0.000000 0.000000 0.000000 0.000000 0.053028
#
#
# Mechanical properties :
#
#
# Convention : Reuss Voigt Hill
#
# Bulk Modulus (GPa) = 59.98600 62.36832 61.17716
# Shear Modulus (GPa) = 25.08479 26.16564 25.62521
#
# Velocity S-wave (km/s) = 3.77654 3.85705 3.81701
# Velocity P-wave (km/s) = 7.28850 7.43613 7.36269
#
# Compressibility (1/GPa) = 0.01667056
#
# Stress axis : x y z
#
# Youngs Moduli (GPa) = 65.18629 59.64104 72.77593
#
# Poissons Ratio (x) = 0.20602 0.34470
# Poissons Ratio (y) = 0.22518 0.46563
# Poissons Ratio (z) = 0.30875 0.38159
#
# Static dielectric constant tensor:
#      x y z
#    x 3.355380 0.000000 0.000000 
#    y 0.000000 3.098480 0.000000 
#    z 0.000000 0.000000 3.367220 
# 
# 
# High freq. dielectric constant tensor:
#      x y z
#    x 1.683450 0.000000 0.000000 
#    y 0.000000 1.654720 0.000000 
#    z 0.000000 0.000000 1.688160 
# 
# From -- ./inp_files/33282.got.cif
#   From: 2010.03.12/outbox.cif.g09.slc.cpg/sg47_17_cif.got.tgz:33282.got - 2010.04.14 03:12:58.
