data_PCOD8199823
_publ_section_title
;
Structure prediction by ZEFSAII (Michael W. Deem and Ramdas Pophale) SiO2 
 PCOD8199823
Probable space group: P M M M
;
_chemical_formula_sum "Si O2"
_cell_formula_units_Z 44
_cell_length_a 9.229793
_cell_length_b 9.229070
_cell_length_c 28.412566
_cell_angle_alpha 90.000000
_cell_angle_beta 90.000000
_cell_angle_gamma 90.000000
_cell_volume 2420.250723
_symmetry_space_group_name_H-M "P M M M"
_symmetry_group_IT_number 47
_symmetry_cell_setting 'orthorhombic'
loop_
_space_group_symop_operation_xyz
x,y,z
-x,-y,z
x,-y,-z
-x,y,-z
-x,-y,-z
x,y,-z
-x,y,z
x,-y,z
loop_
_atom_site_type_symbol
_atom_site_label
_atom_site_fract_x
_atom_site_fract_y
_atom_site_fract_z
Si Si1 0.169353 0.169044 0.417113
Si Si2 0.334610 0.831534 0.676667
Si Si3 0.162730 0.327127 0.140048
Si Si4 0.332336 0.668674 0.230728
Si Si5 0.331157 0.671373 0.500000
Si Si6 0.662798 0.327671 0.948178
O O1 0.230660 0.211670 0.366162
O O2 0.255451 0.263703 0.454343
O O3 0.000000 0.207345 0.419295
O O4 0.196210 0.000000 0.428044
O O5 0.500000 0.786892 0.664269
O O6 0.277203 0.747670 0.722373
O O7 0.324153 0.000000 0.688122
O O8 0.168111 0.500000 0.139021
O O9 0.245920 0.269155 0.186007
O O10 0.235686 0.262919 0.092722
O O11 0.000000 0.268193 0.142042
O O12 0.500000 0.701558 0.221325
O O13 0.302007 0.500000 0.237929
O O14 0.309575 0.500000 0.500000
O O15 0.500000 0.714349 0.500000
O O16 0.500000 0.270432 0.939907
O O17 0.663481 0.500000 0.945576
O O18 0.718477 0.277921 0.000000
#
# Coordination Sequence:
#
# PCOD8199823 Si02
#       6
#     8   8   8   8   4   8
#     4  10  21  37  57  80 105 134 167 202 244 294
#     4   9  18  33  52  73  97 126 161 200 239 279
#     4   9  16  24  35  54  81 112 146 185 229 276
#     4   9  17  29  45  64  88 120 155 190 230 278
#     4  11  24  39  56  80 108 137 170 207 244 284
#     4   8  13  21  33  49  72 106 146 184 223 270
#
# _framework density 18.179936000000001
#
# number of rings (size 3 to 8) (size 9 to 14) (size 15 to 20)
#    0.000    2.818    0.000    2.182    0.000    6.909 
#    0.000    3.636    0.000    0.000    0.000    0.000 
#    0.000    0.727    0.000    8.364    0.000   10.727 
#
# Total GULP energy -545542.092650 kJ/mol
# GULP energy per Si atom -12398.683924 kJ/mol
# Density = 1.813856 g / cm^3
# Si number density = 18.179936 Si / 1000 Ang^3
#
#
#
# Elastic Constant Matrix: (Units=GPa)
#
#
# Indices 1 2 3 4 5 6 
#
# 1 129.6521 38.9533 103.1069 0.0000 0.0000 0.0000
# 2 38.9533 32.3565 51.5251 0.0000 0.0000 0.0000
# 3 103.1069 51.5251 190.5367 0.0000 0.0000 0.0000
# 4 0.0000 0.0000 0.0000 -8.2976 0.0000 0.0000
# 5 0.0000 0.0000 0.0000 0.0000 11.2341 0.0000
# 6 0.0000 0.0000 0.0000 0.0000 0.0000 15.7923
#
#
#
# Elastic Compliance Matrix: (Units=1/GPa)
#
#
# Indices 1 2 3 4 5 6 
#
# 1 0.014880 -0.008942 -0.005634 0.000000 0.000000 0.000000
# 2 -0.008942 0.059653 -0.011293 0.000000 0.000000 0.000000
# 3 -0.005634 -0.011293 0.011351 0.000000 0.000000 0.000000
# 4 0.000000 0.000000 0.000000 -0.120517 0.000000 0.000000
# 5 0.000000 0.000000 0.000000 0.000000 0.089015 0.000000
# 6 0.000000 0.000000 0.000000 0.000000 0.000000 0.063322
#
#
# Mechanical properties :
#
#
# Convention : Reuss Voigt Hill
#
# Bulk Modulus (GPa) = 29.28521 82.19065 55.73793
# Shear Modulus (GPa) = 27.65122 14.34310 20.99716
#
# Velocity S-wave (km/s) = 3.90420 2.81188 3.40216
# Velocity P-wave (km/s) = 6.03881 7.47328 6.79401
#
# Compressibility (1/GPa) = 0.03414693
#
# Stress axis : x y z
#
# Youngs Moduli (GPa) = 67.20406 16.76352 88.09839
#
# Poissons Ratio (x) = 0.14990 0.49635
# Poissons Ratio (y) = 0.60093 0.99487
# Poissons Ratio (z) = 0.37863 0.18931
#
# Static dielectric constant tensor:
#      x y z
#    x 3.465160 0.000000 0.000000 
#    y 0.000000 2.911470 0.000000 
#    z 0.000000 0.000000 3.655920 
# 
# 
# High freq. dielectric constant tensor:
#      x y z
#    x 1.706240 0.000000 0.000000 
#    y 0.000000 1.653240 0.000000 
#    z 0.000000 0.000000 1.722340 
# 
# From -- ./inp_files/2103.got.cif
#   From: 2010.03.12/outbox.cif.g09.slc.cpg/sg47_2_cif.got.tgz:2103.got - 2010.04.14 03:12:58.
