data_PCOD8199256
_publ_section_title
;
Structure prediction by ZEFSAII (Michael W. Deem and Ramdas Pophale) SiO2 
 PCOD8199256
Probable space group: P M M M
;
_chemical_formula_sum "Si O2"
_cell_formula_units_Z 52
_cell_length_a 8.869185
_cell_length_b 15.809493
_cell_length_c 19.517132
_cell_angle_alpha 90.000000
_cell_angle_beta 90.000000
_cell_angle_gamma 90.000000
_cell_volume 2736.639907
_symmetry_space_group_name_H-M "P M M M"
_symmetry_group_IT_number 47
_symmetry_cell_setting 'orthorhombic'
loop_
_space_group_symop_operation_xyz
x,y,z
-x,-y,z
x,-y,-z
-x,y,-z
-x,-y,-z
x,y,-z
-x,y,z
x,-y,z
loop_
_atom_site_type_symbol
_atom_site_label
_atom_site_fract_x
_atom_site_fract_y
_atom_site_fract_z
Si Si1 0.174450 0.905599 0.782115
Si Si2 0.178061 0.828399 0.578163
Si Si3 0.828794 0.835019 0.075470
Si Si4 0.678553 0.246326 0.701745
Si Si5 0.677980 0.660052 0.074438
Si Si6 0.320656 0.592723 0.214998
Si Si7 0.330227 0.000000 0.418650
O O1 0.200257 0.902413 0.864347
O O2 0.274740 0.835538 0.745161
O O3 0.000000 0.888380 0.763658
O O4 0.222535 0.000000 0.758174
O O5 0.228602 0.811063 0.500000
O O6 0.247598 0.755696 0.626104
O O7 0.242011 0.917242 0.606834
O O8 0.000000 0.830788 0.584789
O O9 0.718731 0.756888 0.088292
O O10 0.000000 0.801079 0.079233
O O11 0.798055 0.875824 0.000000
O O12 0.500000 0.247613 0.694296
O O13 0.741301 0.332344 0.736642
O O14 0.500000 0.652653 0.073112
O O15 0.741715 0.604323 0.137289
O O16 0.742815 0.629943 0.000000
O O17 0.500000 0.598223 0.214366
O O18 0.267160 0.500000 0.241367
O O19 0.500000 0.000000 0.388964
O O20 0.332395 0.000000 0.500000
#
# Coordination Sequence:
#
# PCOD8199256 Si02
#       7
#     8   8   8   8   8   8   4
#     4  10  21  35  51  73 104 143 184 224 267 318
#     4  10  21  37  57  80 109 145 180 216 261 314
#     4   9  17  30  49  71  98 135 179 226 270 312
#     4  11  22  36  56  80 108 141 176 221 270 319
#     4   9  16  28  49  75 102 133 171 216 266 319
#     4   9  18  33  53  79 108 137 174 221 274 326
#     4   9  17  31  53  83 115 143 176 215 252 299
#
# _framework density 19.001404000000001
#
# number of rings (size 3 to 8) (size 9 to 14) (size 15 to 20)
#    0.000    2.385    1.538    1.154    1.077    2.769 
#    0.000    3.077    0.000    4.615    0.000    8.615 
#    0.000    0.000    0.000    0.000    0.000    0.000 
#
# Total GULP energy -644496.460878 kJ/mol
# GULP energy per Si atom -12394.162709 kJ/mol
# Density = 1.895816 g / cm^3
# Si number density = 19.001404 Si / 1000 Ang^3
#
#
#
# Elastic Constant Matrix: (Units=GPa)
#
#
# Indices 1 2 3 4 5 6 
#
# 1 43.7985 23.8701 29.3334 0.0000 0.0000 0.0000
# 2 23.8701 121.5357 66.3806 0.0000 0.0000 0.0000
# 3 29.3334 66.3806 114.9451 0.0000 0.0000 0.0000
# 4 0.0000 0.0000 0.0000 22.2917 0.0000 0.0000
# 5 0.0000 0.0000 0.0000 0.0000 25.5703 0.0000
# 6 0.0000 0.0000 0.0000 0.0000 0.0000 7.5897
#
#
#
# Elastic Compliance Matrix: (Units=1/GPa)
#
#
# Indices 1 2 3 4 5 6 
#
# 1 0.027983 -0.002331 -0.005795 0.000000 0.000000 0.000000
# 2 -0.002331 0.012213 -0.006458 0.000000 0.000000 0.000000
# 3 -0.005795 -0.006458 0.013908 0.000000 0.000000 0.000000
# 4 0.000000 0.000000 0.000000 0.044860 0.000000 0.000000
# 5 0.000000 0.000000 0.000000 0.000000 0.039108 0.000000
# 6 0.000000 0.000000 0.000000 0.000000 0.000000 0.131757
#
#
# Mechanical properties :
#
#
# Convention : Reuss Voigt Hill
#
# Bulk Modulus (GPa) = 40.10210 57.71641 48.90925
# Shear Modulus (GPa) = 16.27018 21.80335 19.03677
#
# Velocity S-wave (km/s) = 2.92937 3.39109 3.16865
# Velocity P-wave (km/s) = 5.70896 6.76561 6.25962
#
# Compressibility (1/GPa) = 0.02493635
#
# Stress axis : x y z
#
# Youngs Moduli (GPa) = 35.73553 81.87842 71.89919
#
# Poissons Ratio (x) = 0.19085 0.41667
# Poissons Ratio (y) = 0.08329 0.46435
# Poissons Ratio (z) = 0.20709 0.52880
#
# Static dielectric constant tensor:
#      x y z
#    x 3.299890 0.000000 0.000000 
#    y 0.000000 3.420360 0.000000 
#    z 0.000000 0.000000 3.819130 
# 
# 
# High freq. dielectric constant tensor:
#      x y z
#    x 1.718690 0.000000 0.000000 
#    y 0.000000 1.711720 0.000000 
#    z 0.000000 0.000000 1.748700 
# 
# From -- ./inp_files/21476.got.cif
#   From: 2010.03.12/outbox.cif.g09.slc.cpg/sg47_11_cif.got.tgz:21476.got - 2010.04.14 03:12:58.
