data_PCOD8199106
_publ_section_title
;
Structure prediction by ZEFSAII (Michael W. Deem and Ramdas Pophale) SiO2 
 PCOD8199106
Probable space group: P M M M
;
_chemical_formula_sum "Si O2"
_cell_formula_units_Z 48
_cell_length_a 14.931008
_cell_length_b 9.139142
_cell_length_c 18.827347
_cell_angle_alpha 90.000000
_cell_angle_beta 90.000000
_cell_angle_gamma 90.000000
_cell_volume 2569.115802
_symmetry_space_group_name_H-M "P M M M"
_symmetry_group_IT_number 47
_symmetry_cell_setting 'orthorhombic'
loop_
_space_group_symop_operation_xyz
x,y,z
-x,-y,z
x,-y,-z
-x,y,-z
-x,-y,-z
x,y,-z
-x,y,z
x,-y,z
loop_
_atom_site_type_symbol
_atom_site_label
_atom_site_fract_x
_atom_site_fract_y
_atom_site_fract_z
Si Si1 0.752295 0.330552 0.082431
Si Si2 0.603289 0.828579 0.163843
Si Si3 0.747286 0.327289 0.420236
Si Si4 0.103599 0.168842 0.173745
Si Si5 0.397564 0.670052 0.692288
Si Si6 0.102832 0.831086 0.663484
O O1 0.738337 0.500000 0.100849
O O2 0.662271 0.244383 0.102713
O O3 0.837905 0.271976 0.124344
O O4 0.771142 0.304954 0.000000
O O5 0.500000 0.793499 0.146777
O O6 0.631954 0.762560 0.239458
O O7 0.622630 0.000000 0.165998
O O8 0.732682 0.267985 0.500000
O O9 0.756142 0.500000 0.419963
O O10 0.662456 0.276846 0.373525
O O11 0.838580 0.264708 0.389060
O O12 0.123852 0.210445 0.255151
O O13 0.000000 0.196828 0.155650
O O14 0.128625 0.000000 0.159694
O O15 0.500000 0.702049 0.671370
O O16 0.382404 0.500000 0.710201
O O17 0.000000 0.797126 0.645766
O O18 0.124843 0.000000 0.650245
#
# Coordination Sequence:
#
# PCOD8199106 Si02
#       6
#     8   8   8   8   8   8
#     4  11  24  38  53  78 112 146 177 213 260 314
#     4  10  21  37  58  82 106 135 175 223 269 313
#     4  10  21  34  49  75 109 141 174 213 257 306
#     4   9  19  37  60  83 106 136 177 223 267 312
#     4   9  18  34  56  79 104 137 175 214 259 312
#     4   9  19  36  56  77 101 132 173 218 262 309
#
# _framework density 18.68347
#
# number of rings (size 3 to 8) (size 9 to 14) (size 15 to 20)
#    0.000    2.333    0.000    3.000    0.000    8.667 
#    0.000    8.333    0.000    0.000    0.000    3.500 
#    0.000    0.000    0.000    0.000    0.000    0.000 
#
# Total GULP energy -595359.133855 kJ/mol
# GULP energy per Si atom -12403.315289 kJ/mol
# Density = 1.864095 g / cm^3
# Si number density = 18.683470 Si / 1000 Ang^3
#
#
#
# Elastic Constant Matrix: (Units=GPa)
#
#
# Indices 1 2 3 4 5 6 
#
# 1 81.5929 30.9301 39.8334 0.0000 0.0000 0.0000
# 2 30.9301 57.4140 36.6644 0.0000 0.0000 0.0000
# 3 39.8334 36.6644 83.6212 0.0000 0.0000 0.0000
# 4 0.0000 0.0000 0.0000 21.4959 0.0000 0.0000
# 5 0.0000 0.0000 0.0000 0.0000 17.1424 0.0000
# 6 0.0000 0.0000 0.0000 0.0000 0.0000 33.9003
#
#
#
# Elastic Compliance Matrix: (Units=1/GPa)
#
#
# Indices 1 2 3 4 5 6 
#
# 1 0.017173 -0.005594 -0.005728 0.000000 0.000000 0.000000
# 2 -0.005594 0.026013 -0.008741 0.000000 0.000000 0.000000
# 3 -0.005728 -0.008741 0.018520 0.000000 0.000000 0.000000
# 4 0.000000 0.000000 0.000000 0.046520 0.000000 0.000000
# 5 0.000000 0.000000 0.000000 0.000000 0.058335 0.000000
# 6 0.000000 0.000000 0.000000 0.000000 0.000000 0.029498
#
#
# Mechanical properties :
#
#
# Convention : Reuss Voigt Hill
#
# Bulk Modulus (GPa) = 46.33811 48.60931 47.47371
# Shear Modulus (GPa) = 20.54430 22.18773 21.36601
#
# Velocity S-wave (km/s) = 3.31962 3.44984 3.38535
# Velocity P-wave (km/s) = 6.28877 6.47628 6.38322
#
# Compressibility (1/GPa) = 0.02158051
#
# Stress axis : x y z
#
# Youngs Moduli (GPa) = 58.23225 38.44285 53.99661
#
# Poissons Ratio (x) = 0.21503 0.30928
# Poissons Ratio (y) = 0.32572 0.47198
# Poissons Ratio (z) = 0.33354 0.33603
#
# Static dielectric constant tensor:
#      x y z
#    x 3.478830 0.000000 0.000000 
#    y 0.000000 3.385700 0.000000 
#    z 0.000000 0.000000 3.457650 
# 
# 
# High freq. dielectric constant tensor:
#      x y z
#    x 1.736640 0.000000 0.000000 
#    y 0.000000 1.723200 0.000000 
#    z 0.000000 0.000000 1.722230 
# 
# From -- ./inp_files/6330.got.cif
#   From: 2010.03.12/outbox.cif.g09.slc.cpg/sg47_4_cif.got.tgz:6330.got - 2010.04.14 03:12:58.
