data_PCOD8199144
_publ_section_title
;
Structure prediction by ZEFSAII (Michael W. Deem and Ramdas Pophale) SiO2 
 PCOD8199144
Probable space group: P M M M
;
_chemical_formula_sum "Si O2"
_cell_formula_units_Z 44
_cell_length_a 13.618743
_cell_length_b 9.121347
_cell_length_c 21.453115
_cell_angle_alpha 90.000000
_cell_angle_beta 90.000000
_cell_angle_gamma 90.000000
_cell_volume 2664.933418
_symmetry_space_group_name_H-M "P M M M"
_symmetry_group_IT_number 47
_symmetry_cell_setting 'orthorhombic'
loop_
_space_group_symop_operation_xyz
x,y,z
-x,-y,z
x,-y,-z
-x,y,-z
-x,-y,-z
x,y,-z
-x,y,z
x,-y,z
loop_
_atom_site_type_symbol
_atom_site_label
_atom_site_fract_x
_atom_site_fract_y
_atom_site_fract_z
Si Si1 0.801328 0.173087 0.929619
Si Si2 0.278205 0.827534 0.746588
Si Si3 0.612926 0.172011 0.377686
Si Si4 0.616708 0.334695 0.500000
Si Si5 0.887479 0.330971 0.815023
Si Si6 0.606859 0.827633 0.867536
O O1 0.872967 0.255465 0.882313
O O2 0.688584 0.223915 0.917379
O O3 0.811878 0.000000 0.917492
O O4 0.830612 0.214990 0.000000
O O5 0.320729 0.777309 0.680276
O O6 0.176871 0.744256 0.760933
O O7 0.358284 0.783221 0.798415
O O8 0.256528 0.000000 0.748377
O O9 0.500000 0.215619 0.364187
O O10 0.655698 0.253566 0.438303
O O11 0.621599 0.000000 0.389699
O O12 0.656774 0.500000 0.500000
O O13 0.500000 0.328755 0.500000
O O14 0.857054 0.500000 0.821054
O O15 0.000000 0.312774 0.794924
O O16 0.500000 0.754438 0.881071
O O17 0.594633 0.000000 0.871917
#
# Coordination Sequence:
#
# PCOD8199144 Si02
#       6
#     8   8   8   4   8   8
#     4   9  18  31  47  68  90 113 145 183 222 265
#     4   9  17  29  47  70  91 114 148 187 225 264
#     4   9  16  27  45  69  97 127 157 188 220 255
#     4   9  17  27  39  61  96 135 168 191 213 248
#     4  10  21  35  49  65  86 113 145 183 229 278
#     4   8  13  23  41  65  91 115 141 176 215 256
#
# _framework density 16.510732000000001
#
# number of rings (size 3 to 8) (size 9 to 14) (size 15 to 20)
#    0.000    3.000    0.000    2.455    0.000    6.545 
#    0.000    3.636    0.000   13.091    0.000    5.727 
#    0.000    5.091    0.000    0.000    0.000    0.000 
#
# Total GULP energy -545432.294692 kJ/mol
# GULP energy per Si atom -12396.188516 kJ/mol
# Density = 1.647315 g / cm^3
# Si number density = 16.510732 Si / 1000 Ang^3
#
#
#
# Elastic Constant Matrix: (Units=GPa)
#
#
# Indices 1 2 3 4 5 6 
#
# 1 76.7585 33.1287 36.4329 0.0000 0.0000 0.0000
# 2 33.1287 57.8070 47.9569 0.0000 0.0000 0.0000
# 3 36.4329 47.9569 126.3898 0.0000 0.0000 0.0000
# 4 0.0000 0.0000 0.0000 13.9217 0.0000 0.0000
# 5 0.0000 0.0000 0.0000 0.0000 21.1554 0.0000
# 6 0.0000 0.0000 0.0000 0.0000 0.0000 17.0222
#
#
#
# Elastic Compliance Matrix: (Units=1/GPa)
#
#
# Indices 1 2 3 4 5 6 
#
# 1 0.017591 -0.008573 -0.001818 0.000000 0.000000 0.000000
# 2 -0.008573 0.029424 -0.008693 0.000000 0.000000 0.000000
# 3 -0.001818 -0.008693 0.011735 0.000000 0.000000 0.000000
# 4 0.000000 0.000000 0.000000 0.071830 0.000000 0.000000
# 5 0.000000 0.000000 0.000000 0.000000 0.047269 0.000000
# 6 0.000000 0.000000 0.000000 0.000000 0.000000 0.058747
#
#
# Mechanical properties :
#
#
# Convention : Reuss Voigt Hill
#
# Bulk Modulus (GPa) = 48.58822 55.11028 51.84925
# Shear Modulus (GPa) = 17.75413 19.98231 18.86822
#
# Velocity S-wave (km/s) = 3.28275 3.48266 3.38418
# Velocity P-wave (km/s) = 6.62274 7.04434 6.83679
#
# Compressibility (1/GPa) = 0.02058112
#
# Stress axis : x y z
#
# Youngs Moduli (GPa) = 56.84794 33.98572 85.21831
#
# Poissons Ratio (x) = 0.29136 0.15490
# Poissons Ratio (y) = 0.48737 0.74083
# Poissons Ratio (z) = 0.10333 0.29545
#
# Static dielectric constant tensor:
#      x y z
#    x 3.056240 0.000000 0.000000 
#    y 0.000000 2.948640 0.000000 
#    z 0.000000 0.000000 3.167030 
# 
# 
# High freq. dielectric constant tensor:
#      x y z
#    x 1.616040 0.000000 0.000000 
#    y 0.000000 1.616620 0.000000 
#    z 0.000000 0.000000 1.631030 
# 
# From -- ./inp_files/6833.got.cif
#   From: 2010.03.12/outbox.cif.g09.slc.cpg/sg47_4_cif.got.tgz:6833.got - 2010.04.14 03:12:58.
