data_PCOD8199544
_publ_section_title
;
Structure prediction by ZEFSAII (Michael W. Deem and Ramdas Pophale) SiO2 
 PCOD8199544
Probable space group: P M M M
;
_chemical_formula_sum "Si O2"
_cell_formula_units_Z 44
_cell_length_a 9.191023
_cell_length_b 9.255594
_cell_length_c 28.002086
_cell_angle_alpha 90.000000
_cell_angle_beta 90.000000
_cell_angle_gamma 90.000000
_cell_volume 2382.092018
_symmetry_space_group_name_H-M "P M M M"
_symmetry_group_IT_number 47
_symmetry_cell_setting 'orthorhombic'
loop_
_space_group_symop_operation_xyz
x,y,z
-x,-y,z
x,-y,-z
-x,y,-z
-x,-y,-z
x,y,-z
-x,y,z
x,-y,z
loop_
_atom_site_type_symbol
_atom_site_label
_atom_site_fract_x
_atom_site_fract_y
_atom_site_fract_z
Si Si1 0.832783 0.168463 0.365766
Si Si2 0.664041 0.171820 0.000000
Si Si3 0.831942 0.330367 0.812099
Si Si4 0.335295 0.331287 0.445338
Si Si5 0.328904 0.166808 0.729309
Si Si6 0.169171 0.833430 0.092689
O O1 0.777924 0.247982 0.412715
O O2 0.742094 0.220620 0.319944
O O3 0.000000 0.208726 0.356728
O O4 0.810264 0.000000 0.374594
O O5 0.743986 0.229239 0.047352
O O6 0.500000 0.230610 0.000000
O O7 0.670390 0.000000 0.000000
O O8 0.804215 0.500000 0.815251
O O9 0.732449 0.264633 0.771234
O O10 0.783391 0.259932 0.861894
O O11 0.000000 0.293879 0.801022
O O12 0.297039 0.294885 0.500000
O O13 0.500000 0.281605 0.433778
O O14 0.318535 0.500000 0.435461
O O15 0.500000 0.190230 0.725392
O O16 0.288504 0.000000 0.739437
O O17 0.000000 0.815615 0.080995
O O18 0.208987 0.000000 0.103198
#
# Coordination Sequence:
#
# PCOD8199544 Si02
#       6
#     8   4   8   8   8   8
#     4  10  21  36  55  80 108 137 172 216 263 310
#     4   9  17  29  48  75 102 128 166 215 258 299
#     4  10  21  36  54  78 107 138 173 213 259 311
#     4   9  19  36  56  78 106 141 179 216 256 306
#     4  10  21  37  57  79 103 135 175 216 260 311
#     4   9  17  31  52  75 100 133 171 210 254 304
#
# _framework density 18.471159
#
# number of rings (size 3 to 8) (size 9 to 14) (size 15 to 20)
#    0.000    2.455    0.000    2.455    0.000    6.909 
#    0.000    5.000    0.000    2.727    0.000    0.000 
#    0.000    0.000    0.000    0.000    0.000    0.000 
#
# Total GULP energy -545744.844384 kJ/mol
# GULP energy per Si atom -12403.291918 kJ/mol
# Density = 1.842912 g / cm^3
# Si number density = 18.471159 Si / 1000 Ang^3
#
#
#
# Elastic Constant Matrix: (Units=GPa)
#
#
# Indices 1 2 3 4 5 6 
#
# 1 101.4351 48.7736 81.9013 0.0000 0.0000 0.0000
# 2 48.7736 63.1459 63.2999 0.0000 0.0000 0.0000
# 3 81.9013 63.2999 154.1285 0.0000 0.0000 0.0000
# 4 0.0000 0.0000 0.0000 -31.4886 0.0000 0.0000
# 5 0.0000 0.0000 0.0000 0.0000 31.0336 0.0000
# 6 0.0000 0.0000 0.0000 0.0000 0.0000 26.8513
#
#
#
# Elastic Compliance Matrix: (Units=1/GPa)
#
#
# Indices 1 2 3 4 5 6 
#
# 1 0.019325 -0.007874 -0.007035 0.000000 0.000000 0.000000
# 2 -0.007874 0.030127 -0.008189 0.000000 0.000000 0.000000
# 3 -0.007035 -0.008189 0.013590 0.000000 0.000000 0.000000
# 4 0.000000 0.000000 0.000000 -0.031757 0.000000 0.000000
# 5 0.000000 0.000000 0.000000 0.000000 0.032223 0.000000
# 6 0.000000 0.000000 0.000000 0.000000 0.000000 0.037242
#
#
# Mechanical properties :
#
#
# Convention : Reuss Voigt Hill
#
# Bulk Modulus (GPa) = 59.36357 78.51767 68.94062
# Shear Modulus (GPa) = 32.77368 13.59490 23.18429
#
# Velocity S-wave (km/s) = 4.21683 2.71589 3.54667
# Velocity P-wave (km/s) = 7.47778 7.24122 7.36045
#
# Compressibility (1/GPa) = 0.01684535
#
# Stress axis : x y z
#
# Youngs Moduli (GPa) = 51.74616 33.19246 73.58620
#
# Poissons Ratio (x) = 0.26137 0.51768
# Poissons Ratio (y) = 0.40747 0.60258
# Poissons Ratio (z) = 0.36404 0.27181
#
# Static dielectric constant tensor:
#      x y z
#    x 3.421500 0.000000 0.000000 
#    y 0.000000 3.217130 0.000000 
#    z 0.000000 0.000000 3.495040 
# 
# 
# High freq. dielectric constant tensor:
#      x y z
#    x 1.719230 0.000000 0.000000 
#    y 0.000000 1.699100 0.000000 
#    z 0.000000 0.000000 1.728230 
# 
# From -- ./inp_files/2277.got.cif
#   From: 2010.03.12/outbox.cif.g09.slc.cpg/sg47_2_cif.got.tgz:2277.got - 2010.04.14 03:12:58.
