data_PCOD8199534
_publ_section_title
;
Structure prediction by ZEFSAII (Michael W. Deem and Ramdas Pophale) SiO2 
 PCOD8199534
Probable space group: P M M M
;
_chemical_formula_sum "Si O2"
_cell_formula_units_Z 40
_cell_length_a 9.115219
_cell_length_b 20.266189
_cell_length_c 11.848918
_cell_angle_alpha 90.000000
_cell_angle_beta 90.000000
_cell_angle_gamma 90.000000
_cell_volume 2188.859521
_symmetry_space_group_name_H-M "P M M M"
_symmetry_group_IT_number 47
_symmetry_cell_setting 'orthorhombic'
loop_
_space_group_symop_operation_xyz
x,y,z
-x,-y,z
x,-y,-z
-x,y,-z
-x,-y,-z
x,y,-z
-x,y,z
x,-y,z
loop_
_atom_site_type_symbol
_atom_site_label
_atom_site_fract_x
_atom_site_fract_y
_atom_site_fract_z
Si Si1 0.173875 0.881069 0.500000
Si Si2 0.329193 0.804953 0.870048
Si Si3 0.173926 0.687735 0.741594
Si Si4 0.667474 0.926204 0.282705
Si Si5 0.669413 0.423728 0.129151
Si Si6 0.826450 0.732360 0.500000
O O1 0.229502 0.918645 0.609724
O O2 0.237083 0.806547 0.500000
O O3 0.000000 0.882285 0.500000
O O4 0.500000 0.787977 0.855039
O O5 0.236210 0.747272 0.814539
O O6 0.287130 0.874615 0.813894
O O7 0.284787 0.810124 0.000000
O O8 0.230505 0.618151 0.787344
O O9 0.228288 0.694545 0.611985
O O10 0.000000 0.689679 0.750285
O O11 0.500000 0.914222 0.320919
O O12 0.687888 0.000000 0.233399
O O13 0.500000 0.406885 0.151674
O O14 0.701742 0.500000 0.154074
O O15 0.709398 0.406438 0.000000
O O16 0.000000 0.736682 0.500000
#
# Coordination Sequence:
#
# PCOD8199534 Si02
#       6
#     4   8   8   8   8   4
#     4  11  20  36  57  77 105 141 179 221 270 326
#     4  10  21  36  54  77 106 141 179 219 270 328
#     4  11  21  36  57  81 109 141 180 224 266 313
#     4  10  21  36  54  78 107 138 178 227 272 319
#     4   9  19  37  59  83 114 148 178 213 260 312
#     4   9  20  36  53  76 108 142 175 217 268 315
#
# _framework density 18.274356000000001
#
# number of rings (size 3 to 8) (size 9 to 14) (size 15 to 20)
#    0.000    2.000    2.000    2.400    0.000    5.600 
#    0.000    5.500    0.000    3.000    0.000    2.800 
#    0.000    0.000    0.000    0.000    0.000    0.000 
#
# Total GULP energy -496087.977712 kJ/mol
# GULP energy per Si atom -12402.199443 kJ/mol
# Density = 1.823276 g / cm^3
# Si number density = 18.274356 Si / 1000 Ang^3
#
#
#
# Elastic Constant Matrix: (Units=GPa)
#
#
# Indices 1 2 3 4 5 6 
#
# 1 62.1831 44.0041 51.4187 0.0000 0.0000 0.0000
# 2 44.0041 122.0118 70.3696 0.0000 0.0000 0.0000
# 3 51.4187 70.3696 142.4663 0.0000 0.0000 0.0000
# 4 0.0000 0.0000 0.0000 70.1057 0.0000 0.0000
# 5 0.0000 0.0000 0.0000 0.0000 25.2074 0.0000
# 6 0.0000 0.0000 0.0000 0.0000 0.0000 25.3656
#
#
#
# Elastic Compliance Matrix: (Units=1/GPa)
#
#
# Indices 1 2 3 4 5 6 
#
# 1 0.025216 -0.005377 -0.006445 0.000000 0.000000 0.000000
# 2 -0.005377 0.012608 -0.004287 0.000000 0.000000 0.000000
# 3 -0.006445 -0.004287 0.011463 0.000000 0.000000 0.000000
# 4 0.000000 0.000000 0.000000 0.014264 0.000000 0.000000
# 5 0.000000 0.000000 0.000000 0.000000 0.039671 0.000000
# 6 0.000000 0.000000 0.000000 0.000000 0.000000 0.039424
#
#
# Mechanical properties :
#
#
# Convention : Reuss Voigt Hill
#
# Bulk Modulus (GPa) = 58.58687 73.13846 65.86267
# Shear Modulus (GPa) = 27.69290 34.86031 31.27661
#
# Velocity S-wave (km/s) = 3.89703 4.37236 4.14152
# Velocity P-wave (km/s) = 7.23729 8.09934 7.68042
#
# Compressibility (1/GPa) = 0.01706867
#
# Stress axis : x y z
#
# Youngs Moduli (GPa) = 39.65743 79.31774 87.24018
#
# Poissons Ratio (x) = 0.42651 0.56225
# Poissons Ratio (y) = 0.21325 0.37396
# Poissons Ratio (z) = 0.25559 0.34000
#
# Static dielectric constant tensor:
#      x y z
#    x 3.262640 0.000000 0.000000 
#    y 0.000000 3.442380 0.000000 
#    z 0.000000 0.000000 3.521020 
# 
# 
# High freq. dielectric constant tensor:
#      x y z
#    x 1.698680 0.000000 0.000000 
#    y 0.000000 1.716210 0.000000 
#    z 0.000000 0.000000 1.708810 
# 
# From -- ./inp_files/10720.got.cif
#   From: 2010.03.12/outbox.cif.g09.slc.cpg/sg47_6_cif.got.tgz:10720.got - 2010.04.14 03:12:58.
