data_PCOD8199349
_publ_section_title
;
Structure prediction by ZEFSAII (Michael W. Deem and Ramdas Pophale) SiO2 
 PCOD8199349
Probable space group: P M M M
;
_chemical_formula_sum "Si O2"
_cell_formula_units_Z 48
_cell_length_a 30.314280
_cell_length_b 9.153602
_cell_length_c 9.296402
_cell_angle_alpha 90.000000
_cell_angle_beta 90.000000
_cell_angle_gamma 90.000000
_cell_volume 2579.610752
_symmetry_space_group_name_H-M "P M M M"
_symmetry_group_IT_number 47
_symmetry_cell_setting 'orthorhombic'
loop_
_space_group_symop_operation_xyz
x,y,z
-x,-y,z
x,-y,-z
-x,y,-z
-x,-y,-z
x,y,-z
-x,y,z
x,-y,z
loop_
_atom_site_type_symbol
_atom_site_label
_atom_site_fract_x
_atom_site_fract_y
_atom_site_fract_z
Si Si1 0.051234 0.332484 0.834573
Si Si2 0.709795 0.831273 0.833060
Si Si3 0.124235 0.830322 0.668957
Si Si4 0.375601 0.171936 0.335479
Si Si5 0.449465 0.669894 0.836683
Si Si6 0.201680 0.671322 0.166654
O O1 0.063757 0.500000 0.800028
O O2 0.078043 0.225057 0.732179
O O3 0.000000 0.304490 0.804234
O O4 0.062799 0.297817 0.000000
O O5 0.667814 0.770963 0.746389
O O6 0.751886 0.738503 0.783851
O O7 0.719540 0.000000 0.796856
O O8 0.699271 0.808033 0.000000
O O9 0.124319 0.801430 0.500000
O O10 0.163746 0.741342 0.738829
O O11 0.129964 0.000000 0.706142
O O12 0.371249 0.219934 0.500000
O O13 0.419394 0.241180 0.271415
O O14 0.379953 0.000000 0.316832
O O15 0.500000 0.703067 0.796336
O O16 0.439008 0.500000 0.819022
O O17 0.439877 0.719674 0.000000
O O18 0.202928 0.500000 0.195555
O O19 0.192340 0.707486 0.000000
#
# Coordination Sequence:
#
# PCOD8199349 Si02
#       6
#     8   8   8   8   8   8
#     4   9  19  37  60  84 109 139 178 223 268 315
#     4   9  18  34  55  77 104 140 179 217 259 309
#     4  11  24  38  53  78 112 147 181 219 264 314
#     4  10  21  35  52  78 111 143 174 212 260 314
#     4   9  19  36  56  77 102 135 177 223 267 311
#     4  10  21  37  58  83 108 136 175 222 268 315
#
# _framework density 18.607458999999999
#
# number of rings (size 3 to 8) (size 9 to 14) (size 15 to 20)
#    0.000    2.333    0.000    3.000    0.000    8.667 
#    0.000    8.333    0.000    0.000    0.000    0.000 
#    0.000    0.000    0.000    0.000    0.000    0.000 
#
# Total GULP energy -595374.860631 kJ/mol
# GULP energy per Si atom -12403.642930 kJ/mol
# Density = 1.856511 g / cm^3
# Si number density = 18.607459 Si / 1000 Ang^3
#
#
#
# Elastic Constant Matrix: (Units=GPa)
#
#
# Indices 1 2 3 4 5 6 
#
# 1 125.1329 54.5805 70.6301 0.0000 0.0000 0.0000
# 2 54.5805 68.3126 51.7495 0.0000 0.0000 0.0000
# 3 70.6301 51.7495 93.8491 0.0000 0.0000 0.0000
# 4 0.0000 0.0000 0.0000 29.7168 0.0000 0.0000
# 5 0.0000 0.0000 0.0000 0.0000 2.2169 0.0000
# 6 0.0000 0.0000 0.0000 0.0000 0.0000 44.8760
#
#
#
# Elastic Compliance Matrix: (Units=1/GPa)
#
#
# Indices 1 2 3 4 5 6 
#
# 1 0.015190 -0.005970 -0.008140 0.000000 0.000000 0.000000
# 2 -0.005970 0.027487 -0.010663 0.000000 0.000000 0.000000
# 3 -0.008140 -0.010663 0.022661 0.000000 0.000000 0.000000
# 4 0.000000 0.000000 0.000000 0.033651 0.000000 0.000000
# 5 0.000000 0.000000 0.000000 0.000000 0.451088 0.000000
# 6 0.000000 0.000000 0.000000 0.000000 0.000000 0.022284
#
#
# Mechanical properties :
#
#
# Convention : Reuss Voigt Hill
#
# Bulk Modulus (GPa) = 63.32669 71.24610 67.28639
# Shear Modulus (GPa) = 7.97230 22.71756 15.34493
#
# Velocity S-wave (km/s) = 2.07214 3.49791 2.87481
# Velocity P-wave (km/s) = 6.31125 7.39499 6.87451
#
# Compressibility (1/GPa) = 0.01579113
#
# Stress axis : x y z
#
# Youngs Moduli (GPa) = 65.83220 36.38135 44.12831
#
# Poissons Ratio (x) = 0.21721 0.35920
# Poissons Ratio (y) = 0.39304 0.47055
# Poissons Ratio (z) = 0.53586 0.38794
#
# Static dielectric constant tensor:
#      x y z
#    x 3.489780 0.000000 0.000000 
#    y 0.000000 3.385970 0.000000 
#    z 0.000000 0.000000 3.415280 
# 
# 
# High freq. dielectric constant tensor:
#      x y z
#    x 1.734830 0.000000 0.000000 
#    y 0.000000 1.720030 0.000000 
#    z 0.000000 0.000000 1.719480 
# 
# From -- ./inp_files/2431.got.cif
#   From: 2010.03.12/outbox.cif.g09.slc.cpg/sg47_2_cif.got.tgz:2431.got - 2010.04.14 03:12:58.
