data_PCOD8199634
_publ_section_title
;
Structure prediction by ZEFSAII (Michael W. Deem and Ramdas Pophale) SiO2 
 PCOD8199634
Probable space group: P M M M
;
_chemical_formula_sum "Si O2"
_cell_formula_units_Z 28
_cell_length_a 9.110802
_cell_length_b 7.593982
_cell_length_c 19.601557
_cell_angle_alpha 90.000000
_cell_angle_beta 90.000000
_cell_angle_gamma 90.000000
_cell_volume 1356.178146
_symmetry_space_group_name_H-M "P M M M"
_symmetry_group_IT_number 47
_symmetry_cell_setting 'orthorhombic'
loop_
_space_group_symop_operation_xyz
x,y,z
-x,-y,z
x,-y,-z
-x,y,-z
-x,-y,-z
x,y,-z
-x,y,z
x,-y,z
loop_
_atom_site_type_symbol
_atom_site_label
_atom_site_fract_x
_atom_site_fract_y
_atom_site_fract_z
Si Si1 0.835741 0.792188 0.575990
Si Si2 0.331023 0.000000 0.919422
Si Si3 0.660033 0.299109 0.294258
Si Si4 0.828201 0.707282 0.163196
O O1 0.785659 0.734093 0.500000
O O2 0.725612 0.712694 0.630401
O O3 0.000000 0.721234 0.590216
O O4 0.833919 0.000000 0.582255
O O5 0.252662 0.178218 0.893998
O O6 0.500000 0.000000 0.895045
O O7 0.318797 0.000000 0.000000
O O8 0.500000 0.204245 0.292181
O O9 0.636456 0.500000 0.275792
O O10 0.768525 0.222878 0.236558
O O11 0.797455 0.500000 0.150164
O O12 0.000000 0.748032 0.161207
#
# Coordination Sequence:
#
# PCOD8199634 Si02
#       4
#     8   4   8   8
#     4   9  19  35  53  75 106 146 192 241 293 348
#     4  11  25  43  65  95 128 163 200 239 295 363
#     4  10  21  36  55  81 113 149 190 238 294 353
#     4  10  22  41  65  92 123 161 205 252 299 351
#
# _framework density 20.646256000000001
#
# number of rings (size 3 to 8) (size 9 to 14) (size 15 to 20)
#    0.000    2.143    0.000    3.000    2.000    6.857 
#    0.000    7.143    0.000    0.000    0.000    0.000 
#    0.000    0.000    0.000    0.000    0.000    0.000 
#
# Total GULP energy -347103.011245 kJ/mol
# GULP energy per Si atom -12396.536116 kJ/mol
# Density = 2.059926 g / cm^3
# Si number density = 20.646256 Si / 1000 Ang^3
#
#
#
# Elastic Constant Matrix: (Units=GPa)
#
#
# Indices 1 2 3 4 5 6 
#
# 1 175.8447 49.2491 82.3688 0.0000 0.0000 0.0000
# 2 49.2491 65.3893 35.6504 0.0000 0.0000 0.0000
# 3 82.3688 35.6504 126.3248 0.0000 0.0000 0.0000
# 4 0.0000 0.0000 0.0000 38.6350 0.0000 0.0000
# 5 0.0000 0.0000 0.0000 0.0000 36.7908 0.0000
# 6 0.0000 0.0000 0.0000 0.0000 0.0000 22.4572
#
#
#
# Elastic Compliance Matrix: (Units=1/GPa)
#
#
# Indices 1 2 3 4 5 6 
#
# 1 0.009098 -0.004276 -0.004725 0.000000 0.000000 0.000000
# 2 -0.004276 0.020084 -0.002880 0.000000 0.000000 0.000000
# 3 -0.004725 -0.002880 0.011810 0.000000 0.000000 0.000000
# 4 0.000000 0.000000 0.000000 0.025883 0.000000 0.000000
# 5 0.000000 0.000000 0.000000 0.000000 0.027181 0.000000
# 6 0.000000 0.000000 0.000000 0.000000 0.000000 0.044529
#
#
# Mechanical properties :
#
#
# Convention : Reuss Voigt Hill
#
# Bulk Modulus (GPa) = 58.04110 78.01060 68.02585
# Shear Modulus (GPa) = 29.74600 32.92932 31.33766
#
# Velocity S-wave (km/s) = 3.79983 3.99799 3.90017
# Velocity P-wave (km/s) = 6.88657 7.69274 7.30079
#
# Compressibility (1/GPa) = 0.01722917
#
# Stress axis : x y z
#
# Youngs Moduli (GPa) = 109.91557 49.79197 84.67398
#
# Poissons Ratio (x) = 0.21291 0.40012
# Poissons Ratio (y) = 0.46999 0.24384
# Poissons Ratio (z) = 0.51940 0.14339
#
# Static dielectric constant tensor:
#      x y z
#    x 4.079770 0.000000 0.000000 
#    y 0.000000 3.608070 0.000000 
#    z 0.000000 0.000000 3.884160 
# 
# 
# High freq. dielectric constant tensor:
#      x y z
#    x 1.816890 0.000000 0.000000 
#    y 0.000000 1.801390 0.000000 
#    z 0.000000 0.000000 1.806960 
# 
# From -- ./inp_files/868.got.cif
#   From: 2010.03.12/outbox.cif.g09.slc.cpg/sg47_1_cif.got.tgz:868.got - 2010.04.14 03:12:58.
