data_PCOD8199006
_publ_section_title
;
Structure prediction by ZEFSAII (Michael W. Deem and Ramdas Pophale) SiO2 
 PCOD8199006
Probable space group: P M M M
;
_chemical_formula_sum "Si O2"
_cell_formula_units_Z 52
_cell_length_a 9.697675
_cell_length_b 18.357764
_cell_length_c 15.724911
_cell_angle_alpha 90.000000
_cell_angle_beta 90.000000
_cell_angle_gamma 90.000000
_cell_volume 2799.468622
_symmetry_space_group_name_H-M "P M M M"
_symmetry_group_IT_number 47
_symmetry_cell_setting 'orthorhombic'
loop_
_space_group_symop_operation_xyz
x,y,z
-x,-y,z
x,-y,-z
-x,y,-z
-x,-y,-z
x,y,-z
-x,y,z
x,-y,z
loop_
_atom_site_type_symbol
_atom_site_label
_atom_site_fract_x
_atom_site_fract_y
_atom_site_fract_z
Si Si1 0.349797 0.327270 0.598748
Si Si2 0.160355 0.832225 0.901436
Si Si3 0.664071 0.833748 0.405314
Si Si4 0.657381 0.413954 0.000000
Si Si5 0.844101 0.665066 0.870674
Si Si6 0.339583 0.914453 0.762897
Si Si7 0.154087 0.581564 0.298841
O O1 0.370638 0.336294 0.500000
O O2 0.500000 0.333766 0.643667
O O3 0.283599 0.247726 0.617713
O O4 0.254862 0.393654 0.627218
O O5 0.197277 0.748715 0.882080
O O6 0.253184 0.881581 0.840613
O O7 0.000000 0.847964 0.882178
O O8 0.194695 0.849929 0.000000
O O9 0.719391 0.857850 0.500000
O O10 0.500000 0.833088 0.409924
O O11 0.715000 0.886383 0.329325
O O12 0.734996 0.384801 0.917920
O O13 0.663986 0.500000 0.000000
O O14 0.500000 0.386094 0.000000
O O15 0.832223 0.641919 0.773711
O O16 0.000000 0.652042 0.905231
O O17 0.500000 0.893650 0.775638
O O18 0.316595 0.000000 0.764036
O O19 0.192905 0.500000 0.266933
O O20 0.000000 0.581508 0.335745
#
# Coordination Sequence:
#
# PCOD8199006 Si02
#       7
#     8   8   8   4   8   8   8
#     4   9  18  33  53  75 100 136 180 221 264 315
#     4  10  21  38  59  81 104 138 187 232 273 324
#     4   8  15  31  55  81 109 140 176 219 265 317
#     4  11  23  35  51  81 114 139 168 211 265 320
#     4  10  20  38  59  77 101 137 182 225 265 318
#     4  10  21  35  54  84 116 144 177 218 269 327
#     4  10  21  34  50  75 104 136 174 218 270 319
#
# _framework density 18.574954000000002
#
# number of rings (size 3 to 8) (size 9 to 14) (size 15 to 20)
#    0.000    2.385    0.769    2.538    0.000    4.615 
#    0.000    4.615    0.000    1.385    0.000    1.077 
#    0.000    0.000    0.000    0.000    0.000    0.000 
#
# Total GULP energy -644564.002477 kJ/mol
# GULP energy per Si atom -12395.461586 kJ/mol
# Density = 1.853268 g / cm^3
# Si number density = 18.574954 Si / 1000 Ang^3
#
#
#
# Elastic Constant Matrix: (Units=GPa)
#
#
# Indices 1 2 3 4 5 6 
#
# 1 80.0984 53.8471 47.6951 0.0000 0.0000 0.0000
# 2 53.8471 95.0010 66.8769 0.0000 0.0000 0.0000
# 3 47.6951 66.8769 100.9184 0.0000 0.0000 0.0000
# 4 0.0000 0.0000 0.0000 15.7552 0.0000 0.0000
# 5 0.0000 0.0000 0.0000 0.0000 27.7109 0.0000
# 6 0.0000 0.0000 0.0000 0.0000 0.0000 29.0436
#
#
#
# Elastic Compliance Matrix: (Units=1/GPa)
#
#
# Indices 1 2 3 4 5 6 
#
# 1 0.020921 -0.009181 -0.003804 0.000000 0.000000 0.000000
# 2 -0.009181 0.023759 -0.011406 0.000000 0.000000 0.000000
# 3 -0.003804 -0.011406 0.019265 0.000000 0.000000 0.000000
# 4 0.000000 0.000000 0.000000 0.063471 0.000000 0.000000
# 5 0.000000 0.000000 0.000000 0.000000 0.036087 0.000000
# 6 0.000000 0.000000 0.000000 0.000000 0.000000 0.034431
#
#
# Mechanical properties :
#
#
# Convention : Reuss Voigt Hill
#
# Bulk Modulus (GPa) = 65.94115 68.09512 67.01814
# Shear Modulus (GPa) = 19.85935 21.67520 20.76728
#
# Velocity S-wave (km/s) = 3.27333 3.41970 3.34732
# Velocity P-wave (km/s) = 7.06140 7.23407 7.14825
#
# Compressibility (1/GPa) = 0.01516504
#
# Stress axis : x y z
#
# Youngs Moduli (GPa) = 47.79776 42.08897 51.90694
#
# Poissons Ratio (x) = 0.38641 0.19745
# Poissons Ratio (y) = 0.43882 0.59205
# Poissons Ratio (z) = 0.18181 0.48006
#
# Static dielectric constant tensor:
#      x y z
#    x 10.689860 0.000000 0.000000 
#    y 0.000000 3.457070 0.000000 
#    z 0.000000 0.000000 3.373830 
# 
# 
# High freq. dielectric constant tensor:
#      x y z
#    x 1.702220 0.000000 0.000000 
#    y 0.000000 1.721780 0.000000 
#    z 0.000000 0.000000 1.723160 
# 
# From -- ./inp_files/21411.got.cif
#   From: 2010.03.12/outbox.cif.g09.slc.cpg/sg47_11_cif.got.tgz:21411.got - 2010.04.14 03:12:58.
