data_PCOD8199229
_publ_section_title
;
Structure prediction by ZEFSAII (Michael W. Deem and Ramdas Pophale) SiO2 
 PCOD8199229
Probable space group: P M M M
;
_chemical_formula_sum "Si O2"
_cell_formula_units_Z 40
_cell_length_a 9.088806
_cell_length_b 9.241364
_cell_length_c 25.906026
_cell_angle_alpha 90.000000
_cell_angle_beta 90.000000
_cell_angle_gamma 90.000000
_cell_volume 2175.923924
_symmetry_space_group_name_H-M "P M M M"
_symmetry_group_IT_number 47
_symmetry_cell_setting 'orthorhombic'
loop_
_space_group_symop_operation_xyz
x,y,z
-x,-y,z
x,-y,-z
-x,y,-z
-x,-y,-z
x,y,-z
-x,y,z
x,-y,z
loop_
_atom_site_type_symbol
_atom_site_label
_atom_site_fract_x
_atom_site_fract_y
_atom_site_fract_z
Si Si1 0.825530 0.832689 0.888592
Si Si2 0.669123 0.167517 0.303838
Si Si3 0.827997 0.167965 0.591691
Si Si4 0.671009 0.329581 0.500000
Si Si5 0.328058 0.332704 0.202610
Si Si6 0.827427 0.833831 0.000000
O O1 0.753006 0.734706 0.845768
O O2 0.000000 0.818482 0.884316
O O3 0.778550 0.000000 0.881235
O O4 0.769145 0.771455 0.945010
O O5 0.500000 0.204620 0.317178
O O6 0.768838 0.211795 0.352177
O O7 0.726957 0.258047 0.255161
O O8 0.688356 0.000000 0.289759
O O9 0.744771 0.264381 0.550492
O O10 0.000000 0.201997 0.588940
O O11 0.795261 0.000000 0.579946
O O12 0.696731 0.500000 0.500000
O O13 0.500000 0.288610 0.500000
O O14 0.500000 0.305566 0.195175
O O15 0.287140 0.500000 0.206183
O O16 0.000000 0.813652 0.000000
O O17 0.784254 0.000000 0.000000
#
# Coordination Sequence:
#
# PCOD8199229 Si02
#       6
#     8   8   8   4   8   4
#     4   9  17  31  53  77  99 127 167 214 260 307
#     4   9  18  34  55  76 100 135 177 216 254 300
#     4  10  21  37  58  84 111 137 169 213 262 308
#     4  11  24  39  56  80 110 145 182 215 250 298
#     4  10  21  35  50  72 105 141 173 208 253 305
#     4   7  12  26  48  73  98 124 160 209 260 305
#
# _framework density 18.382995999999999
#
# number of rings (size 3 to 8) (size 9 to 14) (size 15 to 20)
#    0.000    2.600    0.000    3.000    0.000    6.400 
#    0.000    5.000    0.000    4.800    0.000    0.000 
#    0.000    0.000    0.000    0.000    0.000    0.000 
#
# Total GULP energy -495848.639481 kJ/mol
# GULP energy per Si atom -12396.215987 kJ/mol
# Density = 1.834116 g / cm^3
# Si number density = 18.382996 Si / 1000 Ang^3
#
#
#
# Elastic Constant Matrix: (Units=GPa)
#
#
# Indices 1 2 3 4 5 6 
#
# 1 75.0905 51.2004 75.7895 0.0000 0.0000 0.0000
# 2 51.2004 84.4906 86.4692 0.0000 0.0000 0.0000
# 3 75.7895 86.4692 190.1070 0.0000 0.0000 0.0000
# 4 0.0000 0.0000 0.0000 -12.0036 0.0000 0.0000
# 5 0.0000 0.0000 0.0000 0.0000 35.9813 0.0000
# 6 0.0000 0.0000 0.0000 0.0000 0.0000 25.8185
#
#
#
# Elastic Compliance Matrix: (Units=1/GPa)
#
#
# Indices 1 2 3 4 5 6 
#
# 1 0.025854 -0.009576 -0.005951 0.000000 0.000000 0.000000
# 2 -0.009576 0.025690 -0.007867 0.000000 0.000000 0.000000
# 3 -0.005951 -0.007867 0.011211 0.000000 0.000000 0.000000
# 4 0.000000 0.000000 0.000000 -0.083309 0.000000 0.000000
# 5 0.000000 0.000000 0.000000 0.000000 0.027792 0.000000
# 6 0.000000 0.000000 0.000000 0.000000 0.000000 0.038732
#
#
# Mechanical properties :
#
#
# Convention : Reuss Voigt Hill
#
# Bulk Modulus (GPa) = 62.63616 86.28960 74.46288
# Shear Modulus (GPa) = 50.97766 19.04120 35.00943
#
# Velocity S-wave (km/s) = 5.27172 3.22188 4.36873
# Velocity P-wave (km/s) = 8.43811 7.80272 8.12663
#
# Compressibility (1/GPa) = 0.01596522
#
# Stress axis : x y z
#
# Youngs Moduli (GPa) = 38.67944 38.92496 89.19683
#
# Poissons Ratio (x) = 0.37276 0.53083
# Poissons Ratio (y) = 0.37041 0.70174
# Poissons Ratio (z) = 0.23019 0.30624
#
# Static dielectric constant tensor:
#      x y z
#    x 3.265090 0.000000 0.000000 
#    y 0.000000 3.273790 0.000000 
#    z 0.000000 0.000000 3.725790 
# 
# 
# High freq. dielectric constant tensor:
#      x y z
#    x 1.699360 0.000000 0.000000 
#    y 0.000000 1.696820 0.000000 
#    z 0.000000 0.000000 1.735360 
# 
# From -- ./inp_files/1786.got.cif
#   From: 2010.03.12/outbox.cif.g09.slc.cpg/sg47_1_cif.got.tgz:1786.got - 2010.04.14 03:12:58.
