data_PCOD8199156
_publ_section_title
;
Structure prediction by ZEFSAII (Michael W. Deem and Ramdas Pophale) SiO2 
 PCOD8199156
Probable space group: P M M M
;
_chemical_formula_sum "Si O2"
_cell_formula_units_Z 44
_cell_length_a 9.332160
_cell_length_b 9.688439
_cell_length_c 28.214811
_cell_angle_alpha 90.000000
_cell_angle_beta 90.000000
_cell_angle_gamma 90.000000
_cell_volume 2551.015696
_symmetry_space_group_name_H-M "P M M M"
_symmetry_group_IT_number 47
_symmetry_cell_setting 'orthorhombic'
loop_
_space_group_symop_operation_xyz
x,y,z
-x,-y,z
x,-y,-z
-x,y,-z
-x,-y,-z
x,y,-z
-x,y,z
x,-y,z
loop_
_atom_site_type_symbol
_atom_site_label
_atom_site_fract_x
_atom_site_fract_y
_atom_site_fract_z
Si Si1 0.332549 0.160530 0.231284
Si Si2 0.832809 0.339461 0.306489
Si Si3 0.170208 0.345076 0.947698
Si Si4 0.166275 0.159939 0.137434
Si Si5 0.659903 0.665020 0.500000
Si Si6 0.841888 0.663436 0.412988
O O1 0.500000 0.192889 0.226905
O O2 0.266495 0.247909 0.273562
O O3 0.256378 0.206725 0.182858
O O4 0.303208 0.000000 0.241621
O O5 0.800928 0.500000 0.296742
O O6 0.789675 0.298288 0.360194
O O7 0.000000 0.307523 0.297303
O O8 0.222532 0.500000 0.935981
O O9 0.229391 0.242353 0.907627
O O10 0.000000 0.339160 0.947916
O O11 0.226762 0.300711 0.000000
O O12 0.000000 0.194932 0.147214
O O13 0.188343 0.000000 0.125964
O O14 0.661355 0.500000 0.500000
O O15 0.500000 0.723677 0.500000
O O16 0.736092 0.724025 0.452795
O O17 0.850146 0.500000 0.417501
O O18 0.000000 0.725338 0.422123
#
# Coordination Sequence:
#
# PCOD8199156 Si02
#       6
#     8   8   8   8   4   8
#     4  10  21  35  49  67  94 127 160 194 235 284
#     4   9  18  32  50  72  95 120 155 198 240 282
#     4   8  14  25  42  66  94 119 144 180 227 274
#     4   9  17  29  46  67  89 115 150 191 230 269
#     4   9  15  21  33  57  88 121 154 185 220 266
#     4   8  14  25  40  59  86 118 149 184 228 275
#
# _framework density 17.248033
#
# number of rings (size 3 to 8) (size 9 to 14) (size 15 to 20)
#    0.000    3.182    0.000    2.455    0.000    4.364 
#    0.000    5.455    0.000    0.545    0.000    4.455 
#    0.000    5.091    0.000    0.000    0.000    0.000 
#
# Total GULP energy -545411.732480 kJ/mol
# GULP energy per Si atom -12395.721193 kJ/mol
# Density = 1.720878 g / cm^3
# Si number density = 17.248033 Si / 1000 Ang^3
#
#
#
# Elastic Constant Matrix: (Units=GPa)
#
#
# Indices 1 2 3 4 5 6 
#
# 1 87.7991 38.5676 80.9805 0.0000 0.0000 0.0000
# 2 38.5676 48.4932 64.6515 0.0000 0.0000 0.0000
# 3 80.9805 64.6515 175.5634 0.0000 0.0000 0.0000
# 4 0.0000 0.0000 0.0000 2.1039 0.0000 0.0000
# 5 0.0000 0.0000 0.0000 0.0000 3.9875 0.0000
# 6 0.0000 0.0000 0.0000 0.0000 0.0000 17.5167
#
#
#
# Elastic Compliance Matrix: (Units=1/GPa)
#
#
# Indices 1 2 3 4 5 6 
#
# 1 0.021121 -0.007483 -0.006986 0.000000 0.000000 0.000000
# 2 -0.007483 0.043162 -0.012443 0.000000 0.000000 0.000000
# 3 -0.006986 -0.012443 0.013500 0.000000 0.000000 0.000000
# 4 0.000000 0.000000 0.000000 0.475317 0.000000 0.000000
# 5 0.000000 0.000000 0.000000 0.000000 0.250781 0.000000
# 6 0.000000 0.000000 0.000000 0.000000 0.000000 0.057089
#
#
# Mechanical properties :
#
#
# Convention : Reuss Voigt Hill
#
# Bulk Modulus (GPa) = 41.73944 75.58389 58.66167
# Shear Modulus (GPa) = 5.41841 13.23202 9.32521
#
# Velocity S-wave (km/s) = 1.77434 2.77277 2.32772
# Velocity P-wave (km/s) = 5.33383 7.35988 6.42720
#
# Compressibility (1/GPa) = 0.02395815
#
# Stress axis : x y z
#
# Youngs Moduli (GPa) = 47.34700 23.16873 74.07148
#
# Poissons Ratio (x) = 0.17338 0.51749
# Poissons Ratio (y) = 0.35432 0.92164
# Poissons Ratio (z) = 0.33078 0.28828
#
# Static dielectric constant tensor:
#      x y z
#    x 3.118730 0.000000 0.000000 
#    y 0.000000 2.945550 0.000000 
#    z 0.000000 0.000000 3.531070 
# 
# 
# High freq. dielectric constant tensor:
#      x y z
#    x 1.645090 0.000000 0.000000 
#    y 0.000000 1.629930 0.000000 
#    z 0.000000 0.000000 1.680950 
# 
# From -- ./inp_files/2020.got.cif
#   From: 2010.03.12/outbox.cif.g09.slc.cpg/sg47_2_cif.got.tgz:2020.got - 2010.04.14 03:12:58.
