data_PCOD8199871
_publ_section_title
;
Structure prediction by ZEFSAII (Michael W. Deem and Ramdas Pophale) SiO2 
 PCOD8199871
Probable space group: P M M M
;
_chemical_formula_sum "Si O2"
_cell_formula_units_Z 44
_cell_length_a 9.189975
_cell_length_b 29.644461
_cell_length_c 8.137564
_cell_angle_alpha 90.000000
_cell_angle_beta 90.000000
_cell_angle_gamma 90.000000
_cell_volume 2216.931660
_symmetry_space_group_name_H-M "P M M M"
_symmetry_group_IT_number 47
_symmetry_cell_setting 'orthorhombic'
loop_
_space_group_symop_operation_xyz
x,y,z
-x,-y,z
x,-y,-z
-x,y,-z
-x,-y,-z
x,y,-z
-x,y,z
x,-y,z
loop_
_atom_site_type_symbol
_atom_site_label
_atom_site_fract_x
_atom_site_fract_y
_atom_site_fract_z
Si Si1 0.672256 0.949653 0.500000
Si Si2 0.659926 0.549447 0.307540
Si Si3 0.833116 0.798482 0.810578
Si Si4 0.670390 0.108612 0.812652
Si Si5 0.664306 0.714848 0.688205
Si Si6 0.839442 0.368096 0.189004
O O1 0.500000 0.951834 0.500000
O O2 0.723523 0.925868 0.329655
O O3 0.738852 0.000000 0.500000
O O4 0.645925 0.545897 0.500000
O O5 0.500000 0.562315 0.234922
O O6 0.707726 0.500000 0.238315
O O7 0.776796 0.587182 0.269060
O O8 0.758217 0.846132 0.778911
O O9 0.751147 0.761320 0.704253
O O10 0.000000 0.801656 0.752951
O O11 0.822159 0.784152 0.000000
O O12 0.500000 0.119140 0.793302
O O13 0.701963 0.090490 0.000000
O O14 0.663669 0.699742 0.500000
O O15 0.500000 0.721750 0.753633
O O16 0.739048 0.675319 0.789235
O O17 0.000000 0.358424 0.263952
O O18 0.852719 0.378786 0.000000
#
# Coordination Sequence:
#
# PCOD8199871 Si02
#       6
#     4   8   8   8   8   8
#     4   9  18  32  53  83 115 147 191 245 290 337
#     4   9  19  37  60  84 109 139 179 226 273 324
#     4  10  21  37  57  82 112 145 183 228 278 333
#     4   9  18  33  54  80 112 150 190 236 289 341
#     4  11  24  39  57  82 110 142 182 227 274 328
#     4  11  24  39  55  79 112 146 181 224 272 325
#
# _framework density 19.847251
#
# number of rings (size 3 to 8) (size 9 to 14) (size 15 to 20)
#    0.000    2.091    0.000    3.273    1.273    9.818 
#    0.000    4.545    0.000    1.091    0.000    2.545 
#    0.000    0.000    0.000    0.000    0.000    0.000 
#
# Total GULP energy -545480.973511 kJ/mol
# GULP energy per Si atom -12397.294853 kJ/mol
# Density = 1.980208 g / cm^3
# Si number density = 19.847251 Si / 1000 Ang^3
#
#
#
# Elastic Constant Matrix: (Units=GPa)
#
#
# Indices 1 2 3 4 5 6 
#
# 1 114.1903 61.0615 29.9995 0.0000 0.0000 0.0000
# 2 61.0615 130.6433 44.2183 0.0000 0.0000 0.0000
# 3 29.9995 44.2183 73.3617 0.0000 0.0000 0.0000
# 4 0.0000 0.0000 0.0000 44.8211 0.0000 0.0000
# 5 0.0000 0.0000 0.0000 0.0000 21.5653 0.0000
# 6 0.0000 0.0000 0.0000 0.0000 0.0000 -155.5086
#
#
#
# Elastic Compliance Matrix: (Units=1/GPa)
#
#
# Indices 1 2 3 4 5 6 
#
# 1 0.011882 -0.004911 -0.001899 0.000000 0.000000 0.000000
# 2 -0.004911 0.011646 -0.005011 0.000000 0.000000 0.000000
# 3 -0.001899 -0.005011 0.017428 0.000000 0.000000 0.000000
# 4 0.000000 0.000000 0.000000 0.022311 0.000000 0.000000
# 5 0.000000 0.000000 0.000000 0.000000 0.046371 0.000000
# 6 0.000000 0.000000 0.000000 0.000000 0.000000 -0.006431
#
#
# Mechanical properties :
#
#
# Convention : Reuss Voigt Hill
#
# Bulk Modulus (GPa) = 57.75677 65.41710 61.58694
# Shear Modulus (GPa) = 37.70138 -5.63004 16.03567
#
# Velocity S-wave (km/s) = 4.36314 -1.68607 2.84554
# Velocity P-wave (km/s) = 7.38556 5.40753 6.47255
#
# Compressibility (1/GPa) = 0.01731399
#
# Stress axis : x y z
#
# Youngs Moduli (GPa) = 84.15924 85.86711 57.37852
#
# Poissons Ratio (x) = 0.42169 0.10896
# Poissons Ratio (y) = 0.41330 0.28754
# Poissons Ratio (z) = 0.15981 0.43030
#
# Static dielectric constant tensor:
#      x y z
#    x 3.979700 0.000000 0.000000 
#    y 0.000000 3.642900 0.000000 
#    z 0.000000 0.000000 3.646450 
# 
# 
# High freq. dielectric constant tensor:
#      x y z
#    x 1.770000 0.000000 0.000000 
#    y 0.000000 1.774150 0.000000 
#    z 0.000000 0.000000 1.773840 
# 
# From -- ./inp_files/1986.got.cif
#   From: 2010.03.12/outbox.cif.g09.slc.cpg/sg47_1_cif.got.tgz:1986.got - 2010.04.14 03:12:58.
