data_PCOD8199930
_publ_section_title
;
Structure prediction by ZEFSAII (Michael W. Deem and Ramdas Pophale) SiO2 
 PCOD8199930
Probable space group: P M M M
;
_chemical_formula_sum "Si O2"
_cell_formula_units_Z 64
_cell_length_a 9.069480
_cell_length_b 24.106577
_cell_length_c 14.723168
_cell_angle_alpha 90.000000
_cell_angle_beta 90.000000
_cell_angle_gamma 90.000000
_cell_volume 3218.986849
_symmetry_space_group_name_H-M "P M M M"
_symmetry_group_IT_number 47
_symmetry_cell_setting 'orthorhombic'
loop_
_space_group_symop_operation_xyz
x,y,z
-x,-y,z
x,-y,-z
-x,y,-z
-x,-y,-z
x,y,-z
-x,y,z
x,-y,z
loop_
_atom_site_type_symbol
_atom_site_label
_atom_site_fract_x
_atom_site_fract_y
_atom_site_fract_z
Si Si1 0.827736 0.656264 0.395616
Si Si2 0.666172 0.234894 0.392307
Si Si3 0.336657 0.253077 0.107610
Si Si4 0.829475 0.145140 0.107047
Si Si5 0.173836 0.124320 0.394992
Si Si6 0.329716 0.064244 0.759367
Si Si7 0.674665 0.624638 0.897585
Si Si8 0.828111 0.437302 0.742372
O O1 0.785115 0.645107 0.500000
O O2 0.740159 0.708955 0.354894
O O3 0.778320 0.601996 0.340334
O O4 0.000000 0.669145 0.385623
O O5 0.669061 0.236490 0.500000
O O6 0.500000 0.230474 0.354655
O O7 0.759542 0.182230 0.358721
O O8 0.500000 0.241812 0.148288
O O9 0.226720 0.205218 0.141834
O O10 0.277592 0.313804 0.137362
O O11 0.347754 0.253022 0.000000
O O12 0.739803 0.097281 0.156887
O O13 0.000000 0.140064 0.133191
O O14 0.802891 0.137988 0.000000
O O15 0.214379 0.113156 0.500000
O O16 0.245316 0.075954 0.335016
O O17 0.000000 0.125873 0.380022
O O18 0.500000 0.080974 0.747949
O O19 0.311292 0.000000 0.782820
O O20 0.500000 0.619600 0.893908
O O21 0.745275 0.578256 0.834449
O O22 0.731484 0.614329 0.000000
O O23 0.786588 0.500000 0.715063
O O24 0.000000 0.430798 0.761669
#
# Coordination Sequence:
#
# PCOD8199930 Si02
#       8
#     8   8   8   8   8   8   8   8
#     4   9  18  34  55  77 105 142 181 223 271 322
#     4   9  17  31  54  84 115 144 177 219 268 325
#     4   8  15  31  55  81 109 140 176 219 268 326
#     4  10  21  37  59  87 117 148 182 225 278 331
#     4  10  21  38  61  87 115 147 182 224 276 331
#     4  11  25  42  59  81 110 148 194 236 273 321
#     4   9  19  36  57  80 106 139 177 216 263 320
#     4  10  22  37  52  75 105 138 181 228 272 320
#
# _framework density 19.882031999999999
#
# number of rings (size 3 to 8) (size 9 to 14) (size 15 to 20)
#    0.000    2.500    0.000    2.250    0.000    7.500 
#    0.000    8.750    0.000    0.000    0.000    2.625 
#    0.000    0.000    0.000    0.000    0.000    0.000 
#
# Total GULP energy -793641.881420 kJ/mol
# GULP energy per Si atom -12400.654397 kJ/mol
# Density = 1.983678 g / cm^3
# Si number density = 19.882032 Si / 1000 Ang^3
#
#
#
# Elastic Constant Matrix: (Units=GPa)
#
#
# Indices 1 2 3 4 5 6 
#
# 1 83.3211 33.2744 16.5315 0.0000 0.0000 0.0000
# 2 33.2744 82.2959 8.1016 0.0000 0.0000 0.0000
# 3 16.5315 8.1016 46.3630 0.0000 0.0000 0.0000
# 4 0.0000 0.0000 0.0000 32.5152 0.0000 0.0000
# 5 0.0000 0.0000 0.0000 0.0000 24.2790 0.0000
# 6 0.0000 0.0000 0.0000 0.0000 0.0000 33.7451
#
#
#
# Elastic Compliance Matrix: (Units=1/GPa)
#
#
# Indices 1 2 3 4 5 6 
#
# 1 0.015149 -0.005691 -0.004407 0.000000 0.000000 0.000000
# 2 -0.005691 0.014502 -0.000505 0.000000 0.000000 0.000000
# 3 -0.004407 -0.000505 0.023229 0.000000 0.000000 0.000000
# 4 0.000000 0.000000 0.000000 0.030755 0.000000 0.000000
# 5 0.000000 0.000000 0.000000 0.000000 0.041188 0.000000
# 6 0.000000 0.000000 0.000000 0.000000 0.000000 0.029634
#
#
# Mechanical properties :
#
#
# Convention : Reuss Voigt Hill
#
# Bulk Modulus (GPa) = 31.57240 36.42167 33.99703
# Shear Modulus (GPa) = 26.84991 28.37937 27.61464
#
# Velocity S-wave (km/s) = 3.67885 3.78218 3.73087
# Velocity P-wave (km/s) = 5.82748 6.11815 5.97459
#
# Compressibility (1/GPa) = 0.03167324
#
# Stress axis : x y z
#
# Youngs Moduli (GPa) = 66.01109 68.95559 43.05040
#
# Poissons Ratio (x) = 0.39244 0.18973
# Poissons Ratio (y) = 0.37569 0.02173
# Poissons Ratio (z) = 0.29092 0.03481
#
# Static dielectric constant tensor:
#      x y z
#    x 3.634320 0.000000 0.000000 
#    y 0.000000 3.711780 0.000000 
#    z 0.000000 0.000000 3.499470 
# 
# 
# High freq. dielectric constant tensor:
#      x y z
#    x 1.774150 0.000000 0.000000 
#    y 0.000000 1.774370 0.000000 
#    z 0.000000 0.000000 1.772430 
# 
# From -- ./inp_files/7797.got.cif
#   From: 2010.03.12/outbox.cif.g09.slc.cpg/sg47_4_cif.got.tgz:7797.got - 2010.04.14 03:12:58.
