data_PCOD8199574
_publ_section_title
;
Structure prediction by ZEFSAII (Michael W. Deem and Ramdas Pophale) SiO2 
 PCOD8199574
Probable space group: P M M M
;
_chemical_formula_sum "Si O2"
_cell_formula_units_Z 56
_cell_length_a 15.229369
_cell_length_b 8.853648
_cell_length_c 21.093239
_cell_angle_alpha 90.000000
_cell_angle_beta 90.000000
_cell_angle_gamma 90.000000
_cell_volume 2844.116845
_symmetry_space_group_name_H-M "P M M M"
_symmetry_group_IT_number 47
_symmetry_cell_setting 'orthorhombic'
loop_
_space_group_symop_operation_xyz
x,y,z
-x,-y,z
x,-y,-z
-x,y,-z
-x,-y,-z
x,y,-z
-x,y,z
x,-y,z
loop_
_atom_site_type_symbol
_atom_site_label
_atom_site_fract_x
_atom_site_fract_y
_atom_site_fract_z
Si Si1 0.098090 0.667444 0.316992
Si Si2 0.764497 0.825605 0.238414
Si Si3 0.229012 0.676411 0.895459
Si Si4 0.404246 0.165849 0.073575
Si Si5 0.836749 0.828214 0.428476
Si Si6 0.104061 0.820377 0.000000
Si Si7 0.500000 0.323201 0.571942
Si Si8 0.655660 0.829440 0.356862
O O1 0.140660 0.500000 0.309657
O O2 0.148391 0.796043 0.278543
O O3 0.098540 0.717513 0.390442
O O4 0.000000 0.662566 0.290888
O O5 0.774571 0.720377 0.177704
O O6 0.680989 0.785035 0.283731
O O7 0.761396 0.000000 0.217854
O O8 0.211737 0.500000 0.904276
O O9 0.328374 0.713314 0.915265
O O10 0.154612 0.760093 0.937422
O O11 0.500000 0.218959 0.101203
O O12 0.379729 0.000000 0.103003
O O13 0.415292 0.144169 0.000000
O O14 0.835360 0.770277 0.500000
O O15 0.739602 0.814251 0.400999
O O16 0.870746 0.000000 0.423729
O O17 0.000000 0.772133 0.000000
O O18 0.111689 0.000000 0.000000
O O19 0.500000 0.500000 0.564168
O O20 0.500000 0.251848 0.500000
O O21 0.583570 0.278652 0.613597
O O22 0.619328 0.000000 0.357545
#
# Coordination Sequence:
#
# PCOD8199574 Si02
#       8
#     8   8   8   8   8   4   4   8
#     4  10  21  36  54  79 111 144 181 230 286 342
#     4  10  22  41  63  83 109 152 200 242 289 351
#     4  12  24  39  63  94 127 160 195 248 312 366
#     4   9  18  35  61  90 121 160 200 238 282 339
#     4   9  18  33  54  79 106 140 183 229 278 336
#     4  11  25  45  68  93 124 165 211 256 302 361
#     4  11  23  35  53  85 121 156 193 240 301 361
#     4   9  19  37  58  79 105 144 194 242 285 337
#
# _framework density 19.689767
#
# number of rings (size 3 to 8) (size 9 to 14) (size 15 to 20)
#    0.000    2.000    0.714    4.286    0.000    7.143 
#    1.286    2.143    0.000    0.000    0.000    0.000 
#    0.000    0.000    0.000    0.000    0.000    0.000 
#
# Total GULP energy -693971.306604 kJ/mol
# GULP energy per Si atom -12392.344761 kJ/mol
# Density = 1.964495 g / cm^3
# Si number density = 19.689767 Si / 1000 Ang^3
#
#
#
# Elastic Constant Matrix: (Units=GPa)
#
#
# Indices 1 2 3 4 5 6 
#
# 1 107.5908 44.7774 42.4205 0.0000 0.0000 0.0000
# 2 44.7774 87.5248 33.6395 0.0000 0.0000 0.0000
# 3 42.4205 33.6395 110.0875 0.0000 0.0000 0.0000
# 4 0.0000 0.0000 0.0000 19.0971 0.0000 0.0000
# 5 0.0000 0.0000 0.0000 0.0000 13.1695 0.0000
# 6 0.0000 0.0000 0.0000 0.0000 0.0000 29.9333
#
#
#
# Elastic Compliance Matrix: (Units=1/GPa)
#
#
# Indices 1 2 3 4 5 6 
#
# 1 0.012797 -0.005271 -0.003321 0.000000 0.000000 0.000000
# 2 -0.005271 0.015117 -0.002588 0.000000 0.000000 0.000000
# 3 -0.003321 -0.002588 0.011154 0.000000 0.000000 0.000000
# 4 0.000000 0.000000 0.000000 0.052364 0.000000 0.000000
# 5 0.000000 0.000000 0.000000 0.000000 0.075933 0.000000
# 6 0.000000 0.000000 0.000000 0.000000 0.000000 0.033408
#
#
# Mechanical properties :
#
#
# Convention : Reuss Voigt Hill
#
# Bulk Modulus (GPa) = 59.84868 60.76420 60.30644
# Shear Modulus (GPa) = 21.86257 24.73105 23.29681
#
# Velocity S-wave (km/s) = 3.33581 3.54790 3.44349
# Velocity P-wave (km/s) = 6.73043 6.90734 6.81946
#
# Compressibility (1/GPa) = 0.01670881
#
# Stress axis : x y z
#
# Youngs Moduli (GPa) = 78.14118 66.15246 89.65310
#
# Poissons Ratio (x) = 0.34868 0.29771
# Poissons Ratio (y) = 0.41187 0.23204
# Poissons Ratio (z) = 0.25948 0.17121
#
# Static dielectric constant tensor:
#      x y z
#    x 3.805330 0.000000 0.000000 
#    y 0.000000 3.602650 0.000000 
#    z 0.000000 0.000000 3.801920 
# 
# 
# High freq. dielectric constant tensor:
#      x y z
#    x 1.763830 0.000000 0.000000 
#    y 0.000000 1.764530 0.000000 
#    z 0.000000 0.000000 1.767710 
# 
# From -- ./inp_files/31076.got.cif
#   From: 2010.03.12/outbox.cif.g09.slc.cpg/sg47_16_cif.got.tgz:31076.got - 2010.04.14 03:12:58.
