data_PCOD8199223
_publ_section_title
;
Structure prediction by ZEFSAII (Michael W. Deem and Ramdas Pophale) SiO2 
 PCOD8199223
Probable space group: P M M M
;
_chemical_formula_sum "Si O2"
_cell_formula_units_Z 52
_cell_length_a 18.441226
_cell_length_b 9.263734
_cell_length_c 16.141782
_cell_angle_alpha 90.000000
_cell_angle_beta 90.000000
_cell_angle_gamma 90.000000
_cell_volume 2757.575070
_symmetry_space_group_name_H-M "P M M M"
_symmetry_group_IT_number 47
_symmetry_cell_setting 'orthorhombic'
loop_
_space_group_symop_operation_xyz
x,y,z
-x,-y,z
x,-y,-z
-x,y,-z
-x,-y,-z
x,y,-z
-x,y,z
x,-y,z
loop_
_atom_site_type_symbol
_atom_site_label
_atom_site_fract_x
_atom_site_fract_y
_atom_site_fract_z
Si Si1 0.326672 0.828721 0.593090
Si Si2 0.084902 0.339881 0.500000
Si Si3 0.082672 0.335473 0.234182
Si Si4 0.581841 0.828179 0.749368
Si Si5 0.675336 0.170660 0.905044
Si Si6 0.815825 0.662333 0.908119
Si Si7 0.835526 0.170837 0.636327
O O1 0.348424 0.772753 0.500000
O O2 0.378046 0.766813 0.666428
O O3 0.245115 0.778409 0.613132
O O4 0.330742 0.000000 0.593390
O O5 0.120451 0.500000 0.500000
O O6 0.106931 0.249383 0.420936
O O7 0.000000 0.357019 0.500000
O O8 0.088957 0.500000 0.268826
O O9 0.108049 0.327586 0.139557
O O10 0.140941 0.227150 0.274352
O O11 0.000000 0.280601 0.242325
O O12 0.500000 0.769013 0.747361
O O13 0.617192 0.775359 0.836291
O O14 0.583782 0.000000 0.746126
O O15 0.751947 0.234436 0.875292
O O16 0.681791 0.000000 0.901747
O O17 0.654756 0.219908 0.000000
O O18 0.784548 0.500000 0.903662
O O19 0.836467 0.709910 0.000000
O O20 0.843599 0.000000 0.628815
#
# Coordination Sequence:
#
# PCOD8199223 Si02
#       7
#     8   4   8   8   8   8   8
#     4   9  17  30  47  69  98 129 165 210 254 295
#     4  11  23  37  53  75 104 133 164 210 261 303
#     4  10  21  35  50  72 103 135 169 213 263 309
#     4   9  17  28  45  72 103 134 167 203 249 305
#     4   9  17  30  49  74 104 134 164 205 256 305
#     4   9  18  33  53  75  99 132 175 216 253 302
#     4  11  21  35  54  75 101 134 171 210 253 308
#
# _framework density 18.857147999999999
#
# number of rings (size 3 to 8) (size 9 to 14) (size 15 to 20)
#    0.000    2.385    0.769    2.077    0.000    5.538 
#    0.000    4.615    0.000    0.462    0.000    5.385 
#    0.000    0.615    0.000    0.000    0.000    0.000 
#
# Total GULP energy -644394.377918 kJ/mol
# GULP energy per Si atom -12392.199575 kJ/mol
# Density = 1.881423 g / cm^3
# Si number density = 18.857148 Si / 1000 Ang^3
#
#
#
# Elastic Constant Matrix: (Units=GPa)
#
#
# Indices 1 2 3 4 5 6 
#
# 1 104.1857 23.1362 67.9980 0.0000 0.0000 0.0000
# 2 23.1362 38.3968 23.5559 0.0000 0.0000 0.0000
# 3 67.9980 23.5559 123.9498 0.0000 0.0000 0.0000
# 4 0.0000 0.0000 0.0000 22.3168 0.0000 0.0000
# 5 0.0000 0.0000 0.0000 0.0000 34.5246 0.0000
# 6 0.0000 0.0000 0.0000 0.0000 0.0000 13.1397
#
#
#
# Elastic Compliance Matrix: (Units=1/GPa)
#
#
# Indices 1 2 3 4 5 6 
#
# 1 0.015672 -0.004719 -0.007701 0.000000 0.000000 0.000000
# 2 -0.004719 0.030902 -0.003284 0.000000 0.000000 0.000000
# 3 -0.007701 -0.003284 0.012917 0.000000 0.000000 0.000000
# 4 0.000000 0.000000 0.000000 0.044809 0.000000 0.000000
# 5 0.000000 0.000000 0.000000 0.000000 0.028965 0.000000
# 6 0.000000 0.000000 0.000000 0.000000 0.000000 0.076105
#
#
# Mechanical properties :
#
#
# Convention : Reuss Voigt Hill
#
# Bulk Modulus (GPa) = 35.60861 55.10138 45.35500
# Shear Modulus (GPa) = 19.98892 24.11903 22.05397
#
# Velocity S-wave (km/s) = 3.25932 3.58025 3.42355
# Velocity P-wave (km/s) = 5.75227 6.80990 6.30331
#
# Compressibility (1/GPa) = 0.02808309
#
# Stress axis : x y z
#
# Youngs Moduli (GPa) = 63.80703 32.36048 77.42033
#
# Poissons Ratio (x) = 0.15271 0.59620
# Poissons Ratio (y) = 0.30111 0.25424
# Poissons Ratio (z) = 0.49137 0.10627
#
# Static dielectric constant tensor:
#      x y z
#    x 3.454810 0.000000 0.000000 
#    y 0.000000 3.158680 0.000000 
#    z 0.000000 0.000000 8.200490 
# 
# 
# High freq. dielectric constant tensor:
#      x y z
#    x 1.724640 0.000000 0.000000 
#    y 0.000000 1.694520 0.000000 
#    z 0.000000 0.000000 1.750570 
# 
# From -- ./inp_files/25017.got.cif
#   From: 2010.03.12/outbox.cif.g09.slc.cpg/sg47_13_cif.got.tgz:25017.got - 2010.04.14 03:12:58.
