data_PCOD8199999
_publ_section_title
;
Structure prediction by ZEFSAII (Michael W. Deem and Ramdas Pophale) SiO2 
 PCOD8199999
Probable space group: P M M M
;
_chemical_formula_sum "Si O2"
_cell_formula_units_Z 48
_cell_length_a 8.955890
_cell_length_b 9.285252
_cell_length_c 30.288153
_cell_angle_alpha 90.000000
_cell_angle_beta 90.000000
_cell_angle_gamma 90.000000
_cell_volume 2518.693005
_symmetry_space_group_name_H-M "P M M M"
_symmetry_group_IT_number 47
_symmetry_cell_setting 'orthorhombic'
loop_
_space_group_symop_operation_xyz
x,y,z
-x,-y,z
x,-y,-z
-x,y,-z
-x,-y,-z
x,y,-z
-x,y,z
x,-y,z
loop_
_atom_site_type_symbol
_atom_site_label
_atom_site_fract_x
_atom_site_fract_y
_atom_site_fract_z
Si Si1 0.328427 0.166970 0.823484
Si Si2 0.827468 0.668858 0.251922
Si Si3 0.824195 0.661270 0.000000
Si Si4 0.672011 0.835373 0.075233
Si Si5 0.825005 0.166246 0.421029
Si Si6 0.673538 0.165778 0.329868
Si Si7 0.673795 0.331060 0.500000
O O1 0.500000 0.197362 0.810379
O O2 0.219151 0.264454 0.794776
O O3 0.300092 0.208996 0.874201
O O4 0.290900 0.000000 0.815229
O O5 0.797018 0.500000 0.250274
O O6 0.727153 0.735939 0.290094
O O7 0.000000 0.704335 0.261123
O O8 0.771281 0.737235 0.044381
O O9 0.760035 0.500000 0.000000
O O10 0.000000 0.662467 0.000000
O O11 0.500000 0.813876 0.062454
O O12 0.719412 0.000000 0.067647
O O13 0.763968 0.210671 0.373296
O O14 0.746364 0.264928 0.456688
O O15 0.000000 0.196287 0.422299
O O16 0.788133 0.000000 0.431504
O O17 0.500000 0.193687 0.338973
O O18 0.704298 0.000000 0.317273
O O19 0.704659 0.500000 0.500000
O O20 0.500000 0.293823 0.500000
#
# Coordination Sequence:
#
# PCOD8199999 Si02
#       7
#     8   8   4   8   8   8   4
#     4   9  19  37  60  84 108 137 178 227 275 323
#     4  11  24  38  53  79 115 151 184 221 269 324
#     4  11  24  37  50  76 114 149 180 219 268 322
#     4   9  19  37  60  83 106 136 179 228 273 321
#     4  10  21  38  61  87 113 144 184 229 278 330
#     4  10  21  38  61  86 110 141 184 231 276 324
#     4  11  24  39  56  82 116 153 190 227 272 326
#
# _framework density 19.057503000000001
#
# number of rings (size 3 to 8) (size 9 to 14) (size 15 to 20)
#    0.000    2.000    0.000    4.000    0.000   11.333 
#    0.000    5.000    0.000    0.000    0.000    0.000 
#    0.000    0.000    0.000    0.000    0.000    0.000 
#
# Total GULP energy -595421.003111 kJ/mol
# GULP energy per Si atom -12404.604231 kJ/mol
# Density = 1.901413 g / cm^3
# Si number density = 19.057503 Si / 1000 Ang^3
#
#
#
# Elastic Constant Matrix: (Units=GPa)
#
#
# Indices 1 2 3 4 5 6 
#
# 1 82.7946 55.3601 51.1246 0.0000 0.0000 0.0000
# 2 55.3601 95.0376 65.5429 0.0000 0.0000 0.0000
# 3 51.1246 65.5429 117.5304 0.0000 0.0000 0.0000
# 4 0.0000 0.0000 0.0000 -57.8355 0.0000 0.0000
# 5 0.0000 0.0000 0.0000 0.0000 67.7831 0.0000
# 6 0.0000 0.0000 0.0000 0.0000 0.0000 33.0018
#
#
#
# Elastic Compliance Matrix: (Units=1/GPa)
#
#
# Indices 1 2 3 4 5 6 
#
# 1 0.020734 -0.009518 -0.003711 0.000000 0.000000 0.000000
# 2 -0.009518 0.021468 -0.007831 0.000000 0.000000 0.000000
# 3 -0.003711 -0.007831 0.014490 0.000000 0.000000 0.000000
# 4 0.000000 0.000000 0.000000 -0.017290 0.000000 0.000000
# 5 0.000000 0.000000 0.000000 0.000000 0.014753 0.000000
# 6 0.000000 0.000000 0.000000 0.000000 0.000000 0.030301
#
#
# Mechanical properties :
#
#
# Convention : Reuss Voigt Hill
#
# Bulk Modulus (GPa) = 68.63390 71.04641 69.84016
# Shear Modulus (GPa) = 38.04199 16.81223 27.42711
#
# Velocity S-wave (km/s) = 4.47270 2.97338 3.79776
# Velocity P-wave (km/s) = 7.92248 7.01063 7.48046
#
# Compressibility (1/GPa) = 0.01457006
#
# Stress axis : x y z
#
# Youngs Moduli (GPa) = 48.23000 46.58172 69.01324
#
# Poissons Ratio (x) = 0.44338 0.25611
# Poissons Ratio (y) = 0.45907 0.54047
# Poissons Ratio (z) = 0.17898 0.36480
#
# Static dielectric constant tensor:
#      x y z
#    x 3.535520 0.000000 0.000000 
#    y 0.000000 3.483620 0.000000 
#    z 0.000000 0.000000 3.524980 
# 
# 
# High freq. dielectric constant tensor:
#      x y z
#    x 1.747810 0.000000 0.000000 
#    y 0.000000 1.737630 0.000000 
#    z 0.000000 0.000000 1.755250 
# 
# From -- ./inp_files/34077.got.cif
#   From: 2010.03.12/outbox.cif.g09.slc.cpg/sg47_18_cif.got.tgz:34077.got - 2010.04.14 03:12:58.
