data_PCOD8199494
_publ_section_title
;
Structure prediction by ZEFSAII (Michael W. Deem and Ramdas Pophale) SiO2 
 PCOD8199494
Probable space group: P M M M
;
_chemical_formula_sum "Si O2"
_cell_formula_units_Z 48
_cell_length_a 27.754034
_cell_length_b 9.123418
_cell_length_c 10.277546
_cell_angle_alpha 90.000000
_cell_angle_beta 90.000000
_cell_angle_gamma 90.000000
_cell_volume 2602.394415
_symmetry_space_group_name_H-M "P M M M"
_symmetry_group_IT_number 47
_symmetry_cell_setting 'orthorhombic'
loop_
_space_group_symop_operation_xyz
x,y,z
-x,-y,z
x,-y,-z
-x,y,-z
-x,-y,-z
x,y,-z
-x,y,z
x,-y,z
loop_
_atom_site_type_symbol
_atom_site_label
_atom_site_fract_x
_atom_site_fract_y
_atom_site_fract_z
Si Si1 0.053430 0.667313 0.749703
Si Si2 0.500000 0.665880 0.155032
Si Si3 0.405932 0.834083 0.155244
Si Si4 0.152348 0.668292 0.355572
Si Si5 0.784061 0.827524 0.849911
Si Si6 0.687178 0.664789 0.154148
Si Si7 0.943033 0.839074 0.000000
O O1 0.049238 0.500000 0.794263
O O2 0.094033 0.687759 0.639738
O O3 0.073982 0.755742 0.872225
O O4 0.000000 0.721707 0.702610
O O5 0.500000 0.500000 0.208859
O O6 0.452964 0.749844 0.207831
O O7 0.500000 0.664673 0.000000
O O8 0.358960 0.750907 0.210629
O O9 0.406319 0.000000 0.208741
O O10 0.405422 0.835030 0.000000
O O11 0.171155 0.710228 0.500000
O O12 0.165597 0.500000 0.322261
O O13 0.174316 0.772752 0.245970
O O14 0.735097 0.749839 0.803745
O O15 0.777003 0.000000 0.834097
O O16 0.796958 0.787519 0.000000
O O17 0.688278 0.500000 0.211685
O O18 0.683257 0.658773 0.000000
O O19 0.000000 0.850370 0.000000
O O20 0.918905 0.000000 0.000000
#
# Coordination Sequence:
#
# PCOD8199494 Si02
#       7
#     8   4   8   8   8   8   4
#     4   9  18  33  53  76 102 132 165 201 244 295
#     4   9  15  21  29  45  73 113 160 203 244 295
#     4   9  15  22  33  51  79 115 155 200 248 298
#     4  10  22  38  55  77 104 134 167 205 252 303
#     4  10  21  36  54  76 100 129 168 211 255 304
#     4   9  16  27  44  65  88 117 156 203 252 299
#     4   9  17  29  47  73 103 131 161 199 239 280
#
# _framework density 18.444552999999999
#
# number of rings (size 3 to 8) (size 9 to 14) (size 15 to 20)
#    0.000    2.667    0.000    2.000    1.167    8.333 
#    0.000    1.667    0.000    0.000    0.000    3.500 
#    0.000    0.000    0.000    0.750    0.000   14.667 
#
# Total GULP energy -594982.874610 kJ/mol
# GULP energy per Si atom -12395.476554 kJ/mol
# Density = 1.840257 g / cm^3
# Si number density = 18.444553 Si / 1000 Ang^3
#
#
#
# Elastic Constant Matrix: (Units=GPa)
#
#
# Indices 1 2 3 4 5 6 
#
# 1 125.2622 60.7814 31.6036 0.0000 0.0000 0.0000
# 2 60.7814 130.3733 31.5086 0.0000 0.0000 0.0000
# 3 31.6036 31.5086 48.9019 0.0000 0.0000 0.0000
# 4 0.0000 0.0000 0.0000 12.1211 0.0000 0.0000
# 5 0.0000 0.0000 0.0000 0.0000 4.8076 0.0000
# 6 0.0000 0.0000 0.0000 0.0000 0.0000 29.0037
#
#
#
# Elastic Compliance Matrix: (Units=1/GPa)
#
#
# Indices 1 2 3 4 5 6 
#
# 1 0.011112 -0.004080 -0.004552 0.000000 0.000000 0.000000
# 2 -0.004080 0.010583 -0.004182 0.000000 0.000000 0.000000
# 3 -0.004552 -0.004182 0.026086 0.000000 0.000000 0.000000
# 4 0.000000 0.000000 0.000000 0.082501 0.000000 0.000000
# 5 0.000000 0.000000 0.000000 0.000000 0.208004 0.000000
# 6 0.000000 0.000000 0.000000 0.000000 0.000000 0.034478
#
#
# Mechanical properties :
#
#
# Convention : Reuss Voigt Hill
#
# Bulk Modulus (GPa) = 45.14345 61.36942 53.25643
# Shear Modulus (GPa) = 12.32206 21.22940 16.77573
#
# Velocity S-wave (km/s) = 2.58749 3.39630 3.01910
# Velocity P-wave (km/s) = 5.78404 6.98029 6.41013
#
# Compressibility (1/GPa) = 0.02215161
#
# Stress axis : x y z
#
# Youngs Moduli (GPa) = 89.99618 94.48891 38.33537
#
# Poissons Ratio (x) = 0.38553 0.17450
# Poissons Ratio (y) = 0.36720 0.16032
# Poissons Ratio (z) = 0.40967 0.39517
#
# Static dielectric constant tensor:
#      x y z
#    x 3.512130 0.000000 0.000000 
#    y 0.000000 3.591900 0.000000 
#    z 0.000000 0.000000 2.806850 
# 
# 
# High freq. dielectric constant tensor:
#      x y z
#    x 1.724170 0.000000 0.000000 
#    y 0.000000 1.725430 0.000000 
#    z 0.000000 0.000000 1.644320 
# 
# From -- ./inp_files/13987.got.cif
#   From: 2010.03.12/outbox.cif.g09.slc.cpg/sg47_7_cif.got.tgz:13987.got - 2010.04.14 03:12:58.
