data_PCOD8199315
_publ_section_title
;
Structure prediction by ZEFSAII (Michael W. Deem and Ramdas Pophale) SiO2 
 PCOD8199315
Probable space group: P M M M
;
_chemical_formula_sum "Si O2"
_cell_formula_units_Z 48
_cell_length_a 17.322042
_cell_length_b 15.711819
_cell_length_c 9.078386
_cell_angle_alpha 90.000000
_cell_angle_beta 90.000000
_cell_angle_gamma 90.000000
_cell_volume 2470.780693
_symmetry_space_group_name_H-M "P M M M"
_symmetry_group_IT_number 47
_symmetry_cell_setting 'orthorhombic'
loop_
_space_group_symop_operation_xyz
x,y,z
-x,-y,z
x,-y,-z
-x,y,-z
-x,-y,-z
x,y,-z
-x,y,z
x,-y,z
loop_
_atom_site_type_symbol
_atom_site_label
_atom_site_fract_x
_atom_site_fract_y
_atom_site_fract_z
Si Si1 0.500000 0.858850 0.826154
Si Si2 0.189316 0.403458 0.825731
Si Si3 0.341552 0.400337 0.336809
Si Si4 0.197651 0.098502 0.826981
Si Si5 0.500000 0.684612 0.326964
Si Si6 0.086368 0.751855 0.174947
Si Si7 0.652462 0.903372 0.338494
O O1 0.500000 0.761519 0.784617
O O2 0.424337 0.900715 0.757552
O O3 0.500000 0.874035 0.000000
O O4 0.169733 0.500000 0.768935
O O5 0.272919 0.372061 0.770689
O O6 0.127247 0.334769 0.766315
O O7 0.191661 0.403095 0.000000
O O8 0.322050 0.365868 0.500000
O O9 0.350496 0.500000 0.338068
O O10 0.423498 0.365948 0.282448
O O11 0.129170 0.161349 0.774530
O O12 0.274633 0.135243 0.748495
O O13 0.177412 0.000000 0.786145
O O14 0.212519 0.106581 0.000000
O O15 0.500000 0.709779 0.500000
O O16 0.000000 0.754197 0.240831
O O17 0.083926 0.748649 0.000000
O O18 0.641589 0.858556 0.500000
O O19 0.673810 0.000000 0.366406
#
# Coordination Sequence:
#
# PCOD8199315 Si02
#       7
#     4   8   8   8   4   8   8
#     4  12  25  36  51  78 111 144 179 222 266 310
#     4   9  18  32  51  76 106 139 177 221 268 319
#     4   9  18  34  55  76 101 137 179 222 267 315
#     4   9  18  33  54  80 108 139 177 222 271 321
#     4  10  21  35  51  76 107 141 181 220 262 316
#     4   9  18  32  52  79 108 138 175 221 271 324
#     4  10  21  38  58  78 104 140 180 222 268 318
#
# _framework density 19.427057999999999
#
# number of rings (size 3 to 8) (size 9 to 14) (size 15 to 20)
#    0.000    2.500    0.000    1.750    2.333    4.333 
#    0.000    3.333    0.000    4.500    0.000    4.667 
#    0.000    0.000    0.000    0.000    0.000    0.000 
#
# Total GULP energy -594890.496680 kJ/mol
# GULP energy per Si atom -12393.552014 kJ/mol
# Density = 1.938284 g / cm^3
# Si number density = 19.427058 Si / 1000 Ang^3
#
#
#
# Elastic Constant Matrix: (Units=GPa)
#
#
# Indices 1 2 3 4 5 6 
#
# 1 175.3723 77.0049 40.9994 0.0000 0.0000 0.0000
# 2 77.0049 87.4240 28.0657 0.0000 0.0000 0.0000
# 3 40.9994 28.0657 59.9940 0.0000 0.0000 0.0000
# 4 0.0000 0.0000 0.0000 17.2630 0.0000 0.0000
# 5 0.0000 0.0000 0.0000 0.0000 12.6869 0.0000
# 6 0.0000 0.0000 0.0000 0.0000 0.0000 37.7911
#
#
#
# Elastic Compliance Matrix: (Units=1/GPa)
#
#
# Indices 1 2 3 4 5 6 
#
# 1 0.009771 -0.007605 -0.003120 0.000000 0.000000 0.000000
# 2 -0.007605 0.019379 -0.003869 0.000000 0.000000 0.000000
# 3 -0.003120 -0.003869 0.020610 0.000000 0.000000 0.000000
# 4 0.000000 0.000000 0.000000 0.057927 0.000000 0.000000
# 5 0.000000 0.000000 0.000000 0.000000 0.078821 0.000000
# 6 0.000000 0.000000 0.000000 0.000000 0.000000 0.026461
#
#
# Mechanical properties :
#
#
# Convention : Reuss Voigt Hill
#
# Bulk Modulus (GPa) = 48.60590 68.32561 58.46575
# Shear Modulus (GPa) = 20.07925 25.32956 22.70440
#
# Velocity S-wave (km/s) = 3.21841 3.61477 3.42233
# Velocity P-wave (km/s) = 6.23577 7.25733 6.76586
#
# Compressibility (1/GPa) = 0.02057363
#
# Stress axis : x y z
#
# Youngs Moduli (GPa) = 102.34724 51.60267 48.52010
#
# Poissons Ratio (x) = 0.39242 0.15136
# Poissons Ratio (y) = 0.77832 0.18770
# Poissons Ratio (z) = 0.31929 0.19963
#
# Static dielectric constant tensor:
#      x y z
#    x 3.570660 0.000000 0.000000 
#    y 0.000000 3.702830 0.000000 
#    z 0.000000 0.000000 3.523570 
# 
# 
# High freq. dielectric constant tensor:
#      x y z
#    x 1.757890 0.000000 0.000000 
#    y 0.000000 1.760760 0.000000 
#    z 0.000000 0.000000 1.730550 
# 
# From -- ./inp_files/6476.got.cif
#   From: 2010.03.12/outbox.cif.g09.slc.cpg/sg47_4_cif.got.tgz:6476.got - 2010.04.14 03:12:58.
