data_PCOD8199541
_publ_section_title
;
Structure prediction by ZEFSAII (Michael W. Deem and Ramdas Pophale) SiO2 
 PCOD8199541
Probable space group: P M M M
;
_chemical_formula_sum "Si O2"
_cell_formula_units_Z 40
_cell_length_a 10.375003
_cell_length_b 22.512659
_cell_length_c 9.155683
_cell_angle_alpha 90.000000
_cell_angle_beta 90.000000
_cell_angle_gamma 90.000000
_cell_volume 2138.482850
_symmetry_space_group_name_H-M "P M M M"
_symmetry_group_IT_number 47
_symmetry_cell_setting 'orthorhombic'
loop_
_space_group_symop_operation_xyz
x,y,z
-x,-y,z
x,-y,-z
-x,y,-z
-x,-y,-z
x,y,-z
-x,y,z
x,-y,z
loop_
_atom_site_type_symbol
_atom_site_label
_atom_site_fract_x
_atom_site_fract_y
_atom_site_fract_z
Si Si1 0.153960 0.500000 0.834891
Si Si2 0.847407 0.614182 0.663806
Si Si3 0.000000 0.929976 0.837960
Si Si4 0.642460 0.828505 0.166971
Si Si5 0.148044 0.267000 0.828981
Si Si6 0.253836 0.068086 0.328295
O O1 0.208545 0.441955 0.752335
O O2 0.000000 0.500000 0.835539
O O3 0.207004 0.500000 0.000000
O O4 0.789979 0.614206 0.500000
O O5 0.807266 0.674357 0.744589
O O6 0.000000 0.608912 0.657798
O O7 0.876287 0.909305 0.748676
O O8 0.000000 0.000000 0.853432
O O9 0.000000 0.900400 0.000000
O O10 0.500000 0.799193 0.181372
O O11 0.753564 0.784060 0.222893
O O12 0.638042 0.888135 0.265449
O O13 0.670387 0.846866 0.000000
O O14 0.000000 0.248884 0.790831
O O15 0.162321 0.280135 0.000000
O O16 0.237841 0.075558 0.500000
O O17 0.288389 0.000000 0.288442
#
# Coordination Sequence:
#
# PCOD8199541 Si02
#       6
#     4   8   4   8   8   8
#     4   9  15  23  39  65 100 139 172 205 250 302
#     4   9  16  26  42  68 101 134 169 210 255 303
#     4   9  17  31  53  79 105 133 165 202 249 306
#     4  10  22  38  55  77 104 136 177 222 267 317
#     4   9  18  33  52  73  99 133 173 216 260 309
#     4  10  21  36  54  78 107 136 169 213 266 321
#
# _framework density 18.704851000000001
#
# number of rings (size 3 to 8) (size 9 to 14) (size 15 to 20)
#    0.000    2.600    0.000    1.800    1.400    7.600 
#    0.000    2.000    0.000    0.000    0.000    0.700 
#    0.000    5.600    0.000    0.000    0.000    0.000 
#
# Total GULP energy -495910.079889 kJ/mol
# GULP energy per Si atom -12397.751997 kJ/mol
# Density = 1.866228 g / cm^3
# Si number density = 18.704851 Si / 1000 Ang^3
#
#
#
# Elastic Constant Matrix: (Units=GPa)
#
#
# Indices 1 2 3 4 5 6 
#
# 1 71.1802 50.8654 30.8936 0.0000 0.0000 0.0000
# 2 50.8654 133.7937 69.1017 0.0000 0.0000 0.0000
# 3 30.8936 69.1017 108.9374 0.0000 0.0000 0.0000
# 4 0.0000 0.0000 0.0000 31.5446 0.0000 0.0000
# 5 0.0000 0.0000 0.0000 0.0000 13.9118 0.0000
# 6 0.0000 0.0000 0.0000 0.0000 0.0000 7.9736
#
#
#
# Elastic Compliance Matrix: (Units=1/GPa)
#
#
# Indices 1 2 3 4 5 6 
#
# 1 0.019398 -0.006743 -0.001224 0.000000 0.000000 0.000000
# 2 -0.006743 0.013460 -0.006626 0.000000 0.000000 0.000000
# 3 -0.001224 -0.006626 0.013730 0.000000 0.000000 0.000000
# 4 0.000000 0.000000 0.000000 0.031701 0.000000 0.000000
# 5 0.000000 0.000000 0.000000 0.000000 0.071881 0.000000
# 6 0.000000 0.000000 0.000000 0.000000 0.000000 0.125415
#
#
# Mechanical properties :
#
#
# Convention : Reuss Voigt Hill
#
# Bulk Modulus (GPa) = 57.46227 68.40364 62.93295
# Shear Modulus (GPa) = 16.09942 21.55604 18.82773
#
# Velocity S-wave (km/s) = 2.93697 3.39843 3.17609
# Velocity P-wave (km/s) = 6.50294 7.21446 6.86792
#
# Compressibility (1/GPa) = 0.01740273
#
# Stress axis : x y z
#
# Youngs Moduli (GPa) = 51.55059 74.29669 72.83562
#
# Poissons Ratio (x) = 0.50095 0.08917
# Poissons Ratio (y) = 0.34758 0.48258
# Poissons Ratio (z) = 0.06311 0.49226
#
# Static dielectric constant tensor:
#      x y z
#    x 3.115190 0.000000 0.000000 
#    y 0.000000 3.425650 0.000000 
#    z 0.000000 0.000000 3.537210 
# 
# 
# High freq. dielectric constant tensor:
#      x y z
#    x 1.681230 0.000000 0.000000 
#    y 0.000000 1.724100 0.000000 
#    z 0.000000 0.000000 1.733210 
# 
# From -- ./inp_files/4065.got.cif
#   From: 2010.03.12/outbox.cif.g09.slc.cpg/sg47_3_cif.got.tgz:4065.got - 2010.04.14 03:12:58.
