data_PCOD8199487
_publ_section_title
;
Structure prediction by ZEFSAII (Michael W. Deem and Ramdas Pophale) SiO2 
 PCOD8199487
Probable space group: P M M M
;
_chemical_formula_sum "Si O2"
_cell_formula_units_Z 52
_cell_length_a 27.676350
_cell_length_b 8.131697
_cell_length_c 12.770174
_cell_angle_alpha 90.000000
_cell_angle_beta 90.000000
_cell_angle_gamma 90.000000
_cell_volume 2874.000350
_symmetry_space_group_name_H-M "P M M M"
_symmetry_group_IT_number 47
_symmetry_cell_setting 'orthorhombic'
loop_
_space_group_symop_operation_xyz
x,y,z
-x,-y,z
x,-y,-z
-x,y,-z
-x,-y,-z
x,y,-z
-x,y,z
x,-y,z
loop_
_atom_site_type_symbol
_atom_site_label
_atom_site_fract_x
_atom_site_fract_y
_atom_site_fract_z
Si Si1 0.214838 0.816939 0.000000
Si Si2 0.225123 0.193540 0.618663
Si Si3 0.889625 0.690018 0.000000
Si Si4 0.053511 0.691333 0.195837
Si Si5 0.384022 0.687401 0.876342
Si Si6 0.884497 0.807425 0.618557
Si Si7 0.277160 0.686686 0.183827
Si Si8 0.445771 0.000000 0.875664
O O1 0.246794 0.795809 0.896338
O O2 0.168095 0.702603 0.000000
O O3 0.194284 0.000000 0.000000
O O4 0.238695 0.244369 0.500000
O O5 0.170276 0.247359 0.643844
O O6 0.260639 0.286532 0.697165
O O7 0.231117 0.000000 0.633544
O O8 0.913659 0.771558 0.896352
O O9 0.902521 0.500000 0.000000
O O10 0.048130 0.500000 0.175310
O O11 0.078515 0.715065 0.307297
O O12 0.000000 0.772574 0.195547
O O13 0.401620 0.500000 0.847284
O O14 0.333561 0.730289 0.821211
O O15 0.420659 0.829829 0.836734
O O16 0.376310 0.699416 0.000000
O O17 0.897658 0.758959 0.500000
O O18 0.889889 0.000000 0.636212
O O19 0.268815 0.500000 0.149029
O O20 0.500000 0.000000 0.830118
O O21 0.446443 0.000000 0.000000
#
# Coordination Sequence:
#
# PCOD8199487 Si02
#       8
#     4   8   4   8   8   8   8   4
#     4  12  24  33  51  77 102 135 169 208 253 306
#     4   9  19  35  53  74 102 136 171 209 254 308
#     4  10  21  38  54  70  98 128 159 201 246 301
#     4  10  21  36  54  74  95 123 158 199 249 301
#     4   9  18  31  47  70 105 142 179 225 268 313
#     4   9  19  36  54  72  97 126 158 199 248 301
#     4  11  21  33  50  75 106 139 176 214 256 309
#     4   9  18  30  48  72 101 143 189 227 266 314
#
# _framework density 18.093247999999999
#
# number of rings (size 3 to 8) (size 9 to 14) (size 15 to 20)
#    0.000    2.231    0.769    3.231    2.154    6.154 
#    0.000    4.615    0.000    1.385    0.000    0.000 
#    0.000    1.231    0.000    3.385    0.000    0.154 
#
# Total GULP energy -644702.654784 kJ/mol
# GULP energy per Si atom -12398.127977 kJ/mol
# Density = 1.805207 g / cm^3
# Si number density = 18.093248 Si / 1000 Ang^3
#
#
#
# Elastic Constant Matrix: (Units=GPa)
#
#
# Indices 1 2 3 4 5 6 
#
# 1 130.7889 48.1022 55.2335 0.0000 0.0000 0.0000
# 2 48.1022 63.1971 23.9671 0.0000 0.0000 0.0000
# 3 55.2335 23.9671 89.3100 0.0000 0.0000 0.0000
# 4 0.0000 0.0000 0.0000 19.3220 0.0000 0.0000
# 5 0.0000 0.0000 0.0000 0.0000 15.7272 0.0000
# 6 0.0000 0.0000 0.0000 0.0000 0.0000 23.6381
#
#
#
# Elastic Compliance Matrix: (Units=1/GPa)
#
#
# Indices 1 2 3 4 5 6 
#
# 1 0.012967 -0.007602 -0.005979 0.000000 0.000000 0.000000
# 2 -0.007602 0.022073 -0.001222 0.000000 0.000000 0.000000
# 3 -0.005979 -0.001222 0.015223 0.000000 0.000000 0.000000
# 4 0.000000 0.000000 0.000000 0.051755 0.000000 0.000000
# 5 0.000000 0.000000 0.000000 0.000000 0.063584 0.000000
# 6 0.000000 0.000000 0.000000 0.000000 0.000000 0.042305
#
#
# Mechanical properties :
#
#
# Convention : Reuss Voigt Hill
#
# Bulk Modulus (GPa) = 48.41180 59.76684 54.08932
# Shear Modulus (GPa) = 20.45837 22.13699 21.29768
#
# Velocity S-wave (km/s) = 3.36626 3.50164 3.43462
# Velocity P-wave (km/s) = 6.47487 7.03229 6.75933
#
# Compressibility (1/GPa) = 0.02065612
#
# Stress axis : x y z
#
# Youngs Moduli (GPa) = 77.11888 45.30355 65.69110
#
# Poissons Ratio (x) = 0.34441 0.39279
# Poissons Ratio (y) = 0.58627 0.08028
# Poissons Ratio (z) = 0.46112 0.05536
#
# Static dielectric constant tensor:
#      x y z
#    x 3.336260 0.000000 0.000000 
#    y 0.000000 3.310590 0.000000 
#    z 0.000000 0.000000 3.302330 
# 
# 
# High freq. dielectric constant tensor:
#      x y z
#    x 1.688610 0.000000 0.000000 
#    y 0.000000 1.699570 0.000000 
#    z 0.000000 0.000000 1.683010 
# 
# From -- ./inp_files/15522.got.cif
#   From: 2010.03.12/outbox.cif.g09.slc.cpg/sg47_8_cif.got.tgz:15522.got - 2010.04.14 03:12:58.
