data_PCOD8199753
_publ_section_title
;
Structure prediction by ZEFSAII (Michael W. Deem and Ramdas Pophale) SiO2 
 PCOD8199753
Probable space group: P M M M
;
_chemical_formula_sum "Si O2"
_cell_formula_units_Z 48
_cell_length_a 32.469270
_cell_length_b 9.265845
_cell_length_c 7.943174
_cell_angle_alpha 90.000000
_cell_angle_beta 90.000000
_cell_angle_gamma 90.000000
_cell_volume 2389.745386
_symmetry_space_group_name_H-M "P M M M"
_symmetry_group_IT_number 47
_symmetry_cell_setting 'orthorhombic'
loop_
_space_group_symop_operation_xyz
x,y,z
-x,-y,z
x,-y,-z
-x,y,-z
-x,-y,-z
x,y,-z
-x,y,z
x,-y,z
loop_
_atom_site_type_symbol
_atom_site_label
_atom_site_fract_x
_atom_site_fract_y
_atom_site_fract_z
Si Si1 0.500000 0.162747 0.700649
Si Si2 0.182242 0.341242 0.193646
Si Si3 0.421627 0.665039 0.302090
Si Si4 0.045900 0.170881 0.500000
Si Si5 0.257836 0.161878 0.692153
Si Si6 0.103084 0.169711 0.804918
Si Si7 0.667266 0.663923 0.193439
O O1 0.500000 0.170775 0.500000
O O2 0.459190 0.240825 0.770666
O O3 0.500000 0.000000 0.767692
O O4 0.184172 0.500000 0.281773
O O5 0.225227 0.259297 0.211019
O O6 0.144374 0.247087 0.263081
O O7 0.173642 0.365285 0.000000
O O8 0.416485 0.686305 0.500000
O O9 0.431186 0.500000 0.255206
O O10 0.379530 0.718042 0.215432
O O11 0.067905 0.221221 0.673861
O O12 0.000000 0.237767 0.500000
O O13 0.043706 0.000000 0.500000
O O14 0.244015 0.155877 0.500000
O O15 0.302960 0.231494 0.703717
O O16 0.258729 0.000000 0.768742
O O17 0.111230 0.000000 0.790556
O O18 0.091403 0.209457 0.000000
O O19 0.671274 0.500000 0.262723
O O20 0.680307 0.671080 0.000000
#
# Coordination Sequence:
#
# PCOD8199753 Si02
#       7
#     4   8   8   4   8   8   8
#     4   9  17  29  48  75 102 128 164 213 262 307
#     4  10  21  37  57  81 109 142 181 226 275 327
#     4   9  17  31  52  75 100 132 169 209 256 312
#     4   9  18  32  53  83 115 147 189 239 285 336
#     4  11  24  38  54  79 109 141 178 220 266 319
#     4   9  18  33  54  80 112 149 187 232 285 336
#     4  10  21  37  56  78 105 138 176 218 265 317
#
# _framework density 20.085823000000001
#
# number of rings (size 3 to 8) (size 9 to 14) (size 15 to 20)
#    0.000    2.333    0.000    2.250    1.167    7.333 
#    0.000    3.750    0.000    3.500    0.000    2.333 
#    0.000    0.000    0.000    0.000    0.000    0.000 
#
# Total GULP energy -595126.101631 kJ/mol
# GULP energy per Si atom -12398.460451 kJ/mol
# Density = 2.004011 g / cm^3
# Si number density = 20.085823 Si / 1000 Ang^3
#
#
#
# Elastic Constant Matrix: (Units=GPa)
#
#
# Indices 1 2 3 4 5 6 
#
# 1 155.6529 73.7205 33.6014 0.0000 0.0000 0.0000
# 2 73.7205 112.2296 23.4520 0.0000 0.0000 0.0000
# 3 33.6014 23.4520 54.6458 0.0000 0.0000 0.0000
# 4 0.0000 0.0000 0.0000 14.9190 0.0000 0.0000
# 5 0.0000 0.0000 0.0000 0.0000 30.4890 0.0000
# 6 0.0000 0.0000 0.0000 0.0000 0.0000 26.0397
#
#
#
# Elastic Compliance Matrix: (Units=1/GPa)
#
#
# Indices 1 2 3 4 5 6 
#
# 1 0.009943 -0.005771 -0.003637 0.000000 0.000000 0.000000
# 2 -0.005771 0.013138 -0.002090 0.000000 0.000000 0.000000
# 3 -0.003637 -0.002090 0.021433 0.000000 0.000000 0.000000
# 4 0.000000 0.000000 0.000000 0.067029 0.000000 0.000000
# 5 0.000000 0.000000 0.000000 0.000000 0.032799 0.000000
# 6 0.000000 0.000000 0.000000 0.000000 0.000000 0.038403
#
#
# Mechanical properties :
#
#
# Convention : Reuss Voigt Hill
#
# Bulk Modulus (GPa) = 46.47292 64.89735 55.68513
# Shear Modulus (GPa) = 23.48375 27.07316 25.27846
#
# Velocity S-wave (km/s) = 3.42302 3.67532 3.55141
# Velocity P-wave (km/s) = 6.22978 7.09865 6.67836
#
# Compressibility (1/GPa) = 0.02151791
#
# Stress axis : x y z
#
# Youngs Moduli (GPa) = 100.57180 76.11514 46.65728
#
# Poissons Ratio (x) = 0.43929 0.16970
# Poissons Ratio (y) = 0.58043 0.09749
# Poissons Ratio (z) = 0.36579 0.15905
#
# Static dielectric constant tensor:
#      x y z
#    x 3.728220 0.000000 0.000000 
#    y 0.000000 3.777510 0.000000 
#    z 0.000000 0.000000 3.506590 
# 
# 
# High freq. dielectric constant tensor:
#      x y z
#    x 1.786210 0.000000 0.000000 
#    y 0.000000 1.772470 0.000000 
#    z 0.000000 0.000000 1.772390 
# 
# From -- ./inp_files/13847.got.cif
#   From: 2010.03.12/outbox.cif.g09.slc.cpg/sg47_7_cif.got.tgz:13847.got - 2010.04.14 03:12:58.
