data_PCOD8199838
_publ_section_title
;
Structure prediction by ZEFSAII (Michael W. Deem and Ramdas Pophale) SiO2 
 PCOD8199838
Probable space group: P M M M
;
_chemical_formula_sum "Si O2"
_cell_formula_units_Z 56
_cell_length_a 19.945493
_cell_length_b 9.400243
_cell_length_c 14.266213
_cell_angle_alpha 90.000000
_cell_angle_beta 90.000000
_cell_angle_gamma 90.000000
_cell_volume 2674.807669
_symmetry_space_group_name_H-M "P M M M"
_symmetry_group_IT_number 47
_symmetry_cell_setting 'orthorhombic'
loop_
_space_group_symop_operation_xyz
x,y,z
-x,-y,z
x,-y,-z
-x,y,-z
-x,-y,-z
x,y,-z
-x,y,z
x,-y,z
loop_
_atom_site_type_symbol
_atom_site_label
_atom_site_fract_x
_atom_site_fract_y
_atom_site_fract_z
Si Si1 0.197471 0.339737 0.388275
Si Si2 0.803624 0.159569 0.888210
Si Si3 0.074340 0.159540 0.388491
Si Si4 0.925885 0.659335 0.888493
Si Si5 0.674608 0.836896 0.389087
Si Si6 0.322689 0.336860 0.893672
Si Si7 0.422710 0.663715 0.268177
O O1 0.196039 0.340578 0.500000
O O2 0.203421 0.500000 0.348984
O O3 0.129533 0.268415 0.347816
O O4 0.260420 0.248261 0.351972
O O5 0.870153 0.234593 0.846349
O O6 0.738097 0.243069 0.853004
O O7 0.800818 0.000000 0.848902
O O8 0.805946 0.161902 0.000000
O O9 0.077756 0.159755 0.500000
O O10 0.000000 0.208343 0.355540
O O11 0.089839 0.000000 0.352330
O O12 0.912010 0.500000 0.851394
O O13 0.000000 0.711007 0.856502
O O14 0.921791 0.659297 0.000000
O O15 0.668447 0.826930 0.500000
O O16 0.608476 0.764934 0.346924
O O17 0.680451 0.000000 0.355952
O O18 0.299183 0.500000 0.888603
O O19 0.388237 0.308011 0.831955
O O20 0.340932 0.293480 0.000000
O O21 0.500000 0.704366 0.256712
O O22 0.413394 0.500000 0.299601
#
# Coordination Sequence:
#
# PCOD8199838 Si02
#       7
#     8   8   8   8   8   8   8
#     4   9  16  26  43  68  98 133 175 223 270 314
#     4   9  16  25  40  65  97 133 174 219 263 307
#     4   8  13  21  34  56  91 134 176 218 264 313
#     4   8  13  21  34  55  87 128 172 217 264 312
#     4  10  21  37  57  80 108 144 183 221 264 318
#     4   9  18  34  56  80 108 143 179 215 259 314
#     4  10  22  39  59  85 113 139 172 216 265 317
#
# _framework density 20.936084000000001
#
# number of rings (size 3 to 8) (size 9 to 14) (size 15 to 20)
#    0.000    3.000    0.000    2.143    0.000    6.286 
#    0.000    5.714    0.000    0.000    0.000    4.000 
#    0.000    1.143    0.000    0.000    0.000    0.000 
#
# Total GULP energy -694354.756750 kJ/mol
# GULP energy per Si atom -12399.192085 kJ/mol
# Density = 2.088843 g / cm^3
# Si number density = 20.936084 Si / 1000 Ang^3
#
#
#
# Elastic Constant Matrix: (Units=GPa)
#
#
# Indices 1 2 3 4 5 6 
#
# 1 200.3478 112.4434 27.1807 0.0000 0.0000 0.0000
# 2 112.4434 164.1712 31.3985 0.0000 0.0000 0.0000
# 3 27.1807 31.3985 28.2920 0.0000 0.0000 0.0000
# 4 0.0000 0.0000 0.0000 15.7340 0.0000 0.0000
# 5 0.0000 0.0000 0.0000 0.0000 -30.2899 0.0000
# 6 0.0000 0.0000 0.0000 0.0000 0.0000 32.9227
#
#
#
# Elastic Compliance Matrix: (Units=1/GPa)
#
#
# Indices 1 2 3 4 5 6 
#
# 1 0.008204 -0.005220 -0.002089 0.000000 0.000000 0.000000
# 2 -0.005220 0.011053 -0.007252 0.000000 0.000000 0.000000
# 3 -0.002089 -0.007252 0.045402 0.000000 0.000000 0.000000
# 4 0.000000 0.000000 0.000000 0.063557 0.000000 0.000000
# 5 0.000000 0.000000 0.000000 0.000000 -0.033014 0.000000
# 6 0.000000 0.000000 0.000000 0.000000 0.000000 0.030374
#
#
# Mechanical properties :
#
#
# Convention : Reuss Voigt Hill
#
# Bulk Modulus (GPa) = 28.13993 81.65066 54.89530
# Shear Modulus (GPa) = 30.02217 18.45924 24.24070
#
# Velocity S-wave (km/s) = 3.79092 2.97256 3.40640
# Velocity P-wave (km/s) = 5.71239 7.13205 6.46133
#
# Compressibility (1/GPa) = 0.03553669
#
# Stress axis : x y z
#
# Youngs Moduli (GPa) = 121.88838 90.47121 22.02570
#
# Poissons Ratio (x) = 0.47223 0.04602
# Poissons Ratio (y) = 0.63621 0.15974
# Poissons Ratio (z) = 0.25465 0.65612
#
# Static dielectric constant tensor:
#      x y z
#    x 3.880270 0.000000 0.000000 
#    y 0.000000 3.944560 0.000000 
#    z 0.000000 0.000000 3.350960 
# 
# 
# High freq. dielectric constant tensor:
#      x y z
#    x 1.817970 0.000000 0.000000 
#    y 0.000000 1.818410 0.000000 
#    z 0.000000 0.000000 1.797970 
# 
# From -- ./inp_files/25120.got.cif
#   From: 2010.03.12/outbox.cif.g09.slc.cpg/sg47_13_cif.got.tgz:25120.got - 2010.04.14 03:12:58.
