data_PCOD8199410
_publ_section_title
;
Structure prediction by ZEFSAII (Michael W. Deem and Ramdas Pophale) SiO2 
 PCOD8199410
Probable space group: P M M M
;
_chemical_formula_sum "Si O2"
_cell_formula_units_Z 48
_cell_length_a 32.679617
_cell_length_b 8.025469
_cell_length_c 9.453843
_cell_angle_alpha 90.000000
_cell_angle_beta 90.000000
_cell_angle_gamma 90.000000
_cell_volume 2479.452343
_symmetry_space_group_name_H-M "P M M M"
_symmetry_group_IT_number 47
_symmetry_cell_setting 'orthorhombic'
loop_
_space_group_symop_operation_xyz
x,y,z
-x,-y,z
x,-y,-z
-x,y,-z
-x,-y,-z
x,y,-z
-x,y,z
x,-y,z
loop_
_atom_site_type_symbol
_atom_site_label
_atom_site_fract_x
_atom_site_fract_y
_atom_site_fract_z
Si Si1 0.500000 0.193795 0.835025
Si Si2 0.662589 0.309951 0.342606
Si Si3 0.411972 0.805039 0.165660
Si Si4 0.954456 0.000000 0.332797
Si Si5 0.821017 0.691919 0.155930
Si Si6 0.101662 0.306147 0.333861
Si Si7 0.748762 0.809720 0.339894
O O1 0.456464 0.264032 0.776438
O O2 0.500000 0.000000 0.803367
O O3 0.500000 0.227957 0.000000
O O4 0.650286 0.249317 0.500000
O O5 0.676605 0.500000 0.343302
O O6 0.623832 0.291521 0.242560
O O7 0.701787 0.206649 0.287518
O O8 0.407847 0.000000 0.197823
O O9 0.408065 0.769140 0.000000
O O10 0.932858 0.826545 0.284796
O O11 0.956892 0.000000 0.500000
O O12 0.000000 0.000000 0.266520
O O13 0.828852 0.500000 0.132229
O O14 0.857878 0.758227 0.253128
O O15 0.777837 0.712787 0.233303
O O16 0.820669 0.779148 0.000000
O O17 0.110756 0.290512 0.500000
O O18 0.089456 0.500000 0.297754
O O19 0.752623 0.737632 0.500000
O O20 0.762343 0.000000 0.336405
#
# Coordination Sequence:
#
# PCOD8199410 Si02
#       7
#     4   8   8   4   8   8   8
#     4   7  12  26  48  73  98 124 158 201 248 297
#     4  10  21  36  52  71  99 135 170 205 250 304
#     4   9  17  31  53  77  99 126 163 207 252 300
#     4   9  18  32  53  83 113 141 183 235 277 320
#     4  10  21  36  54  78 108 140 174 216 264 313
#     4   9  18  33  54  79 109 146 184 224 273 325
#     4  10  21  36  55  77 100 131 172 215 258 308
#
# _framework density 19.359114000000002
#
# number of rings (size 3 to 8) (size 9 to 14) (size 15 to 20)
#    0.000    2.667    0.000    2.500    1.167    4.333 
#    0.000    2.500    0.000    5.000    0.000    2.333 
#    0.000    0.000    0.000    0.000    0.000    0.000 
#
# Total GULP energy -594760.520960 kJ/mol
# GULP energy per Si atom -12390.844187 kJ/mol
# Density = 1.931505 g / cm^3
# Si number density = 19.359114 Si / 1000 Ang^3
#
#
#
# Elastic Constant Matrix: (Units=GPa)
#
#
# Indices 1 2 3 4 5 6 
#
# 1 156.6883 35.2750 59.5674 0.0000 0.0000 0.0000
# 2 35.2750 57.9720 22.2859 0.0000 0.0000 0.0000
# 3 59.5674 22.2859 70.3216 0.0000 0.0000 0.0000
# 4 0.0000 0.0000 0.0000 16.6474 0.0000 0.0000
# 5 0.0000 0.0000 0.0000 0.0000 6.3619 0.0000
# 6 0.0000 0.0000 0.0000 0.0000 0.0000 29.1171
#
#
#
# Elastic Compliance Matrix: (Units=1/GPa)
#
#
# Indices 1 2 3 4 5 6 
#
# 1 0.009906 -0.003191 -0.007380 0.000000 0.000000 0.000000
# 2 -0.003191 0.020670 -0.003848 0.000000 0.000000 0.000000
# 3 -0.007380 -0.003848 0.021691 0.000000 0.000000 0.000000
# 4 0.000000 0.000000 0.000000 0.060069 0.000000 0.000000
# 5 0.000000 0.000000 0.000000 0.000000 0.157186 0.000000
# 6 0.000000 0.000000 0.000000 0.000000 0.000000 0.034344
#
#
# Mechanical properties :
#
#
# Convention : Reuss Voigt Hill
#
# Bulk Modulus (GPa) = 42.67958 57.69317 50.18637
# Shear Modulus (GPa) = 14.68366 21.61551 18.14958
#
# Velocity S-wave (km/s) = 2.75705 3.34511 3.06522
# Velocity P-wave (km/s) = 5.67708 6.69223 6.20545
#
# Compressibility (1/GPa) = 0.02343041
#
# Stress axis : x y z
#
# Youngs Moduli (GPa) = 100.94907 48.37830 46.10159
#
# Poissons Ratio (x) = 0.15436 0.34023
# Poissons Ratio (y) = 0.32209 0.17740
# Poissons Ratio (z) = 0.74500 0.18616
#
# Static dielectric constant tensor:
#      x y z
#    x 3.726240 0.000000 0.000000 
#    y 0.000000 3.454400 0.000000 
#    z 0.000000 0.000000 3.482220 
# 
# 
# High freq. dielectric constant tensor:
#      x y z
#    x 1.760870 0.000000 0.000000 
#    y 0.000000 1.744360 0.000000 
#    z 0.000000 0.000000 1.725160 
# 
# From -- ./inp_files/13895.got.cif
#   From: 2010.03.12/outbox.cif.g09.slc.cpg/sg47_7_cif.got.tgz:13895.got - 2010.04.14 03:12:58.
