data_PCOD8199654
_publ_section_title
;
Structure prediction by ZEFSAII (Michael W. Deem and Ramdas Pophale) SiO2 
 PCOD8199654
Probable space group: P M M M
;
_chemical_formula_sum "Si O2"
_cell_formula_units_Z 44
_cell_length_a 17.576970
_cell_length_b 14.699150
_cell_length_c 8.809350
_cell_angle_alpha 90.000000
_cell_angle_beta 90.000000
_cell_angle_gamma 90.000000
_cell_volume 2276.041090
_symmetry_space_group_name_H-M "P M M M"
_symmetry_group_IT_number 47
_symmetry_cell_setting 'orthorhombic'
loop_
_space_group_symop_operation_xyz
x,y,z
-x,-y,z
x,-y,-z
-x,y,-z
-x,-y,-z
x,y,-z
-x,y,z
x,-y,z
loop_
_atom_site_type_symbol
_atom_site_label
_atom_site_fract_x
_atom_site_fract_y
_atom_site_fract_z
Si Si1 0.500000 0.102951 0.680437
Si Si2 0.199061 0.141728 0.829404
Si Si3 0.691927 0.401136 0.321101
Si Si4 0.348867 0.202676 0.319231
Si Si5 0.088745 0.000000 0.680198
Si Si6 0.000000 0.394132 0.832403
Si Si7 0.841068 0.650824 0.828868
O O1 0.500000 0.100457 0.500000
O O2 0.573645 0.157150 0.739922
O O3 0.500000 0.000000 0.745056
O O4 0.280651 0.140445 0.745412
O O5 0.134007 0.087320 0.740859
O O6 0.172178 0.243532 0.833716
O O7 0.208602 0.102505 0.000000
O O8 0.688518 0.396961 0.500000
O O9 0.656226 0.500000 0.267646
O O10 0.651586 0.308568 0.258405
O O11 0.779119 0.401496 0.269724
O O12 0.342316 0.201105 0.500000
O O13 0.091293 0.000000 0.500000
O O14 0.000000 0.000000 0.735770
O O15 0.922877 0.363721 0.747652
O O16 0.000000 0.500000 0.848573
O O17 0.000000 0.347849 0.000000
O O18 0.840207 0.609963 0.000000
#
# Coordination Sequence:
#
# PCOD8199654 Si02
#       7
#     4   8   8   8   4   4   8
#     4   9  18  32  54  82 106 137 180 226 273 325
#     4  10  21  36  56  80 107 139 177 222 273 321
#     4   9  17  30  48  71 102 138 173 214 265 316
#     4   9  18  34  55  79 109 142 180 222 267 326
#     4  11  25  41  57  78 105 142 187 225 266 319
#     4   9  16  26  43  68  95 124 164 211 253 297
#     4   9  18  31  49  71  97 132 172 214 262 315
#
# _framework density 19.331813
#
# number of rings (size 3 to 8) (size 9 to 14) (size 15 to 20)
#    0.000    2.636    0.000    1.364    2.545    2.545 
#    0.000    1.364    0.000    4.909    0.000    0.000 
#    0.000    5.818    0.000    0.000    0.000    0.000 
#
# Total GULP energy -545113.457807 kJ/mol
# GULP energy per Si atom -12388.942223 kJ/mol
# Density = 1.928781 g / cm^3
# Si number density = 19.331813 Si / 1000 Ang^3
#
#
#
# Elastic Constant Matrix: (Units=GPa)
#
#
# Indices 1 2 3 4 5 6 
#
# 1 158.9573 67.3766 22.0231 0.0000 0.0000 0.0000
# 2 67.3766 109.2804 22.7592 0.0000 0.0000 0.0000
# 3 22.0231 22.7592 30.0978 0.0000 0.0000 0.0000
# 4 0.0000 0.0000 0.0000 11.9266 0.0000 0.0000
# 5 0.0000 0.0000 0.0000 0.0000 19.4474 0.0000
# 6 0.0000 0.0000 0.0000 0.0000 0.0000 16.6108
#
#
#
# Elastic Compliance Matrix: (Units=1/GPa)
#
#
# Indices 1 2 3 4 5 6 
#
# 1 0.008703 -0.004795 -0.002743 0.000000 0.000000 0.000000
# 2 -0.004795 0.013503 -0.006702 0.000000 0.000000 0.000000
# 3 -0.002743 -0.006702 0.040300 0.000000 0.000000 0.000000
# 4 0.000000 0.000000 0.000000 0.083846 0.000000 0.000000
# 5 0.000000 0.000000 0.000000 0.000000 0.051421 0.000000
# 6 0.000000 0.000000 0.000000 0.000000 0.000000 0.060202
#
#
# Mechanical properties :
#
#
# Convention : Reuss Voigt Hill
#
# Bulk Modulus (GPa) = 29.38852 58.07260 43.73056
# Shear Modulus (GPa) = 16.79004 22.00875 19.39940
#
# Velocity S-wave (km/s) = 2.95026 3.37779 3.17124
# Velocity P-wave (km/s) = 5.18079 6.73184 6.00659
#
# Compressibility (1/GPa) = 0.03402689
#
# Stress axis : x y z
#
# Youngs Moduli (GPa) = 114.89818 74.05871 24.81404
#
# Poissons Ratio (x) = 0.35510 0.06806
# Poissons Ratio (y) = 0.55092 0.16630
# Poissons Ratio (z) = 0.31513 0.49634
#
# Static dielectric constant tensor:
#      x y z
#    x 3.534660 0.000000 0.000000 
#    y 0.000000 4.158830 0.000000 
#    z 0.000000 0.000000 3.456020 
# 
# 
# High freq. dielectric constant tensor:
#      x y z
#    x 1.745460 0.000000 0.000000 
#    y 0.000000 1.767870 0.000000 
#    z 0.000000 0.000000 1.720910 
# 
# From -- ./inp_files/9089.got.cif
#   From: 2010.03.12/outbox.cif.g09.slc.cpg/sg47_5_cif.got.tgz:9089.got - 2010.04.14 03:12:58.
