data_PCOD8199308
_publ_section_title
;
Structure prediction by ZEFSAII (Michael W. Deem and Ramdas Pophale) SiO2 
 PCOD8199308
Probable space group: P M M M
;
_chemical_formula_sum "Si O2"
_cell_formula_units_Z 40
_cell_length_a 9.485981
_cell_length_b 7.949672
_cell_length_c 27.344172
_cell_angle_alpha 90.000000
_cell_angle_beta 90.000000
_cell_angle_gamma 90.000000
_cell_volume 2062.035975
_symmetry_space_group_name_H-M "P M M M"
_symmetry_group_IT_number 47
_symmetry_cell_setting 'orthorhombic'
loop_
_space_group_symop_operation_xyz
x,y,z
-x,-y,z
x,-y,-z
-x,y,-z
-x,-y,-z
x,y,-z
-x,y,z
x,-y,z
loop_
_atom_site_type_symbol
_atom_site_label
_atom_site_fract_x
_atom_site_fract_y
_atom_site_fract_z
Si Si1 0.334598 0.695579 0.877282
Si Si2 0.333386 0.000000 0.945624
Si Si3 0.844445 0.694140 0.214535
Si Si4 0.659689 0.801679 0.697411
Si Si5 0.655067 0.801686 0.411751
Si Si6 0.153973 0.304718 0.500000
O O1 0.500000 0.713211 0.866220
O O2 0.299138 0.500000 0.891460
O O3 0.253172 0.761993 0.829234
O O4 0.285606 0.825924 0.919396
O O5 0.500000 0.000000 0.948938
O O6 0.266735 0.000000 0.000000
O O7 0.866064 0.500000 0.205196
O O8 0.769799 0.718132 0.266337
O O9 0.000000 0.781225 0.214328
O O10 0.500000 0.744366 0.709901
O O11 0.699315 0.741003 0.642526
O O12 0.672926 0.000000 0.702341
O O13 0.500000 0.728556 0.425019
O O14 0.766858 0.744372 0.451004
O O15 0.645471 0.000000 0.411799
O O16 0.133257 0.500000 0.500000
O O17 0.000000 0.216755 0.500000
#
# Coordination Sequence:
#
# PCOD8199308 Si02
#       6
#     8   4   8   8   8   4
#     4   9  18  33  53  77 107 144 183 224 273 326
#     4   9  18  32  53  83 111 137 179 232 279 322
#     4  10  21  35  51  75 108 143 177 216 263 314
#     4   9  19  35  55  79 105 133 169 215 264 314
#     4   9  19  37  58  78 100 130 171 216 261 312
#     4  11  24  37  50  74 106 137 170 211 260 312
#
# _framework density 19.398302999999999
#
# number of rings (size 3 to 8) (size 9 to 14) (size 15 to 20)
#    0.000    2.600    0.000    2.400    1.400    6.000 
#    0.000    8.000    0.000    1.200    0.000    2.800 
#    0.000    0.000    0.000    0.000    0.000    0.000 
#
# Total GULP energy -495740.211103 kJ/mol
# GULP energy per Si atom -12393.505278 kJ/mol
# Density = 1.935415 g / cm^3
# Si number density = 19.398303 Si / 1000 Ang^3
#
#
#
# Elastic Constant Matrix: (Units=GPa)
#
#
# Indices 1 2 3 4 5 6 
#
# 1 117.1661 27.3198 86.5520 0.0000 0.0000 0.0000
# 2 27.3198 54.8395 42.9401 0.0000 0.0000 0.0000
# 3 86.5520 42.9401 168.4820 0.0000 0.0000 0.0000
# 4 0.0000 0.0000 0.0000 89.3531 0.0000 0.0000
# 5 0.0000 0.0000 0.0000 0.0000 0.9968 0.0000
# 6 0.0000 0.0000 0.0000 0.0000 0.0000 19.3740
#
#
#
# Elastic Compliance Matrix: (Units=1/GPa)
#
#
# Indices 1 2 3 4 5 6 
#
# 1 0.013875 -0.001663 -0.006704 0.000000 0.000000 0.000000
# 2 -0.001663 0.022981 -0.005003 0.000000 0.000000 0.000000
# 3 -0.006704 -0.005003 0.010654 0.000000 0.000000 0.000000
# 4 0.000000 0.000000 0.000000 0.011192 0.000000 0.000000
# 5 0.000000 0.000000 0.000000 0.000000 1.003180 0.000000
# 6 0.000000 0.000000 0.000000 0.000000 0.000000 0.051615
#
#
# Mechanical properties :
#
#
# Convention : Reuss Voigt Hill
#
# Bulk Modulus (GPa) = 48.14458 72.67904 60.41181
# Shear Modulus (GPa) = 4.35859 34.18983 19.27421
#
# Velocity S-wave (km/s) = 1.50059 4.20279 3.15557
# Velocity P-wave (km/s) = 5.27970 7.81660 6.66988
#
# Compressibility (1/GPa) = 0.02077077
#
# Stress axis : x y z
#
# Youngs Moduli (GPa) = 72.07237 43.51491 93.85870
#
# Poissons Ratio (x) = 0.07236 0.62923
# Poissons Ratio (y) = 0.11985 0.46955
# Poissons Ratio (z) = 0.48317 0.21769
#
# Static dielectric constant tensor:
#      x y z
#    x 3.243020 0.000000 0.000000 
#    y 0.000000 3.479580 0.000000 
#    z 0.000000 0.000000 3.618960 
# 
# 
# High freq. dielectric constant tensor:
#      x y z
#    x 1.743320 0.000000 0.000000 
#    y 0.000000 1.748350 0.000000 
#    z 0.000000 0.000000 1.756820 
# 
# From -- ./inp_files/1690.got.cif
#   From: 2010.03.12/outbox.cif.g09.slc.cpg/sg47_1_cif.got.tgz:1690.got - 2010.04.14 03:12:58.
