data_PCOD8199663
_publ_section_title
;
Structure prediction by ZEFSAII (Michael W. Deem and Ramdas Pophale) SiO2 
 PCOD8199663
Probable space group: P M M M
;
_chemical_formula_sum "Si O2"
_cell_formula_units_Z 40
_cell_length_a 9.050540
_cell_length_b 7.929804
_cell_length_c 27.135099
_cell_angle_alpha 90.000000
_cell_angle_beta 90.000000
_cell_angle_gamma 90.000000
_cell_volume 1947.459145
_symmetry_space_group_name_H-M "P M M M"
_symmetry_group_IT_number 47
_symmetry_cell_setting 'orthorhombic'
loop_
_space_group_symop_operation_xyz
x,y,z
-x,-y,z
x,-y,-z
-x,y,-z
-x,-y,-z
x,y,-z
-x,y,z
x,-y,z
loop_
_atom_site_type_symbol
_atom_site_label
_atom_site_fract_x
_atom_site_fract_y
_atom_site_fract_z
Si Si1 0.173908 0.190384 0.000000
Si Si2 0.674608 0.698225 0.613134
Si Si3 0.838718 0.306916 0.709592
Si Si4 0.665031 0.306365 0.904992
Si Si5 0.830181 0.000000 0.441768
Si Si6 0.333329 0.192163 0.199018
O O1 0.230369 0.281447 0.048651
O O2 0.000000 0.202150 0.000000
O O3 0.231921 0.000000 0.000000
O O4 0.500000 0.724575 0.610757
O O5 0.713836 0.500000 0.601888
O O6 0.729527 0.760050 0.667107
O O7 0.751449 0.826217 0.575144
O O8 0.865107 0.500000 0.698518
O O9 0.769378 0.291583 0.763572
O O10 0.000000 0.215598 0.707667
O O11 0.500000 0.242496 0.918578
O O12 0.663004 0.500000 0.890176
O O13 0.726622 0.208542 0.857000
O O14 0.822064 0.000000 0.500000
O O15 0.000000 0.000000 0.423201
O O16 0.500000 0.265710 0.201100
O O17 0.330268 0.000000 0.215746
#
# Coordination Sequence:
#
# PCOD8199663 Si02
#       6
#     4   8   8   8   4   8
#     4  11  24  39  56  80 110 143 180 227 284 346
#     4  10  22  41  66  94 126 167 215 266 316 370
#     4  10  21  37  58  85 118 157 198 242 297 359
#     4  10  21  38  60  83 107 141 187 235 284 343
#     4  11  25  43  65  95 131 171 213 260 317 378
#     4  10  21  36  56  83 114 149 189 235 288 346
#
# _framework density 20.539583
#
# number of rings (size 3 to 8) (size 9 to 14) (size 15 to 20)
#    0.000    1.800    0.000    3.300    1.400    8.800 
#    0.000    2.000    0.000    0.000    0.000    0.000 
#    0.000    0.000    0.000    0.000    0.000    0.000 
#
# Total GULP energy -495916.047700 kJ/mol
# GULP energy per Si atom -12397.901192 kJ/mol
# Density = 2.049283 g / cm^3
# Si number density = 20.539583 Si / 1000 Ang^3
#
#
#
# Elastic Constant Matrix: (Units=GPa)
#
#
# Indices 1 2 3 4 5 6 
#
# 1 121.7595 42.3861 60.4935 0.0000 0.0000 0.0000
# 2 42.3861 75.2389 30.9901 0.0000 0.0000 0.0000
# 3 60.4935 30.9901 120.1162 0.0000 0.0000 0.0000
# 4 0.0000 0.0000 0.0000 34.8479 0.0000 0.0000
# 5 0.0000 0.0000 0.0000 0.0000 8.0998 0.0000
# 6 0.0000 0.0000 0.0000 0.0000 0.0000 25.2468
#
#
#
# Elastic Compliance Matrix: (Units=1/GPa)
#
#
# Indices 1 2 3 4 5 6 
#
# 1 0.012402 -0.004939 -0.004972 0.000000 0.000000 0.000000
# 2 -0.004939 0.016838 -0.001857 0.000000 0.000000 0.000000
# 3 -0.004972 -0.001857 0.011308 0.000000 0.000000 0.000000
# 4 0.000000 0.000000 0.000000 0.028696 0.000000 0.000000
# 5 0.000000 0.000000 0.000000 0.000000 0.123460 0.000000
# 6 0.000000 0.000000 0.000000 0.000000 0.000000 0.039609
#
#
# Mechanical properties :
#
#
# Convention : Reuss Voigt Hill
#
# Bulk Modulus (GPa) = 58.77729 64.98376 61.88053
# Shear Modulus (GPa) = 19.11890 25.85523 22.48706
#
# Velocity S-wave (km/s) = 3.05426 3.55181 3.31239
# Velocity P-wave (km/s) = 6.41223 6.96616 6.69493
#
# Compressibility (1/GPa) = 0.01701337
#
# Stress axis : x y z
#
# Youngs Moduli (GPa) = 80.62920 59.38857 88.43058
#
# Poissons Ratio (x) = 0.29333 0.43967
# Poissons Ratio (y) = 0.39824 0.16420
# Poissons Ratio (z) = 0.40088 0.11027
#
# Static dielectric constant tensor:
#      x y z
#    x 3.848540 0.000000 0.000000 
#    y 0.000000 3.763860 0.000000 
#    z 0.000000 0.000000 3.618040 
# 
# 
# High freq. dielectric constant tensor:
#      x y z
#    x 1.803890 0.000000 0.000000 
#    y 0.000000 1.804400 0.000000 
#    z 0.000000 0.000000 1.805090 
# 
# From -- ./inp_files/33013.got.cif
#   From: 2010.03.12/outbox.cif.g09.slc.cpg/sg47_17_cif.got.tgz:33013.got - 2010.04.14 03:12:58.
