data_PCOD8199880
_publ_section_title
;
Structure prediction by ZEFSAII (Michael W. Deem and Ramdas Pophale) SiO2 
 PCOD8199880
Probable space group: P M M M
;
_chemical_formula_sum "Si O2"
_cell_formula_units_Z 48
_cell_length_a 8.950828
_cell_length_b 28.538999
_cell_length_c 9.935135
_cell_angle_alpha 90.000000
_cell_angle_beta 90.000000
_cell_angle_gamma 90.000000
_cell_volume 2537.907100
_symmetry_space_group_name_H-M "P M M M"
_symmetry_group_IT_number 47
_symmetry_cell_setting 'orthorhombic'
loop_
_space_group_symop_operation_xyz
x,y,z
-x,-y,z
x,-y,-z
-x,y,-z
-x,-y,-z
x,y,-z
-x,y,z
x,-y,z
loop_
_atom_site_type_symbol
_atom_site_label
_atom_site_fract_x
_atom_site_fract_y
_atom_site_fract_z
Si Si1 0.334273 0.945468 0.000000
Si Si2 0.322734 0.053812 0.500000
Si Si3 0.826510 0.796465 0.155631
Si Si4 0.825459 0.098612 0.754169
Si Si5 0.826065 0.374522 0.346230
Si Si6 0.328280 0.554400 0.846088
Si Si7 0.676281 0.722034 0.346956
O O1 0.500000 0.921488 0.000000
O O2 0.236575 0.932342 0.126785
O O3 0.359901 0.000000 0.000000
O O4 0.500000 0.054250 0.500000
O O5 0.263720 0.082863 0.375254
O O6 0.264234 0.000000 0.500000
O O7 0.793670 0.847342 0.215397
O O8 0.733064 0.760569 0.243695
O O9 0.000000 0.783639 0.167411
O O10 0.774586 0.794581 0.000000
O O11 0.000000 0.088694 0.734787
O O12 0.786878 0.387774 0.500000
O O13 0.778208 0.417072 0.252071
O O14 0.740347 0.327862 0.301292
O O15 0.000000 0.364858 0.327293
O O16 0.500000 0.565371 0.811086
O O17 0.293212 0.500000 0.823550
O O18 0.294090 0.568548 0.000000
O O19 0.728110 0.734008 0.500000
O O20 0.500000 0.719518 0.337548
#
# Coordination Sequence:
#
# PCOD8199880 Si02
#       7
#     4   4   8   8   8   8   8
#     4  11  23  39  61  89 121 157 193 237 294 345
#     4  11  25  43  61  87 123 157 193 241 294 347
#     4  10  22  41  61  85 117 150 187 233 286 342
#     4  11  23  41  63  89 118 154 198 241 287 347
#     4  10  21  37  57  83 115 152 193 238 289 343
#     4   9  19  36  57  82 114 153 196 241 289 342
#     4  10  22  39  60  87 115 148 192 238 286 343
#
# _framework density 18.913222000000001
#
# number of rings (size 3 to 8) (size 9 to 14) (size 15 to 20)
#    0.000    1.833    0.833    3.000    1.167    8.667 
#    0.000    2.500    0.000    0.000    0.000    0.000 
#    0.000    0.000    0.000    0.000    0.000    0.000 
#
# Total GULP energy -595323.564350 kJ/mol
# GULP energy per Si atom -12402.574257 kJ/mol
# Density = 1.887018 g / cm^3
# Si number density = 18.913222 Si / 1000 Ang^3
#
#
#
# Elastic Constant Matrix: (Units=GPa)
#
#
# Indices 1 2 3 4 5 6 
#
# 1 79.4999 55.9859 53.8988 0.0000 0.0000 0.0000
# 2 55.9859 100.2289 63.9437 0.0000 0.0000 0.0000
# 3 53.8988 63.9437 130.6080 0.0000 0.0000 0.0000
# 4 0.0000 0.0000 0.0000 40.4852 0.0000 0.0000
# 5 0.0000 0.0000 0.0000 0.0000 80.3257 0.0000
# 6 0.0000 0.0000 0.0000 0.0000 0.0000 40.0656
#
#
#
# Elastic Compliance Matrix: (Units=1/GPa)
#
#
# Indices 1 2 3 4 5 6 
#
# 1 0.022448 -0.009640 -0.004544 0.000000 0.000000 0.000000
# 2 -0.009640 0.018649 -0.005152 0.000000 0.000000 0.000000
# 3 -0.004544 -0.005152 0.012054 0.000000 0.000000 0.000000
# 4 0.000000 0.000000 0.000000 0.024700 0.000000 0.000000
# 5 0.000000 0.000000 0.000000 0.000000 0.012449 0.000000
# 6 0.000000 0.000000 0.000000 0.000000 0.000000 0.024959
#
#
# Mechanical properties :
#
#
# Convention : Reuss Voigt Hill
#
# Bulk Modulus (GPa) = 69.06706 73.11039 71.08873
# Shear Modulus (GPa) = 31.49437 41.27585 36.38511
#
# Velocity S-wave (km/s) = 4.08512 4.67666 4.39086
# Velocity P-wave (km/s) = 7.67125 8.24022 7.96082
#
# Compressibility (1/GPa) = 0.01447868
#
# Stress axis : x y z
#
# Youngs Moduli (GPa) = 44.54679 53.62303 82.95930
#
# Poissons Ratio (x) = 0.51693 0.37699
# Poissons Ratio (y) = 0.42943 0.42740
# Poissons Ratio (z) = 0.20243 0.27626
#
# Static dielectric constant tensor:
#      x y z
#    x 3.561800 0.000000 0.000000 
#    y 0.000000 3.522500 0.000000 
#    z 0.000000 0.000000 3.565650 
# 
# 
# High freq. dielectric constant tensor:
#      x y z
#    x 1.744280 0.000000 0.000000 
#    y 0.000000 1.739260 0.000000 
#    z 0.000000 0.000000 1.745160 
# 
# From -- ./inp_files/2692.got.cif
#   From: 2010.03.12/outbox.cif.g09.slc.cpg/sg47_2_cif.got.tgz:2692.got - 2010.04.14 03:12:58.
