data_PCOD8199945
_publ_section_title
;
Structure prediction by ZEFSAII (Michael W. Deem and Ramdas Pophale) SiO2 
 PCOD8199945
Probable space group: P M M M
;
_chemical_formula_sum "Si O2"
_cell_formula_units_Z 48
_cell_length_a 18.763891
_cell_length_b 9.042892
_cell_length_c 15.337758
_cell_angle_alpha 90.000000
_cell_angle_beta 90.000000
_cell_angle_gamma 90.000000
_cell_volume 2602.508321
_symmetry_space_group_name_H-M "P M M M"
_symmetry_group_IT_number 47
_symmetry_cell_setting 'orthorhombic'
loop_
_space_group_symop_operation_xyz
x,y,z
-x,-y,z
x,-y,-z
-x,y,-z
-x,-y,-z
x,y,-z
-x,y,z
x,-y,z
loop_
_atom_site_type_symbol
_atom_site_label
_atom_site_fract_x
_atom_site_fract_y
_atom_site_fract_z
Si Si1 0.577126 0.673666 0.500000
Si Si2 0.915338 0.832655 0.404876
Si Si3 0.416243 0.334275 0.000000
Si Si4 0.919840 0.326875 0.235086
Si Si5 0.199350 0.672585 0.898791
Si Si6 0.584833 0.671089 0.688844
Si Si7 0.341532 0.175052 0.844413
O O1 0.564173 0.500000 0.500000
O O2 0.500000 0.752306 0.500000
O O3 0.614946 0.714040 0.591745
O O4 0.888447 0.773172 0.500000
O O5 0.885136 0.739053 0.323720
O O6 0.000000 0.823666 0.403508
O O7 0.889071 0.000000 0.392653
O O8 0.392490 0.247318 0.084647
O O9 0.382701 0.500000 0.000000
O O10 0.500000 0.346017 0.000000
O O11 0.921293 0.500000 0.249185
O O12 0.872881 0.283137 0.151426
O O13 0.000000 0.266209 0.218447
O O14 0.217273 0.500000 0.886770
O O15 0.261632 0.768635 0.856863
O O16 0.189325 0.713341 0.000000
O O17 0.500000 0.699164 0.695631
O O18 0.601362 0.500000 0.711817
O O19 0.628511 0.778616 0.750989
O O20 0.343348 0.000000 0.854415
#
# Coordination Sequence:
#
# PCOD8199945 Si02
#       7
#     4   8   4   8   8   8   8
#     4   7  12  26  51  81 107 135 176 219 256 303
#     4   8  14  26  46  73 105 140 172 202 249 314
#     4  11  23  39  59  81 106 139 180 223 267 318
#     4   9  18  32  53  83 110 132 170 224 271 311
#     4  10  21  38  58  75 100 142 182 216 265 328
#     4   9  17  32  56  83 110 142 180 220 263 314
#     4  12  24  36  53  79 110 143 179 222 269 317
#
# _framework density 18.443746000000001
#
# number of rings (size 3 to 8) (size 9 to 14) (size 15 to 20)
#    0.000    2.500    0.833    3.750    0.000    4.333 
#    0.000    3.750    1.833    1.500    0.000    3.500 
#    0.000    0.000    0.000    0.000    0.000    0.000 
#
# Total GULP energy -594872.933062 kJ/mol
# GULP energy per Si atom -12393.186105 kJ/mol
# Density = 1.840177 g / cm^3
# Si number density = 18.443746 Si / 1000 Ang^3
#
#
#
# Elastic Constant Matrix: (Units=GPa)
#
#
# Indices 1 2 3 4 5 6 
#
# 1 73.2890 42.4239 60.2136 0.0000 0.0000 0.0000
# 2 42.4239 83.4514 60.4056 0.0000 0.0000 0.0000
# 3 60.2136 60.4056 168.2568 0.0000 0.0000 0.0000
# 4 0.0000 0.0000 0.0000 52.3848 0.0000 0.0000
# 5 0.0000 0.0000 0.0000 0.0000 25.8256 0.0000
# 6 0.0000 0.0000 0.0000 0.0000 0.0000 12.2293
#
#
#
# Elastic Compliance Matrix: (Units=1/GPa)
#
#
# Indices 1 2 3 4 5 6 
#
# 1 0.022356 -0.007531 -0.005297 0.000000 0.000000 0.000000
# 2 -0.007531 0.018727 -0.004028 0.000000 0.000000 0.000000
# 3 -0.005297 -0.004028 0.009285 0.000000 0.000000 0.000000
# 4 0.000000 0.000000 0.000000 0.019090 0.000000 0.000000
# 5 0.000000 0.000000 0.000000 0.000000 0.038721 0.000000
# 6 0.000000 0.000000 0.000000 0.000000 0.000000 0.081771
#
#
# Mechanical properties :
#
#
# Convention : Reuss Voigt Hill
#
# Bulk Modulus (GPa) = 60.03729 72.34259 66.18994
# Shear Modulus (GPa) = 21.81378 28.88489 25.34933
#
# Velocity S-wave (km/s) = 3.44280 3.96170 3.71133
# Velocity P-wave (km/s) = 6.95888 7.76114 7.37093
#
# Compressibility (1/GPa) = 0.01665632
#
# Stress axis : x y z
#
# Youngs Moduli (GPa) = 44.73143 53.39821 107.70109
#
# Poissons Ratio (x) = 0.40214 0.57046
# Poissons Ratio (y) = 0.33687 0.43384
# Poissons Ratio (z) = 0.23693 0.21510
#
# Static dielectric constant tensor:
#      x y z
#    x 3.202270 0.000000 0.000000 
#    y 0.000000 3.280310 0.000000 
#    z 0.000000 0.000000 3.941040 
# 
# 
# High freq. dielectric constant tensor:
#      x y z
#    x 1.682780 0.000000 0.000000 
#    y 0.000000 1.698300 0.000000 
#    z 0.000000 0.000000 1.736350 
# 
# From -- ./inp_files/24469.got.cif
#   From: 2010.03.12/outbox.cif.g09.slc.cpg/sg47_13_cif.got.tgz:24469.got - 2010.04.14 03:12:58.
