data_PCOD8199441
_publ_section_title
;
Structure prediction by ZEFSAII (Michael W. Deem and Ramdas Pophale) SiO2 
 PCOD8199441
Probable space group: P M M M
;
_chemical_formula_sum "Si O2"
_cell_formula_units_Z 44
_cell_length_a 27.849521
_cell_length_b 9.141875
_cell_length_c 9.590762
_cell_angle_alpha 90.000000
_cell_angle_beta 90.000000
_cell_angle_gamma 90.000000
_cell_volume 2441.777696
_symmetry_space_group_name_H-M "P M M M"
_symmetry_group_IT_number 47
_symmetry_cell_setting 'orthorhombic'
loop_
_space_group_symop_operation_xyz
x,y,z
-x,-y,z
x,-y,-z
-x,y,-z
-x,-y,-z
x,y,-z
-x,y,z
x,-y,z
loop_
_atom_site_type_symbol
_atom_site_label
_atom_site_fract_x
_atom_site_fract_y
_atom_site_fract_z
Si Si1 0.727869 0.328829 0.839126
Si Si2 0.555488 0.666983 0.339093
Si Si3 0.193656 0.832075 0.336555
Si Si4 0.085709 0.173531 0.654399
Si Si5 0.000000 0.825215 0.156852
Si Si6 0.368193 0.170193 0.838813
O O1 0.721746 0.500000 0.815439
O O2 0.772060 0.272762 0.749277
O O3 0.679334 0.252406 0.785813
O O4 0.737702 0.289404 0.000000
O O5 0.568381 0.693115 0.500000
O O6 0.500000 0.702797 0.311279
O O7 0.566866 0.500000 0.296973
O O8 0.586109 0.776359 0.246475
O O9 0.203633 0.812579 0.500000
O O10 0.139409 0.782251 0.299785
O O11 0.202285 0.000000 0.291914
O O12 0.074173 0.236441 0.500000
O O13 0.047258 0.235893 0.764586
O O14 0.082243 0.000000 0.647376
O O15 0.000000 0.000000 0.155944
O O16 0.000000 0.763152 0.000000
O O17 0.360308 0.000000 0.811414
O O18 0.378036 0.205407 0.000000
#
# Coordination Sequence:
#
# PCOD8199441 Si02
#       6
#     8   8   8   8   4   8
#     4  10  21  36  53  73  98 130 167 205 248 299
#     4   9  19  36  56  78 105 137 172 208 247 293
#     4   9  18  32  50  73  99 128 165 206 248 296
#     4   8  14  25  40  59  88 125 159 193 237 288
#     4   9  15  21  33  59  92 123 158 197 236 282
#     4  10  21  36  54  77 104 134 169 208 250 297
#
# _framework density 18.019656999999999
#
# number of rings (size 3 to 8) (size 9 to 14) (size 15 to 20)
#    0.000    2.818    0.000    3.000    0.000    6.182 
#    0.000    4.545    0.000    0.000    0.000    0.636 
#    0.000    5.091    0.000    0.000    0.000    0.000 
#
# Total GULP energy -545599.459250 kJ/mol
# GULP energy per Si atom -12399.987710 kJ/mol
# Density = 1.797864 g / cm^3
# Si number density = 18.019657 Si / 1000 Ang^3
#
#
#
# Elastic Constant Matrix: (Units=GPa)
#
#
# Indices 1 2 3 4 5 6 
#
# 1 134.0308 52.7195 74.8701 0.0000 0.0000 0.0000
# 2 52.7195 64.9301 41.1839 0.0000 0.0000 0.0000
# 3 74.8701 41.1839 87.3197 0.0000 0.0000 0.0000
# 4 0.0000 0.0000 0.0000 26.5779 0.0000 0.0000
# 5 0.0000 0.0000 0.0000 0.0000 28.6324 0.0000
# 6 0.0000 0.0000 0.0000 0.0000 0.0000 6.6440
#
#
#
# Elastic Compliance Matrix: (Units=1/GPa)
#
#
# Indices 1 2 3 4 5 6 
#
# 1 0.015829 -0.006055 -0.010716 0.000000 0.000000 0.000000
# 2 -0.006055 0.024291 -0.006265 0.000000 0.000000 0.000000
# 3 -0.010716 -0.006265 0.023595 0.000000 0.000000 0.000000
# 4 0.000000 0.000000 0.000000 0.037625 0.000000 0.000000
# 5 0.000000 0.000000 0.000000 0.000000 0.034925 0.000000
# 6 0.000000 0.000000 0.000000 0.000000 0.000000 0.150511
#
#
# Mechanical properties :
#
#
# Convention : Reuss Voigt Hill
#
# Bulk Modulus (GPa) = 56.68023 69.31418 62.99721
# Shear Modulus (GPa) = 14.76099 20.20468 17.48284
#
# Velocity S-wave (km/s) = 2.86520 3.35215 3.11820
# Velocity P-wave (km/s) = 6.51681 7.31655 6.92823
#
# Compressibility (1/GPa) = 0.01764284
#
# Stress axis : x y z
#
# Youngs Moduli (GPa) = 63.17651 41.16691 42.38119
#
# Poissons Ratio (x) = 0.24926 0.45416
# Poissons Ratio (y) = 0.38253 0.26553
# Poissons Ratio (z) = 0.67701 0.25792
#
# Static dielectric constant tensor:
#      x y z
#    x 3.451840 0.000000 0.000000 
#    y 0.000000 3.013870 0.000000 
#    z 0.000000 0.000000 3.373890 
# 
# 
# High freq. dielectric constant tensor:
#      x y z
#    x 1.708560 0.000000 0.000000 
#    y 0.000000 1.667980 0.000000 
#    z 0.000000 0.000000 1.695500 
# 
# From -- ./inp_files/13608.got.cif
#   From: 2010.03.12/outbox.cif.g09.slc.cpg/sg47_7_cif.got.tgz:13608.got - 2010.04.14 03:12:58.
