data_PCOD8199980
_publ_section_title
;
Structure prediction by ZEFSAII (Michael W. Deem and Ramdas Pophale) SiO2 
 PCOD8199980
Probable space group: P M M M
;
_chemical_formula_sum "Si O2"
_cell_formula_units_Z 40
_cell_length_a 7.638419
_cell_length_b 29.775409
_cell_length_c 8.883260
_cell_angle_alpha 90.000000
_cell_angle_beta 90.000000
_cell_angle_gamma 90.000000
_cell_volume 2020.382447
_symmetry_space_group_name_H-M "P M M M"
_symmetry_group_IT_number 47
_symmetry_cell_setting 'orthorhombic'
loop_
_space_group_symop_operation_xyz
x,y,z
-x,-y,z
x,-y,-z
-x,y,-z
-x,-y,-z
x,y,-z
-x,y,z
x,-y,z
loop_
_atom_site_type_symbol
_atom_site_label
_atom_site_fract_x
_atom_site_fract_y
_atom_site_fract_z
Si Si1 0.500000 0.752234 0.178500
Si Si2 0.500000 0.650162 0.179541
Si Si3 0.704248 0.000000 0.667538
Si Si4 0.206810 0.500000 0.168726
Si Si5 0.797295 0.094636 0.333076
Si Si6 0.198652 0.183340 0.822099
Si Si7 0.204059 0.591483 0.677571
O O1 0.500000 0.701404 0.236428
O O2 0.324750 0.777084 0.238290
O O3 0.500000 0.753100 0.000000
O O4 0.677606 0.629040 0.244634
O O5 0.500000 0.645569 0.000000
O O6 0.764190 0.953693 0.748909
O O7 0.500000 0.000000 0.658860
O O8 0.789699 0.000000 0.500000
O O9 0.269979 0.456224 0.258489
O O10 0.000000 0.500000 0.159563
O O11 0.287218 0.500000 0.000000
O O12 0.709887 0.094150 0.500000
O O13 0.721861 0.136124 0.237761
O O14 0.000000 0.103458 0.347292
O O15 0.000000 0.193054 0.765836
O O16 0.203042 0.180238 0.000000
O O17 0.235238 0.591696 0.500000
O O18 0.000000 0.600538 0.717014
#
# Coordination Sequence:
#
# PCOD8199980 Si02
#       7
#     4   4   4   4   8   8   8
#     4   9  20  37  56  77 102 133 172 219 268 321
#     4  11  23  38  58  85 112 144 192 241 284 333
#     4   9  17  27  42  67  98 130 163 196 240 299
#     4   9  17  32  57  88 118 151 195 240 277 320
#     4   9  17  30  48  70  96 127 163 203 247 298
#     4   9  18  34  55  76  99 130 167 209 260 315
#     4  10  21  38  59  84 119 158 191 229 282 340
#
# _framework density 19.798231000000001
#
# number of rings (size 3 to 8) (size 9 to 14) (size 15 to 20)
#    0.000    2.600    0.000    1.500    1.400    4.800 
#    0.000    6.500    0.000    5.400    0.000    0.000 
#    0.000    0.000    0.000    0.000    0.000    0.000 
#
# Total GULP energy -495761.165258 kJ/mol
# GULP energy per Si atom -12394.029131 kJ/mol
# Density = 1.975317 g / cm^3
# Si number density = 19.798231 Si / 1000 Ang^3
#
#
#
# Elastic Constant Matrix: (Units=GPa)
#
#
# Indices 1 2 3 4 5 6 
#
# 1 95.3645 77.6626 34.9551 0.0000 0.0000 0.0000
# 2 77.6626 208.9881 50.9381 0.0000 0.0000 0.0000
# 3 34.9551 50.9381 66.7614 0.0000 0.0000 0.0000
# 4 0.0000 0.0000 0.0000 28.4054 0.0000 0.0000
# 5 0.0000 0.0000 0.0000 0.0000 20.2388 0.0000
# 6 0.0000 0.0000 0.0000 0.0000 0.0000 32.5403
#
#
#
# Elastic Compliance Matrix: (Units=1/GPa)
#
#
# Indices 1 2 3 4 5 6 
#
# 1 0.016187 -0.004852 -0.004773 0.000000 0.000000 0.000000
# 2 -0.004852 0.007332 -0.003054 0.000000 0.000000 0.000000
# 3 -0.004773 -0.003054 0.019808 0.000000 0.000000 0.000000
# 4 0.000000 0.000000 0.000000 0.035205 0.000000 0.000000
# 5 0.000000 0.000000 0.000000 0.000000 0.049410 0.000000
# 6 0.000000 0.000000 0.000000 0.000000 0.000000 0.030731
#
#
# Mechanical properties :
#
#
# Convention : Reuss Voigt Hill
#
# Bulk Modulus (GPa) = 55.65165 77.58061 66.61613
# Shear Modulus (GPa) = 26.31281 30.07410 28.19346
#
# Velocity S-wave (km/s) = 3.64957 3.90170 3.77774
# Velocity P-wave (km/s) = 6.77713 7.71806 7.26285
#
# Compressibility (1/GPa) = 0.01796892
#
# Stress axis : x y z
#
# Youngs Moduli (GPa) = 61.77831 136.38133 50.48405
#
# Poissons Ratio (x) = 0.66170 0.24097
# Poissons Ratio (y) = 0.29974 0.15419
# Poissons Ratio (z) = 0.29489 0.41653
#
# Static dielectric constant tensor:
#      x y z
#    x 3.602060 0.000000 0.000000 
#    y 0.000000 3.977580 0.000000 
#    z 0.000000 0.000000 3.557550 
# 
# 
# High freq. dielectric constant tensor:
#      x y z
#    x 1.772470 0.000000 0.000000 
#    y 0.000000 1.778820 0.000000 
#    z 0.000000 0.000000 1.742150 
# 
# From -- ./inp_files/1899.got.cif
#   From: 2010.03.12/outbox.cif.g09.slc.cpg/sg47_1_cif.got.tgz:1899.got - 2010.04.14 03:12:58.
