data_PCOD8199507
_publ_section_title
;
Structure prediction by ZEFSAII (Michael W. Deem and Ramdas Pophale) SiO2 
 PCOD8199507
Probable space group: P M M M
;
_chemical_formula_sum "Si O2"
_cell_formula_units_Z 44
_cell_length_a 15.362614
_cell_length_b 12.005427
_cell_length_c 12.947925
_cell_angle_alpha 90.000000
_cell_angle_beta 90.000000
_cell_angle_gamma 90.000000
_cell_volume 2388.047193
_symmetry_space_group_name_H-M "P M M M"
_symmetry_group_IT_number 47
_symmetry_cell_setting 'orthorhombic'
loop_
_space_group_symop_operation_xyz
x,y,z
-x,-y,z
x,-y,-z
-x,y,-z
-x,-y,-z
x,y,-z
-x,y,z
x,-y,z
loop_
_atom_site_type_symbol
_atom_site_label
_atom_site_fract_x
_atom_site_fract_y
_atom_site_fract_z
Si Si1 0.903725 0.000000 0.379277
Si Si2 0.835858 0.232045 0.693480
Si Si3 0.722816 0.801628 0.115440
Si Si4 0.595311 0.628022 0.177873
Si Si5 0.400418 0.000000 0.122625
Si Si6 0.682670 0.374396 0.386047
Si Si7 0.000000 0.367270 0.622608
O O1 0.851819 0.108757 0.346721
O O2 0.914810 0.000000 0.500000
O O3 0.000000 0.000000 0.327750
O O4 0.807264 0.217650 0.813151
O O5 0.759697 0.286378 0.626748
O O6 0.918272 0.312567 0.680472
O O7 0.668135 0.688004 0.110264
O O8 0.655695 0.893797 0.160753
O O9 0.755440 0.832440 0.000000
O O10 0.500000 0.675713 0.150332
O O11 0.601341 0.500000 0.147496
O O12 0.609175 0.646678 0.300571
O O13 0.500000 0.000000 0.168136
O O14 0.407066 0.000000 0.000000
O O15 0.641536 0.358256 0.500000
O O16 0.720775 0.500000 0.374133
O O17 0.000000 0.500000 0.639430
O O18 0.000000 0.337753 0.500000
#
# Coordination Sequence:
#
# PCOD8199507 Si02
#       7
#     4   8   8   8   4   8   4
#     4  11  21  34  55  81 109 133 157 200 258 315
#     4  11  21  35  54  78 109 139 175 219 264 320
#     4  10  21  36  54  76 106 143 181 222 266 309
#     4   9  18  31  48  74 105 137 176 219 264 316
#     4   9  17  32  56  81 102 132 180 228 263 299
#     4   9  17  30  49  73 103 138 174 215 265 319
#     4  11  22  37  60  84 105 133 173 225 276 323
#
# _framework density 18.425097000000001
#
# number of rings (size 3 to 8) (size 9 to 14) (size 15 to 20)
#    0.000    2.091    0.909    3.273    0.000    4.000 
#    0.000    3.182    0.000    1.091    0.000    0.000 
#    0.000   16.727    0.000    0.000    0.000    0.000 
#
# Total GULP energy -545401.166943 kJ/mol
# GULP energy per Si atom -12395.481067 kJ/mol
# Density = 1.838316 g / cm^3
# Si number density = 18.425097 Si / 1000 Ang^3
#
#
#
# Elastic Constant Matrix: (Units=GPa)
#
#
# Indices 1 2 3 4 5 6 
#
# 1 92.1379 44.7426 31.1665 0.0000 0.0000 0.0000
# 2 44.7426 105.5245 25.6370 0.0000 0.0000 0.0000
# 3 31.1665 25.6370 82.4353 0.0000 0.0000 0.0000
# 4 0.0000 0.0000 0.0000 21.9920 0.0000 0.0000
# 5 0.0000 0.0000 0.0000 0.0000 11.8054 0.0000
# 6 0.0000 0.0000 0.0000 0.0000 0.0000 48.2258
#
#
#
# Elastic Compliance Matrix: (Units=1/GPa)
#
#
# Indices 1 2 3 4 5 6 
#
# 1 0.014758 -0.005302 -0.003930 0.000000 0.000000 0.000000
# 2 -0.005302 0.012156 -0.001776 0.000000 0.000000 0.000000
# 3 -0.003930 -0.001776 0.014169 0.000000 0.000000 0.000000
# 4 0.000000 0.000000 0.000000 0.045471 0.000000 0.000000
# 5 0.000000 0.000000 0.000000 0.000000 0.084707 0.000000
# 6 0.000000 0.000000 0.000000 0.000000 0.000000 0.020736
#
#
# Mechanical properties :
#
#
# Convention : Reuss Voigt Hill
#
# Bulk Modulus (GPa) = 52.45080 53.68778 53.06929
# Shear Modulus (GPa) = 22.68918 28.30807 25.49862
#
# Velocity S-wave (km/s) = 3.51298 3.92393 3.72413
# Velocity P-wave (km/s) = 6.70698 7.05204 6.88167
#
# Compressibility (1/GPa) = 0.01906548
#
# Stress axis : x y z
#
# Youngs Moduli (GPa) = 67.76137 82.26302 70.57667
#
# Poissons Ratio (x) = 0.43619 0.27740
# Poissons Ratio (y) = 0.35930 0.12533
# Poissons Ratio (z) = 0.26633 0.14608
#
# Static dielectric constant tensor:
#      x y z
#    x 3.473640 0.000000 0.000000 
#    y 0.000000 3.551200 0.000000 
#    z 0.000000 0.000000 3.314420 
# 
# 
# High freq. dielectric constant tensor:
#      x y z
#    x 1.703400 0.000000 0.000000 
#    y 0.000000 1.728970 0.000000 
#    z 0.000000 0.000000 1.699640 
# 
# From -- ./inp_files/17457.got.cif
#   From: 2010.03.12/outbox.cif.g09.slc.cpg/sg47_9_cif.got.tgz:17457.got - 2010.04.14 03:12:58.
