data_PCOD8199700
_publ_section_title
;
Structure prediction by ZEFSAII (Michael W. Deem and Ramdas Pophale) SiO2 
 PCOD8199700
Probable space group: P M M M
;
_chemical_formula_sum "Si O2"
_cell_formula_units_Z 64
_cell_length_a 19.830915
_cell_length_b 9.318997
_cell_length_c 20.119838
_cell_angle_alpha 90.000000
_cell_angle_beta 90.000000
_cell_angle_gamma 90.000000
_cell_volume 3718.231318
_symmetry_space_group_name_H-M "P M M M"
_symmetry_group_IT_number 47
_symmetry_cell_setting 'orthorhombic'
loop_
_space_group_symop_operation_xyz
x,y,z
-x,-y,z
x,-y,-z
-x,y,-z
-x,-y,-z
x,y,-z
-x,y,z
x,-y,z
loop_
_atom_site_type_symbol
_atom_site_label
_atom_site_fract_x
_atom_site_fract_y
_atom_site_fract_z
Si Si1 0.574077 0.667109 0.867133
Si Si2 0.077817 0.667742 0.814300
Si Si3 0.700507 0.164349 0.876730
Si Si4 0.156006 0.166560 0.923984
Si Si5 0.077783 0.836140 0.423422
Si Si6 0.571842 0.162773 0.733682
Si Si7 0.284774 0.838567 0.719671
Si Si8 0.841757 0.669596 0.684290
O O1 0.500000 0.693289 0.900892
O O2 0.591594 0.500000 0.865952
O O3 0.635534 0.748077 0.904331
O O4 0.570457 0.723611 0.792404
O O5 0.089001 0.500000 0.825935
O O6 0.103045 0.748448 0.879475
O O7 0.118829 0.721824 0.749993
O O8 0.000000 0.705423 0.802058
O O9 0.767833 0.222882 0.912469
O O10 0.710642 0.187221 0.798378
O O11 0.688052 0.000000 0.895872
O O12 0.152050 0.000000 0.903840
O O13 0.135130 0.192003 0.000000
O O14 0.097277 0.813119 0.500000
O O15 0.122533 0.729548 0.380695
O O16 0.000000 0.797328 0.411576
O O17 0.091861 0.000000 0.402211
O O18 0.500000 0.177144 0.693860
O O19 0.639379 0.188854 0.689581
O O20 0.578024 0.000000 0.763285
O O21 0.234395 0.727212 0.686117
O O22 0.259749 0.000000 0.704105
O O23 0.840277 0.500000 0.678945
#
# Coordination Sequence:
#
# PCOD8199700 Si02
#       8
#     8   8   8   8   8   8   8   8
#     4   9  16  24  38  63  91 118 151 191 234 283
#     4  10  22  38  53  72  99 129 160 196 243 298
#     4   9  17  30  47  66  90 120 155 196 244 296
#     4  10  21  37  55  73  92 117 157 208 256 301
#     4   9  19  36  56  77 102 134 170 205 243 288
#     4   8  14  25  40  60  90 127 162 197 241 288
#     4   9  16  27  45  68  95 128 165 202 243 290
#     4  11  21  32  50  76 106 136 166 202 241 284
#
# _framework density 17.212485000000001
#
# number of rings (size 3 to 8) (size 9 to 14) (size 15 to 20)
#    0.000    2.625    1.250    2.250    0.000    5.500 
#    0.000    1.875    0.000    0.375    0.000    2.625 
#    0.000    0.500    0.000    5.750    0.000    1.750 
#
# Total GULP energy -793190.474777 kJ/mol
# GULP energy per Si atom -12393.601168 kJ/mol
# Density = 1.717331 g / cm^3
# Si number density = 17.212485 Si / 1000 Ang^3
#
#
#
# Elastic Constant Matrix: (Units=GPa)
#
#
# Indices 1 2 3 4 5 6 
#
# 1 134.0247 52.1763 40.3039 0.0000 0.0000 0.0000
# 2 52.1763 66.7124 27.9994 0.0000 0.0000 0.0000
# 3 40.3039 27.9994 51.8561 0.0000 0.0000 0.0000
# 4 0.0000 0.0000 0.0000 20.4371 0.0000 0.0000
# 5 0.0000 0.0000 0.0000 0.0000 15.6361 0.0000
# 6 0.0000 0.0000 0.0000 0.0000 0.0000 28.4081
#
#
#
# Elastic Compliance Matrix: (Units=1/GPa)
#
#
# Indices 1 2 3 4 5 6 
#
# 1 0.011797 -0.006954 -0.005414 0.000000 0.000000 0.000000
# 2 -0.006954 0.023481 -0.007274 0.000000 0.000000 0.000000
# 3 -0.005414 -0.007274 0.027419 0.000000 0.000000 0.000000
# 4 0.000000 0.000000 0.000000 0.048931 0.000000 0.000000
# 5 0.000000 0.000000 0.000000 0.000000 0.063954 0.000000
# 6 0.000000 0.000000 0.000000 0.000000 0.000000 0.035201
#
#
# Mechanical properties :
#
#
# Convention : Reuss Voigt Hill
#
# Bulk Modulus (GPa) = 42.70943 54.83916 48.77429
# Shear Modulus (GPa) = 19.38951 21.70383 20.54667
#
# Velocity S-wave (km/s) = 3.35995 3.55482 3.45876
# Velocity P-wave (km/s) = 6.31817 6.98414 6.65949
#
# Compressibility (1/GPa) = 0.02341403
#
# Stress axis : x y z
#
# Youngs Moduli (GPa) = 84.77040 42.58714 36.47061
#
# Poissons Ratio (x) = 0.29615 0.19745
# Poissons Ratio (y) = 0.58949 0.26528
# Poissons Ratio (z) = 0.45893 0.30977
#
# Static dielectric constant tensor:
#      x y z
#    x 3.678890 0.000000 0.000000 
#    y 0.000000 3.175920 0.000000 
#    z 0.000000 0.000000 2.752890 
# 
# 
# High freq. dielectric constant tensor:
#      x y z
#    x 1.685300 0.000000 0.000000 
#    y 0.000000 1.664430 0.000000 
#    z 0.000000 0.000000 1.606910 
# 
# From -- ./inp_files/27004.got.cif
#   From: 2010.03.12/outbox.cif.g09.slc.cpg/sg47_14_cif.got.tgz:27004.got - 2010.04.14 03:12:58.
