data_PCOD8199306
_publ_section_title
;
Structure prediction by ZEFSAII (Michael W. Deem and Ramdas Pophale) SiO2 
 PCOD8199306
Probable space group: P M M M
;
_chemical_formula_sum "Si O2"
_cell_formula_units_Z 44
_cell_length_a 9.155025
_cell_length_b 16.688463
_cell_length_c 15.573978
_cell_angle_alpha 90.000000
_cell_angle_beta 90.000000
_cell_angle_gamma 90.000000
_cell_volume 2379.443690
_symmetry_space_group_name_H-M "P M M M"
_symmetry_group_IT_number 47
_symmetry_cell_setting 'orthorhombic'
loop_
_space_group_symop_operation_xyz
x,y,z
-x,-y,z
x,-y,-z
-x,y,-z
-x,-y,-z
x,y,-z
-x,y,z
x,-y,z
loop_
_atom_site_type_symbol
_atom_site_label
_atom_site_fract_x
_atom_site_fract_y
_atom_site_fract_z
Si Si1 0.669526 0.249165 0.095786
Si Si2 0.329598 0.000000 0.406132
Si Si3 0.172306 0.695672 0.261038
Si Si4 0.840006 0.128200 0.311996
Si Si5 0.162935 0.088704 0.880165
Si Si6 0.667312 0.594623 0.403107
O O1 0.500000 0.246317 0.122158
O O2 0.753724 0.304177 0.166036
O O3 0.727647 0.157905 0.089890
O O4 0.689006 0.286918 0.000000
O O5 0.279144 0.082957 0.366310
O O6 0.500000 0.000000 0.402121
O O7 0.264252 0.000000 0.500000
O O8 0.207993 0.780042 0.304845
O O9 0.234405 0.630191 0.326718
O O10 0.000000 0.681894 0.247597
O O11 0.844392 0.085185 0.221365
O O12 0.000000 0.121741 0.355322
O O13 0.000000 0.107794 0.915771
O O14 0.213792 0.000000 0.912467
O O15 0.717058 0.621473 0.500000
O O16 0.500000 0.621136 0.388500
O O17 0.682806 0.500000 0.395878
#
# Coordination Sequence:
#
# PCOD8199306 Si02
#       6
#     8   4   8   8   8   8
#     4  10  21  35  51  75 107 143 185 230 277 330
#     4  11  23  33  43  65  94 127 172 223 271 316
#     4  10  21  36  57  83 110 144 184 225 273 326
#     4   9  18  34  50  66  93 131 175 217 261 316
#     4   9  17  31  50  70  95 129 173 224 277 329
#     4   9  19  37  61  89 120 150 177 211 263 326
#
# _framework density 18.491717000000001
#
# number of rings (size 3 to 8) (size 9 to 14) (size 15 to 20)
#    0.000    2.455    0.909    3.000    0.000    8.000 
#    0.000    6.364    0.000    0.545    0.000    3.818 
#    0.000    0.000    0.000    0.000    0.000    0.000 
#
# Total GULP energy -545207.852224 kJ/mol
# GULP energy per Si atom -12391.087551 kJ/mol
# Density = 1.844963 g / cm^3
# Si number density = 18.491717 Si / 1000 Ang^3
#
#
#
# Elastic Constant Matrix: (Units=GPa)
#
#
# Indices 1 2 3 4 5 6 
#
# 1 82.4532 29.6049 60.4578 0.0000 0.0000 0.0000
# 2 29.6049 52.1472 41.7246 0.0000 0.0000 0.0000
# 3 60.4578 41.7246 126.0893 0.0000 0.0000 0.0000
# 4 0.0000 0.0000 0.0000 9.2570 0.0000 0.0000
# 5 0.0000 0.0000 0.0000 0.0000 40.0438 0.0000
# 6 0.0000 0.0000 0.0000 0.0000 0.0000 28.4008
#
#
#
# Elastic Compliance Matrix: (Units=1/GPa)
#
#
# Indices 1 2 3 4 5 6 
#
# 1 0.019584 -0.004903 -0.007768 0.000000 0.000000 0.000000
# 2 -0.004903 0.027310 -0.006686 0.000000 0.000000 0.000000
# 3 -0.007768 -0.006686 0.013868 0.000000 0.000000 0.000000
# 4 0.000000 0.000000 0.000000 0.108026 0.000000 0.000000
# 5 0.000000 0.000000 0.000000 0.000000 0.024973 0.000000
# 6 0.000000 0.000000 0.000000 0.000000 0.000000 0.035210
#
#
# Mechanical properties :
#
#
# Convention : Reuss Voigt Hill
#
# Bulk Modulus (GPa) = 45.35590 58.25161 51.80376
# Shear Modulus (GPa) = 18.17953 24.13381 21.15667
#
# Velocity S-wave (km/s) = 3.13887 3.61656 3.38615
# Velocity P-wave (km/s) = 6.14147 7.00065 6.58509
#
# Compressibility (1/GPa) = 0.02204785
#
# Stress axis : x y z
#
# Youngs Moduli (GPa) = 51.06159 36.61671 72.10828
#
# Poissons Ratio (x) = 0.17953 0.56013
# Poissons Ratio (y) = 0.25036 0.48214
# Poissons Ratio (z) = 0.39664 0.24483
#
# Static dielectric constant tensor:
#      x y z
#    x 3.416660 0.000000 0.000000 
#    y 0.000000 3.144270 0.000000 
#    z 0.000000 0.000000 3.550920 
# 
# 
# High freq. dielectric constant tensor:
#      x y z
#    x 1.719010 0.000000 0.000000 
#    y 0.000000 1.690390 0.000000 
#    z 0.000000 0.000000 1.725140 
# 
# From -- ./inp_files/20941.got.cif
#   From: 2010.03.12/outbox.cif.g09.slc.cpg/sg47_11_cif.got.tgz:20941.got - 2010.04.14 03:12:58.
