data_PCOD8199632
_publ_section_title
;
Structure prediction by ZEFSAII (Michael W. Deem and Ramdas Pophale) SiO2 
 PCOD8199632
Probable space group: P M M M
;
_chemical_formula_sum "Si O2"
_cell_formula_units_Z 48
_cell_length_a 9.197742
_cell_length_b 30.485722
_cell_length_c 8.930702
_cell_angle_alpha 90.000000
_cell_angle_beta 90.000000
_cell_angle_gamma 90.000000
_cell_volume 2504.167105
_symmetry_space_group_name_H-M "P M M M"
_symmetry_group_IT_number 47
_symmetry_cell_setting 'orthorhombic'
loop_
_space_group_symop_operation_xyz
x,y,z
-x,-y,z
x,-y,-z
-x,y,-z
-x,-y,-z
x,y,-z
-x,y,z
x,-y,z
loop_
_atom_site_type_symbol
_atom_site_label
_atom_site_fract_x
_atom_site_fract_y
_atom_site_fract_z
Si Si1 0.670641 0.000000 0.329390
Si Si2 0.836055 0.922910 0.176043
Si Si3 0.667480 0.251371 0.328847
Si Si4 0.828519 0.824040 0.831923
Si Si5 0.830473 0.419329 0.675927
Si Si6 0.668039 0.500000 0.822773
Si Si7 0.331032 0.659153 0.825224
O O1 0.728730 0.043937 0.254884
O O2 0.500000 0.000000 0.309597
O O3 0.720556 0.000000 0.500000
O O4 0.786757 0.873468 0.215751
O O5 0.000000 0.931426 0.232914
O O6 0.828482 0.930643 0.000000
O O7 0.701463 0.264065 0.500000
O O8 0.500000 0.239473 0.305620
O O9 0.757998 0.208833 0.285191
O O10 0.712252 0.291948 0.223978
O O11 0.000000 0.818041 0.827118
O O12 0.771204 0.814319 0.000000
O O13 0.804594 0.424245 0.500000
O O14 0.744711 0.457229 0.759667
O O15 0.769206 0.373114 0.730635
O O16 0.000000 0.422650 0.716546
O O17 0.500000 0.500000 0.773349
O O18 0.683278 0.500000 0.000000
O O19 0.500000 0.649511 0.789245
O O20 0.297839 0.653275 0.000000
#
# Coordination Sequence:
#
# PCOD8199632 Si02
#       7
#     4   8   8   8   8   4   8
#     4  11  24  37  50  76 112 143 174 217 268 322
#     4   9  19  37  59  80 103 136 180 225 268 320
#     4  10  21  36  55  81 113 148 184 224 272 324
#     4   9  19  36  57  81 108 139 178 224 272 322
#     4  11  24  40  59  86 118 150 186 229 278 330
#     4  11  24  41  62  88 116 149 190 231 274 328
#     4  10  21  38  60  84 110 145 190 233 274 326
#
# _framework density 19.168050999999998
#
# number of rings (size 3 to 8) (size 9 to 14) (size 15 to 20)
#    0.000    2.000    0.000    4.000    0.000   11.333 
#    0.000    5.000    0.000    0.000    0.000    0.000 
#    0.000    0.000    0.000    0.000    0.000    0.000 
#
# Total GULP energy -595374.378045 kJ/mol
# GULP energy per Si atom -12403.632876 kJ/mol
# Density = 1.912442 g / cm^3
# Si number density = 19.168051 Si / 1000 Ang^3
#
#
#
# Elastic Constant Matrix: (Units=GPa)
#
#
# Indices 1 2 3 4 5 6 
#
# 1 75.9107 59.2488 44.8312 0.0000 0.0000 0.0000
# 2 59.2488 123.4577 43.5682 0.0000 0.0000 0.0000
# 3 44.8312 43.5682 66.6670 0.0000 0.0000 0.0000
# 4 0.0000 0.0000 0.0000 61.0901 0.0000 0.0000
# 5 0.0000 0.0000 0.0000 0.0000 32.6594 0.0000
# 6 0.0000 0.0000 0.0000 0.0000 0.0000 31.2998
#
#
#
# Elastic Compliance Matrix: (Units=1/GPa)
#
#
# Indices 1 2 3 4 5 6 
#
# 1 0.027534 -0.008682 -0.012842 0.000000 0.000000 0.000000
# 2 -0.008682 0.013266 -0.002831 0.000000 0.000000 0.000000
# 3 -0.012842 -0.002831 0.025486 0.000000 0.000000 0.000000
# 4 0.000000 0.000000 0.000000 0.016369 0.000000 0.000000
# 5 0.000000 0.000000 0.000000 0.000000 0.030619 0.000000
# 6 0.000000 0.000000 0.000000 0.000000 0.000000 0.031949
#
#
# Mechanical properties :
#
#
# Convention : Reuss Voigt Hill
#
# Bulk Modulus (GPa) = 56.89674 62.37020 59.63347
# Shear Modulus (GPa) = 25.02634 32.90235 28.96434
#
# Velocity S-wave (km/s) = 3.61727 4.14759 3.89147
# Velocity P-wave (km/s) = 6.86977 7.45291 7.16727
#
# Compressibility (1/GPa) = 0.01757570
#
# Stress axis : x y z
#
# Youngs Moduli (GPa) = 36.31932 75.38315 39.23798
#
# Poissons Ratio (x) = 0.65447 0.50388
# Poissons Ratio (y) = 0.31532 0.11108
# Poissons Ratio (z) = 0.46640 0.21341
#
# Static dielectric constant tensor:
#      x y z
#    x 3.489880 0.000000 0.000000 
#    y 0.000000 3.474190 0.000000 
#    z 0.000000 0.000000 3.583060 
# 
# 
# High freq. dielectric constant tensor:
#      x y z
#    x 1.743210 0.000000 0.000000 
#    y 0.000000 1.759630 0.000000 
#    z 0.000000 0.000000 1.751640 
# 
# From -- ./inp_files/2718.got.cif
#   From: 2010.03.12/outbox.cif.g09.slc.cpg/sg47_2_cif.got.tgz:2718.got - 2010.04.14 03:12:58.
