data_PCOD8199937
_publ_section_title
;
Structure prediction by ZEFSAII (Michael W. Deem and Ramdas Pophale) SiO2 
 PCOD8199937
Probable space group: P M M M
;
_chemical_formula_sum "Si O2"
_cell_formula_units_Z 48
_cell_length_a 8.842165
_cell_length_b 16.737987
_cell_length_c 16.806211
_cell_angle_alpha 90.000000
_cell_angle_beta 90.000000
_cell_angle_gamma 90.000000
_cell_volume 2487.319948
_symmetry_space_group_name_H-M "P M M M"
_symmetry_group_IT_number 47
_symmetry_cell_setting 'orthorhombic'
loop_
_space_group_symop_operation_xyz
x,y,z
-x,-y,z
x,-y,-z
-x,y,-z
-x,-y,-z
x,y,-z
-x,y,z
x,-y,z
loop_
_atom_site_type_symbol
_atom_site_label
_atom_site_fract_x
_atom_site_fract_y
_atom_site_fract_z
Si Si1 0.830238 0.280338 0.229844
Si Si2 0.327263 0.201664 0.500000
Si Si3 0.825656 0.832068 0.088852
Si Si4 0.822667 0.633132 0.500000
Si Si5 0.831319 0.144209 0.644729
Si Si6 0.672393 0.591119 0.666639
Si Si7 0.662735 0.000000 0.108339
Si Si8 0.335637 0.000000 0.711480
O O1 0.758071 0.231486 0.154131
O O2 0.833661 0.225600 0.307225
O O3 0.736744 0.357380 0.259159
O O4 0.000000 0.308165 0.207393
O O5 0.500000 0.231580 0.500000
O O6 0.207893 0.273126 0.500000
O O7 0.292388 0.147565 0.424456
O O8 0.751539 0.919362 0.086683
O O9 0.000000 0.845247 0.112488
O O10 0.808296 0.794816 0.000000
O O11 0.755387 0.597399 0.581385
O O12 0.000000 0.615859 0.500000
O O13 0.000000 0.124909 0.612590
O O14 0.771491 0.074959 0.699785
O O15 0.500000 0.618204 0.652356
O O16 0.683703 0.500000 0.695387
O O17 0.500000 0.000000 0.063284
O O18 0.621340 0.000000 0.198610
O O19 0.500000 0.000000 0.665509
#
# Coordination Sequence:
#
# PCOD8199937 Si02
#       8
#     8   4   8   4   8   8   4   4
#     4  10  21  37  60  86 114 150 191 236 286 342
#     4  12  24  38  58  82 113 151 192 240 288 340
#     4  10  21  38  60  86 117 153 193 236 285 341
#     4  12  23  37  59  88 119 154 191 233 284 337
#     4  11  22  38  59  82 110 149 198 245 287 335
#     4  11  24  40  60  88 120 153 190 234 286 342
#     4  11  22  34  54  85 121 154 189 234 286 341
#     4  11  23  37  55  81 113 154 198 241 287 338
#
# _framework density 19.297879999999999
#
# number of rings (size 3 to 8) (size 9 to 14) (size 15 to 20)
#    0.000    1.167    3.333    3.500    0.000    6.000 
#    0.000    1.667    0.000    0.500    0.000    3.500 
#    0.000    0.000    0.000    0.000    0.000    0.000 
#
# Total GULP energy -594824.387141 kJ/mol
# GULP energy per Si atom -12392.174732 kJ/mol
# Density = 1.925396 g / cm^3
# Si number density = 19.297880 Si / 1000 Ang^3
#
#
#
# Elastic Constant Matrix: (Units=GPa)
#
#
# Indices 1 2 3 4 5 6 
#
# 1 119.9728 47.0822 39.3420 0.0000 0.0000 0.0000
# 2 47.0822 90.8401 41.8412 0.0000 0.0000 0.0000
# 3 39.3420 41.8412 115.5152 0.0000 0.0000 0.0000
# 4 0.0000 0.0000 0.0000 1.7658 0.0000 0.0000
# 5 0.0000 0.0000 0.0000 0.0000 -3.9293 0.0000
# 6 0.0000 0.0000 0.0000 0.0000 0.0000 32.5687
#
#
#
# Elastic Compliance Matrix: (Units=1/GPa)
#
#
# Indices 1 2 3 4 5 6 
#
# 1 0.010831 -0.004698 -0.001987 0.000000 0.000000 0.000000
# 2 -0.004698 0.015251 -0.003924 0.000000 0.000000 0.000000
# 3 -0.001987 -0.003924 0.010755 0.000000 0.000000 0.000000
# 4 0.000000 0.000000 0.000000 0.566321 0.000000 0.000000
# 5 0.000000 0.000000 0.000000 0.000000 -0.254497 0.000000
# 6 0.000000 0.000000 0.000000 0.000000 0.000000 0.030704
#
#
# Mechanical properties :
#
#
# Convention : Reuss Voigt Hill
#
# Bulk Modulus (GPa) = 64.02838 64.76210 64.39524
# Shear Modulus (GPa) = 12.32168 19.28520 15.80344
#
# Velocity S-wave (km/s) = 2.52960 3.16467 2.86478
# Velocity P-wave (km/s) = 6.46396 6.85460 6.66214
#
# Compressibility (1/GPa) = 0.01561807
#
# Stress axis : x y z
#
# Youngs Moduli (GPa) = 92.33123 65.57010 92.98125
#
# Poissons Ratio (x) = 0.30807 0.18474
# Poissons Ratio (y) = 0.43380 0.36485
# Poissons Ratio (z) = 0.18345 0.25729
#
# Static dielectric constant tensor:
#      x y z
#    x 3.638650 0.000000 0.000000 
#    y 0.000000 3.404340 0.000000 
#    z 0.000000 0.000000 3.646310 
# 
# 
# High freq. dielectric constant tensor:
#      x y z
#    x 1.759530 0.000000 0.000000 
#    y 0.000000 1.736490 0.000000 
#    z 0.000000 0.000000 1.748700 
# 
# From -- ./inp_files/26590.got.cif
#   From: 2010.03.12/outbox.cif.g09.slc.cpg/sg47_14_cif.got.tgz:26590.got - 2010.04.14 03:12:58.
