data_PCOD8199953
_publ_section_title
;
Structure prediction by ZEFSAII (Michael W. Deem and Ramdas Pophale) SiO2 
 PCOD8199953
Probable space group: P M M M
;
_chemical_formula_sum "Si O2"
_cell_formula_units_Z 40
_cell_length_a 22.518224
_cell_length_b 10.788301
_cell_length_c 8.816171
_cell_angle_alpha 90.000000
_cell_angle_beta 90.000000
_cell_angle_gamma 90.000000
_cell_volume 2141.742206
_symmetry_space_group_name_H-M "P M M M"
_symmetry_group_IT_number 47
_symmetry_cell_setting 'orthorhombic'
loop_
_space_group_symop_operation_xyz
x,y,z
-x,-y,z
x,-y,-z
-x,y,-z
-x,-y,-z
x,y,-z
-x,y,z
x,-y,z
loop_
_atom_site_type_symbol
_atom_site_label
_atom_site_fract_x
_atom_site_fract_y
_atom_site_fract_z
Si Si1 0.931711 0.500000 0.321326
Si Si2 0.000000 0.141265 0.334769
Si Si3 0.566779 0.361722 0.820059
Si Si4 0.777070 0.855410 0.328906
Si Si5 0.347962 0.858108 0.178947
Si Si6 0.110346 0.254986 0.178432
O O1 0.927714 0.500000 0.500000
O O2 0.896412 0.613690 0.254915
O O3 0.000000 0.500000 0.265313
O O4 0.941379 0.167580 0.239870
O O5 0.000000 0.213045 0.500000
O O6 0.000000 0.000000 0.375296
O O7 0.500000 0.342651 0.757814
O O8 0.589908 0.500000 0.768813
O O9 0.605884 0.245882 0.759527
O O10 0.566356 0.356858 0.000000
O O11 0.781765 0.802580 0.500000
O O12 0.712668 0.825682 0.263080
O O13 0.825116 0.794267 0.220182
O O14 0.789788 0.000000 0.328898
O O15 0.369010 0.000000 0.217413
O O16 0.337846 0.845193 0.000000
O O17 0.104193 0.265474 0.000000
#
# Coordination Sequence:
#
# PCOD8199953 Si02
#       6
#     4   4   8   8   8   8
#     4  11  23  41  63  81 108 146 179 216 267 328
#     4  11  23  38  57  82 111 143 179 219 270 331
#     4   8  14  26  46  74 108 143 176 216 271 328
#     4  10  21  38  58  78 106 145 183 221 272 332
#     4   9  17  30  50  77 107 138 177 227 274 320
#     4  12  24  38  59  84 110 139 178 226 274 322
#
# _framework density 18.676383999999999
#
# number of rings (size 3 to 8) (size 9 to 14) (size 15 to 20)
#    0.000    2.000    1.000    4.200    0.000    5.200 
#    1.800    2.000    0.000    0.600    0.000    4.200 
#    0.000    0.000    0.000    0.000    0.000    0.000 
#
# Total GULP energy -495833.174084 kJ/mol
# GULP energy per Si atom -12395.829352 kJ/mol
# Density = 1.863388 g / cm^3
# Si number density = 18.676384 Si / 1000 Ang^3
#
#
#
# Elastic Constant Matrix: (Units=GPa)
#
#
# Indices 1 2 3 4 5 6 
#
# 1 109.7715 71.6625 27.2257 0.0000 0.0000 0.0000
# 2 71.6625 115.1938 24.9098 0.0000 0.0000 0.0000
# 3 27.2257 24.9098 62.3801 0.0000 0.0000 0.0000
# 4 0.0000 0.0000 0.0000 18.6932 0.0000 0.0000
# 5 0.0000 0.0000 0.0000 0.0000 17.3887 0.0000
# 6 0.0000 0.0000 0.0000 0.0000 0.0000 39.5451
#
#
#
# Elastic Compliance Matrix: (Units=1/GPa)
#
#
# Indices 1 2 3 4 5 6 
#
# 1 0.015930 -0.009201 -0.003278 0.000000 0.000000 0.000000
# 2 -0.009201 0.014816 -0.001901 0.000000 0.000000 0.000000
# 3 -0.003278 -0.001901 0.018221 0.000000 0.000000 0.000000
# 4 0.000000 0.000000 0.000000 0.053495 0.000000 0.000000
# 5 0.000000 0.000000 0.000000 0.000000 0.057508 0.000000
# 6 0.000000 0.000000 0.000000 0.000000 0.000000 0.025288
#
#
# Mechanical properties :
#
#
# Convention : Reuss Voigt Hill
#
# Bulk Modulus (GPa) = 49.48938 59.43793 54.46365
# Shear Modulus (GPa) = 22.64978 26.02857 24.33918
#
# Velocity S-wave (km/s) = 3.48623 3.73723 3.61391
# Velocity P-wave (km/s) = 6.53919 7.10752 6.82927
#
# Compressibility (1/GPa) = 0.02020636
#
# Stress axis : x y z
#
# Youngs Moduli (GPa) = 62.77607 67.49468 54.88321
#
# Poissons Ratio (x) = 0.62102 0.17992
# Poissons Ratio (y) = 0.57760 0.10431
# Poissons Ratio (z) = 0.20580 0.12828
#
# Static dielectric constant tensor:
#      x y z
#    x 3.500950 0.000000 0.000000 
#    y 0.000000 3.661900 0.000000 
#    z 0.000000 0.000000 3.353910 
# 
# 
# High freq. dielectric constant tensor:
#      x y z
#    x 1.721790 0.000000 0.000000 
#    y 0.000000 1.732750 0.000000 
#    z 0.000000 0.000000 1.714150 
# 
# From -- ./inp_files/10738.got.cif
#   From: 2010.03.12/outbox.cif.g09.slc.cpg/sg47_6_cif.got.tgz:10738.got - 2010.04.14 03:12:58.
