data_PCOD8199911
_publ_section_title
;
Structure prediction by ZEFSAII (Michael W. Deem and Ramdas Pophale) SiO2 
 PCOD8199911
Probable space group: P M M M
;
_chemical_formula_sum "Si O2"
_cell_formula_units_Z 40
_cell_length_a 14.716291
_cell_length_b 9.040464
_cell_length_c 14.990034
_cell_angle_alpha 90.000000
_cell_angle_beta 90.000000
_cell_angle_gamma 90.000000
_cell_volume 1994.305587
_symmetry_space_group_name_H-M "P M M M"
_symmetry_group_IT_number 47
_symmetry_cell_setting 'orthorhombic'
loop_
_space_group_symop_operation_xyz
x,y,z
-x,-y,z
x,-y,-z
-x,y,-z
-x,-y,-z
x,y,-z
-x,y,z
x,-y,z
loop_
_atom_site_type_symbol
_atom_site_label
_atom_site_fract_x
_atom_site_fract_y
_atom_site_fract_z
Si Si1 0.607660 0.823613 0.000000
Si Si2 0.663217 0.660444 0.659275
Si Si3 0.267179 0.666574 0.142608
Si Si4 0.500000 0.171462 0.402910
Si Si5 0.856452 0.671588 0.599112
Si Si6 0.102117 0.829744 0.779157
O O1 0.660370 0.758538 0.914867
O O2 0.500000 0.777583 0.000000
O O3 0.616162 0.000000 0.000000
O O4 0.622642 0.500000 0.632932
O O5 0.693259 0.657409 0.760142
O O6 0.588679 0.785469 0.651072
O O7 0.748336 0.698095 0.596748
O O8 0.254422 0.500000 0.103490
O O9 0.168705 0.745542 0.151556
O O10 0.500000 0.249090 0.500000
O O11 0.500000 0.000000 0.414685
O O12 0.893660 0.715448 0.500000
O O13 0.878427 0.500000 0.619556
O O14 0.899848 0.767524 0.677881
O O15 0.000000 0.814856 0.817411
O O16 0.133277 0.000000 0.774430
#
# Coordination Sequence:
#
# PCOD8199911 Si02
#       6
#     4   8   8   4   8   8
#     4  11  25  43  66  97 128 155 185 228 288 351
#     4   9  19  35  54  75 103 144 190 235 286 338
#     4  10  22  41  64  89 117 152 194 240 288 343
#     4  11  23  33  45  72 107 144 189 237 284 337
#     4   9  18  33  53  78 109 149 199 250 296 344
#     4  10  21  37  58  85 119 158 197 242 299 357
#
# _framework density 20.057107999999999
#
# number of rings (size 3 to 8) (size 9 to 14) (size 15 to 20)
#    0.000    2.200    0.000    3.600    1.400    8.800 
#    0.000    2.500    0.000    3.000    0.000    0.000 
#    0.000    0.000    0.000    0.000    0.000    0.000 
#
# Total GULP energy -495756.837786 kJ/mol
# GULP energy per Si atom -12393.920945 kJ/mol
# Density = 2.001146 g / cm^3
# Si number density = 20.057108 Si / 1000 Ang^3
#
#
#
# Elastic Constant Matrix: (Units=GPa)
#
#
# Indices 1 2 3 4 5 6 
#
# 1 128.5134 61.4338 35.1257 0.0000 0.0000 0.0000
# 2 61.4338 118.2582 27.1887 0.0000 0.0000 0.0000
# 3 35.1257 27.1887 60.2107 0.0000 0.0000 0.0000
# 4 0.0000 0.0000 0.0000 37.4541 0.0000 0.0000
# 5 0.0000 0.0000 0.0000 0.0000 5.0001 0.0000
# 6 0.0000 0.0000 0.0000 0.0000 0.0000 29.8488
#
#
#
# Elastic Compliance Matrix: (Units=1/GPa)
#
#
# Indices 1 2 3 4 5 6 
#
# 1 0.011309 -0.004863 -0.004402 0.000000 0.000000 0.000000
# 2 -0.004863 0.011527 -0.002368 0.000000 0.000000 0.000000
# 3 -0.004402 -0.002368 0.020245 0.000000 0.000000 0.000000
# 4 0.000000 0.000000 0.000000 0.026699 0.000000 0.000000
# 5 0.000000 0.000000 0.000000 0.000000 0.199994 0.000000
# 6 0.000000 0.000000 0.000000 0.000000 0.000000 0.033502
#
#
# Mechanical properties :
#
#
# Convention : Reuss Voigt Hill
#
# Bulk Modulus (GPa) = 50.46407 61.60876 56.03641
# Shear Modulus (GPa) = 15.00837 26.67621 20.84229
#
# Velocity S-wave (km/s) = 2.73844 3.65089 3.22708
# Velocity P-wave (km/s) = 5.93410 6.96817 6.47182
#
# Compressibility (1/GPa) = 0.01981608
#
# Stress axis : x y z
#
# Youngs Moduli (GPa) = 88.42528 86.75470 49.39389
#
# Poissons Ratio (x) = 0.42188 0.21741
# Poissons Ratio (y) = 0.43001 0.11697
# Poissons Ratio (z) = 0.38921 0.20544
#
# Static dielectric constant tensor:
#      x y z
#    x 3.700700 0.000000 0.000000 
#    y 0.000000 3.793510 0.000000 
#    z 0.000000 0.000000 3.687760 
# 
# 
# High freq. dielectric constant tensor:
#      x y z
#    x 1.785900 0.000000 0.000000 
#    y 0.000000 1.785630 0.000000 
#    z 0.000000 0.000000 1.772950 
# 
# From -- ./inp_files/20657.got.cif
#   From: 2010.03.12/outbox.cif.g09.slc.cpg/sg47_11_cif.got.tgz:20657.got - 2010.04.14 03:12:58.
