data_PCOD8199827
_publ_section_title
;
Structure prediction by ZEFSAII (Michael W. Deem and Ramdas Pophale) SiO2 
 PCOD8199827
Probable space group: P M M M
;
_chemical_formula_sum "Si O2"
_cell_formula_units_Z 36
_cell_length_a 9.260570
_cell_length_b 9.064437
_cell_length_c 22.882902
_cell_angle_alpha 90.000000
_cell_angle_beta 90.000000
_cell_angle_gamma 90.000000
_cell_volume 1920.833204
_symmetry_space_group_name_H-M "P M M M"
_symmetry_group_IT_number 47
_symmetry_cell_setting 'orthorhombic'
loop_
_space_group_symop_operation_xyz
x,y,z
-x,-y,z
x,-y,-z
-x,y,-z
-x,-y,-z
x,y,-z
-x,y,z
x,-y,z
loop_
_atom_site_type_symbol
_atom_site_label
_atom_site_fract_x
_atom_site_fract_y
_atom_site_fract_z
Si Si1 0.666314 0.830695 0.067651
Si Si2 0.667338 0.328426 0.612481
Si Si3 0.163115 0.324420 0.500000
Si Si4 0.333705 0.173323 0.269359
Si Si5 0.169340 0.329315 0.834020
O O1 0.500000 0.798360 0.083068
O O2 0.767072 0.722995 0.104360
O O3 0.703073 0.000000 0.082928
O O4 0.696931 0.798410 0.000000
O O5 0.500000 0.299764 0.598856
O O6 0.699261 0.500000 0.623247
O O7 0.756872 0.265092 0.557742
O O8 0.719289 0.241918 0.669690
O O9 0.169285 0.500000 0.500000
O O10 0.000000 0.264848 0.500000
O O11 0.500000 0.215488 0.257395
O O12 0.237883 0.236778 0.217909
O O13 0.310918 0.000000 0.272458
O O14 0.206922 0.500000 0.824807
O O15 0.000000 0.300078 0.834614
#
# Coordination Sequence:
#
# PCOD8199827 Si02
#       5
#     8   8   4   8   8
#     4   9  19  37  60  84 109 139 177 219 262 311
#     4   9  17  31  52  76 102 134 172 213 259 311
#     4   9  17  29  48  75 104 134 170 213 258 305
#     4  10  21  37  57  80 105 136 177 223 269 317
#     4  11  24  38  53  78 111 144 178 218 264 314
#
# _framework density 18.741868
#
# number of rings (size 3 to 8) (size 9 to 14) (size 15 to 20)
#    0.000    2.333    0.000    3.000    0.000    9.333 
#    0.000    6.111    0.000    3.333    0.000    0.000 
#    0.000    0.000    0.000    0.000    0.000    0.000 
#
# Total GULP energy -446527.006045 kJ/mol
# GULP energy per Si atom -12403.527946 kJ/mol
# Density = 1.869921 g / cm^3
# Si number density = 18.741868 Si / 1000 Ang^3
#
#
#
# Elastic Constant Matrix: (Units=GPa)
#
#
# Indices 1 2 3 4 5 6 
#
# 1 81.1631 39.8646 61.9893 0.0000 0.0000 0.0000
# 2 39.8646 60.7541 47.8156 0.0000 0.0000 0.0000
# 3 61.9893 47.8156 132.9236 0.0000 0.0000 0.0000
# 4 0.0000 0.0000 0.0000 -4.8711 0.0000 0.0000
# 5 0.0000 0.0000 0.0000 0.0000 3.6981 0.0000
# 6 0.0000 0.0000 0.0000 0.0000 0.0000 25.5744
#
#
#
# Elastic Compliance Matrix: (Units=1/GPa)
#
#
# Indices 1 2 3 4 5 6 
#
# 1 0.022139 -0.008929 -0.007113 0.000000 0.000000 0.000000
# 2 -0.008929 0.026561 -0.005391 0.000000 0.000000 0.000000
# 3 -0.007113 -0.005391 0.012779 0.000000 0.000000 0.000000
# 4 0.000000 0.000000 0.000000 -0.205293 0.000000 0.000000
# 5 0.000000 0.000000 0.000000 0.000000 0.270407 0.000000
# 6 0.000000 0.000000 0.000000 0.000000 0.000000 0.039102
#
#
# Mechanical properties :
#
#
# Convention : Reuss Voigt Hill
#
# Bulk Modulus (GPa) = 53.71993 63.79775 58.75884
# Shear Modulus (GPa) = 23.28140 13.22504 18.25322
#
# Velocity S-wave (km/s) = 3.52833 2.65927 3.12417
# Velocity P-wave (km/s) = 6.73232 6.59872 6.66585
#
# Compressibility (1/GPa) = 0.01861507
#
# Stress axis : x y z
#
# Youngs Moduli (GPa) = 45.16981 37.64895 78.25189
#
# Poissons Ratio (x) = 0.33616 0.55657
# Poissons Ratio (y) = 0.40331 0.42183
# Poissons Ratio (z) = 0.32127 0.20295
#
# Static dielectric constant tensor:
#      x y z
#    x 3.432160 0.000000 0.000000 
#    y 0.000000 3.329460 0.000000 
#    z 0.000000 0.000000 3.584380 
# 
# 
# High freq. dielectric constant tensor:
#      x y z
#    x 1.723580 0.000000 0.000000 
#    y 0.000000 1.716080 0.000000 
#    z 0.000000 0.000000 1.743020 
# 
# From -- ./inp_files/31656.got.cif
#   From: 2010.03.12/outbox.cif.g09.slc.cpg/sg47_16_cif.got.tgz:31656.got - 2010.04.14 03:12:58.
