data_PCOD8199743
_publ_section_title
;
Structure prediction by ZEFSAII (Michael W. Deem and Ramdas Pophale) SiO2 
 PCOD8199743
Probable space group: P M M M
;
_chemical_formula_sum "Si O2"
_cell_formula_units_Z 40
_cell_length_a 8.695971
_cell_length_b 25.993473
_cell_length_c 9.290430
_cell_angle_alpha 90.000000
_cell_angle_beta 90.000000
_cell_angle_gamma 90.000000
_cell_volume 2099.994744
_symmetry_space_group_name_H-M "P M M M"
_symmetry_group_IT_number 47
_symmetry_cell_setting 'orthorhombic'
loop_
_space_group_symop_operation_xyz
x,y,z
-x,-y,z
x,-y,-z
-x,y,-z
-x,-y,-z
x,y,-z
-x,y,z
x,-y,z
loop_
_atom_site_type_symbol
_atom_site_label
_atom_site_fract_x
_atom_site_fract_y
_atom_site_fract_z
Si Si1 0.324535 0.792668 0.832326
Si Si2 0.818406 0.500000 0.163140
Si Si3 0.680424 0.405816 0.665626
Si Si4 0.669255 0.000000 0.328478
Si Si5 0.179107 0.686114 0.166741
Si Si6 0.683982 0.890006 0.661570
O O1 0.500000 0.782401 0.782716
O O2 0.221930 0.743970 0.787863
O O3 0.253593 0.843316 0.757948
O O4 0.315763 0.803228 0.000000
O O5 0.764447 0.550330 0.245489
O O6 0.000000 0.500000 0.158749
O O7 0.752630 0.500000 0.000000
O O8 0.735112 0.407615 0.500000
O O9 0.500000 0.415077 0.676939
O O10 0.722502 0.351133 0.733161
O O11 0.751112 0.945813 0.283267
O O12 0.500000 0.000000 0.258449
O O13 0.654099 0.000000 0.500000
O O14 0.000000 0.676456 0.194081
O O15 0.222500 0.676153 0.000000
O O16 0.740454 0.879093 0.500000
O O17 0.500000 0.892935 0.668356
#
# Coordination Sequence:
#
# PCOD8199743 Si02
#       6
#     8   4   8   4   8   8
#     4   9  17  29  45  67  96 127 159 201 253 303
#     4  11  24  41  62  88 116 147 182 215 250 298
#     4  11  24  40  59  85 114 142 175 216 260 304
#     4   7  10  18  33  55  84 117 152 192 240 293
#     4  10  21  37  56  77 102 136 177 216 257 309
#     4   8  13  22  38  60  87 120 157 196 241 297
#
# _framework density 19.047667000000001
#
# number of rings (size 3 to 8) (size 9 to 14) (size 15 to 20)
#    0.000    2.600    0.000    3.600    0.000    8.000 
#    0.000    2.500    0.000    3.000    0.000    0.700 
#    0.000    5.600    0.000    0.000    0.000    0.000 
#
# Total GULP energy -495795.564075 kJ/mol
# GULP energy per Si atom -12394.889102 kJ/mol
# Density = 1.900431 g / cm^3
# Si number density = 19.047667 Si / 1000 Ang^3
#
#
#
# Elastic Constant Matrix: (Units=GPa)
#
#
# Indices 1 2 3 4 5 6 
#
# 1 35.7905 21.2930 27.2796 0.0000 0.0000 0.0000
# 2 21.2930 155.0170 72.4005 0.0000 0.0000 0.0000
# 3 27.2796 72.4005 94.2518 0.0000 0.0000 0.0000
# 4 0.0000 0.0000 0.0000 39.2246 0.0000 0.0000
# 5 0.0000 0.0000 0.0000 0.0000 18.2195 0.0000
# 6 0.0000 0.0000 0.0000 0.0000 0.0000 -19.1767
#
#
#
# Elastic Compliance Matrix: (Units=1/GPa)
#
#
# Indices 1 2 3 4 5 6 
#
# 1 0.035850 -0.000122 -0.010283 0.000000 0.000000 0.000000
# 2 -0.000122 0.010061 -0.007693 0.000000 0.000000 0.000000
# 3 -0.010283 -0.007693 0.019495 0.000000 0.000000 0.000000
# 4 0.000000 0.000000 0.000000 0.025494 0.000000 0.000000
# 5 0.000000 0.000000 0.000000 0.000000 0.054886 0.000000
# 6 0.000000 0.000000 0.000000 0.000000 0.000000 -0.052147
#
#
# Mechanical properties :
#
#
# Convention : Reuss Voigt Hill
#
# Bulk Modulus (GPa) = 34.23310 58.55617 46.39463
# Shear Modulus (GPa) = 35.82376 18.59257 27.20817
#
# Velocity S-wave (km/s) = 4.34146 3.12766 3.78355
# Velocity P-wave (km/s) = 6.56828 6.62206 6.59523
#
# Compressibility (1/GPa) = 0.02921150
#
# Stress axis : x y z
#
# Youngs Moduli (GPa) = 27.89373 99.39765 51.29410
#
# Poissons Ratio (x) = 0.01211 0.52744
# Poissons Ratio (y) = 0.00340 0.39460
# Poissons Ratio (z) = 0.28682 0.76466
#
# Static dielectric constant tensor:
#      x y z
#    x 3.158840 0.000000 0.000000 
#    y 0.000000 3.933210 0.000000 
#    z 0.000000 0.000000 3.499060 
# 
# 
# High freq. dielectric constant tensor:
#      x y z
#    x 1.703940 0.000000 0.000000 
#    y 0.000000 1.765030 0.000000 
#    z 0.000000 0.000000 1.726680 
# 
# From -- ./inp_files/1810.got.cif
#   From: 2010.03.12/outbox.cif.g09.slc.cpg/sg47_1_cif.got.tgz:1810.got - 2010.04.14 03:12:58.
