data_PCOD8199912
_publ_section_title
;
Structure prediction by ZEFSAII (Michael W. Deem and Ramdas Pophale) SiO2 
 PCOD8199912
Probable space group: P M M M
;
_chemical_formula_sum "Si O2"
_cell_formula_units_Z 48
_cell_length_a 9.639122
_cell_length_b 28.885260
_cell_length_c 8.531203
_cell_angle_alpha 90.000000
_cell_angle_beta 90.000000
_cell_angle_gamma 90.000000
_cell_volume 2375.330440
_symmetry_space_group_name_H-M "P M M M"
_symmetry_group_IT_number 47
_symmetry_cell_setting 'orthorhombic'
loop_
_space_group_symop_operation_xyz
x,y,z
-x,-y,z
x,-y,-z
-x,y,-z
-x,-y,-z
x,y,-z
-x,y,z
x,-y,z
loop_
_atom_site_type_symbol
_atom_site_label
_atom_site_fract_x
_atom_site_fract_y
_atom_site_fract_z
Si Si1 0.157495 0.214462 0.685107
Si Si2 0.000000 0.552193 0.314146
Si Si3 0.341073 0.294602 0.182977
Si Si4 0.737553 0.391875 0.316833
Si Si5 0.500000 0.554119 0.824450
Si Si6 0.843454 0.053346 0.183301
Si Si7 0.343194 0.869222 0.315380
O O1 0.148119 0.209966 0.500000
O O2 0.235674 0.261549 0.726403
O O3 0.247891 0.171953 0.755716
O O4 0.000000 0.213907 0.754711
O O5 0.125512 0.583378 0.254748
O O6 0.000000 0.500000 0.241103
O O7 0.000000 0.547199 0.500000
O O8 0.500000 0.287082 0.241128
O O9 0.293530 0.346442 0.217071
O O10 0.329713 0.284327 0.000000
O O11 0.741901 0.378841 0.500000
O O12 0.626964 0.430778 0.280986
O O13 0.500000 0.500000 0.842445
O O14 0.500000 0.576615 0.000000
O O15 0.728895 0.082307 0.275658
O O16 0.000000 0.067576 0.234409
O O17 0.817338 0.000000 0.225505
O O18 0.824306 0.062082 0.000000
O O19 0.352981 0.863832 0.500000
O O20 0.500000 0.867082 0.244625
#
# Coordination Sequence:
#
# PCOD8199912 Si02
#       7
#     8   4   8   8   4   8   8
#     4  10  22  40  63  88 114 148 194 242 289 347
#     4   9  20  38  59  87 119 147 187 241 286 333
#     4  11  24  41  60  85 119 153 188 235 292 350
#     4  11  22  38  63  89 115 153 196 239 288 343
#     4  11  23  39  59  87 123 157 193 239 288 341
#     4   9  19  36  57  82 115 157 203 248 294 349
#     4  10  21  37  58  86 119 154 194 244 297 350
#
# _framework density 20.207716000000001
#
# number of rings (size 3 to 8) (size 9 to 14) (size 15 to 20)
#    0.000    1.833    0.833    3.250    1.167    6.000 
#    0.000    3.750    0.000    3.000    0.000    0.000 
#    0.000    0.000    0.000    0.000    0.000    0.000 
#
# Total GULP energy -595128.580045 kJ/mol
# GULP energy per Si atom -12398.512084 kJ/mol
# Density = 2.016172 g / cm^3
# Si number density = 20.207716 Si / 1000 Ang^3
#
#
#
# Elastic Constant Matrix: (Units=GPa)
#
#
# Indices 1 2 3 4 5 6 
#
# 1 196.9648 74.9746 17.4820 0.0000 0.0000 0.0000
# 2 74.9746 106.6100 9.2205 0.0000 0.0000 0.0000
# 3 17.4820 9.2205 16.8929 0.0000 0.0000 0.0000
# 4 0.0000 0.0000 0.0000 19.0433 0.0000 0.0000
# 5 0.0000 0.0000 0.0000 0.0000 21.3814 0.0000
# 6 0.0000 0.0000 0.0000 0.0000 0.0000 35.0515
#
#
#
# Elastic Compliance Matrix: (Units=1/GPa)
#
#
# Indices 1 2 3 4 5 6 
#
# 1 0.007314 -0.004711 -0.004997 0.000000 0.000000 0.000000
# 2 -0.004711 0.012880 -0.002154 0.000000 0.000000 0.000000
# 3 -0.004997 -0.002154 0.065544 0.000000 0.000000 0.000000
# 4 0.000000 0.000000 0.000000 0.052512 0.000000 0.000000
# 5 0.000000 0.000000 0.000000 0.000000 0.046770 0.000000
# 6 0.000000 0.000000 0.000000 0.000000 0.000000 0.028529
#
#
# Mechanical properties :
#
#
# Convention : Reuss Voigt Hill
#
# Bulk Modulus (GPa) = 16.12603 58.20241 37.16422
# Shear Modulus (GPa) = 19.38394 29.68130 24.53262
#
# Velocity S-wave (km/s) = 3.10051 3.83666 3.48806
# Velocity P-wave (km/s) = 4.56235 6.96357 5.88669
#
# Compressibility (1/GPa) = 0.06201152
#
# Stress axis : x y z
#
# Youngs Moduli (GPa) = 136.72387 77.64183 15.25689
#
# Poissons Ratio (x) = 0.36580 0.07625
# Poissons Ratio (y) = 0.64417 0.03287
# Poissons Ratio (z) = 0.68327 0.16726
#
# Static dielectric constant tensor:
#      x y z
#    x 4.045770 0.000000 0.000000 
#    y 0.000000 3.712340 0.000000 
#    z 0.000000 0.000000 3.438540 
# 
# 
# High freq. dielectric constant tensor:
#      x y z
#    x 1.805570 0.000000 0.000000 
#    y 0.000000 1.798480 0.000000 
#    z 0.000000 0.000000 1.768720 
# 
# From -- ./inp_files/2642.got.cif
#   From: 2010.03.12/outbox.cif.g09.slc.cpg/sg47_2_cif.got.tgz:2642.got - 2010.04.14 03:12:58.
