data_PCOD8199941
_publ_section_title
;
Structure prediction by ZEFSAII (Michael W. Deem and Ramdas Pophale) SiO2 
 PCOD8199941
Probable space group: P M M M
;
_chemical_formula_sum "Si O2"
_cell_formula_units_Z 24
_cell_length_a 8.823977
_cell_length_b 9.960138
_cell_length_c 12.298560
_cell_angle_alpha 90.000000
_cell_angle_beta 90.000000
_cell_angle_gamma 90.000000
_cell_volume 1080.896193
_symmetry_space_group_name_H-M "P M M M"
_symmetry_group_IT_number 47
_symmetry_cell_setting 'orthorhombic'
loop_
_space_group_symop_operation_xyz
x,y,z
-x,-y,z
x,-y,-z
-x,y,-z
-x,-y,-z
x,y,-z
-x,y,z
x,-y,z
loop_
_atom_site_type_symbol
_atom_site_label
_atom_site_fract_x
_atom_site_fract_y
_atom_site_fract_z
Si Si1 0.179082 0.272294 0.376276
Si Si2 0.325112 0.352255 0.169714
Si Si3 0.179540 0.843710 0.000000
Si Si4 0.667922 0.000000 0.372557
O O1 0.230378 0.305796 0.500000
O O2 0.258452 0.371325 0.291445
O O3 0.000000 0.282601 0.366567
O O4 0.233852 0.126593 0.336821
O O5 0.500000 0.310489 0.175032
O O6 0.306961 0.500000 0.114574
O O7 0.238710 0.235404 0.105421
O O8 0.000000 0.838557 0.000000
O O9 0.234997 0.000000 0.000000
O O10 0.500000 0.000000 0.317792
O O11 0.646043 0.000000 0.500000
#
# Coordination Sequence:
#
# PCOD8199941 Si02
#       4
#     8   8   4   4
#     4  10  21  37  60  92 131 174 219 267 320 381
#     4  11  25  44  67  96 132 174 218 267 325 388
#     4  11  26  47  72 100 128 163 212 271 331 391
#     4   9  17  31  53  82 119 164 211 261 316 371
#
# _framework density 22.203799
#
# number of rings (size 3 to 8) (size 9 to 14) (size 15 to 20)
#    0.000    1.667    0.000    3.500    2.333   10.667 
#    0.000    3.333    0.000    0.000    0.000    0.000 
#    0.000    0.000    0.000    0.000    0.000    0.000 
#
# Total GULP energy -297480.860083 kJ/mol
# GULP energy per Si atom -12395.035837 kJ/mol
# Density = 2.215326 g / cm^3
# Si number density = 22.203799 Si / 1000 Ang^3
#
#
#
# Elastic Constant Matrix: (Units=GPa)
#
#
# Indices 1 2 3 4 5 6 
#
# 1 114.5224 50.8141 49.0007 0.0000 0.0000 0.0000
# 2 50.8141 133.1452 49.5076 0.0000 0.0000 0.0000
# 3 49.0007 49.5076 125.3051 0.0000 0.0000 0.0000
# 4 0.0000 0.0000 0.0000 23.8053 0.0000 0.0000
# 5 0.0000 0.0000 0.0000 0.0000 34.6924 0.0000
# 6 0.0000 0.0000 0.0000 0.0000 0.0000 35.5228
#
#
#
# Elastic Compliance Matrix: (Units=1/GPa)
#
#
# Indices 1 2 3 4 5 6 
#
# 1 0.011541 -0.003196 -0.003250 0.000000 0.000000 0.000000
# 2 -0.003196 0.009689 -0.002578 0.000000 0.000000 0.000000
# 3 -0.003250 -0.002578 0.010270 0.000000 0.000000 0.000000
# 4 0.000000 0.000000 0.000000 0.042007 0.000000 0.000000
# 5 0.000000 0.000000 0.000000 0.000000 0.028825 0.000000
# 6 0.000000 0.000000 0.000000 0.000000 0.000000 0.028151
#
#
# Mechanical properties :
#
#
# Convention : Reuss Voigt Hill
#
# Bulk Modulus (GPa) = 74.34463 74.62415 74.48439
# Shear Modulus (GPa) = 32.67640 33.71413 33.19527
#
# Velocity S-wave (km/s) = 3.84038 3.90089 3.87075
# Velocity P-wave (km/s) = 7.29522 7.34649 7.32090
#
# Compressibility (1/GPa) = 0.01345087
#
# Stress axis : x y z
#
# Youngs Moduli (GPa) = 86.65035 103.20998 97.36864
#
# Poissons Ratio (x) = 0.32984 0.31648
# Poissons Ratio (y) = 0.27692 0.25105
# Poissons Ratio (z) = 0.28164 0.26611
#
# Static dielectric constant tensor:
#      x y z
#    x 3.958480 0.000000 0.000000 
#    y 0.000000 -19.922930 0.000000 
#    z 0.000000 0.000000 4.000600 
# 
# 
# High freq. dielectric constant tensor:
#      x y z
#    x 1.879980 0.000000 0.000000 
#    y 0.000000 1.879810 0.000000 
#    z 0.000000 0.000000 1.871850 
# 
# From -- ./inp_files/14507.got.cif
#   From: 2010.03.12/outbox.cif.g09.slc.cpg/sg47_8_cif.got.tgz:14507.got - 2010.04.14 03:12:58.
