data_PCOD8199680
_publ_section_title
;
Structure prediction by ZEFSAII (Michael W. Deem and Ramdas Pophale) SiO2 
 PCOD8199680
Probable space group: P M M M
;
_chemical_formula_sum "Si O2"
_cell_formula_units_Z 44
_cell_length_a 19.199145
_cell_length_b 13.755249
_cell_length_c 9.309532
_cell_angle_alpha 90.000000
_cell_angle_beta 90.000000
_cell_angle_gamma 90.000000
_cell_volume 2458.545183
_symmetry_space_group_name_H-M "P M M M"
_symmetry_group_IT_number 47
_symmetry_cell_setting 'orthorhombic'
loop_
_space_group_symop_operation_xyz
x,y,z
-x,-y,z
x,-y,-z
-x,y,-z
-x,-y,-z
x,y,-z
-x,y,z
x,-y,z
loop_
_atom_site_type_symbol
_atom_site_label
_atom_site_fract_x
_atom_site_fract_y
_atom_site_fract_z
Si Si1 0.500000 0.384785 0.839256
Si Si2 0.879366 0.610788 0.162627
Si Si3 0.225741 0.283860 0.332472
Si Si4 0.000000 0.305595 0.345269
Si Si5 0.154690 0.109628 0.836845
Si Si6 0.633086 0.388584 0.335521
Si Si7 0.000000 0.106463 0.260668
O O1 0.500000 0.500000 0.840523
O O2 0.430719 0.348886 0.758970
O O3 0.500000 0.341767 0.000000
O O4 0.902820 0.500000 0.162191
O O5 0.807581 0.625685 0.246077
O O6 0.933773 0.672390 0.250941
O O7 0.874356 0.650706 0.000000
O O8 0.204025 0.285435 0.500000
O O9 0.198645 0.182623 0.264784
O O10 0.307109 0.307255 0.313310
O O11 0.000000 0.190579 0.380224
O O12 0.000000 0.360222 0.500000
O O13 0.070666 0.120569 0.831851
O O14 0.175492 0.000000 0.790274
O O15 0.177729 0.130296 0.000000
O O16 0.608843 0.389313 0.500000
O O17 0.655356 0.500000 0.292553
O O18 0.000000 0.000000 0.334477
#
# Coordination Sequence:
#
# PCOD8199680 Si02
#       7
#     4   8   8   4   8   8   4
#     4   9  17  29  49  79 110 139 176 219 255 292
#     4  11  24  39  54  72  99 138 178 217 263 316
#     4  11  22  35  54  80 108 139 175 218 265 312
#     4  12  24  37  55  77  99 131 172 221 273 318
#     4  10  21  37  57  79 104 137 176 221 275 330
#     4   9  18  33  52  75 108 148 181 209 250 306
#     4  10  21  36  57  81 103 130 171 221 277 331
#
# _framework density 17.896763
#
# number of rings (size 3 to 8) (size 9 to 14) (size 15 to 20)
#    0.000    1.727    1.818    2.727    0.000    8.182 
#    0.000    3.636    0.000    0.000    0.000    0.636 
#    0.000    5.091    0.000    0.000    0.000    0.000 
#
# Total GULP energy -545176.233359 kJ/mol
# GULP energy per Si atom -12390.368940 kJ/mol
# Density = 1.785603 g / cm^3
# Si number density = 17.896763 Si / 1000 Ang^3
#
#
#
# Elastic Constant Matrix: (Units=GPa)
#
#
# Indices 1 2 3 4 5 6 
#
# 1 105.8921 41.3845 68.0792 0.0000 0.0000 0.0000
# 2 41.3845 97.3065 45.7946 0.0000 0.0000 0.0000
# 3 68.0792 45.7946 141.9211 0.0000 0.0000 0.0000
# 4 0.0000 0.0000 0.0000 21.7135 0.0000 0.0000
# 5 0.0000 0.0000 0.0000 0.0000 32.5966 0.0000
# 6 0.0000 0.0000 0.0000 0.0000 0.0000 11.7332
#
#
#
# Elastic Compliance Matrix: (Units=1/GPa)
#
#
# Indices 1 2 3 4 5 6 
#
# 1 0.014563 -0.003426 -0.005880 0.000000 0.000000 0.000000
# 2 -0.003426 0.012923 -0.002526 0.000000 0.000000 0.000000
# 3 -0.005880 -0.002526 0.010682 0.000000 0.000000 0.000000
# 4 0.000000 0.000000 0.000000 0.046054 0.000000 0.000000
# 5 0.000000 0.000000 0.000000 0.000000 0.030678 0.000000
# 6 0.000000 0.000000 0.000000 0.000000 0.000000 0.085229
#
#
# Mechanical properties :
#
#
# Convention : Reuss Voigt Hill
#
# Bulk Modulus (GPa) = 68.95452 72.84847 70.90150
# Shear Modulus (GPa) = 21.86948 25.86609 23.86778
#
# Velocity S-wave (km/s) = 3.49947 3.80583 3.65586
# Velocity P-wave (km/s) = 7.41223 7.75278 7.58442
#
# Compressibility (1/GPa) = 0.01450231
#
# Stress axis : x y z
#
# Youngs Moduli (GPa) = 68.66639 77.38157 93.61424
#
# Poissons Ratio (x) = 0.26513 0.55048
# Poissons Ratio (y) = 0.23527 0.23650
# Poissons Ratio (z) = 0.40378 0.19549
#
# Static dielectric constant tensor:
#      x y z
#    x 2.491110 0.000000 0.000000 
#    y 0.000000 3.297600 0.000000 
#    z 0.000000 0.000000 3.426480 
# 
# 
# High freq. dielectric constant tensor:
#      x y z
#    x 1.674180 0.000000 0.000000 
#    y 0.000000 1.679840 0.000000 
#    z 0.000000 0.000000 1.703460 
# 
# From -- ./inp_files/9045.got.cif
#   From: 2010.03.12/outbox.cif.g09.slc.cpg/sg47_5_cif.got.tgz:9045.got - 2010.04.14 03:12:58.
