data_PCOD8199354
_publ_section_title
;
Structure prediction by ZEFSAII (Michael W. Deem and Ramdas Pophale) SiO2 
 PCOD8199354
Probable space group: P M M M
;
_chemical_formula_sum "Si O2"
_cell_formula_units_Z 32
_cell_length_a 10.550695
_cell_length_b 17.557880
_cell_length_c 8.868105
_cell_angle_alpha 90.000000
_cell_angle_beta 90.000000
_cell_angle_gamma 90.000000
_cell_volume 1642.797267
_symmetry_space_group_name_H-M "P M M M"
_symmetry_group_IT_number 47
_symmetry_cell_setting 'orthorhombic'
loop_
_space_group_symop_operation_xyz
x,y,z
-x,-y,z
x,-y,-z
-x,y,-z
-x,-y,-z
x,y,-z
-x,y,z
x,-y,z
loop_
_atom_site_type_symbol
_atom_site_label
_atom_site_fract_x
_atom_site_fract_y
_atom_site_fract_z
Si Si1 0.857151 0.500000 0.163561
Si Si2 0.358540 0.914426 0.179161
Si Si3 0.235453 0.646948 0.677918
Si Si4 0.500000 0.586197 0.677766
Si Si5 0.856381 0.199009 0.821624
O O1 0.834234 0.572319 0.267193
O O2 0.000000 0.500000 0.116090
O O3 0.782884 0.500000 0.000000
O O4 0.500000 0.886997 0.230832
O O5 0.247148 0.860585 0.245013
O O6 0.334362 0.000000 0.239369
O O7 0.352252 0.914245 0.000000
O O8 0.220666 0.655806 0.500000
O O9 0.380852 0.636323 0.729770
O O10 0.173080 0.718980 0.755682
O O11 0.500000 0.500000 0.748653
O O12 0.500000 0.575232 0.500000
O O13 0.000000 0.174231 0.776341
O O14 0.843806 0.204117 0.000000
#
# Coordination Sequence:
#
# PCOD8199354 Si02
#       5
#     4   8   8   4   8
#     4  11  23  38  55  76 106 141 178 225 274 315
#     4   8  15  30  53  80 109 142 181 223 267 320
#     4  11  22  37  57  78 105 142 182 221 268 327
#     4   9  18  36  56  76 101 130 173 229 274 312
#     4  10  21  35  52  80 115 144 177 226 274 316
#
# _framework density 19.478968999999999
#
# number of rings (size 3 to 8) (size 9 to 14) (size 15 to 20)
#    0.000    2.250    1.250    2.625    1.750    5.000 
#    0.000    5.000    0.000    0.750    0.000    3.500 
#    0.000    0.000    0.000    0.000    0.000    0.000 
#
# Total GULP energy -396566.490802 kJ/mol
# GULP energy per Si atom -12392.702838 kJ/mol
# Density = 1.943463 g / cm^3
# Si number density = 19.478969 Si / 1000 Ang^3
#
#
#
# Elastic Constant Matrix: (Units=GPa)
#
#
# Indices 1 2 3 4 5 6 
#
# 1 166.0297 83.4145 33.7058 0.0000 0.0000 0.0000
# 2 83.4145 134.6071 11.4833 0.0000 0.0000 0.0000
# 3 33.7058 11.4833 -5.1372 0.0000 0.0000 0.0000
# 4 0.0000 0.0000 0.0000 -16.5423 0.0000 0.0000
# 5 0.0000 0.0000 0.0000 0.0000 19.8174 0.0000
# 6 0.0000 0.0000 0.0000 0.0000 0.0000 7.9482
#
#
#
# Elastic Compliance Matrix: (Units=1/GPa)
#
#
# Indices 1 2 3 4 5 6 
#
# 1 0.004349 -0.004308 0.018906 0.000000 0.000000 0.000000
# 2 -0.004308 0.010507 -0.004780 0.000000 0.000000 0.000000
# 3 0.018906 -0.004780 -0.081299 0.000000 0.000000 0.000000
# 4 0.000000 0.000000 0.000000 -0.060451 0.000000 0.000000
# 5 0.000000 0.000000 0.000000 0.000000 0.050461 0.000000
# 6 0.000000 0.000000 0.000000 0.000000 0.000000 0.125815
#
#
# Mechanical properties :
#
#
# Convention : Reuss Voigt Hill
#
# Bulk Modulus (GPa) = -21.36412 61.41186 20.02387
# Shear Modulus (GPa) = 353.51061 13.37106 183.44083
#
# Velocity S-wave (km/s) = 13.48619 2.62283 9.71485
# Velocity P-wave (km/s) = 15.21550 6.38499 11.66789
#
# Compressibility (1/GPa) = -0.04680746
#
# Stress axis : x y z
#
# Youngs Moduli (GPa) = 229.92388 95.17914 -12.30032
#
# Poissons Ratio (x) = 0.41004 0.23255
# Poissons Ratio (y) = 0.99053 -0.05880
# Poissons Ratio (z) = -4.34699 0.45500
#
# Static dielectric constant tensor:
#      x y z
#    x 4.189290 0.000000 0.000000 
#    y 0.000000 3.588820 0.000000 
#    z 0.000000 0.000000 3.188430 
# 
# 
# High freq. dielectric constant tensor:
#      x y z
#    x 1.775290 0.000000 0.000000 
#    y 0.000000 1.756480 0.000000 
#    z 0.000000 0.000000 1.723210 
# 
# From -- ./inp_files/3436.got.cif
#   From: 2010.03.12/outbox.cif.g09.slc.cpg/sg47_2_cif.got.tgz:3436.got - 2010.04.14 03:12:58.
