data_PCOD8199829
_publ_section_title
;
Structure prediction by ZEFSAII (Michael W. Deem and Ramdas Pophale) SiO2 
 PCOD8199829
Probable space group: P M M M
;
_chemical_formula_sum "Si O2"
_cell_formula_units_Z 48
_cell_length_a 9.200755
_cell_length_b 9.073068
_cell_length_c 31.018486
_cell_angle_alpha 90.000000
_cell_angle_beta 90.000000
_cell_angle_gamma 90.000000
_cell_volume 2589.394543
_symmetry_space_group_name_H-M "P M M M"
_symmetry_group_IT_number 47
_symmetry_cell_setting 'orthorhombic'
loop_
_space_group_symop_operation_xyz
x,y,z
-x,-y,z
x,-y,-z
-x,y,-z
-x,-y,-z
x,y,-z
-x,y,z
x,-y,z
loop_
_atom_site_type_symbol
_atom_site_label
_atom_site_fract_x
_atom_site_fract_y
_atom_site_fract_z
Si Si1 0.328653 0.670563 0.500000
Si Si2 0.336062 0.675520 0.748519
Si Si3 0.327136 0.833798 0.000000
Si Si4 0.831640 0.669755 0.664503
Si Si5 0.668388 0.327465 0.084923
Si Si6 0.831424 0.827860 0.423079
Si Si7 0.164113 0.675636 0.830997
O O1 0.284275 0.500000 0.500000
O O2 0.500000 0.692980 0.500000
O O3 0.265051 0.745520 0.542241
O O4 0.500000 0.736535 0.749965
O O5 0.334240 0.500000 0.749999
O O6 0.260149 0.730389 0.704758
O O7 0.248942 0.739188 0.789522
O O8 0.268597 0.752950 0.957316
O O9 0.500000 0.826544 0.000000
O O10 0.268638 0.000000 0.000000
O O11 0.794371 0.500000 0.653990
O O12 0.787777 0.767495 0.623680
O O13 0.000000 0.687925 0.676535
O O14 0.500000 0.289936 0.092975
O O15 0.691863 0.500000 0.077818
O O16 0.756964 0.267498 0.125914
O O17 0.000000 0.795637 0.433024
O O18 0.796641 0.000000 0.424968
O O19 0.166156 0.500000 0.829900
O O20 0.000000 0.736231 0.830215
#
# Coordination Sequence:
#
# PCOD8199829 Si02
#       7
#     4   8   4   8   8   8   8
#     4  11  24  39  56  80 108 137 172 215 260 304
#     4   9  16  26  43  69  99 128 159 198 242 286
#     4   9  17  29  46  67  90 118 152 189 230 278
#     4   9  17  30  49  73 101 133 167 203 244 290
#     4   9  16  27  45  68  92 118 151 191 233 278
#     4  10  21  37  57  80 106 138 175 212 253 304
#     4   9  16  26  42  66  95 124 154 192 239 286
#
# _framework density 18.537151000000001
#
# number of rings (size 3 to 8) (size 9 to 14) (size 15 to 20)
#    0.000    2.667    0.000    2.250    0.000    8.333 
#    0.000    2.083    0.000    4.000    0.000    0.000 
#    0.000    0.000    0.000    0.000    0.000    0.000 
#
# Total GULP energy -595255.408328 kJ/mol
# GULP energy per Si atom -12401.154340 kJ/mol
# Density = 1.849496 g / cm^3
# Si number density = 18.537151 Si / 1000 Ang^3
#
#
#
# Elastic Constant Matrix: (Units=GPa)
#
#
# Indices 1 2 3 4 5 6 
#
# 1 109.2452 41.1438 93.1532 0.0000 0.0000 0.0000
# 2 41.1438 64.1155 62.5160 0.0000 0.0000 0.0000
# 3 93.1532 62.5160 192.2508 0.0000 0.0000 0.0000
# 4 0.0000 0.0000 0.0000 -5.5659 0.0000 0.0000
# 5 0.0000 0.0000 0.0000 0.0000 36.4681 0.0000
# 6 0.0000 0.0000 0.0000 0.0000 0.0000 13.5143
#
#
#
# Elastic Compliance Matrix: (Units=1/GPa)
#
#
# Indices 1 2 3 4 5 6 
#
# 1 0.016282 -0.004035 -0.006577 0.000000 0.000000 0.000000
# 2 -0.004035 0.023838 -0.005796 0.000000 0.000000 0.000000
# 3 -0.006577 -0.005796 0.010273 0.000000 0.000000 0.000000
# 4 0.000000 0.000000 0.000000 -0.179665 0.000000 0.000000
# 5 0.000000 0.000000 0.000000 0.000000 0.027421 0.000000
# 6 0.000000 0.000000 0.000000 0.000000 0.000000 0.073996
#
#
# Mechanical properties :
#
#
# Convention : Reuss Voigt Hill
#
# Bulk Modulus (GPa) = 56.89665 84.35973 70.62819
# Shear Modulus (GPa) = 462.07969 20.13653 241.10811
#
# Velocity S-wave (km/s) = 15.80549 3.29945 11.41709
# Velocity P-wave (km/s) = 19.07471 7.75387 14.55965
#
# Compressibility (1/GPa) = 0.01757573
#
# Stress axis : x y z
#
# Youngs Moduli (GPa) = 61.41906 41.94953 97.34088
#
# Poissons Ratio (x) = 0.16928 0.64020
# Poissons Ratio (y) = 0.24784 0.56423
# Poissons Ratio (z) = 0.40395 0.24316
#
# Static dielectric constant tensor:
#      x y z
#    x 3.394700 0.000000 0.000000 
#    y 0.000000 3.066540 0.000000 
#    z 0.000000 0.000000 3.640720 
# 
# 
# High freq. dielectric constant tensor:
#      x y z
#    x 1.711080 0.000000 0.000000 
#    y 0.000000 1.678890 0.000000 
#    z 0.000000 0.000000 1.737530 
# 
# From -- ./inp_files/34122.got.cif
#   From: 2010.03.12/outbox.cif.g09.slc.cpg/sg47_18_cif.got.tgz:34122.got - 2010.04.14 03:12:58.
