data_PCOD8199267
_publ_section_title
;
Structure prediction by ZEFSAII (Michael W. Deem and Ramdas Pophale) SiO2 
 PCOD8199267
Probable space group: P M M M
;
_chemical_formula_sum "Si O2"
_cell_formula_units_Z 64
_cell_length_a 19.868040
_cell_length_b 9.378836
_cell_length_c 19.854370
_cell_angle_alpha 90.000000
_cell_angle_beta 90.000000
_cell_angle_gamma 90.000000
_cell_volume 3699.645215
_symmetry_space_group_name_H-M "P M M M"
_symmetry_group_IT_number 47
_symmetry_cell_setting 'orthorhombic'
loop_
_space_group_symop_operation_xyz
x,y,z
-x,-y,z
x,-y,-z
-x,y,-z
-x,-y,-z
x,y,-z
-x,y,z
x,-y,z
loop_
_atom_site_type_symbol
_atom_site_label
_atom_site_fract_x
_atom_site_fract_y
_atom_site_fract_z
Si Si1 0.677117 0.666089 0.923193
Si Si2 0.078381 0.166609 0.821868
Si Si3 0.922810 0.335296 0.309539
Si Si4 0.574130 0.830632 0.676433
Si Si5 0.577456 0.166281 0.828070
Si Si6 0.687788 0.167032 0.577166
Si Si7 0.819879 0.665245 0.423535
Si Si8 0.830386 0.662915 0.921002
O O1 0.661786 0.500000 0.915399
O O2 0.625722 0.750703 0.877562
O O3 0.753610 0.699095 0.900852
O O4 0.666255 0.714785 0.000000
O O5 0.102204 0.240917 0.752917
O O6 0.119943 0.230410 0.883470
O O7 0.000000 0.197418 0.835450
O O8 0.093694 0.000000 0.815930
O O9 0.911739 0.500000 0.290150
O O10 0.881404 0.291744 0.375665
O O11 0.000000 0.302675 0.326961
O O12 0.500000 0.770723 0.657639
O O13 0.593583 0.783169 0.751958
O O14 0.627947 0.770443 0.623271
O O15 0.571942 0.000000 0.673026
O O16 0.500000 0.200327 0.845965
O O17 0.592271 0.000000 0.836409
O O18 0.669220 0.201010 0.500000
O O19 0.755576 0.245016 0.599415
O O20 0.698603 0.000000 0.589065
O O21 0.841037 0.702769 0.500000
O O22 0.801103 0.500000 0.416400
O O23 0.847380 0.500000 0.901193
O O24 0.841043 0.685821 0.000000
#
# Coordination Sequence:
#
# PCOD8199267 Si02
#       8
#     8   8   8   8   8   8   8   8
#     4   9  19  35  52  71  96 124 156 197 241 283
#     4  10  21  35  51  74 103 131 160 198 243 290
#     4   9  18  33  52  72  95 126 164 202 238 281
#     4   8  15  29  47  67  93 123 156 196 236 272
#     4   9  18  32  49  70  97 128 161 197 238 286
#     4   9  17  29  47  71  96 123 157 195 234 280
#     4   9  18  32  49  70  97 127 158 196 242 287
#     4   9  19  36  55  74  98 129 165 203 242 287
#
# _framework density 17.298957000000001
#
# number of rings (size 3 to 8) (size 9 to 14) (size 15 to 20)
#    0.000    3.000    0.000    1.875    0.000    4.500 
#    0.000    9.375    0.000    1.125    0.000    5.250 
#    0.000    0.000    0.000    0.000    0.000    0.000 
#
# Total GULP energy -793563.058195 kJ/mol
# GULP energy per Si atom -12399.422784 kJ/mol
# Density = 1.725958 g / cm^3
# Si number density = 17.298957 Si / 1000 Ang^3
#
#
#
# Elastic Constant Matrix: (Units=GPa)
#
#
# Indices 1 2 3 4 5 6 
#
# 1 109.6087 53.4229 80.0109 0.0000 0.0000 0.0000
# 2 53.4229 58.7995 50.1621 0.0000 0.0000 0.0000
# 3 80.0109 50.1621 103.3699 0.0000 0.0000 0.0000
# 4 0.0000 0.0000 0.0000 25.1761 0.0000 0.0000
# 5 0.0000 0.0000 0.0000 0.0000 35.7276 0.0000
# 6 0.0000 0.0000 0.0000 0.0000 0.0000 31.1135
#
#
#
# Elastic Compliance Matrix: (Units=1/GPa)
#
#
# Indices 1 2 3 4 5 6 
#
# 1 0.024099 -0.010208 -0.013700 0.000000 0.000000 0.000000
# 2 -0.010208 0.033346 -0.008280 0.000000 0.000000 0.000000
# 3 -0.013700 -0.008280 0.024296 0.000000 0.000000 0.000000
# 4 0.000000 0.000000 0.000000 0.039720 0.000000 0.000000
# 5 0.000000 0.000000 0.000000 0.000000 0.027990 0.000000
# 6 0.000000 0.000000 0.000000 0.000000 0.000000 0.032140
#
#
# Mechanical properties :
#
#
# Convention : Reuss Voigt Hill
#
# Bulk Modulus (GPa) = 57.58818 70.99668 64.29243
# Shear Modulus (GPa) = 19.86061 24.28227 22.07144
#
# Velocity S-wave (km/s) = 3.39201 3.75064 3.57583
# Velocity P-wave (km/s) = 6.97877 7.73864 7.36851
#
# Compressibility (1/GPa) = 0.01736467
#
# Stress axis : x y z
#
# Youngs Moduli (GPa) = 41.49532 29.98897 41.15938
#
# Poissons Ratio (x) = 0.30614 0.56386
# Poissons Ratio (y) = 0.42360 0.34080
# Poissons Ratio (z) = 0.56847 0.24831
#
# Static dielectric constant tensor:
#      x y z
#    x 3.330250 0.000000 0.000000 
#    y 0.000000 3.059320 0.000000 
#    z 0.000000 0.000000 3.286470 
# 
# 
# High freq. dielectric constant tensor:
#      x y z
#    x 1.670260 0.000000 0.000000 
#    y 0.000000 1.652260 0.000000 
#    z 0.000000 0.000000 1.671480 
# 
# From -- ./inp_files/9973.got.cif
#   From: 2010.03.12/outbox.cif.g09.slc.cpg/sg47_5_cif.got.tgz:9973.got - 2010.04.14 03:12:58.
