data_PCOD8199847
_publ_section_title
;
Structure prediction by ZEFSAII (Michael W. Deem and Ramdas Pophale) SiO2 
 PCOD8199847
Probable space group: P M M M
;
_chemical_formula_sum "Si O2"
_cell_formula_units_Z 56
_cell_length_a 21.553128
_cell_length_b 14.760819
_cell_length_c 9.208192
_cell_angle_alpha 90.000000
_cell_angle_beta 90.000000
_cell_angle_gamma 90.000000
_cell_volume 2929.510974
_symmetry_space_group_name_H-M "P M M M"
_symmetry_group_IT_number 47
_symmetry_cell_setting 'orthorhombic'
loop_
_space_group_symop_operation_xyz
x,y,z
-x,-y,z
x,-y,-z
-x,y,-z
-x,-y,-z
x,y,-z
-x,y,z
x,-y,z
loop_
_atom_site_type_symbol
_atom_site_label
_atom_site_fract_x
_atom_site_fract_y
_atom_site_fract_z
Si Si1 0.647500 0.750296 0.670482
Si Si2 0.209811 0.762477 0.668526
Si Si3 0.000000 0.892452 0.335777
Si Si4 0.000000 0.392282 0.163127
Si Si5 0.429402 0.395345 0.833374
Si Si6 0.570760 0.104602 0.166431
Si Si7 0.880549 0.397088 0.667708
Si Si8 0.877905 0.893734 0.830501
O O1 0.638241 0.747010 0.500000
O O2 0.719180 0.752506 0.714796
O O3 0.617365 0.660588 0.735582
O O4 0.615476 0.840256 0.729669
O O5 0.202381 0.789644 0.500000
O O6 0.178303 0.665684 0.701205
O O7 0.180973 0.841713 0.765980
O O8 0.000000 0.853724 0.500000
O O9 0.060750 0.857553 0.251598
O O10 0.000000 0.000000 0.337144
O O11 0.061455 0.356748 0.243224
O O12 0.000000 0.500000 0.168118
O O13 0.000000 0.354424 0.000000
O O14 0.500000 0.376824 0.783731
O O15 0.412490 0.500000 0.813364
O O16 0.421362 0.365435 0.000000
O O17 0.500000 0.135773 0.192008
O O18 0.578671 0.000000 0.206771
O O19 0.589509 0.122282 0.000000
O O20 0.899666 0.394203 0.500000
O O21 0.863815 0.500000 0.715008
O O22 0.867358 0.000000 0.803263
O O23 0.885471 0.872249 0.000000
#
# Coordination Sequence:
#
# PCOD8199847 Si02
#       8
#     8   8   4   4   8   8   8   8
#     4  11  23  36  53  81 115 147 180 223 274 325
#     4  10  23  39  53  75 108 147 185 217 261 322
#     4   9  17  32  57  84 108 138 174 216 273 333
#     4   9  17  30  51  80 108 130 160 212 273 317
#     4   9  19  37  60  84 110 143 183 224 268 322
#     4   9  19  37  60  83 107 140 182 224 268 321
#     4   9  18  35  57  76  98 134 178 217 254 306
#     4  10  21  37  57  81 108 138 178 229 275 316
#
# _framework density 19.115818999999998
#
# number of rings (size 3 to 8) (size 9 to 14) (size 15 to 20)
#    0.000    2.429    0.000    2.571    0.000    8.857 
#    0.000    6.429    0.000    1.714    0.000    0.000 
#    0.000    0.000    0.000    0.000    0.000    0.000 
#
# Total GULP energy -694564.271068 kJ/mol
# GULP energy per Si atom -12402.933412 kJ/mol
# Density = 1.907231 g / cm^3
# Si number density = 19.115819 Si / 1000 Ang^3
#
#
#
# Elastic Constant Matrix: (Units=GPa)
#
#
# Indices 1 2 3 4 5 6 
#
# 1 152.8287 62.6444 80.7851 0.0000 0.0000 0.0000
# 2 62.6444 81.4283 51.8288 0.0000 0.0000 0.0000
# 3 80.7851 51.8288 107.9826 0.0000 0.0000 0.0000
# 4 0.0000 0.0000 0.0000 27.5155 0.0000 0.0000
# 5 0.0000 0.0000 0.0000 0.0000 23.7884 0.0000
# 6 0.0000 0.0000 0.0000 0.0000 0.0000 238.9569
#
#
#
# Elastic Compliance Matrix: (Units=1/GPa)
#
#
# Indices 1 2 3 4 5 6 
#
# 1 0.012148 -0.005128 -0.006627 0.000000 0.000000 0.000000
# 2 -0.005128 0.019847 -0.005690 0.000000 0.000000 0.000000
# 3 -0.006627 -0.005690 0.016950 0.000000 0.000000 0.000000
# 4 0.000000 0.000000 0.000000 0.036343 0.000000 0.000000
# 5 0.000000 0.000000 0.000000 0.000000 0.042037 0.000000
# 6 0.000000 0.000000 0.000000 0.000000 0.000000 0.004185
#
#
# Mechanical properties :
#
#
# Convention : Reuss Voigt Hill
#
# Bulk Modulus (GPa) = 71.14694 81.41736 76.28215
# Shear Modulus (GPa) = 29.22507 67.85091 48.53799
#
# Velocity S-wave (km/s) = 3.91428 5.96420 5.04447
# Velocity P-wave (km/s) = 7.59793 9.49279 8.59772
#
# Compressibility (1/GPa) = 0.01405542
#
# Stress axis : x y z
#
# Youngs Moduli (GPa) = 82.31588 50.38501 58.99725
#
# Poissons Ratio (x) = 0.25836 0.39100
# Poissons Ratio (y) = 0.42209 0.33569
# Poissons Ratio (z) = 0.54554 0.28669
#
# Static dielectric constant tensor:
#      x y z
#    x 3.478480 0.000000 0.000000 
#    y 0.000000 3.430280 0.000000 
#    z 0.000000 0.000000 3.499070 
# 
# 
# High freq. dielectric constant tensor:
#      x y z
#    x 1.739730 0.000000 0.000000 
#    y 0.000000 1.747700 0.000000 
#    z 0.000000 0.000000 1.743160 
# 
# From -- ./inp_files/11382.got.cif
#   From: 2010.03.12/outbox.cif.g09.slc.cpg/sg47_6_cif.got.tgz:11382.got - 2010.04.14 03:12:58.
