data_PCOD8199580
_publ_section_title
;
Structure prediction by ZEFSAII (Michael W. Deem and Ramdas Pophale) SiO2 
 PCOD8199580
Probable space group: P M M M
;
_chemical_formula_sum "Si O2"
_cell_formula_units_Z 52
_cell_length_a 20.389818
_cell_length_b 14.565918
_cell_length_c 8.944521
_cell_angle_alpha 90.000000
_cell_angle_beta 90.000000
_cell_angle_gamma 90.000000
_cell_volume 2656.490689
_symmetry_space_group_name_H-M "P M M M"
_symmetry_group_IT_number 47
_symmetry_cell_setting 'orthorhombic'
loop_
_space_group_symop_operation_xyz
x,y,z
-x,-y,z
x,-y,-z
-x,y,-z
-x,-y,-z
x,y,-z
-x,y,z
x,-y,z
loop_
_atom_site_type_symbol
_atom_site_label
_atom_site_fract_x
_atom_site_fract_y
_atom_site_fract_z
Si Si1 0.201159 0.892955 0.174935
Si Si2 0.239853 0.399858 0.333214
Si Si3 0.423798 0.312382 0.174465
Si Si4 0.929096 0.793876 0.177852
Si Si5 0.577787 0.500000 0.668212
Si Si6 0.315539 0.782439 0.672103
Si Si7 0.892830 0.598861 0.824314
O O1 0.133716 0.848942 0.241904
O O2 0.265189 0.854081 0.256124
O O3 0.197137 0.000000 0.208663
O O4 0.207964 0.871743 0.000000
O O5 0.209264 0.391312 0.500000
O O6 0.274617 0.500000 0.314353
O O7 0.291118 0.320760 0.305184
O O8 0.183330 0.389195 0.211728
O O9 0.500000 0.294438 0.206993
O O10 0.399364 0.407899 0.247202
O O11 0.385542 0.223609 0.243834
O O12 0.408563 0.318480 0.000000
O O13 0.929808 0.688557 0.238743
O O14 0.000000 0.836971 0.226637
O O15 0.923393 0.795634 0.000000
O O16 0.500000 0.500000 0.661147
O O17 0.607565 0.500000 0.500000
O O18 0.325489 0.810113 0.500000
O O19 0.918642 0.500000 0.758837
O O20 0.901853 0.596572 0.000000
#
# Coordination Sequence:
#
# PCOD8199580 Si02
#       7
#     8   8   8   8   4   8   8
#     4  10  21  38  59  81 107 139 179 232 290 345
#     4   9  18  31  47  71 104 140 178 220 265 315
#     4  10  21  36  54  80 116 155 194 234 275 325
#     4   9  17  30  50  78 110 141 178 225 274 329
#     4   9  17  31  51  77 115 161 202 235 270 317
#     4  11  22  35  57  83 109 145 185 230 282 337
#     4   9  16  27  46  72 103 140 179 220 266 317
#
# _framework density 19.574697
#
# number of rings (size 3 to 8) (size 9 to 14) (size 15 to 20)
#    0.000    2.385    1.538    1.154    1.077    3.385 
#    0.000    3.077    0.000    2.308    0.000    6.462 
#    0.000    0.000    0.000    0.000    0.000    0.000 
#
# Total GULP energy -644328.723719 kJ/mol
# GULP energy per Si atom -12390.936995 kJ/mol
# Density = 1.953014 g / cm^3
# Si number density = 19.574697 Si / 1000 Ang^3
#
#
#
# Elastic Constant Matrix: (Units=GPa)
#
#
# Indices 1 2 3 4 5 6 
#
# 1 99.4285 55.7471 43.4620 0.0000 0.0000 0.0000
# 2 55.7471 91.3914 45.0243 0.0000 0.0000 0.0000
# 3 43.4620 45.0243 65.7654 0.0000 0.0000 0.0000
# 4 0.0000 0.0000 0.0000 21.6244 0.0000 0.0000
# 5 0.0000 0.0000 0.0000 0.0000 13.1816 0.0000
# 6 0.0000 0.0000 0.0000 0.0000 0.0000 15.7342
#
#
#
# Elastic Compliance Matrix: (Units=1/GPa)
#
#
# Indices 1 2 3 4 5 6 
#
# 1 0.016792 -0.007206 -0.006164 0.000000 0.000000 0.000000
# 2 -0.007206 0.019603 -0.008658 0.000000 0.000000 0.000000
# 3 -0.006164 -0.008658 0.025207 0.000000 0.000000 0.000000
# 4 0.000000 0.000000 0.000000 0.046244 0.000000 0.000000
# 5 0.000000 0.000000 0.000000 0.000000 0.075863 0.000000
# 6 0.000000 0.000000 0.000000 0.000000 0.000000 0.063556
#
#
# Mechanical properties :
#
#
# Convention : Reuss Voigt Hill
#
# Bulk Modulus (GPa) = 56.99571 60.56136 58.77853
# Shear Modulus (GPa) = 16.82535 17.59816 17.21176
#
# Velocity S-wave (km/s) = 2.93498 3.00163 2.96849
# Velocity P-wave (km/s) = 6.37697 6.55887 6.46856
#
# Compressibility (1/GPa) = 0.01754518
#
# Stress axis : x y z
#
# Youngs Moduli (GPa) = 59.55156 51.01191 39.67203
#
# Poissons Ratio (x) = 0.36761 0.24453
# Poissons Ratio (y) = 0.42915 0.34350
# Poissons Ratio (z) = 0.36706 0.44168
#
# Static dielectric constant tensor:
#      x y z
#    x 3.610970 0.000000 0.000000 
#    y 0.000000 3.599720 0.000000 
#    z 0.000000 0.000000 3.420360 
# 
# 
# High freq. dielectric constant tensor:
#      x y z
#    x 1.765370 0.000000 0.000000 
#    y 0.000000 1.744120 0.000000 
#    z 0.000000 0.000000 1.738740 
# 
# From -- ./inp_files/11050.got.cif
#   From: 2010.03.12/outbox.cif.g09.slc.cpg/sg47_6_cif.got.tgz:11050.got - 2010.04.14 03:12:58.
