data_PCOD8199328
_publ_section_title
;
Structure prediction by ZEFSAII (Michael W. Deem and Ramdas Pophale) SiO2 
 PCOD8199328
Probable space group: P M M M
;
_chemical_formula_sum "Si O2"
_cell_formula_units_Z 40
_cell_length_a 7.848447
_cell_length_b 9.373772
_cell_length_c 27.481713
_cell_angle_alpha 90.000000
_cell_angle_beta 90.000000
_cell_angle_gamma 90.000000
_cell_volume 2021.817334
_symmetry_space_group_name_H-M "P M M M"
_symmetry_group_IT_number 47
_symmetry_cell_setting 'orthorhombic'
loop_
_space_group_symop_operation_xyz
x,y,z
-x,-y,z
x,-y,-z
-x,y,-z
-x,-y,-z
x,y,-z
-x,y,z
x,-y,z
loop_
_atom_site_type_symbol
_atom_site_label
_atom_site_fract_x
_atom_site_fract_y
_atom_site_fract_z
Si Si1 0.500000 0.331209 0.054119
Si Si2 0.304124 0.660488 0.303205
Si Si3 0.804600 0.843316 0.215258
Si Si4 0.201528 0.661909 0.408756
Si Si5 0.802447 0.667339 0.876591
Si Si6 0.203184 0.839079 0.500000
O O1 0.500000 0.500000 0.050785
O O2 0.674769 0.281980 0.080673
O O3 0.500000 0.263877 0.000000
O O4 0.500000 0.660010 0.288715
O O5 0.227482 0.500000 0.298943
O O6 0.210000 0.766001 0.266895
O O7 0.279746 0.717200 0.358077
O O8 0.732432 0.746518 0.171624
O O9 0.000000 0.866649 0.203853
O O10 0.714845 0.000000 0.216665
O O11 0.259732 0.500000 0.419273
O O12 0.273792 0.759921 0.452068
O O13 0.000000 0.673218 0.405240
O O14 0.784167 0.500000 0.866145
O O15 0.000000 0.704432 0.890034
O O16 0.000000 0.834653 0.500000
O O17 0.272681 0.000000 0.500000
#
# Coordination Sequence:
#
# PCOD8199328 Si02
#       6
#     4   8   8   8   8   4
#     4   9  18  32  53  83 113 141 181 230 275 320
#     4  10  21  35  52  76 105 136 171 213 262 316
#     4  10  21  36  54  77 105 138 176 219 266 315
#     4   9  17  31  51  72  95 126 165 208 254 307
#     4   9  18  33  54  79 108 143 182 225 273 324
#     4   9  17  29  48  73  96 122 162 211 258 303
#
# _framework density 19.784179999999999
#
# number of rings (size 3 to 8) (size 9 to 14) (size 15 to 20)
#    0.000    2.600    0.000    1.500    1.400    4.800 
#    0.000    4.500    0.000    4.200    0.000    2.800 
#    0.000    0.000    0.000    0.000    0.000    0.000 
#
# Total GULP energy -495875.034197 kJ/mol
# GULP energy per Si atom -12396.875855 kJ/mol
# Density = 1.973915 g / cm^3
# Si number density = 19.784180 Si / 1000 Ang^3
#
#
#
# Elastic Constant Matrix: (Units=GPa)
#
#
# Indices 1 2 3 4 5 6 
#
# 1 54.2579 24.1671 40.1546 0.0000 0.0000 0.0000
# 2 24.1671 101.9440 80.0264 0.0000 0.0000 0.0000
# 3 40.1546 80.0264 166.7747 0.0000 0.0000 0.0000
# 4 0.0000 0.0000 0.0000 8.3389 0.0000 0.0000
# 5 0.0000 0.0000 0.0000 0.0000 19.1523 0.0000
# 6 0.0000 0.0000 0.0000 0.0000 0.0000 9.4370
#
#
#
# Elastic Compliance Matrix: (Units=1/GPa)
#
#
# Indices 1 2 3 4 5 6 
#
# 1 0.022618 -0.001744 -0.004609 0.000000 0.000000 0.000000
# 2 -0.001744 0.015872 -0.007196 0.000000 0.000000 0.000000
# 3 -0.004609 -0.007196 0.010559 0.000000 0.000000 0.000000
# 4 0.000000 0.000000 0.000000 0.119919 0.000000 0.000000
# 5 0.000000 0.000000 0.000000 0.000000 0.052213 0.000000
# 6 0.000000 0.000000 0.000000 0.000000 0.000000 0.105965
#
#
# Mechanical properties :
#
#
# Convention : Reuss Voigt Hill
#
# Bulk Modulus (GPa) = 45.55638 67.96362 56.76000
# Shear Modulus (GPa) = 13.82891 19.29423 16.56157
#
# Velocity S-wave (km/s) = 2.64671 3.12626 2.89643
# Velocity P-wave (km/s) = 5.69357 6.88901 6.31962
#
# Compressibility (1/GPa) = 0.02195082
#
# Stress axis : x y z
#
# Youngs Moduli (GPa) = 44.21210 63.00533 94.70698
#
# Poissons Ratio (x) = 0.10987 0.43651
# Poissons Ratio (y) = 0.07710 0.68152
# Poissons Ratio (z) = 0.20378 0.45339
#
# Static dielectric constant tensor:
#      x y z
#    x 3.432200 0.000000 0.000000 
#    y 0.000000 3.717860 0.000000 
#    z 0.000000 0.000000 3.711440 
# 
# 
# High freq. dielectric constant tensor:
#      x y z
#    x 1.758800 0.000000 0.000000 
#    y 0.000000 1.753160 0.000000 
#    z 0.000000 0.000000 1.772710 
# 
# From -- ./inp_files/1691.got.cif
#   From: 2010.03.12/outbox.cif.g09.slc.cpg/sg47_1_cif.got.tgz:1691.got - 2010.04.14 03:12:58.
