data_PCOD8199644
_publ_section_title
;
Structure prediction by ZEFSAII (Michael W. Deem and Ramdas Pophale) SiO2 
 PCOD8199644
Probable space group: P M M M
;
_chemical_formula_sum "Si O2"
_cell_formula_units_Z 52
_cell_length_a 10.307677
_cell_length_b 9.275218
_cell_length_c 28.836122
_cell_angle_alpha 90.000000
_cell_angle_beta 90.000000
_cell_angle_gamma 90.000000
_cell_volume 2756.904874
_symmetry_space_group_name_H-M "P M M M"
_symmetry_group_IT_number 47
_symmetry_cell_setting 'orthorhombic'
loop_
_space_group_symop_operation_xyz
x,y,z
-x,-y,z
x,-y,-z
-x,y,-z
-x,-y,-z
x,y,-z
-x,y,z
x,-y,z
loop_
_atom_site_type_symbol
_atom_site_label
_atom_site_fract_x
_atom_site_fract_y
_atom_site_fract_z
Si Si1 0.850845 0.166649 0.711536
Si Si2 0.000000 0.670647 0.550930
Si Si3 0.352429 0.833513 0.790422
Si Si4 0.852864 0.834687 0.945480
Si Si5 0.351754 0.669443 0.884541
Si Si6 0.648412 0.157230 0.550077
Si Si7 0.777828 0.330244 0.619348
O O1 0.752126 0.212737 0.752005
O O2 0.815096 0.264137 0.668219
O O3 0.000000 0.195413 0.726934
O O4 0.830387 0.000000 0.698379
O O5 0.877998 0.722645 0.580157
O O6 0.000000 0.500000 0.547266
O O7 0.000000 0.741701 0.500000
O O8 0.500000 0.806028 0.772378
O O9 0.321871 0.737542 0.834844
O O10 0.333977 0.000000 0.804337
O O11 0.748109 0.732793 0.921521
O O12 0.000000 0.793437 0.930285
O O13 0.824602 0.000000 0.931718
O O14 0.837560 0.812699 0.000000
O O15 0.500000 0.704493 0.899819
O O16 0.328750 0.500000 0.880912
O O17 0.704387 0.217946 0.500000
O O18 0.500000 0.131117 0.541712
O O19 0.652028 0.263730 0.595041
O O20 0.712668 0.000000 0.561084
O O21 0.767896 0.500000 0.626354
#
# Coordination Sequence:
#
# PCOD8199644 Si02
#       7
#     8   4   8   8   8   8   8
#     4  10  21  37  56  78 107 141 180 225 272 326
#     4   9  18  32  49  71 101 135 167 203 250 301
#     4   9  19  37  59  80 104 141 188 234 281 332
#     4   9  19  36  57  82 114 154 200 246 288 335
#     4  10  21  36  55  83 118 152 188 235 289 344
#     4   9  19  36  55  75 102 135 170 209 253 304
#     4  11  21  34  53  77 106 137 170 210 258 313
#
# _framework density 18.861732
#
# number of rings (size 3 to 8) (size 9 to 14) (size 15 to 20)
#    0.000    2.385    0.769    2.308    0.000    4.923 
#    0.000    6.154    0.000    1.846    0.000    0.000 
#    0.000    0.000    0.000    0.000    0.000    0.000 
#
# Total GULP energy -644366.602647 kJ/mol
# GULP energy per Si atom -12391.665436 kJ/mol
# Density = 1.881880 g / cm^3
# Si number density = 18.861732 Si / 1000 Ang^3
#
#
#
# Elastic Constant Matrix: (Units=GPa)
#
#
# Indices 1 2 3 4 5 6 
#
# 1 103.8271 54.6871 70.8291 0.0000 0.0000 0.0000
# 2 54.6871 95.6532 65.3772 0.0000 0.0000 0.0000
# 3 70.8291 65.3772 111.1782 0.0000 0.0000 0.0000
# 4 0.0000 0.0000 0.0000 28.5482 0.0000 0.0000
# 5 0.0000 0.0000 0.0000 0.0000 43.3226 0.0000
# 6 0.0000 0.0000 0.0000 0.0000 0.0000 23.9906
#
#
#
# Elastic Compliance Matrix: (Units=1/GPa)
#
#
# Indices 1 2 3 4 5 6 
#
# 1 0.017943 -0.004089 -0.009027 0.000000 0.000000 0.000000
# 2 -0.004089 0.018412 -0.008222 0.000000 0.000000 0.000000
# 3 -0.009027 -0.008222 0.019580 0.000000 0.000000 0.000000
# 4 0.000000 0.000000 0.000000 0.035028 0.000000 0.000000
# 5 0.000000 0.000000 0.000000 0.000000 0.023083 0.000000
# 6 0.000000 0.000000 0.000000 0.000000 0.000000 0.041683
#
#
# Mechanical properties :
#
#
# Convention : Reuss Voigt Hill
#
# Bulk Modulus (GPa) = 75.41541 76.93836 76.17689
# Shear Modulus (GPa) = 24.65204 27.15661 25.90432
#
# Velocity S-wave (km/s) = 3.61915 3.79855 3.70993
# Velocity P-wave (km/s) = 7.58514 7.75357 7.66982
#
# Compressibility (1/GPa) = 0.01325989
#
# Stress axis : x y z
#
# Youngs Moduli (GPa) = 55.73264 54.31363 51.07257
#
# Poissons Ratio (x) = 0.22208 0.46101
# Poissons Ratio (y) = 0.22788 0.41991
# Poissons Ratio (z) = 0.50308 0.44656
#
# Static dielectric constant tensor:
#      x y z
#    x 3.618090 0.000000 0.000000 
#    y 0.000000 3.385920 0.000000 
#    z 0.000000 0.000000 3.373660 
# 
# 
# High freq. dielectric constant tensor:
#      x y z
#    x 1.737730 0.000000 0.000000 
#    y 0.000000 1.727860 0.000000 
#    z 0.000000 0.000000 1.729350 
# 
# From -- ./inp_files/33577.got.cif
#   From: 2010.03.12/outbox.cif.g09.slc.cpg/sg47_17_cif.got.tgz:33577.got - 2010.04.14 03:12:58.
