data_PCOD8199529
_publ_section_title
;
Structure prediction by ZEFSAII (Michael W. Deem and Ramdas Pophale) SiO2 
 PCOD8199529
Probable space group: P M M M
;
_chemical_formula_sum "Si O2"
_cell_formula_units_Z 64
_cell_length_a 18.566205
_cell_length_b 20.507638
_cell_length_c 9.094277
_cell_angle_alpha 90.000000
_cell_angle_beta 90.000000
_cell_angle_gamma 90.000000
_cell_volume 3462.636975
_symmetry_space_group_name_H-M "P M M M"
_symmetry_group_IT_number 47
_symmetry_cell_setting 'orthorhombic'
loop_
_space_group_symop_operation_xyz
x,y,z
-x,-y,z
x,-y,-z
-x,y,-z
-x,-y,-z
x,y,-z
-x,y,z
x,-y,z
loop_
_atom_site_type_symbol
_atom_site_label
_atom_site_fract_x
_atom_site_fract_y
_atom_site_fract_z
Si Si1 0.583637 0.177681 0.171119
Si Si2 0.322784 0.428734 0.328775
Si Si3 0.083762 0.822860 0.328996
Si Si4 0.330291 0.302480 0.830274
Si Si5 0.821489 0.924370 0.828580
Si Si6 0.839185 0.709272 0.166982
Si Si7 0.824040 0.430463 0.166531
Si Si8 0.324822 0.924332 0.328717
O O1 0.500000 0.189377 0.200304
O O2 0.626508 0.240461 0.231791
O O3 0.608254 0.114759 0.262514
O O4 0.600328 0.165077 0.000000
O O5 0.326854 0.414090 0.500000
O O6 0.358289 0.500000 0.292561
O O7 0.360676 0.368207 0.246744
O O8 0.239939 0.431540 0.281964
O O9 0.099129 0.834414 0.500000
O O10 0.112602 0.884518 0.238940
O O11 0.122145 0.756585 0.279834
O O12 0.000000 0.815996 0.294388
O O13 0.245901 0.291455 0.799718
O O14 0.347760 0.311023 0.000000
O O15 0.748014 0.901482 0.751680
O O16 0.837375 0.000000 0.798556
O O17 0.814268 0.908566 0.000000
O O18 0.870750 0.635391 0.192839
O O19 0.853946 0.732884 0.000000
O O20 0.867337 0.500000 0.182008
O O21 0.791952 0.424820 0.000000
O O22 0.316025 0.909231 0.500000
O O23 0.340203 0.000000 0.298458
#
# Coordination Sequence:
#
# PCOD8199529 Si02
#       8
#     8   8   8   8   8   8   8   8
#     4  10  21  36  54  77 106 140 178 219 259 301
#     4   9  16  25  41  69 100 127 161 206 254 305
#     4  11  24  38  52  74 106 142 176 211 253 303
#     4   9  18  32  50  73 100 131 169 212 258 306
#     4  10  21  38  61  85 106 131 167 211 257 306
#     4   9  17  30  51  76 100 131 172 216 258 304
#     4   8  14  26  45  70  99 128 160 203 256 307
#     4  10  21  37  58  83 109 137 170 209 254 306
#
# _framework density 18.483022999999999
#
# number of rings (size 3 to 8) (size 9 to 14) (size 15 to 20)
#    0.000    2.500    0.000    3.000    0.000    7.500 
#    0.000    2.500    0.000    0.750    0.000    5.250 
#    0.000    0.000    0.000    0.000    0.000    0.000 
#
# Total GULP energy -793302.215481 kJ/mol
# GULP energy per Si atom -12395.347117 kJ/mol
# Density = 1.844095 g / cm^3
# Si number density = 18.483023 Si / 1000 Ang^3
#
#
#
# Elastic Constant Matrix: (Units=GPa)
#
#
# Indices 1 2 3 4 5 6 
#
# 1 63.3321 50.3764 38.7028 0.0000 0.0000 0.0000
# 2 50.3764 133.1753 58.4424 0.0000 0.0000 0.0000
# 3 38.7028 58.4424 82.0504 0.0000 0.0000 0.0000
# 4 0.0000 0.0000 0.0000 32.5109 0.0000 0.0000
# 5 0.0000 0.0000 0.0000 0.0000 21.9343 0.0000
# 6 0.0000 0.0000 0.0000 0.0000 0.0000 4.8660
#
#
#
# Elastic Compliance Matrix: (Units=1/GPa)
#
#
# Indices 1 2 3 4 5 6 
#
# 1 0.025385 -0.006325 -0.007469 0.000000 0.000000 0.000000
# 2 -0.006325 0.012499 -0.005919 0.000000 0.000000 0.000000
# 3 -0.007469 -0.005919 0.019927 0.000000 0.000000 0.000000
# 4 0.000000 0.000000 0.000000 0.030759 0.000000 0.000000
# 5 0.000000 0.000000 0.000000 0.000000 0.045591 0.000000
# 6 0.000000 0.000000 0.000000 0.000000 0.000000 0.205509
#
#
# Mechanical properties :
#
#
# Convention : Reuss Voigt Hill
#
# Bulk Modulus (GPa) = 54.39306 63.73347 59.06326
# Shear Modulus (GPa) = 12.97946 20.59798 16.78872
#
# Velocity S-wave (km/s) = 2.65285 3.34192 3.01712
# Velocity P-wave (km/s) = 6.23506 7.03195 6.64546
#
# Compressibility (1/GPa) = 0.01838470
#
# Stress axis : x y z
#
# Youngs Moduli (GPa) = 39.39311 80.00623 50.18320
#
# Poissons Ratio (x) = 0.50602 0.37482
# Poissons Ratio (y) = 0.24915 0.29705
# Poissons Ratio (z) = 0.29423 0.47359
#
# Static dielectric constant tensor:
#      x y z
#    x 3.001300 0.000000 0.000000 
#    y 0.000000 3.838600 0.000000 
#    z 0.000000 0.000000 3.402060 
# 
# 
# High freq. dielectric constant tensor:
#      x y z
#    x 1.668180 0.000000 0.000000 
#    y 0.000000 1.742570 0.000000 
#    z 0.000000 0.000000 1.719470 
# 
# From -- ./inp_files/9965.got.cif
#   From: 2010.03.12/outbox.cif.g09.slc.cpg/sg47_5_cif.got.tgz:9965.got - 2010.04.14 03:12:58.
