data_PCOD8199922
_publ_section_title
;
Structure prediction by ZEFSAII (Michael W. Deem and Ramdas Pophale) SiO2 
 PCOD8199922
Probable space group: P M M M
;
_chemical_formula_sum "Si O2"
_cell_formula_units_Z 34
_cell_length_a 7.700073
_cell_length_b 7.860392
_cell_length_c 27.136515
_cell_angle_alpha 90.000000
_cell_angle_beta 90.000000
_cell_angle_gamma 90.000000
_cell_volume 1642.453641
_symmetry_space_group_name_H-M "P M M M"
_symmetry_group_IT_number 47
_symmetry_cell_setting 'orthorhombic'
loop_
_space_group_symop_operation_xyz
x,y,z
-x,-y,z
x,-y,-z
-x,y,-z
-x,-y,-z
x,y,-z
-x,y,z
x,-y,z
loop_
_atom_site_type_symbol
_atom_site_label
_atom_site_fract_x
_atom_site_fract_y
_atom_site_fract_z
Si Si1 0.307313 0.701328 0.445353
Si Si2 0.000000 0.704317 0.625389
Si Si3 0.289706 0.000000 0.217417
Si Si4 0.204187 0.193822 0.945813
Si Si5 0.697528 0.681909 0.156110
Si Si6 0.000000 0.000000 0.297266
O O1 0.262208 0.773012 0.500000
O O2 0.500000 0.763985 0.429421
O O3 0.302706 0.500000 0.448025
O O4 0.168082 0.762616 0.405622
O O5 0.000000 0.500000 0.637808
O O6 0.000000 0.821914 0.673339
O O7 0.220453 0.162034 0.186119
O O8 0.500000 0.000000 0.226516
O O9 0.181112 0.000000 0.267493
O O10 0.295908 0.297888 0.902844
O O11 0.000000 0.206664 0.937836
O O12 0.267129 0.000000 0.942194
O O13 0.254798 0.266640 0.000000
O O14 0.500000 0.673482 0.172582
O O15 0.786793 0.500000 0.169863
#
# Coordination Sequence:
#
# PCOD8199922 Si02
#       6
#     8   4   4   8   8   2
#     4   8  14  28  55  89 124 165 203 232 275 334
#     4  10  21  38  58  86 122 155 194 245 289 335
#     4  10  24  46  63  80 111 143 183 248 305 344
#     4   9  18  32  52  81 117 151 179 212 264 335
#     4  10  21  37  59  84 107 139 183 229 283 343
#     4  12  28  42  63  88 109 148 202 242 300 366
#
# _framework density 20.700734000000001
#
# number of rings (size 3 to 8) (size 9 to 14) (size 15 to 20)
#    0.000    2.588    1.176    1.765    1.647    4.706 
#    0.000    4.706    0.000    1.412    0.000    0.000 
#    0.000    0.000    0.000    0.000    0.000    0.000 
#
# Total GULP energy -421243.879877 kJ/mol
# GULP energy per Si atom -12389.525879 kJ/mol
# Density = 2.065362 g / cm^3
# Si number density = 20.700734 Si / 1000 Ang^3
#
#
#
# Elastic Constant Matrix: (Units=GPa)
#
#
# Indices 1 2 3 4 5 6 
#
# 1 83.0288 32.5573 54.6964 0.0000 0.0000 0.0000
# 2 32.5573 127.4047 65.8562 0.0000 0.0000 0.0000
# 3 54.6964 65.8562 135.8522 0.0000 0.0000 0.0000
# 4 0.0000 0.0000 0.0000 10.3298 0.0000 0.0000
# 5 0.0000 0.0000 0.0000 0.0000 30.8490 0.0000
# 6 0.0000 0.0000 0.0000 0.0000 0.0000 7.2616
#
#
#
# Elastic Compliance Matrix: (Units=1/GPa)
#
#
# Indices 1 2 3 4 5 6 
#
# 1 0.016495 -0.001044 -0.006135 0.000000 0.000000 0.000000
# 2 -0.001044 0.010539 -0.004689 0.000000 0.000000 0.000000
# 3 -0.006135 -0.004689 0.012104 0.000000 0.000000 0.000000
# 4 0.000000 0.000000 0.000000 0.096807 0.000000 0.000000
# 5 0.000000 0.000000 0.000000 0.000000 0.032416 0.000000
# 6 0.000000 0.000000 0.000000 0.000000 0.000000 0.137710
#
#
# Mechanical properties :
#
#
# Convention : Reuss Voigt Hill
#
# Bulk Modulus (GPa) = 64.92359 72.50060 68.71210
# Shear Modulus (GPa) = 14.92796 22.56647 18.74721
#
# Velocity S-wave (km/s) = 2.68830 3.30529 3.01263
# Velocity P-wave (km/s) = 6.40835 7.04740 6.73546
#
# Compressibility (1/GPa) = 0.01540272
#
# Stress axis : x y z
#
# Youngs Moduli (GPa) = 60.62475 94.88151 82.61715
#
# Poissons Ratio (x) = 0.09904 0.50686
# Poissons Ratio (y) = 0.06328 0.38738
# Poissons Ratio (z) = 0.37194 0.44489
#
# Static dielectric constant tensor:
#      x y z
#    x 3.808110 0.000000 0.000000 
#    y 0.000000 3.859420 0.000000 
#    z 0.000000 0.000000 3.709940 
# 
# 
# High freq. dielectric constant tensor:
#      x y z
#    x 1.805310 0.000000 0.000000 
#    y 0.000000 1.801000 0.000000 
#    z 0.000000 0.000000 1.790500 
# 
# From -- ./inp_files/29169.got.cif
#   From: 2010.03.12/outbox.cif.g09.slc.cpg/sg47_15_cif.got.tgz:29169.got - 2010.04.14 03:12:58.
