data_PCOD8199249
_publ_section_title
;
Structure prediction by ZEFSAII (Michael W. Deem and Ramdas Pophale) SiO2 
 PCOD8199249
Probable space group: P M M M
;
_chemical_formula_sum "Si O2"
_cell_formula_units_Z 44
_cell_length_a 8.254317
_cell_length_b 29.477722
_cell_length_c 9.930245
_cell_angle_alpha 90.000000
_cell_angle_beta 90.000000
_cell_angle_gamma 90.000000
_cell_volume 2416.211939
_symmetry_space_group_name_H-M "P M M M"
_symmetry_group_IT_number 47
_symmetry_cell_setting 'orthorhombic'
loop_
_space_group_symop_operation_xyz
x,y,z
-x,-y,z
x,-y,-z
-x,y,-z
-x,-y,-z
x,y,-z
-x,y,z
x,-y,z
loop_
_atom_site_type_symbol
_atom_site_label
_atom_site_fract_x
_atom_site_fract_y
_atom_site_fract_z
Si Si1 0.686578 0.780502 0.348814
Si Si2 0.500000 0.448231 0.160285
Si Si3 0.309790 0.049886 0.851678
Si Si4 0.180642 0.396813 0.159586
Si Si5 0.187427 0.124535 0.650952
Si Si6 0.186862 0.293283 0.847527
O O1 0.746017 0.767745 0.500000
O O2 0.500000 0.793608 0.349275
O O3 0.781246 0.824651 0.294095
O O4 0.712608 0.738191 0.251550
O O5 0.500000 0.500000 0.208647
O O6 0.333085 0.425692 0.217754
O O7 0.500000 0.443946 0.000000
O O8 0.500000 0.047054 0.862041
O O9 0.267798 0.087603 0.744396
O O10 0.242629 0.000000 0.808344
O O11 0.239450 0.062610 0.000000
O O12 0.211404 0.344870 0.201069
O O13 0.000000 0.412433 0.213192
O O14 0.176538 0.401321 0.000000
O O15 0.260507 0.120516 0.500000
O O16 0.000000 0.114187 0.649780
O O17 0.000000 0.279361 0.840227
O O18 0.251960 0.287293 0.000000
#
# Coordination Sequence:
#
# PCOD8199249 Si02
#       6
#     8   4   8   8   8   8
#     4  10  21  35  51  73 100 130 165 205 249 297
#     4   9  16  24  38  62  91 129 171 205 248 303
#     4   9  19  36  56  77 101 129 162 201 244 290
#     4   8  15  27  41  61  92 126 162 207 252 298
#     4  10  21  36  53  73  99 131 164 200 244 293
#     4   9  18  32  50  72  97 129 168 205 247 300
#
# _framework density 18.210322000000001
#
# number of rings (size 3 to 8) (size 9 to 14) (size 15 to 20)
#    0.000    2.818    0.000    2.727    1.273    4.727 
#    0.000    4.545    0.000    0.000    0.000    0.000 
#    0.000    1.455    0.000    4.000    0.000    4.000 
#
# Total GULP energy -545307.051303 kJ/mol
# GULP energy per Si atom -12393.342075 kJ/mol
# Density = 1.816887 g / cm^3
# Si number density = 18.210322 Si / 1000 Ang^3
#
#
#
# Elastic Constant Matrix: (Units=GPa)
#
#
# Indices 1 2 3 4 5 6 
#
# 1 77.1643 46.4472 26.2574 0.0000 0.0000 0.0000
# 2 46.4472 118.8645 51.5377 0.0000 0.0000 0.0000
# 3 26.2574 51.5377 56.5422 0.0000 0.0000 0.0000
# 4 0.0000 0.0000 0.0000 -80.0593 0.0000 0.0000
# 5 0.0000 0.0000 0.0000 0.0000 18.6919 0.0000
# 6 0.0000 0.0000 0.0000 0.0000 0.0000 88.8933
#
#
#
# Elastic Compliance Matrix: (Units=1/GPa)
#
#
# Indices 1 2 3 4 5 6 
#
# 1 0.017265 -0.005407 -0.003089 0.000000 0.000000 0.000000
# 2 -0.005407 0.015604 -0.011712 0.000000 0.000000 0.000000
# 3 -0.003089 -0.011712 0.029796 0.000000 0.000000 0.000000
# 4 0.000000 0.000000 0.000000 -0.012491 0.000000 0.000000
# 5 0.000000 0.000000 0.000000 0.000000 0.053499 0.000000
# 6 0.000000 0.000000 0.000000 0.000000 0.000000 0.011249
#
#
# Mechanical properties :
#
#
# Convention : Reuss Voigt Hill
#
# Bulk Modulus (GPa) = 44.94668 55.67283 50.30975
# Shear Modulus (GPa) = 30.72102 14.06041 22.39072
#
# Velocity S-wave (km/s) = 4.11178 2.78171 3.51032
# Velocity P-wave (km/s) = 6.87589 6.39966 6.64205
#
# Compressibility (1/GPa) = 0.02224858
#
# Stress axis : x y z
#
# Youngs Moduli (GPa) = 57.91996 64.08684 33.56191
#
# Poissons Ratio (x) = 0.34652 0.10368
# Poissons Ratio (y) = 0.31318 0.39307
# Poissons Ratio (z) = 0.17893 0.75057
#
# Static dielectric constant tensor:
#      x y z
#    x 3.520680 0.000000 0.000000 
#    y 0.000000 3.420010 0.000000 
#    z 0.000000 0.000000 3.312040 
# 
# 
# High freq. dielectric constant tensor:
#      x y z
#    x 1.712270 0.000000 0.000000 
#    y 0.000000 1.705830 0.000000 
#    z 0.000000 0.000000 1.666130 
# 
# From -- ./inp_files/2153.got.cif
#   From: 2010.03.12/outbox.cif.g09.slc.cpg/sg47_2_cif.got.tgz:2153.got - 2010.04.14 03:12:58.
