data_PCOD8199966
_publ_section_title
;
Structure prediction by ZEFSAII (Michael W. Deem and Ramdas Pophale) SiO2 
 PCOD8199966
Probable space group: P M M M
;
_chemical_formula_sum "Si O2"
_cell_formula_units_Z 40
_cell_length_a 14.586345
_cell_length_b 15.606628
_cell_length_c 9.040099
_cell_angle_alpha 90.000000
_cell_angle_beta 90.000000
_cell_angle_gamma 90.000000
_cell_volume 2057.921226
_symmetry_space_group_name_H-M "P M M M"
_symmetry_group_IT_number 47
_symmetry_cell_setting 'orthorhombic'
loop_
_space_group_symop_operation_xyz
x,y,z
-x,-y,z
x,-y,-z
-x,y,-z
-x,-y,-z
x,y,-z
-x,y,z
x,-y,z
loop_
_atom_site_type_symbol
_atom_site_label
_atom_site_fract_x
_atom_site_fract_y
_atom_site_fract_z
Si Si1 0.395616 0.759081 0.675692
Si Si2 0.103330 0.143920 0.670928
Si Si3 0.098831 0.657001 0.673295
Si Si4 0.279001 0.903862 0.169321
Si Si5 0.288650 0.593993 0.323805
O O1 0.388234 0.762621 0.500000
O O2 0.500000 0.764056 0.730342
O O3 0.341481 0.839935 0.737597
O O4 0.354040 0.669350 0.736878
O O5 0.124592 0.124081 0.500000
O O6 0.116210 0.243708 0.704685
O O7 0.174919 0.093526 0.771748
O O8 0.000000 0.114315 0.710233
O O9 0.093241 0.640190 0.500000
O O10 0.185088 0.605414 0.740213
O O11 0.000000 0.628536 0.742947
O O12 0.319146 0.000000 0.184428
O O13 0.279000 0.873544 0.000000
O O14 0.285922 0.599999 0.500000
O O15 0.324925 0.500000 0.273513
#
# Coordination Sequence:
#
# PCOD8199966 Si02
#       5
#     8   8   8   8   8
#     4  10  21  38  59  81 107 140 181 231 282 331
#     4   9  17  32  56  83 112 147 185 224 265 314
#     4   8  13  23  43  73 108 142 174 211 256 306
#     4  11  24  39  56  80 110 144 182 227 278 331
#     4   9  16  27  48  80 114 143 173 216 271 325
#
# _framework density 19.437090000000001
#
# number of rings (size 3 to 8) (size 9 to 14) (size 15 to 20)
#    0.000    2.600    2.000    1.800    0.000    4.000 
#    0.000    8.000    0.000    0.600    0.000    1.400 
#    0.000    3.200    0.000    0.000    0.000    0.000 
#
# Total GULP energy -495731.645018 kJ/mol
# GULP energy per Si atom -12393.291125 kJ/mol
# Density = 1.939285 g / cm^3
# Si number density = 19.437090 Si / 1000 Ang^3
#
#
#
# Elastic Constant Matrix: (Units=GPa)
#
#
# Indices 1 2 3 4 5 6 
#
# 1 134.6008 63.0408 23.8652 0.0000 0.0000 0.0000
# 2 63.0408 101.3863 20.9312 0.0000 0.0000 0.0000
# 3 23.8652 20.9312 22.5770 0.0000 0.0000 0.0000
# 4 0.0000 0.0000 0.0000 -1.8573 0.0000 0.0000
# 5 0.0000 0.0000 0.0000 0.0000 9.6066 0.0000
# 6 0.0000 0.0000 0.0000 0.0000 0.0000 12.6978
#
#
#
# Elastic Compliance Matrix: (Units=1/GPa)
#
#
# Indices 1 2 3 4 5 6 
#
# 1 0.011242 -0.005611 -0.006682 0.000000 0.000000 0.000000
# 2 -0.005611 0.014998 -0.007974 0.000000 0.000000 0.000000
# 3 -0.006682 -0.007974 0.058748 0.000000 0.000000 0.000000
# 4 0.000000 0.000000 0.000000 -0.538414 0.000000 0.000000
# 5 0.000000 0.000000 0.000000 0.000000 0.104096 0.000000
# 6 0.000000 0.000000 0.000000 0.000000 0.000000 0.078754
#
#
# Mechanical properties :
#
#
# Convention : Reuss Voigt Hill
#
# Bulk Modulus (GPa) = 22.49425 52.69317 37.59371
# Shear Modulus (GPa) = -23.23148 14.13787 -4.54680
#
# Velocity S-wave (km/s) = -3.46094 2.69990 -1.53112
# Velocity P-wave (km/s) = 2.09113 6.07353 4.03205
#
# Compressibility (1/GPa) = 0.04445581
#
# Stress axis : x y z
#
# Youngs Moduli (GPa) = 88.95380 66.67502 17.02171
#
# Poissons Ratio (x) = 0.37409 0.11373
# Poissons Ratio (y) = 0.49908 0.13573
# Poissons Ratio (z) = 0.59435 0.53167
#
# Static dielectric constant tensor:
#      x y z
#    x 3.788150 0.000000 0.000000 
#    y 0.000000 3.579100 0.000000 
#    z 0.000000 0.000000 3.005110 
# 
# 
# High freq. dielectric constant tensor:
#      x y z
#    x 1.764610 0.000000 0.000000 
#    y 0.000000 1.760710 0.000000 
#    z 0.000000 0.000000 1.694150 
# 
# From -- ./inp_files/5661.got.cif
#   From: 2010.03.12/outbox.cif.g09.slc.cpg/sg47_3_cif.got.tgz:5661.got - 2010.04.14 03:12:58.
