data_PCOD8199125
_publ_section_title
;
Structure prediction by ZEFSAII (Michael W. Deem and Ramdas Pophale) SiO2 
 PCOD8199125
Probable space group: P M M M
;
_chemical_formula_sum "Si O2"
_cell_formula_units_Z 48
_cell_length_a 13.377602
_cell_length_b 15.421538
_cell_length_c 12.934778
_cell_angle_alpha 90.000000
_cell_angle_beta 90.000000
_cell_angle_gamma 90.000000
_cell_volume 2668.486062
_symmetry_space_group_name_H-M "P M M M"
_symmetry_group_IT_number 47
_symmetry_cell_setting 'orthorhombic'
loop_
_space_group_symop_operation_xyz
x,y,z
-x,-y,z
x,-y,-z
-x,y,-z
-x,-y,-z
x,y,-z
-x,y,z
x,-y,z
loop_
_atom_site_type_symbol
_atom_site_label
_atom_site_fract_x
_atom_site_fract_y
_atom_site_fract_z
Si Si1 0.500000 0.397491 0.883910
Si Si2 0.113022 0.175104 0.216336
Si Si3 0.389435 0.906104 0.622447
Si Si4 0.747144 0.752898 0.377710
Si Si5 0.119909 0.000000 0.117736
Si Si6 0.887717 0.351359 0.118179
Si Si7 0.696323 0.598267 0.758682
O O1 0.500000 0.500000 0.892228
O O2 0.398473 0.367594 0.825475
O O3 0.500000 0.357491 0.000000
O O4 0.151293 0.217579 0.323061
O O5 0.163153 0.085440 0.176658
O O6 0.126178 0.247564 0.127448
O O7 0.000000 0.152160 0.240466
O O8 0.394104 0.898302 0.500000
O O9 0.500000 0.899860 0.669725
O O10 0.328390 0.825496 0.665568
O O11 0.342090 0.000000 0.653006
O O12 0.762521 0.751663 0.500000
O O13 0.707472 0.659170 0.341709
O O14 0.000000 0.000000 0.115687
O O15 0.160056 0.000000 0.000000
O O16 0.800247 0.401042 0.178394
O O17 0.000000 0.377060 0.158738
O O18 0.877342 0.378850 0.000000
O O19 0.676891 0.500000 0.720750
#
# Coordination Sequence:
#
# PCOD8199125 Si02
#       7
#     4   8   8   8   4   8   8
#     4   9  18  34  55  77 104 135 165 207 264 324
#     4   9  18  31  47  72 104 136 172 208 250 310
#     4   8  15  29  49  71  92 117 156 206 252 290
#     4  10  21  34  51  73 100 137 176 217 257 296
#     4   9  16  28  49  75 104 137 171 211 260 314
#     4   9  17  31  52  76 102 130 164 213 266 310
#     4  10  21  35  51  75 104 135 176 216 257 314
#
# _framework density 17.987727
#
# number of rings (size 3 to 8) (size 9 to 14) (size 15 to 20)
#    0.000    2.833    0.000    1.500    2.333    4.000 
#    0.000    0.833    0.000    3.000    0.000    4.667 
#    0.000    1.333    0.000    0.000    0.000    0.000 
#
# Total GULP energy -594740.469510 kJ/mol
# GULP energy per Si atom -12390.426448 kJ/mol
# Density = 1.794679 g / cm^3
# Si number density = 17.987727 Si / 1000 Ang^3
#
#
#
# Elastic Constant Matrix: (Units=GPa)
#
#
# Indices 1 2 3 4 5 6 
#
# 1 73.1141 23.9099 26.3377 0.0000 0.0000 0.0000
# 2 23.9099 107.0243 36.7208 0.0000 0.0000 0.0000
# 3 26.3377 36.7208 88.5115 0.0000 0.0000 0.0000
# 4 0.0000 0.0000 0.0000 19.3199 0.0000 0.0000
# 5 0.0000 0.0000 0.0000 0.0000 15.9166 0.0000
# 6 0.0000 0.0000 0.0000 0.0000 0.0000 25.9405
#
#
#
# Elastic Compliance Matrix: (Units=1/GPa)
#
#
# Indices 1 2 3 4 5 6 
#
# 1 0.015763 -0.002230 -0.003765 0.000000 0.000000 0.000000
# 2 -0.002230 0.011210 -0.003987 0.000000 0.000000 0.000000
# 3 -0.003765 -0.003987 0.014073 0.000000 0.000000 0.000000
# 4 0.000000 0.000000 0.000000 0.051760 0.000000 0.000000
# 5 0.000000 0.000000 0.000000 0.000000 0.062828 0.000000
# 6 0.000000 0.000000 0.000000 0.000000 0.000000 0.038550
#
#
# Mechanical properties :
#
#
# Convention : Reuss Voigt Hill
#
# Bulk Modulus (GPa) = 47.43648 49.17630 48.30639
# Shear Modulus (GPa) = 22.60666 24.34750 23.47708
#
# Velocity S-wave (km/s) = 3.54896 3.68307 3.61664
# Velocity P-wave (km/s) = 6.57437 6.74424 6.65985
#
# Compressibility (1/GPa) = 0.02108082
#
# Stress axis : x y z
#
# Youngs Moduli (GPa) = 63.44060 89.20765 71.06017
#
# Poissons Ratio (x) = 0.19889 0.26757
# Poissons Ratio (y) = 0.14144 0.28333
# Poissons Ratio (z) = 0.23888 0.35569
#
# Static dielectric constant tensor:
#      x y z
#    x 3.443140 0.000000 0.000000 
#    y 0.000000 3.428770 0.000000 
#    z 0.000000 0.000000 3.069120 
# 
# 
# High freq. dielectric constant tensor:
#      x y z
#    x 1.688650 0.000000 0.000000 
#    y 0.000000 1.702090 0.000000 
#    z 0.000000 0.000000 1.668460 
# 
# From -- ./inp_files/17576.got.cif
#   From: 2010.03.12/outbox.cif.g09.slc.cpg/sg47_9_cif.got.tgz:17576.got - 2010.04.14 03:12:58.
