data_PCOD8199652
_publ_section_title
;
Structure prediction by ZEFSAII (Michael W. Deem and Ramdas Pophale) SiO2 
 PCOD8199652
Probable space group: P M M M
;
_chemical_formula_sum "Si O2"
_cell_formula_units_Z 48
_cell_length_a 29.567925
_cell_length_b 9.590016
_cell_length_c 8.324797
_cell_angle_alpha 90.000000
_cell_angle_beta 90.000000
_cell_angle_gamma 90.000000
_cell_volume 2360.553413
_symmetry_space_group_name_H-M "P M M M"
_symmetry_group_IT_number 47
_symmetry_cell_setting 'orthorhombic'
loop_
_space_group_symop_operation_xyz
x,y,z
-x,-y,z
x,-y,-z
-x,y,-z
-x,-y,-z
x,y,-z
-x,y,z
x,-y,z
loop_
_atom_site_type_symbol
_atom_site_label
_atom_site_fract_x
_atom_site_fract_y
_atom_site_fract_z
Si Si1 0.449667 0.843787 0.309013
Si Si2 0.947154 0.000000 0.809623
Si Si3 0.285039 0.158178 0.688429
Si Si4 0.796161 0.660868 0.813279
Si Si5 0.368113 0.341349 0.691798
Si Si6 0.890345 0.252776 0.311655
Si Si7 0.950442 0.500000 0.309218
O O1 0.448744 0.842510 0.500000
O O2 0.500000 0.803958 0.247518
O O3 0.414126 0.730294 0.242582
O O4 0.436763 0.000000 0.249328
O O5 0.920051 0.877953 0.728412
O O6 0.000000 0.000000 0.758212
O O7 0.942276 0.000000 0.000000
O O8 0.291284 0.143345 0.500000
O O9 0.240112 0.245421 0.722078
O O10 0.326908 0.247406 0.759528
O O11 0.283234 0.000000 0.762154
O O12 0.796406 0.500000 0.748953
O O13 0.843593 0.737330 0.783527
O O14 0.784640 0.662351 0.000000
O O15 0.367338 0.344372 0.500000
O O16 0.364627 0.500000 0.758422
O O17 0.879402 0.263726 0.500000
O O18 0.922680 0.371238 0.244703
O O19 0.954521 0.500000 0.500000
O O20 0.000000 0.500000 0.229928
#
# Coordination Sequence:
#
# PCOD8199652 Si02
#       7
#     8   4   8   8   8   8   4
#     4   8  13  21  34  55  89 134 179 222 273 333
#     4  11  25  43  61  87 125 163 195 231 278 329
#     4  10  21  36  56  80 106 140 185 232 279 335
#     4  11  24  41  60  83 114 147 181 226 286 348
#     4   9  16  26  42  66  97 134 177 228 280 331
#     4  11  22  39  64  90 118 152 192 236 279 329
#     4   9  18  34  59  91 119 143 181 231 276 319
#
# _framework density 20.334216000000001
#
# number of rings (size 3 to 8) (size 9 to 14) (size 15 to 20)
#    0.000    2.167    0.833    3.250    1.167    5.667 
#    0.000    1.667    0.000    2.000    0.000    0.000 
#    0.000    0.667    0.000    7.000    0.000    9.667 
#
# Total GULP energy -594911.753009 kJ/mol
# GULP energy per Si atom -12393.994854 kJ/mol
# Density = 2.028793 g / cm^3
# Si number density = 20.334216 Si / 1000 Ang^3
#
#
#
# Elastic Constant Matrix: (Units=GPa)
#
#
# Indices 1 2 3 4 5 6 
#
# 1 169.7920 89.9202 -1.6594 0.0000 0.0000 0.0000
# 2 89.9202 179.3131 5.2076 0.0000 0.0000 0.0000
# 3 -1.6594 5.2076 16.3382 0.0000 0.0000 0.0000
# 4 0.0000 0.0000 0.0000 12.3401 0.0000 0.0000
# 5 0.0000 0.0000 0.0000 0.0000 1.2871 0.0000
# 6 0.0000 0.0000 0.0000 0.0000 0.0000 48.3280
#
#
#
# Elastic Compliance Matrix: (Units=1/GPa)
#
#
# Indices 1 2 3 4 5 6 
#
# 1 0.008092 -0.004120 0.002135 0.000000 0.000000 0.000000
# 2 -0.004120 0.007727 -0.002881 0.000000 0.000000 0.000000
# 3 0.002135 -0.002881 0.062341 0.000000 0.000000 0.000000
# 4 0.000000 0.000000 0.000000 0.081037 0.000000 0.000000
# 5 0.000000 0.000000 0.000000 0.000000 0.776953 0.000000
# 6 0.000000 0.000000 0.000000 0.000000 0.000000 0.020692
#
#
# Mechanical properties :
#
#
# Convention : Reuss Voigt Hill
#
# Bulk Modulus (GPa) = 14.61387 61.37557 37.99472
# Shear Modulus (GPa) = 5.05365 30.52269 17.78817
#
# Velocity S-wave (km/s) = 1.57819 3.87854 2.96089
# Velocity P-wave (km/s) = 3.24397 7.09270 5.51497
#
# Compressibility (1/GPa) = 0.06842812
#
# Stress axis : x y z
#
# Youngs Moduli (GPa) = 123.57288 129.42267 16.04068
#
# Poissons Ratio (x) = 0.53323 -0.03425
# Poissons Ratio (y) = 0.50913 0.04622
# Poissons Ratio (z) = -0.26385 0.37290
#
# Static dielectric constant tensor:
#      x y z
#    x 3.976120 0.000000 0.000000 
#    y 0.000000 -3.589560 0.000000 
#    z 0.000000 0.000000 3.208370 
# 
# 
# High freq. dielectric constant tensor:
#      x y z
#    x 1.811210 0.000000 0.000000 
#    y 0.000000 1.809860 0.000000 
#    z 0.000000 0.000000 1.745400 
# 
# From -- ./inp_files/13952.got.cif
#   From: 2010.03.12/outbox.cif.g09.slc.cpg/sg47_7_cif.got.tgz:13952.got - 2010.04.14 03:12:58.
