data_PCOD8199690
_publ_section_title
;
Structure prediction by ZEFSAII (Michael W. Deem and Ramdas Pophale) SiO2 
 PCOD8199690
Probable space group: P M M M
;
_chemical_formula_sum "Si O2"
_cell_formula_units_Z 56
_cell_length_a 9.832753
_cell_length_b 19.522261
_cell_length_c 14.632224
_cell_angle_alpha 90.000000
_cell_angle_beta 90.000000
_cell_angle_gamma 90.000000
_cell_volume 2808.766169
_symmetry_space_group_name_H-M "P M M M"
_symmetry_group_IT_number 47
_symmetry_cell_setting 'orthorhombic'
loop_
_space_group_symop_operation_xyz
x,y,z
-x,-y,z
x,-y,-z
-x,y,-z
-x,-y,-z
x,y,-z
-x,y,z
x,-y,z
loop_
_atom_site_type_symbol
_atom_site_label
_atom_site_fract_x
_atom_site_fract_y
_atom_site_fract_z
Si Si1 0.645159 0.218162 0.894758
Si Si2 0.155623 0.332289 0.108732
Si Si3 0.657555 0.822112 0.395175
Si Si4 0.658120 0.419814 0.228928
Si Si5 0.762623 0.924621 0.100707
Si Si6 0.148104 0.923278 0.294197
Si Si7 0.339096 0.332257 0.600198
O O1 0.500000 0.239194 0.848315
O O2 0.771009 0.262278 0.854490
O O3 0.656586 0.136554 0.882887
O O4 0.637709 0.238225 0.000000
O O5 0.243879 0.395533 0.147132
O O6 0.000000 0.332995 0.145373
O O7 0.154798 0.338176 0.000000
O O8 0.684793 0.842375 0.500000
O O9 0.500000 0.830763 0.370529
O O10 0.739748 0.871323 0.328970
O O11 0.707783 0.744889 0.375865
O O12 0.500000 0.401710 0.207522
O O13 0.677169 0.500000 0.242130
O O14 0.711178 0.384175 0.322122
O O15 0.868458 0.920009 0.183852
O O16 0.690466 0.000000 0.103229
O O17 0.832981 0.914722 0.000000
O O18 0.000000 0.904718 0.334994
O O19 0.190387 0.000000 0.324555
O O20 0.280298 0.353630 0.500000
O O21 0.500000 0.333297 0.593552
#
# Coordination Sequence:
#
# PCOD8199690 Si02
#       7
#     8   8   8   8   8   8   8
#     4   9  18  33  54  79 106 140 186 238 285 326
#     4  10  22  39  57  79 112 155 198 236 276 327
#     4   9  19  37  60  83 108 143 187 233 282 338
#     4  10  21  36  58  90 120 146 181 227 280 334
#     4   9  19  35  53  77 113 154 193 233 280 335
#     4  10  22  37  53  79 113 148 190 240 289 332
#     4   8  16  34  59  86 115 145 179 222 274 334
#
# _framework density 19.937578999999999
#
# number of rings (size 3 to 8) (size 9 to 14) (size 15 to 20)
#    0.000    2.714    0.000    1.286    2.000    4.286 
#    0.000   10.000    0.000    1.286    0.000    1.000 
#    0.000    0.000    0.000    0.000    0.000    0.000 
#
# Total GULP energy -693771.724431 kJ/mol
# GULP energy per Si atom -12388.780793 kJ/mol
# Density = 1.989220 g / cm^3
# Si number density = 19.937579 Si / 1000 Ang^3
#
#
#
# Elastic Constant Matrix: (Units=GPa)
#
#
# Indices 1 2 3 4 5 6 
#
# 1 108.5358 61.3587 39.3720 0.0000 0.0000 0.0000
# 2 61.3587 128.2532 48.3225 0.0000 0.0000 0.0000
# 3 39.3720 48.3225 77.4507 0.0000 0.0000 0.0000
# 4 0.0000 0.0000 0.0000 31.7140 0.0000 0.0000
# 5 0.0000 0.0000 0.0000 0.0000 14.1575 0.0000
# 6 0.0000 0.0000 0.0000 0.0000 0.0000 12.2857
#
#
#
# Elastic Compliance Matrix: (Units=1/GPa)
#
#
# Indices 1 2 3 4 5 6 
#
# 1 0.013383 -0.005019 -0.003672 0.000000 0.000000 0.000000
# 2 -0.005019 0.012076 -0.004983 0.000000 0.000000 0.000000
# 3 -0.003672 -0.004983 0.017887 0.000000 0.000000 0.000000
# 4 0.000000 0.000000 0.000000 0.031532 0.000000 0.000000
# 5 0.000000 0.000000 0.000000 0.000000 0.070634 0.000000
# 6 0.000000 0.000000 0.000000 0.000000 0.000000 0.081395
#
#
# Mechanical properties :
#
#
# Convention : Reuss Voigt Hill
#
# Bulk Modulus (GPa) = 62.50692 68.03845 65.27269
# Shear Modulus (GPa) = 19.26143 22.64389 20.95266
#
# Velocity S-wave (km/s) = 3.11157 3.37373 3.24530
# Velocity P-wave (km/s) = 6.65796 7.02680 6.84487
#
# Compressibility (1/GPa) = 0.01599823
#
# Stress axis : x y z
#
# Youngs Moduli (GPa) = 74.72149 82.81066 55.90765
#
# Poissons Ratio (x) = 0.41565 0.20527
# Poissons Ratio (y) = 0.37505 0.27857
# Poissons Ratio (z) = 0.27435 0.41262
#
# Static dielectric constant tensor:
#      x y z
#    x 3.408420 0.000000 0.000000 
#    y 0.000000 3.644810 0.000000 
#    z 0.000000 0.000000 3.898990 
# 
# 
# High freq. dielectric constant tensor:
#      x y z
#    x 1.745600 0.000000 0.000000 
#    y 0.000000 1.778040 0.000000 
#    z 0.000000 0.000000 1.775320 
# 
# From -- ./inp_files/21571.got.cif
#   From: 2010.03.12/outbox.cif.g09.slc.cpg/sg47_11_cif.got.tgz:21571.got - 2010.04.14 03:12:58.
