data_PCOD8199043
_publ_section_title
;
Structure prediction by ZEFSAII (Michael W. Deem and Ramdas Pophale) SiO2 
 PCOD8199043
Probable space group: P M M M
;
_chemical_formula_sum "Si O2"
_cell_formula_units_Z 52
_cell_length_a 7.984133
_cell_length_b 28.389618
_cell_length_c 13.916089
_cell_angle_alpha 90.000000
_cell_angle_beta 90.000000
_cell_angle_gamma 90.000000
_cell_volume 3154.310992
_symmetry_space_group_name_H-M "P M M M"
_symmetry_group_IT_number 47
_symmetry_cell_setting 'orthorhombic'
loop_
_space_group_symop_operation_xyz
x,y,z
-x,-y,z
x,-y,-z
-x,y,-z
-x,-y,-z
x,y,-z
-x,y,z
x,-y,z
loop_
_atom_site_type_symbol
_atom_site_label
_atom_site_fract_x
_atom_site_fract_y
_atom_site_fract_z
Si Si1 0.313794 0.612633 0.885860
Si Si2 0.306970 0.052608 0.291948
Si Si3 0.000000 0.446666 0.114720
Si Si4 0.198124 0.899713 0.892274
Si Si5 0.801112 0.193476 0.210856
Si Si6 0.193545 0.142878 0.605077
Si Si7 0.198359 0.713544 0.889804
O O1 0.500000 0.596166 0.851857
O O2 0.168365 0.578499 0.844596
O O3 0.282860 0.665923 0.850358
O O4 0.302260 0.611774 0.000000
O O5 0.500000 0.056636 0.319433
O O6 0.283475 0.063202 0.178978
O O7 0.207706 0.089340 0.357896
O O8 0.239723 0.000000 0.313125
O O9 0.000000 0.500000 0.152889
O O10 0.000000 0.445008 0.000000
O O11 0.253036 0.846643 0.864637
O O12 0.000000 0.905178 0.883040
O O13 0.260338 0.910274 0.000000
O O14 0.727979 0.179149 0.316370
O O15 0.730771 0.243681 0.175292
O O16 0.000000 0.196138 0.215473
O O17 0.280343 0.148912 0.500000
O O18 0.000000 0.154604 0.594479
O O19 0.000000 0.707826 0.880967
O O20 0.248986 0.723470 0.000000
#
# Coordination Sequence:
#
# PCOD8199043 Si02
#       7
#     8   8   4   8   8   8   8
#     4   9  16  25  36  53  78 107 144 188 226 259
#     4  10  21  34  46  62  84 109 137 169 208 256
#     4   9  16  26  38  52  74 108 151 193 230 263
#     4   9  17  30  47  66  87 110 138 170 204 247
#     4   8  14  25  43  65  84 106 136 166 204 253
#     4   9  18  33  51  68  85 105 134 174 214 255
#     4   9  14  22  38  57  80 110 140 171 209 253
#
# _framework density 16.485374
#
# number of rings (size 3 to 8) (size 9 to 14) (size 15 to 20)
#    0.000    3.000    0.769    1.846    0.000    4.615 
#    0.000    7.692    0.000    3.692    0.000    0.000 
#    0.000    0.000    0.000    0.000    0.000    1.538 
#
# Total GULP energy -644420.501880 kJ/mol
# GULP energy per Si atom -12392.701959 kJ/mol
# Density = 1.644785 g / cm^3
# Si number density = 16.485374 Si / 1000 Ang^3
#
#
#
# Elastic Constant Matrix: (Units=GPa)
#
#
# Indices 1 2 3 4 5 6 
#
# 1 48.9019 34.4185 10.7583 0.0000 0.0000 0.0000
# 2 34.4185 115.7817 33.2813 0.0000 0.0000 0.0000
# 3 10.7583 33.2813 80.1703 0.0000 0.0000 0.0000
# 4 0.0000 0.0000 0.0000 10.6932 0.0000 0.0000
# 5 0.0000 0.0000 0.0000 0.0000 5.4381 0.0000
# 6 0.0000 0.0000 0.0000 0.0000 0.0000 6.8917
#
#
#
# Elastic Compliance Matrix: (Units=1/GPa)
#
#
# Indices 1 2 3 4 5 6 
#
# 1 0.025867 -0.007598 -0.000317 0.000000 0.000000 0.000000
# 2 -0.007598 0.012039 -0.003978 0.000000 0.000000 0.000000
# 3 -0.000317 -0.003978 0.014167 0.000000 0.000000 0.000000
# 4 0.000000 0.000000 0.000000 0.093518 0.000000 0.000000
# 5 0.000000 0.000000 0.000000 0.000000 0.183887 0.000000
# 6 0.000000 0.000000 0.000000 0.000000 0.000000 0.145101
#
#
# Mechanical properties :
#
#
# Convention : Reuss Voigt Hill
#
# Bulk Modulus (GPa) = 35.35237 44.64110 39.99673
# Shear Modulus (GPa) = 9.84650 15.69766 12.77208
#
# Velocity S-wave (km/s) = 2.44660 3.08915 2.78646
# Velocity P-wave (km/s) = 5.42884 6.31362 5.88788
#
# Compressibility (1/GPa) = 0.02828665
#
# Stress axis : x y z
#
# Youngs Moduli (GPa) = 38.65972 83.06167 70.58425
#
# Poissons Ratio (x) = 0.63113 0.02236
# Poissons Ratio (y) = 0.29375 0.28080
# Poissons Ratio (z) = 0.01225 0.33044
#
# Static dielectric constant tensor:
#      x y z
#    x 3.002130 0.000000 0.000000 
#    y 0.000000 3.169030 0.000000 
#    z 0.000000 0.000000 3.092230 
# 
# 
# High freq. dielectric constant tensor:
#      x y z
#    x 1.626320 0.000000 0.000000 
#    y 0.000000 1.622080 0.000000 
#    z 0.000000 0.000000 1.589330 
# 
# From -- ./inp_files/21997.got.cif
#   From: 2010.03.12/outbox.cif.g09.slc.cpg/sg47_11_cif.got.tgz:21997.got - 2010.04.14 03:12:58.
