data_PCOD8199295
_publ_section_title
;
Structure prediction by ZEFSAII (Michael W. Deem and Ramdas Pophale) SiO2 
 PCOD8199295
Probable space group: P M M M
;
_chemical_formula_sum "Si O2"
_cell_formula_units_Z 48
_cell_length_a 9.301750
_cell_length_b 30.351388
_cell_length_c 9.742667
_cell_angle_alpha 90.000000
_cell_angle_beta 90.000000
_cell_angle_gamma 90.000000
_cell_volume 2750.559717
_symmetry_space_group_name_H-M "P M M M"
_symmetry_group_IT_number 47
_symmetry_cell_setting 'orthorhombic'
loop_
_space_group_symop_operation_xyz
x,y,z
-x,-y,z
x,-y,-z
-x,y,-z
-x,-y,-z
x,y,-z
-x,y,z
x,-y,z
loop_
_atom_site_type_symbol
_atom_site_label
_atom_site_fract_x
_atom_site_fract_y
_atom_site_fract_z
Si Si1 0.666874 0.704971 0.658244
Si Si2 0.170853 0.951294 0.345907
Si Si3 0.167714 0.617714 0.658953
Si Si4 0.168271 0.126769 0.841940
Si Si5 0.664177 0.448699 0.842536
Si Si6 0.332720 0.213642 0.841932
O O1 0.697206 0.716778 0.500000
O O2 0.500000 0.694608 0.684313
O O3 0.755879 0.662590 0.705937
O O4 0.719923 0.745654 0.750061
O O5 0.223147 0.940373 0.500000
O O6 0.232179 0.914351 0.243433
O O7 0.000000 0.951148 0.339576
O O8 0.226787 0.000000 0.302179
O O9 0.200031 0.607888 0.500000
O O10 0.228053 0.577393 0.745816
O O11 0.000000 0.622776 0.688396
O O12 0.246921 0.170827 0.791936
O O13 0.000000 0.133435 0.815358
O O14 0.202365 0.116830 0.000000
O O15 0.500000 0.437365 0.803150
O O16 0.694701 0.500000 0.819650
O O17 0.693529 0.435627 0.000000
O O18 0.500000 0.204063 0.818981
O O19 0.298182 0.224833 0.000000
#
# Coordination Sequence:
#
# PCOD8199295 Si02
#       6
#     8   8   8   8   8   8
#     4   9  18  33  51  69  91 122 160 198 234 276
#     4   8  14  25  41  62  88 116 146 181 221 265
#     4  10  21  35  51  75 106 135 163 199 245 294
#     4   9  17  28  43  65  90 114 144 184 226 267
#     4   9  19  36  56  77 101 131 169 209 245 285
#     4   9  18  32  48  66  90 120 152 187 230 279
#
# _framework density 17.450993
#
# number of rings (size 3 to 8) (size 9 to 14) (size 15 to 20)
#    0.000    3.000    0.000    1.500    0.000    4.333 
#    0.000    5.833    0.000    0.500    0.000    3.500 
#    0.000    0.000    0.000    0.000    0.000    0.000 
#
# Total GULP energy -595207.817921 kJ/mol
# GULP energy per Si atom -12400.162873 kJ/mol
# Density = 1.741127 g / cm^3
# Si number density = 17.450993 Si / 1000 Ang^3
#
#
#
# Elastic Constant Matrix: (Units=GPa)
#
#
# Indices 1 2 3 4 5 6 
#
# 1 55.3084 57.3874 40.0058 0.0000 0.0000 0.0000
# 2 57.3874 141.3459 78.8663 0.0000 0.0000 0.0000
# 3 40.0058 78.8663 79.4212 0.0000 0.0000 0.0000
# 4 0.0000 0.0000 0.0000 40.9745 0.0000 0.0000
# 5 0.0000 0.0000 0.0000 0.0000 21.6762 0.0000
# 6 0.0000 0.0000 0.0000 0.0000 0.0000 23.6093
#
#
#
# Elastic Compliance Matrix: (Units=1/GPa)
#
#
# Indices 1 2 3 4 5 6 
#
# 1 0.033104 -0.009276 -0.007464 0.000000 0.000000 0.000000
# 2 -0.009276 0.018464 -0.013663 0.000000 0.000000 0.000000
# 3 -0.007464 -0.013663 0.029918 0.000000 0.000000 0.000000
# 4 0.000000 0.000000 0.000000 0.024405 0.000000 0.000000
# 5 0.000000 0.000000 0.000000 0.000000 0.046133 0.000000
# 6 0.000000 0.000000 0.000000 0.000000 0.000000 0.042356
#
#
# Mechanical properties :
#
#
# Convention : Reuss Voigt Hill
#
# Bulk Modulus (GPa) = 48.35357 69.84381 59.09869
# Shear Modulus (GPa) = 19.07810 23.90641 21.49225
#
# Velocity S-wave (km/s) = 3.31000 3.70525 3.51319
# Velocity P-wave (km/s) = 6.50972 7.64297 7.09899
#
# Compressibility (1/GPa) = 0.02068100
#
# Stress axis : x y z
#
# Youngs Moduli (GPa) = 30.20817 54.15856 33.42417
#
# Poissons Ratio (x) = 0.50235 0.24948
# Poissons Ratio (y) = 0.28020 0.45668
# Poissons Ratio (z) = 0.22548 0.73997
#
# Static dielectric constant tensor:
#      x y z
#    x 3.037840 0.000000 0.000000 
#    y 0.000000 3.385110 0.000000 
#    z 0.000000 0.000000 3.283410 
# 
# 
# High freq. dielectric constant tensor:
#      x y z
#    x 1.652350 0.000000 0.000000 
#    y 0.000000 1.681050 0.000000 
#    z 0.000000 0.000000 1.673090 
# 
# From -- ./inp_files/2476.got.cif
#   From: 2010.03.12/outbox.cif.g09.slc.cpg/sg47_2_cif.got.tgz:2476.got - 2010.04.14 03:12:58.
