data_PCOD8199402
_publ_section_title
;
Structure prediction by ZEFSAII (Michael W. Deem and Ramdas Pophale) SiO2 
 PCOD8199402
Probable space group: P M M M
;
_chemical_formula_sum "Si O2"
_cell_formula_units_Z 52
_cell_length_a 9.904293
_cell_length_b 34.989205
_cell_length_c 8.257177
_cell_angle_alpha 90.000000
_cell_angle_beta 90.000000
_cell_angle_gamma 90.000000
_cell_volume 2861.469681
_symmetry_space_group_name_H-M "P M M M"
_symmetry_group_IT_number 47
_symmetry_cell_setting 'orthorhombic'
loop_
_space_group_symop_operation_xyz
x,y,z
-x,-y,z
x,-y,-z
-x,y,-z
-x,-y,-z
x,y,-z
-x,y,z
x,-y,z
loop_
_atom_site_type_symbol
_atom_site_label
_atom_site_fract_x
_atom_site_fract_y
_atom_site_fract_z
Si Si1 0.339991 0.834670 0.679359
Si Si2 0.653747 0.249676 0.308121
Si Si3 0.151150 0.394646 0.687749
Si Si4 0.660593 0.956440 0.500000
Si Si5 0.339444 0.087337 0.819996
Si Si6 0.847913 0.685607 0.812329
Si Si7 0.351191 0.542047 0.809731
O O1 0.278835 0.841732 0.500000
O O2 0.500000 0.835302 0.664221
O O3 0.297567 0.792877 0.745714
O O4 0.290835 0.868708 0.796793
O O5 0.664926 0.253704 0.500000
O O6 0.500000 0.257294 0.251449
O O7 0.751084 0.279199 0.222047
O O8 0.149238 0.402740 0.500000
O O9 0.207107 0.352052 0.721201
O O10 0.244174 0.426176 0.766189
O O11 0.000000 0.398054 0.761291
O O12 0.500000 0.952986 0.500000
O O13 0.717041 0.937349 0.667267
O O14 0.709912 0.000000 0.500000
O O15 0.500000 0.084607 0.817890
O O16 0.287820 0.073694 0.000000
O O17 0.000000 0.695700 0.753374
O O18 0.846069 0.675973 0.000000
O O19 0.500000 0.552609 0.739597
O O20 0.307519 0.500000 0.743142
O O21 0.360961 0.539893 0.000000
#
# Coordination Sequence:
#
# PCOD8199402 Si02
#       7
#     8   8   8   4   8   8   8
#     4   8  13  24  40  57  81 109 138 180 233 283
#     4   9  18  31  49  73  97 122 156 200 245 289
#     4  10  21  36  54  75  98 127 164 202 238 282
#     4   9  16  24  32  44  68 102 141 189 237 281
#     4   9  15  22  34  50  69 100 141 183 232 286
#     4  10  21  36  52  70  96 131 167 201 241 290
#     4   9  19  36  56  78 104 132 161 194 236 286
#
# _framework density 18.172481000000001
#
# number of rings (size 3 to 8) (size 9 to 14) (size 15 to 20)
#    0.000    2.846    0.769    2.308    0.000    4.615 
#    0.000    5.385    0.000    0.000    0.000    0.000 
#    0.000    0.000    0.000    0.000    0.000    1.538 
#
# Total GULP energy -644340.504272 kJ/mol
# GULP energy per Si atom -12391.163544 kJ/mol
# Density = 1.813112 g / cm^3
# Si number density = 18.172481 Si / 1000 Ang^3
#
#
#
# Elastic Constant Matrix: (Units=GPa)
#
#
# Indices 1 2 3 4 5 6 
#
# 1 44.4408 44.4905 21.7348 0.0000 0.0000 0.0000
# 2 44.4905 130.2572 42.2317 0.0000 0.0000 0.0000
# 3 21.7348 42.2317 76.8993 0.0000 0.0000 0.0000
# 4 0.0000 0.0000 0.0000 27.8693 0.0000 0.0000
# 5 0.0000 0.0000 0.0000 0.0000 16.0006 0.0000
# 6 0.0000 0.0000 0.0000 0.0000 0.0000 -2.5201
#
#
#
# Elastic Compliance Matrix: (Units=1/GPa)
#
#
# Indices 1 2 3 4 5 6 
#
# 1 0.035212 -0.010707 -0.004072 0.000000 0.000000 0.000000
# 2 -0.010707 0.012596 -0.003891 0.000000 0.000000 0.000000
# 3 -0.004072 -0.003891 0.016292 0.000000 0.000000 0.000000
# 4 0.000000 0.000000 0.000000 0.035882 0.000000 0.000000
# 5 0.000000 0.000000 0.000000 0.000000 0.062498 0.000000
# 6 0.000000 0.000000 0.000000 0.000000 0.000000 -0.396815
#
#
# Mechanical properties :
#
#
# Convention : Reuss Voigt Hill
#
# Bulk Modulus (GPa) = 37.37021 52.05680 44.71351
# Shear Modulus (GPa) = -26.58506 17.81265 -4.38620
#
# Velocity S-wave (km/s) = -3.82898 3.13421 -1.55528
# Velocity P-wave (km/s) = 1.02993 6.46574 4.62961
#
# Compressibility (1/GPa) = 0.02675928
#
# Stress axis : x y z
#
# Youngs Moduli (GPa) = 28.39919 79.39241 61.37972
#
# Poissons Ratio (x) = 0.85003 0.24997
# Poissons Ratio (y) = 0.30406 0.23884
# Poissons Ratio (z) = 0.11566 0.30893
#
# Static dielectric constant tensor:
#      x y z
#    x 3.203300 0.000000 0.000000 
#    y 0.000000 3.690650 0.000000 
#    z 0.000000 0.000000 3.440220 
# 
# 
# High freq. dielectric constant tensor:
#      x y z
#    x 1.645400 0.000000 0.000000 
#    y 0.000000 1.713110 0.000000 
#    z 0.000000 0.000000 1.706260 
# 
# From -- ./inp_files/4777.got.cif
#   From: 2010.03.12/outbox.cif.g09.slc.cpg/sg47_3_cif.got.tgz:4777.got - 2010.04.14 03:12:58.
