data_PCOD8199537
_publ_section_title
;
Structure prediction by ZEFSAII (Michael W. Deem and Ramdas Pophale) SiO2 
 PCOD8199537
Probable space group: P M M M
;
_chemical_formula_sum "Si O2"
_cell_formula_units_Z 56
_cell_length_a 21.189208
_cell_length_b 9.226866
_cell_length_c 14.423807
_cell_angle_alpha 90.000000
_cell_angle_beta 90.000000
_cell_angle_gamma 90.000000
_cell_volume 2819.998259
_symmetry_space_group_name_H-M "P M M M"
_symmetry_group_IT_number 47
_symmetry_cell_setting 'orthorhombic'
loop_
_space_group_symop_operation_xyz
x,y,z
-x,-y,z
x,-y,-z
-x,y,-z
-x,-y,-z
x,y,-z
-x,y,z
x,-y,z
loop_
_atom_site_type_symbol
_atom_site_label
_atom_site_fract_x
_atom_site_fract_y
_atom_site_fract_z
Si Si1 0.315535 0.670221 0.393886
Si Si2 0.374825 0.170309 0.107019
Si Si3 0.190787 0.831259 0.608592
Si Si4 0.429948 0.333541 0.735049
Si Si5 0.251896 0.661564 0.109830
Si Si6 0.869335 0.833649 0.896132
Si Si7 0.068308 0.168575 0.287965
O O1 0.326646 0.717162 0.500000
O O2 0.304356 0.500000 0.384920
O O3 0.252977 0.748767 0.353803
O O4 0.377788 0.720853 0.338434
O O5 0.429142 0.236599 0.171632
O O6 0.310984 0.245279 0.144047
O O7 0.368829 0.000000 0.121595
O O8 0.389606 0.207899 0.000000
O O9 0.182411 0.804527 0.500000
O O10 0.127916 0.764146 0.657134
O O11 0.199037 0.000000 0.633279
O O12 0.500000 0.316229 0.691203
O O13 0.417141 0.500000 0.762696
O O14 0.255725 0.500000 0.152805
O O15 0.188381 0.739147 0.142605
O O16 0.252224 0.654604 0.000000
O O17 0.925499 0.808947 0.823253
O O18 0.846692 0.000000 0.896734
O O19 0.891090 0.787176 0.000000
O O20 0.000000 0.237142 0.316677
O O21 0.066840 0.000000 0.312921
#
# Coordination Sequence:
#
# PCOD8199537 Si02
#       7
#     8   8   8   8   8   8   8
#     4   9  19  37  60  84 109 139 176 220 271 326
#     4  10  21  36  54  77 108 146 186 226 268 316
#     4   9  18  33  54  79 104 133 172 219 269 318
#     4  10  22  38  56  82 113 145 182 222 268 321
#     4   9  17  30  49  73 100 132 174 223 271 314
#     4   9  17  29  46  70 101 136 175 218 265 316
#     4   9  18  31  48  74 105 137 176 220 266 315
#
# _framework density 19.858167999999999
#
# number of rings (size 3 to 8) (size 9 to 14) (size 15 to 20)
#    0.000    2.714    0.000    0.857    2.000    4.571 
#    0.000    5.714    0.000    1.714    0.000    7.000 
#    0.000    0.000    0.000    0.000    0.000    0.000 
#
# Total GULP energy -694180.588093 kJ/mol
# GULP energy per Si atom -12396.081930 kJ/mol
# Density = 1.981297 g / cm^3
# Si number density = 19.858168 Si / 1000 Ang^3
#
#
#
# Elastic Constant Matrix: (Units=GPa)
#
#
# Indices 1 2 3 4 5 6 
#
# 1 167.4060 44.3951 62.7761 0.0000 0.0000 0.0000
# 2 44.3951 59.9807 26.7295 0.0000 0.0000 0.0000
# 3 62.7761 26.7295 70.5217 0.0000 0.0000 0.0000
# 4 0.0000 0.0000 0.0000 19.3987 0.0000 0.0000
# 5 0.0000 0.0000 0.0000 0.0000 24.4092 0.0000
# 6 0.0000 0.0000 0.0000 0.0000 0.0000 22.5205
#
#
#
# Elastic Compliance Matrix: (Units=1/GPa)
#
#
# Indices 1 2 3 4 5 6 
#
# 1 0.009708 -0.004012 -0.007121 0.000000 0.000000 0.000000
# 2 -0.004012 0.021718 -0.004661 0.000000 0.000000 0.000000
# 3 -0.007121 -0.004661 0.022285 0.000000 0.000000 0.000000
# 4 0.000000 0.000000 0.000000 0.051550 0.000000 0.000000
# 5 0.000000 0.000000 0.000000 0.000000 0.040968 0.000000
# 6 0.000000 0.000000 0.000000 0.000000 0.000000 0.044404
#
#
# Mechanical properties :
#
#
# Convention : Reuss Voigt Hill
#
# Bulk Modulus (GPa) = 45.19838 62.85665 54.02752
# Shear Modulus (GPa) = 21.77749 24.19953 22.98851
#
# Velocity S-wave (km/s) = 3.31517 3.49466 3.40609
# Velocity P-wave (km/s) = 6.12077 6.92857 6.53716
#
# Compressibility (1/GPa) = 0.02212469
#
# Stress axis : x y z
#
# Youngs Moduli (GPa) = 103.01090 46.04398 44.87272
#
# Poissons Ratio (x) = 0.18472 0.31953
# Poissons Ratio (y) = 0.41327 0.20913
# Poissons Ratio (z) = 0.73353 0.21459
#
# Static dielectric constant tensor:
#      x y z
#    x 3.732820 0.000000 0.000000 
#    y 0.000000 3.486940 0.000000 
#    z 0.000000 0.000000 3.590630 
# 
# 
# High freq. dielectric constant tensor:
#      x y z
#    x 1.773170 0.000000 0.000000 
#    y 0.000000 1.747230 0.000000 
#    z 0.000000 0.000000 1.772050 
# 
# From -- ./inp_files/7303.got.cif
#   From: 2010.03.12/outbox.cif.g09.slc.cpg/sg47_4_cif.got.tgz:7303.got - 2010.04.14 03:12:58.
