data_PCOD8199530
_publ_section_title
;
Structure prediction by ZEFSAII (Michael W. Deem and Ramdas Pophale) SiO2 
 PCOD8199530
Probable space group: P M M M
;
_chemical_formula_sum "Si O2"
_cell_formula_units_Z 64
_cell_length_a 8.868296
_cell_length_b 15.054796
_cell_length_c 24.350237
_cell_angle_alpha 90.000000
_cell_angle_beta 90.000000
_cell_angle_gamma 90.000000
_cell_volume 3251.009569
_symmetry_space_group_name_H-M "P M M M"
_symmetry_group_IT_number 47
_symmetry_cell_setting 'orthorhombic'
loop_
_space_group_symop_operation_xyz
x,y,z
-x,-y,z
x,-y,-z
-x,y,-z
-x,-y,-z
x,y,-z
-x,y,z
x,-y,z
loop_
_atom_site_type_symbol
_atom_site_label
_atom_site_fract_x
_atom_site_fract_y
_atom_site_fract_z
Si Si1 0.823804 0.101998 0.654566
Si Si2 0.821344 0.733411 0.176768
Si Si3 0.673732 0.398019 0.739894
Si Si4 0.826119 0.731393 0.940638
Si Si5 0.321949 0.898323 0.230649
Si Si6 0.664423 0.904517 0.936223
Si Si7 0.826666 0.400364 0.374032
Si Si8 0.822238 0.231088 0.439503
O O1 0.739752 0.130798 0.709900
O O2 0.757654 0.160667 0.604503
O O3 0.000000 0.120616 0.663984
O O4 0.791861 0.000000 0.639562
O O5 0.774904 0.663499 0.222225
O O6 0.772138 0.688419 0.117232
O O7 0.743588 0.829974 0.185531
O O8 0.000000 0.748164 0.178074
O O9 0.500000 0.371423 0.747147
O O10 0.702686 0.500000 0.756484
O O11 0.720561 0.381225 0.677506
O O12 0.797574 0.834744 0.926881
O O13 0.000000 0.713322 0.949415
O O14 0.747232 0.703231 0.000000
O O15 0.500000 0.889396 0.231754
O O16 0.272311 0.000000 0.217293
O O17 0.500000 0.872832 0.912325
O O18 0.707081 0.000000 0.908905
O O19 0.643560 0.919156 0.000000
O O20 0.800835 0.500000 0.396827
O O21 0.781909 0.331472 0.421544
O O22 0.000000 0.386869 0.355443
O O23 0.751137 0.214454 0.500000
O O24 0.000000 0.217988 0.443031
#
# Coordination Sequence:
#
# PCOD8199530 Si02
#       8
#     8   8   8   8   8   8   8   8
#     4   9  17  30  49  71  96 130 173 220 266 308
#     4  11  22  35  55  80 106 137 171 212 260 310
#     4  10  21  37  58  83 108 133 166 213 266 317
#     4   9  19  34  49  68  96 130 167 204 245 297
#     4  10  21  36  54  77 106 140 178 221 268 316
#     4   8  14  25  41  61  86 119 160 202 240 280
#     4   9  17  30  50  75 102 133 168 206 251 304
#     4   9  17  28  44  70 102 134 171 214 256 299
#
# _framework density 19.686192999999999
#
# number of rings (size 3 to 8) (size 9 to 14) (size 15 to 20)
#    0.000    2.625    0.000    2.250    0.000    4.750 
#    0.000    6.250    0.000    1.875    0.000    6.125 
#    0.000    0.000    0.000    0.000    0.000    0.000 
#
# Total GULP energy -792850.318064 kJ/mol
# GULP energy per Si atom -12388.286220 kJ/mol
# Density = 1.964139 g / cm^3
# Si number density = 19.686193 Si / 1000 Ang^3
#
#
#
# Elastic Constant Matrix: (Units=GPa)
#
#
# Indices 1 2 3 4 5 6 
#
# 1 40.2544 15.9656 24.7245 0.0000 0.0000 0.0000
# 2 15.9656 59.2334 40.1055 0.0000 0.0000 0.0000
# 3 24.7245 40.1055 132.6884 0.0000 0.0000 0.0000
# 4 0.0000 0.0000 0.0000 7.6990 0.0000 0.0000
# 5 0.0000 0.0000 0.0000 0.0000 4.0513 0.0000
# 6 0.0000 0.0000 0.0000 0.0000 0.0000 21.1676
#
#
#
# Elastic Compliance Matrix: (Units=1/GPa)
#
#
# Indices 1 2 3 4 5 6 
#
# 1 0.029311 -0.005284 -0.003865 0.000000 0.000000 0.000000
# 2 -0.005284 0.022179 -0.005719 0.000000 0.000000 0.000000
# 3 -0.003865 -0.005719 0.009985 0.000000 0.000000 0.000000
# 4 0.000000 0.000000 0.000000 0.129887 0.000000 0.000000
# 5 0.000000 0.000000 0.000000 0.000000 0.246834 0.000000
# 6 0.000000 0.000000 0.000000 0.000000 0.000000 0.047242
#
#
# Mechanical properties :
#
#
# Convention : Reuss Voigt Hill
#
# Bulk Modulus (GPa) = 31.50574 43.75193 37.62884
# Shear Modulus (GPa) = 9.51015 16.67562 13.09289
#
# Velocity S-wave (km/s) = 2.20031 2.91361 2.58171
# Velocity P-wave (km/s) = 4.74277 5.79584 5.29555
#
# Compressibility (1/GPa) = 0.03174024
#
# Stress axis : x y z
#
# Youngs Moduli (GPa) = 34.11646 45.08809 100.14841
#
# Poissons Ratio (x) = 0.23824 0.38704
# Poissons Ratio (y) = 0.18027 0.57275
# Poissons Ratio (z) = 0.13185 0.25786
#
# Static dielectric constant tensor:
#      x y z
#    x 3.397420 0.000000 0.000000 
#    y 0.000000 3.615310 0.000000 
#    z 0.000000 0.000000 3.907250 
# 
# 
# High freq. dielectric constant tensor:
#      x y z
#    x 1.742770 0.000000 0.000000 
#    y 0.000000 1.749410 0.000000 
#    z 0.000000 0.000000 1.776660 
# 
# From -- ./inp_files/12659.got.cif
#   From: 2010.03.12/outbox.cif.g09.slc.cpg/sg47_7_cif.got.tgz:12659.got - 2010.04.14 03:12:58.
