data_PCOD8199364
_publ_section_title
;
Structure prediction by ZEFSAII (Michael W. Deem and Ramdas Pophale) SiO2 
 PCOD8199364
Probable space group: P M M M
;
_chemical_formula_sum "Si O2"
_cell_formula_units_Z 64
_cell_length_a 9.159472
_cell_length_b 25.831879
_cell_length_c 14.217263
_cell_angle_alpha 90.000000
_cell_angle_beta 90.000000
_cell_angle_gamma 90.000000
_cell_volume 3363.895024
_symmetry_space_group_name_H-M "P M M M"
_symmetry_group_IT_number 47
_symmetry_cell_setting 'orthorhombic'
loop_
_space_group_symop_operation_xyz
x,y,z
-x,-y,z
x,-y,-z
-x,y,-z
-x,-y,-z
x,y,-z
-x,y,z
x,-y,z
loop_
_atom_site_type_symbol
_atom_site_label
_atom_site_fract_x
_atom_site_fract_y
_atom_site_fract_z
Si Si1 0.832548 0.940413 0.108673
Si Si2 0.667011 0.347248 0.111409
Si Si3 0.829730 0.557628 0.798247
Si Si4 0.332310 0.805474 0.395692
Si Si5 0.169650 0.244851 0.111021
Si Si6 0.669567 0.850977 0.794747
Si Si7 0.827561 0.404727 0.602598
Si Si8 0.159978 0.292122 0.389180
O O1 0.726540 0.906369 0.172108
O O2 0.000000 0.926737 0.131876
O O3 0.799808 0.000000 0.131982
O O4 0.799956 0.928571 0.000000
O O5 0.500000 0.343036 0.145480
O O6 0.734535 0.400877 0.147135
O O7 0.755828 0.297567 0.150710
O O8 0.677825 0.348459 0.000000
O O9 0.796317 0.500000 0.837266
O O10 0.787941 0.556447 0.686755
O O11 0.000000 0.571554 0.811503
O O12 0.271802 0.821565 0.500000
O O13 0.500000 0.791021 0.405384
O O14 0.307111 0.850354 0.318748
O O15 0.257665 0.754545 0.351030
O O16 0.242661 0.194705 0.155731
O O17 0.000000 0.246325 0.137926
O O18 0.193227 0.240942 0.000000
O O19 0.500000 0.844884 0.821188
O O20 0.764022 0.422750 0.500000
O O21 0.766960 0.347931 0.632948
O O22 0.000000 0.398750 0.590900
O O23 0.146138 0.286251 0.500000
O O24 0.000000 0.287267 0.341893
#
# Coordination Sequence:
#
# PCOD8199364 Si02
#       8
#     8   8   8   8   8   8   8   8
#     4   9  19  37  59  82 111 148 188 228 271 321
#     4  10  22  40  59  77 101 134 172 218 271 323
#     4  10  21  35  53  79 106 134 173 218 262 315
#     4   9  19  34  48  68 105 147 183 219 260 308
#     4  10  21  37  57  81 110 142 173 209 262 327
#     4  11  22  33  52  84 116 147 184 225 268 314
#     4   8  15  29  49  74 103 133 167 210 259 311
#     4   8  14  26  45  68  93 125 169 216 258 304
#
# _framework density 19.025563999999999
#
# number of rings (size 3 to 8) (size 9 to 14) (size 15 to 20)
#    0.000    2.625    0.000    2.625    1.750    5.250 
#    0.000    3.125    0.000    0.750    0.000    3.500 
#    0.000    0.000    0.000    0.000    0.000    0.000 
#
# Total GULP energy -793242.078860 kJ/mol
# GULP energy per Si atom -12394.407482 kJ/mol
# Density = 1.898226 g / cm^3
# Si number density = 19.025564 Si / 1000 Ang^3
#
#
#
# Elastic Constant Matrix: (Units=GPa)
#
#
# Indices 1 2 3 4 5 6 
#
# 1 97.6170 59.1125 40.8864 0.0000 0.0000 0.0000
# 2 59.1125 110.9053 43.8568 0.0000 0.0000 0.0000
# 3 40.8864 43.8568 40.7229 0.0000 0.0000 0.0000
# 4 0.0000 0.0000 0.0000 28.4505 0.0000 0.0000
# 5 0.0000 0.0000 0.0000 0.0000 18.5749 0.0000
# 6 0.0000 0.0000 0.0000 0.0000 0.0000 10.6461
#
#
#
# Elastic Compliance Matrix: (Units=1/GPa)
#
#
# Indices 1 2 3 4 5 6 
#
# 1 0.018870 -0.004469 -0.014133 0.000000 0.000000 0.000000
# 2 -0.004469 0.016763 -0.013567 0.000000 0.000000 0.000000
# 3 -0.014133 -0.013567 0.053356 0.000000 0.000000 0.000000
# 4 0.000000 0.000000 0.000000 0.035149 0.000000 0.000000
# 5 0.000000 0.000000 0.000000 0.000000 0.053836 0.000000
# 6 0.000000 0.000000 0.000000 0.000000 0.000000 0.093931
#
#
# Mechanical properties :
#
#
# Convention : Reuss Voigt Hill
#
# Bulk Modulus (GPa) = 40.56300 59.66184 50.11242
# Shear Modulus (GPa) = 14.51551 18.56027 16.53789
#
# Velocity S-wave (km/s) = 2.76515 3.12676 2.95150
# Velocity P-wave (km/s) = 5.61794 6.66801 6.16537
#
# Compressibility (1/GPa) = 0.02465301
#
# Stress axis : x y z
#
# Youngs Moduli (GPa) = 52.99522 59.65359 18.74195
#
# Poissons Ratio (x) = 0.26658 0.26487
# Poissons Ratio (y) = 0.23683 0.25427
# Poissons Ratio (z) = 0.74896 0.80930
#
# Static dielectric constant tensor:
#      x y z
#    x 3.490870 0.000000 0.000000 
#    y 0.000000 3.407660 0.000000 
#    z 0.000000 0.000000 3.599520 
# 
# 
# High freq. dielectric constant tensor:
#      x y z
#    x 1.723480 0.000000 0.000000 
#    y 0.000000 1.726110 0.000000 
#    z 0.000000 0.000000 1.742440 
# 
# From -- ./inp_files/7781.got.cif
#   From: 2010.03.12/outbox.cif.g09.slc.cpg/sg47_4_cif.got.tgz:7781.got - 2010.04.14 03:12:58.
