data_PCOD8199597
_publ_section_title
;
Structure prediction by ZEFSAII (Michael W. Deem and Ramdas Pophale) SiO2 
 PCOD8199597
Probable space group: P M M M
;
_chemical_formula_sum "Si O2"
_cell_formula_units_Z 52
_cell_length_a 29.333816
_cell_length_b 10.583084
_cell_length_c 9.202746
_cell_angle_alpha 90.000000
_cell_angle_beta 90.000000
_cell_angle_gamma 90.000000
_cell_volume 2856.921071
_symmetry_space_group_name_H-M "P M M M"
_symmetry_group_IT_number 47
_symmetry_cell_setting 'orthorhombic'
loop_
_space_group_symop_operation_xyz
x,y,z
-x,-y,z
x,-y,-z
-x,y,-z
-x,-y,-z
x,y,-z
-x,y,z
x,-y,z
loop_
_atom_site_type_symbol
_atom_site_label
_atom_site_fract_x
_atom_site_fract_y
_atom_site_fract_z
Si Si1 0.550374 0.650275 0.836890
Si Si2 0.364731 0.648991 0.338325
Si Si3 0.726586 0.353408 0.827608
Si Si4 0.053639 0.000000 0.837840
Si Si5 0.109136 0.799692 0.669552
Si Si6 0.049962 0.353864 0.840475
Si Si7 0.212457 0.145256 0.670548
O O1 0.500000 0.691862 0.781631
O O2 0.553768 0.500000 0.838894
O O3 0.589181 0.707475 0.731560
O O4 0.558539 0.701483 0.000000
O O5 0.357797 0.706541 0.500000
O O6 0.370026 0.500000 0.349896
O O7 0.322461 0.683796 0.236290
O O8 0.739375 0.500000 0.787021
O O9 0.761192 0.251933 0.760831
O O10 0.725189 0.337102 0.000000
O O11 0.071703 0.879611 0.753729
O O12 0.000000 0.000000 0.835354
O O13 0.073275 0.000000 0.000000
O O14 0.103100 0.817502 0.500000
O O15 0.092338 0.663826 0.726554
O O16 0.160005 0.836923 0.714720
O O17 0.046406 0.500000 0.864005
O O18 0.000000 0.304228 0.785160
O O19 0.060203 0.291623 0.000000
O O20 0.220157 0.171363 0.500000
O O21 0.227066 0.000000 0.708730
#
# Coordination Sequence:
#
# PCOD8199597 Si02
#       7
#     8   8   8   4   8   8   8
#     4   8  13  21  34  55  88 131 174 216 265 318
#     4   9  16  26  42  65  95 133 175 219 268 320
#     4  10  21  36  55  80 107 137 179 227 271 320
#     4  11  23  37  55  79 105 133 165 199 240 295
#     4  11  22  37  56  79 105 132 165 207 254 303
#     4   9  19  36  55  76 106 141 173 206 246 296
#     4  10  22  41  59  77 107 141 174 216 269 324
#
# _framework density 18.201415000000001
#
# number of rings (size 3 to 8) (size 9 to 14) (size 15 to 20)
#    0.000    2.385    0.769    3.000    0.000    8.308 
#    0.000    5.385    0.000    0.000    0.000    0.000 
#    0.000    0.615    0.000    6.462    0.000    8.923 
#
# Total GULP energy -644233.923908 kJ/mol
# GULP energy per Si atom -12389.113921 kJ/mol
# Density = 1.815999 g / cm^3
# Si number density = 18.201415 Si / 1000 Ang^3
#
#
#
# Elastic Constant Matrix: (Units=GPa)
#
#
# Indices 1 2 3 4 5 6 
#
# 1 116.2005 46.8485 75.9889 0.0000 0.0000 0.0000
# 2 46.8485 63.5048 41.4706 0.0000 0.0000 0.0000
# 3 75.9889 41.4706 107.1763 0.0000 0.0000 0.0000
# 4 0.0000 0.0000 0.0000 25.7705 0.0000 0.0000
# 5 0.0000 0.0000 0.0000 0.0000 37.1803 0.0000
# 6 0.0000 0.0000 0.0000 0.0000 0.0000 12.0562
#
#
#
# Elastic Compliance Matrix: (Units=1/GPa)
#
#
# Indices 1 2 3 4 5 6 
#
# 1 0.017886 -0.006575 -0.010137 0.000000 0.000000 0.000000
# 2 -0.006575 0.023488 -0.004427 0.000000 0.000000 0.000000
# 3 -0.010137 -0.004427 0.018231 0.000000 0.000000 0.000000
# 4 0.000000 0.000000 0.000000 0.038804 0.000000 0.000000
# 5 0.000000 0.000000 0.000000 0.000000 0.026896 0.000000
# 6 0.000000 0.000000 0.000000 0.000000 0.000000 0.082945
#
#
# Mechanical properties :
#
#
# Convention : Reuss Voigt Hill
#
# Bulk Modulus (GPa) = 57.71354 68.38861 63.05107
# Shear Modulus (GPa) = 19.50820 23.17296 21.34058
#
# Velocity S-wave (km/s) = 3.27738 3.57198 3.42785
# Velocity P-wave (km/s) = 6.78961 7.39370 7.09808
#
# Compressibility (1/GPa) = 0.01732696
#
# Stress axis : x y z
#
# Youngs Moduli (GPa) = 55.91073 42.57492 54.85270
#
# Poissons Ratio (x) = 0.27992 0.55605
# Poissons Ratio (y) = 0.36760 0.24283
# Poissons Ratio (z) = 0.56677 0.18847
#
# Static dielectric constant tensor:
#      x y z
#    x 3.529820 0.000000 0.000000 
#    y 0.000000 1.601640 0.000000 
#    z 0.000000 0.000000 3.530340 
# 
# 
# High freq. dielectric constant tensor:
#      x y z
#    x 1.708180 0.000000 0.000000 
#    y 0.000000 1.668670 0.000000 
#    z 0.000000 0.000000 1.711700 
# 
# From -- ./inp_files/13261.got.cif
#   From: 2010.03.12/outbox.cif.g09.slc.cpg/sg47_7_cif.got.tgz:13261.got - 2010.04.14 03:12:58.
