data_PCOD8199176
_publ_section_title
;
Structure prediction by ZEFSAII (Michael W. Deem and Ramdas Pophale) SiO2 
 PCOD8199176
Probable space group: P M M M
;
_chemical_formula_sum "Si O2"
_cell_formula_units_Z 64
_cell_length_a 14.237693
_cell_length_b 29.195705
_cell_length_c 9.078594
_cell_angle_alpha 90.000000
_cell_angle_beta 90.000000
_cell_angle_gamma 90.000000
_cell_volume 3773.785276
_symmetry_space_group_name_H-M "P M M M"
_symmetry_group_IT_number 47
_symmetry_cell_setting 'orthorhombic'
loop_
_space_group_symop_operation_xyz
x,y,z
-x,-y,z
x,-y,-z
-x,y,-z
-x,-y,-z
x,y,-z
-x,y,z
x,-y,z
loop_
_atom_site_type_symbol
_atom_site_label
_atom_site_fract_x
_atom_site_fract_y
_atom_site_fract_z
Si Si1 0.888972 0.648012 0.327183
Si Si2 0.894902 0.548326 0.325473
Si Si3 0.107095 0.904124 0.326928
Si Si4 0.608618 0.135010 0.169971
Si Si5 0.266298 0.050871 0.170870
Si Si6 0.228674 0.274326 0.173841
Si Si7 0.391066 0.772004 0.673145
Si Si8 0.892352 0.812788 0.170230
O O1 0.871692 0.656686 0.500000
O O2 0.851420 0.597167 0.276729
O O3 0.825331 0.681628 0.232848
O O4 0.000000 0.653915 0.291208
O O5 0.899061 0.549389 0.500000
O O6 0.843828 0.500000 0.274381
O O7 0.000000 0.546639 0.262318
O O8 0.118598 0.902903 0.500000
O O9 0.169375 0.944659 0.260197
O O10 0.144014 0.856004 0.262451
O O11 0.000000 0.912936 0.278758
O O12 0.500000 0.124769 0.195091
O O13 0.660567 0.089229 0.225898
O O14 0.641428 0.178830 0.263355
O O15 0.631574 0.145943 0.000000
O O16 0.307661 0.000000 0.200713
O O17 0.243605 0.057712 0.000000
O O18 0.330208 0.268192 0.250732
O O19 0.166705 0.230822 0.218821
O O20 0.242574 0.279201 0.000000
O O21 0.372804 0.771737 0.500000
O O22 0.500000 0.762695 0.711319
O O23 0.000000 0.801446 0.207279
O O24 0.877693 0.824878 0.000000
#
# Coordination Sequence:
#
# PCOD8199176 Si02
#       8
#     8   8   8   8   8   8   8   8
#     4   9  17  28  43  66  97 132 168 204 240 277
#     4   7  10  19  37  60  86 120 164 208 242 271
#     4  10  21  35  50  68  89 115 149 188 226 261
#     4   9  18  34  55  76  97 119 143 175 218 269
#     4  10  21  35  51  72  95 119 147 177 213 260
#     4  11  21  31  46  68  96 128 158 191 233 280
#     4  10  21  36  53  72  93 118 151 191 232 276
#     4   9  18  32  48  66  90 121 154 184 217 262
#
# _framework density 16.959099999999999
#
# number of rings (size 3 to 8) (size 9 to 14) (size 15 to 20)
#    0.000    2.625    0.000    3.375    0.000    7.500 
#    0.000    3.750    0.000    0.375    0.000    4.375 
#    0.000    0.500    0.000    5.750    0.000    1.875 
#
# Total GULP energy -793224.224456 kJ/mol
# GULP energy per Si atom -12394.128507 kJ/mol
# Density = 1.692050 g / cm^3
# Si number density = 16.959100 Si / 1000 Ang^3
#
#
#
# Elastic Constant Matrix: (Units=GPa)
#
#
# Indices 1 2 3 4 5 6 
#
# 1 65.2226 55.5274 33.2469 0.0000 0.0000 0.0000
# 2 55.5274 120.2961 43.7013 0.0000 0.0000 0.0000
# 3 33.2469 43.7013 54.4733 0.0000 0.0000 0.0000
# 4 0.0000 0.0000 0.0000 17.0148 0.0000 0.0000
# 5 0.0000 0.0000 0.0000 0.0000 22.0819 0.0000
# 6 0.0000 0.0000 0.0000 0.0000 0.0000 17.2105
#
#
#
# Elastic Compliance Matrix: (Units=1/GPa)
#
#
# Indices 1 2 3 4 5 6 
#
# 1 0.028439 -0.009627 -0.009634 0.000000 0.000000 0.000000
# 2 -0.009627 0.014991 -0.006151 0.000000 0.000000 0.000000
# 3 -0.009634 -0.006151 0.029172 0.000000 0.000000 0.000000
# 4 0.000000 0.000000 0.000000 0.058772 0.000000 0.000000
# 5 0.000000 0.000000 0.000000 0.000000 0.045286 0.000000
# 6 0.000000 0.000000 0.000000 0.000000 0.000000 0.058104
#
#
# Mechanical properties :
#
#
# Convention : Reuss Voigt Hill
#
# Bulk Modulus (GPa) = 45.91717 56.10480 51.01098
# Shear Modulus (GPa) = 17.07370 18.42920 17.75145
#
# Velocity S-wave (km/s) = 3.17639 3.30007 3.23882
# Velocity P-wave (km/s) = 6.37076 6.90470 6.64309
#
# Compressibility (1/GPa) = 0.02177835
#
# Stress axis : x y z
#
# Youngs Moduli (GPa) = 35.16271 66.70574 34.27962
#
# Poissons Ratio (x) = 0.64221 0.33024
# Poissons Ratio (y) = 0.33853 0.21085
# Poissons Ratio (z) = 0.33875 0.41029
#
# Static dielectric constant tensor:
#      x y z
#    x 3.113460 0.000000 0.000000 
#    y 0.000000 3.452270 0.000000 
#    z 0.000000 0.000000 3.024070 
# 
# 
# High freq. dielectric constant tensor:
#      x y z
#    x 1.633190 0.000000 0.000000 
#    y 0.000000 1.651310 0.000000 
#    z 0.000000 0.000000 1.642680 
# 
# From -- ./inp_files/8299.got.cif
#   From: 2010.03.12/outbox.cif.g09.slc.cpg/sg47_5_cif.got.tgz:8299.got - 2010.04.14 03:12:58.
