data_PCOD8199466
_publ_section_title
;
Structure prediction by ZEFSAII (Michael W. Deem and Ramdas Pophale) SiO2 
 PCOD8199466
Probable space group: P M M M
;
_chemical_formula_sum "Si O2"
_cell_formula_units_Z 52
_cell_length_a 19.962417
_cell_length_b 9.092331
_cell_length_c 15.905182
_cell_angle_alpha 90.000000
_cell_angle_beta 90.000000
_cell_angle_gamma 90.000000
_cell_volume 2886.868515
_symmetry_space_group_name_H-M "P M M M"
_symmetry_group_IT_number 47
_symmetry_cell_setting 'orthorhombic'
loop_
_space_group_symop_operation_xyz
x,y,z
-x,-y,z
x,-y,-z
-x,y,-z
-x,-y,-z
x,y,-z
-x,y,z
x,-y,z
loop_
_atom_site_type_symbol
_atom_site_label
_atom_site_fract_x
_atom_site_fract_y
_atom_site_fract_z
Si Si1 0.839785 0.173680 0.129173
Si Si2 0.925527 0.164800 0.599051
Si Si3 0.330391 0.667862 0.724787
Si Si4 0.294448 0.330156 0.092252
Si Si5 0.176210 0.669552 0.296766
Si Si6 0.576086 0.173680 0.406180
Si Si7 0.078093 0.663266 0.000000
O O1 0.771222 0.231436 0.088633
O O2 0.848466 0.222833 0.224272
O O3 0.901612 0.245201 0.081521
O O4 0.841935 0.000000 0.120586
O O5 0.927078 0.165633 0.500000
O O6 0.867935 0.280867 0.624169
O O7 0.000000 0.210251 0.632622
O O8 0.908034 0.000000 0.631335
O O9 0.352521 0.500000 0.714184
O O10 0.337364 0.714533 0.824401
O O11 0.255458 0.693152 0.689807
O O12 0.378910 0.763387 0.667975
O O13 0.272922 0.500000 0.105148
O O14 0.331115 0.310514 0.000000
O O15 0.161738 0.500000 0.274746
O O16 0.599197 0.225883 0.500000
O O17 0.500000 0.225641 0.390848
O O18 0.581224 0.000000 0.401206
O O19 0.111355 0.500000 0.000000
O O20 0.000000 0.645499 0.000000
#
# Coordination Sequence:
#
# PCOD8199466 Si02
#       7
#     8   8   8   8   8   8   4
#     4  11  21  33  51  74  98 126 166 213 258 308
#     4   9  19  36  55  74  98 130 170 217 268 319
#     4   9  19  33  51  81 110 136 176 220 262 311
#     4   9  17  32  54  75 104 141 171 207 259 315
#     4  10  21  36  53  75 105 138 172 213 263 317
#     4   9  19  36  56  78 107 145 183 217 263 322
#     4  11  23  37  51  67  93 131 170 209 260 319
#
# _framework density 18.012595999999998
#
# number of rings (size 3 to 8) (size 9 to 14) (size 15 to 20)
#    0.000    2.385    0.769    3.923    0.000    6.154 
#    0.000    4.615    0.000    0.462    0.000    3.231 
#    0.000    0.000    0.000    0.000    0.000    0.000 
#
# Total GULP energy -644399.372268 kJ/mol
# GULP energy per Si atom -12392.295621 kJ/mol
# Density = 1.797160 g / cm^3
# Si number density = 18.012596 Si / 1000 Ang^3
#
#
#
# Elastic Constant Matrix: (Units=GPa)
#
#
# Indices 1 2 3 4 5 6 
#
# 1 74.6188 42.2207 58.0029 0.0000 0.0000 0.0000
# 2 42.2207 99.2800 44.7216 0.0000 0.0000 0.0000
# 3 58.0029 44.7216 113.7793 0.0000 0.0000 0.0000
# 4 0.0000 0.0000 0.0000 33.1035 0.0000 0.0000
# 5 0.0000 0.0000 0.0000 0.0000 28.9322 0.0000
# 6 0.0000 0.0000 0.0000 0.0000 0.0000 28.7728
#
#
#
# Elastic Compliance Matrix: (Units=1/GPa)
#
#
# Indices 1 2 3 4 5 6 
#
# 1 0.024732 -0.005879 -0.010297 0.000000 0.000000 0.000000
# 2 -0.005879 0.013637 -0.002363 0.000000 0.000000 0.000000
# 3 -0.010297 -0.002363 0.014967 0.000000 0.000000 0.000000
# 4 0.000000 0.000000 0.000000 0.030208 0.000000 0.000000
# 5 0.000000 0.000000 0.000000 0.000000 0.034564 0.000000
# 6 0.000000 0.000000 0.000000 0.000000 0.000000 0.034755
#
#
# Mechanical properties :
#
#
# Convention : Reuss Voigt Hill
#
# Bulk Modulus (GPa) = 61.51009 64.17428 62.84219
# Shear Modulus (GPa) = 25.59350 27.67724 26.63537
#
# Velocity S-wave (km/s) = 3.77353 3.92414 3.84957
# Velocity P-wave (km/s) = 7.29442 7.49911 7.39747
#
# Compressibility (1/GPa) = 0.01625750
#
# Stress axis : x y z
#
# Youngs Moduli (GPa) = 40.43273 73.32843 66.81317
#
# Poissons Ratio (x) = 0.43113 0.68799
# Poissons Ratio (y) = 0.23772 0.15788
# Poissons Ratio (z) = 0.41635 0.17327
#
# Static dielectric constant tensor:
#      x y z
#    x 3.118430 0.000000 0.000000 
#    y 0.000000 3.329820 0.000000 
#    z 0.000000 0.000000 3.563370 
# 
# 
# High freq. dielectric constant tensor:
#      x y z
#    x 1.666820 0.000000 0.000000 
#    y 0.000000 1.699600 0.000000 
#    z 0.000000 0.000000 1.707820 
# 
# From -- ./inp_files/28484.got.cif
#   From: 2010.03.12/outbox.cif.g09.slc.cpg/sg47_15_cif.got.tgz:28484.got - 2010.04.14 03:12:58.
