data_PCOD8199957
_publ_section_title
;
Structure prediction by ZEFSAII (Michael W. Deem and Ramdas Pophale) SiO2 
 PCOD8199957
Probable space group: P M M M
;
_chemical_formula_sum "Si O2"
_cell_formula_units_Z 48
_cell_length_a 17.317277
_cell_length_b 15.728800
_cell_length_c 8.920160
_cell_angle_alpha 90.000000
_cell_angle_beta 90.000000
_cell_angle_gamma 90.000000
_cell_volume 2429.673060
_symmetry_space_group_name_H-M "P M M M"
_symmetry_group_IT_number 47
_symmetry_cell_setting 'orthorhombic'
loop_
_space_group_symop_operation_xyz
x,y,z
-x,-y,z
x,-y,-z
-x,y,-z
-x,-y,-z
x,y,-z
-x,y,z
x,-y,z
loop_
_atom_site_type_symbol
_atom_site_label
_atom_site_fract_x
_atom_site_fract_y
_atom_site_fract_z
Si Si1 0.153507 0.402527 0.663948
Si Si2 0.000000 0.353302 0.824676
Si Si3 0.413230 0.250441 0.178414
Si Si4 0.000000 0.177276 0.673855
Si Si5 0.688634 0.904819 0.178185
Si Si6 0.139364 0.099534 0.165595
Si Si7 0.305833 0.597571 0.823428
O O1 0.144446 0.358078 0.500000
O O2 0.171976 0.500000 0.639229
O O3 0.075906 0.395452 0.757690
O O4 0.227049 0.365111 0.751723
O O5 0.000000 0.255482 0.785274
O O6 0.000000 0.369397 0.000000
O O7 0.500000 0.250151 0.242823
O O8 0.369752 0.166517 0.242653
O O9 0.373344 0.338692 0.230655
O O10 0.413543 0.246256 0.000000
O O11 0.077449 0.125942 0.710182
O O12 0.000000 0.203331 0.500000
O O13 0.775226 0.875837 0.224197
O O14 0.668933 0.000000 0.241278
O O15 0.683795 0.908476 0.000000
O O16 0.134737 0.000000 0.145880
O O17 0.122948 0.140445 0.000000
O O18 0.325630 0.500000 0.775359
O O19 0.293910 0.602304 0.000000
#
# Coordination Sequence:
#
# PCOD8199957 Si02
#       7
#     8   4   8   4   8   8   8
#     4  10  21  38  58  80 109 142 177 224 276 319
#     4  12  25  38  55  79 109 145 183 222 265 320
#     4   9  17  28  46  75 107 139 179 229 281 328
#     4  12  25  36  49  77 111 141 181 228 275 322
#     4   8  15  28  47  72 102 137 179 226 275 327
#     4   9  18  34  54  74 100 140 187 229 274 328
#     4   9  18  32  51  77 108 145 187 225 267 324
#
# _framework density 19.755744
#
# number of rings (size 3 to 8) (size 9 to 14) (size 15 to 20)
#    0.000    2.500    0.000    3.500    2.333    4.000 
#    0.000    3.333    0.000    0.500    0.000    2.333 
#    0.000    0.000    0.000    5.167    0.000    5.333 
#
# Total GULP energy -594896.855286 kJ/mol
# GULP energy per Si atom -12393.684485 kJ/mol
# Density = 1.971078 g / cm^3
# Si number density = 19.755744 Si / 1000 Ang^3
#
#
#
# Elastic Constant Matrix: (Units=GPa)
#
#
# Indices 1 2 3 4 5 6 
#
# 1 175.9095 73.5139 39.3840 0.0000 0.0000 0.0000
# 2 73.5139 92.4123 22.9677 0.0000 0.0000 0.0000
# 3 39.3840 22.9677 62.5637 0.0000 0.0000 0.0000
# 4 0.0000 0.0000 0.0000 11.8765 0.0000 0.0000
# 5 0.0000 0.0000 0.0000 0.0000 4.1114 0.0000
# 6 0.0000 0.0000 0.0000 0.0000 0.0000 36.6838
#
#
#
# Elastic Compliance Matrix: (Units=1/GPa)
#
#
# Indices 1 2 3 4 5 6 
#
# 1 0.009125 -0.006417 -0.003389 0.000000 0.000000 0.000000
# 2 -0.006417 0.016420 -0.001988 0.000000 0.000000 0.000000
# 3 -0.003389 -0.001988 0.018847 0.000000 0.000000 0.000000
# 4 0.000000 0.000000 0.000000 0.084200 0.000000 0.000000
# 5 0.000000 0.000000 0.000000 0.000000 0.243224 0.000000
# 6 0.000000 0.000000 0.000000 0.000000 0.000000 0.027260
#
#
# Mechanical properties :
#
#
# Convention : Reuss Voigt Hill
#
# Bulk Modulus (GPa) = 48.06769 66.95741 57.51255
# Shear Modulus (GPa) = 11.63881 23.53568 17.58724
#
# Velocity S-wave (km/s) = 2.42984 3.45531 2.98692
# Velocity P-wave (km/s) = 5.67944 7.06294 6.40863
#
# Compressibility (1/GPa) = 0.02080400
#
# Stress axis : x y z
#
# Youngs Moduli (GPa) = 109.58893 60.90208 53.05932
#
# Poissons Ratio (x) = 0.39079 0.17980
# Poissons Ratio (y) = 0.70321 0.10551
# Poissons Ratio (z) = 0.37135 0.12110
#
# Static dielectric constant tensor:
#      x y z
#    x 3.491330 0.000000 0.000000 
#    y 0.000000 3.743760 0.000000 
#    z 0.000000 0.000000 3.285280 
# 
# 
# High freq. dielectric constant tensor:
#      x y z
#    x 1.773810 0.000000 0.000000 
#    y 0.000000 1.771080 0.000000 
#    z 0.000000 0.000000 1.727610 
# 
# From -- ./inp_files/6413.got.cif
#   From: 2010.03.12/outbox.cif.g09.slc.cpg/sg47_4_cif.got.tgz:6413.got - 2010.04.14 03:12:58.
