data_PCOD8199949
_publ_section_title
;
Structure prediction by ZEFSAII (Michael W. Deem and Ramdas Pophale) SiO2 
 PCOD8199949
Probable space group: P M M M
;
_chemical_formula_sum "Si O2"
_cell_formula_units_Z 56
_cell_length_a 16.825815
_cell_length_b 20.139637
_cell_length_c 9.252178
_cell_angle_alpha 90.000000
_cell_angle_beta 90.000000
_cell_angle_gamma 90.000000
_cell_volume 3135.246758
_symmetry_space_group_name_H-M "P M M M"
_symmetry_group_IT_number 47
_symmetry_cell_setting 'orthorhombic'
loop_
_space_group_symop_operation_xyz
x,y,z
-x,-y,z
x,-y,-z
-x,y,-z
-x,-y,-z
x,y,-z
-x,y,z
x,-y,z
loop_
_atom_site_type_symbol
_atom_site_label
_atom_site_fract_x
_atom_site_fract_y
_atom_site_fract_z
Si Si1 0.675366 0.424437 0.833742
Si Si2 0.324373 0.189232 0.168532
Si Si3 0.592191 0.076580 0.664763
Si Si4 0.593171 0.309533 0.668098
Si Si5 0.000000 0.775130 0.337092
Si Si6 0.847729 0.618886 0.166994
Si Si7 0.149894 0.227665 0.835308
Si Si8 0.000000 0.616928 0.336184
O O1 0.647066 0.500000 0.813381
O O2 0.620103 0.379516 0.733912
O O3 0.767654 0.419140 0.788046
O O4 0.666132 0.401065 0.000000
O O5 0.356999 0.119463 0.224414
O O6 0.362999 0.249555 0.254074
O O7 0.230056 0.187269 0.195495
O O8 0.344299 0.198289 0.000000
O O9 0.614202 0.095319 0.500000
O O10 0.500000 0.091523 0.692183
O O11 0.611646 0.000000 0.695290
O O12 0.615736 0.308298 0.500000
O O13 0.500000 0.300784 0.692617
O O14 0.079386 0.802925 0.261289
O O15 0.000000 0.696066 0.324807
O O16 0.000000 0.800896 0.500000
O O17 0.833110 0.695890 0.203020
O O18 0.920973 0.589279 0.258638
O O19 0.868823 0.607582 0.000000
O O20 0.122070 0.220876 0.000000
O O21 0.000000 0.591566 0.500000
#
# Coordination Sequence:
#
# PCOD8199949 Si02
#       8
#     8   8   8   8   4   8   8   4
#     4  10  21  38  58  77  98 129 173 222 269 317
#     4  11  21  34  55  84 111 139 178 222 263 306
#     4   9  19  36  55  77 111 152 186 216 258 313
#     4  11  24  39  55  76 104 137 172 214 267 323
#     4   9  17  27  43  72 103 132 170 210 250 302
#     4   9  16  31  50  70  97 131 166 205 258 315
#     4   9  17  30  48  71 103 137 168 208 260 311
#     4   9  17  27  44  72  99 127 165 206 249 302
#
# _framework density 17.861433999999999
#
# number of rings (size 3 to 8) (size 9 to 14) (size 15 to 20)
#    0.000    2.286    1.429    2.143    0.000    7.429 
#    0.000    2.500    0.000    2.143    0.000    0.500 
#    0.000    4.000    0.000    0.000    0.000    0.000 
#
# Total GULP energy -694512.655265 kJ/mol
# GULP energy per Si atom -12402.011701 kJ/mol
# Density = 1.782078 g / cm^3
# Si number density = 17.861434 Si / 1000 Ang^3
#
#
#
# Elastic Constant Matrix: (Units=GPa)
#
#
# Indices 1 2 3 4 5 6 
#
# 1 92.9940 38.5426 69.5364 0.0000 0.0000 0.0000
# 2 38.5426 65.8402 43.4948 0.0000 0.0000 0.0000
# 3 69.5364 43.4948 116.7996 0.0000 0.0000 0.0000
# 4 0.0000 0.0000 0.0000 25.2318 0.0000 0.0000
# 5 0.0000 0.0000 0.0000 0.0000 22.0773 0.0000
# 6 0.0000 0.0000 0.0000 0.0000 0.0000 19.5290
#
#
#
# Elastic Compliance Matrix: (Units=1/GPa)
#
#
# Indices 1 2 3 4 5 6 
#
# 1 0.020673 -0.005267 -0.010346 0.000000 0.000000 0.000000
# 2 -0.005267 0.021486 -0.004865 0.000000 0.000000 0.000000
# 3 -0.010346 -0.004865 0.016533 0.000000 0.000000 0.000000
# 4 0.000000 0.000000 0.000000 0.039633 0.000000 0.000000
# 5 0.000000 0.000000 0.000000 0.000000 0.045295 0.000000
# 6 0.000000 0.000000 0.000000 0.000000 0.000000 0.051206
#
#
# Mechanical properties :
#
#
# Convention : Reuss Voigt Hill
#
# Bulk Modulus (GPa) = 56.38711 64.30905 60.34808
# Shear Modulus (GPa) = 20.68737 21.63827 21.16282
#
# Velocity S-wave (km/s) = 3.40695 3.48437 3.44587
# Velocity P-wave (km/s) = 6.86397 7.22982 7.04927
#
# Compressibility (1/GPa) = 0.01773455
#
# Stress axis : x y z
#
# Youngs Moduli (GPa) = 48.37310 46.54277 60.48518
#
# Poissons Ratio (x) = 0.24514 0.62578
# Poissons Ratio (y) = 0.25478 0.29428
# Poissons Ratio (z) = 0.50047 0.22645
#
# Static dielectric constant tensor:
#      x y z
#    x 3.397450 0.000000 0.000000 
#    y 0.000000 3.023590 0.000000 
#    z 0.000000 0.000000 3.377770 
# 
# 
# High freq. dielectric constant tensor:
#      x y z
#    x 1.696900 0.000000 0.000000 
#    y 0.000000 1.658280 0.000000 
#    z 0.000000 0.000000 1.695410 
# 
# From -- ./inp_files/7459.got.cif
#   From: 2010.03.12/outbox.cif.g09.slc.cpg/sg47_4_cif.got.tgz:7459.got - 2010.04.14 03:12:58.
