data_PCOD8199185
_publ_section_title
;
Structure prediction by ZEFSAII (Michael W. Deem and Ramdas Pophale) SiO2 
 PCOD8199185
Probable space group: P M M M
;
_chemical_formula_sum "Si O2"
_cell_formula_units_Z 56
_cell_length_a 9.116946
_cell_length_b 23.256192
_cell_length_c 14.300614
_cell_angle_alpha 90.000000
_cell_angle_beta 90.000000
_cell_angle_gamma 90.000000
_cell_volume 3032.094070
_symmetry_space_group_name_H-M "P M M M"
_symmetry_group_IT_number 47
_symmetry_cell_setting 'orthorhombic'
loop_
_space_group_symop_operation_xyz
x,y,z
-x,-y,z
x,-y,-z
-x,y,-z
-x,-y,-z
x,y,-z
-x,y,z
x,-y,z
loop_
_atom_site_type_symbol
_atom_site_label
_atom_site_fract_x
_atom_site_fract_y
_atom_site_fract_z
Si Si1 0.830093 0.935905 0.763650
Si Si2 0.668411 0.567316 0.393885
Si Si3 0.830559 0.831765 0.107947
Si Si4 0.327898 0.877883 0.606986
Si Si5 0.172810 0.655682 0.731920
Si Si6 0.830566 0.763491 0.392824
Si Si7 0.672202 0.284497 0.891421
O O1 0.776756 0.888884 0.838772
O O2 0.739194 0.929047 0.668157
O O3 0.000000 0.927162 0.739917
O O4 0.800757 0.000000 0.803529
O O5 0.716937 0.582963 0.500000
O O6 0.500000 0.585698 0.378505
O O7 0.688029 0.500000 0.376641
O O8 0.770136 0.598472 0.318300
O O9 0.737208 0.776914 0.140872
O O10 0.000000 0.817483 0.129138
O O11 0.803471 0.845141 0.000000
O O12 0.282895 0.889220 0.500000
O O13 0.500000 0.875741 0.620557
O O14 0.261731 0.817690 0.643096
O O15 0.216999 0.708737 0.666364
O O16 0.251583 0.664797 0.831861
O O17 0.000000 0.650182 0.747856
O O18 0.793935 0.749075 0.500000
O O19 0.000000 0.778955 0.378233
O O20 0.500000 0.284346 0.872044
O O21 0.708380 0.296154 0.000000
#
# Coordination Sequence:
#
# PCOD8199185 Si02
#       7
#     8   8   8   8   8   8   8
#     4  10  21  35  51  72  96 125 163 203 246 301
#     4   9  19  36  56  79 111 151 189 220 252 296
#     4   9  18  34  55  77 102 130 160 201 255 310
#     4  10  21  35  50  69  94 126 164 206 252 299
#     4  11  21  32  52  81 110 140 175 217 263 307
#     4   9  18  32  49  72 103 134 163 199 248 306
#     4  10  21  36  54  77 105 137 173 213 259 313
#
# _framework density 18.469085
#
# number of rings (size 3 to 8) (size 9 to 14) (size 15 to 20)
#    0.000    2.286    0.000    3.000    0.000    8.857 
#    0.000    5.000    0.000    0.429    0.000    6.000 
#    0.000    0.000    0.000    0.000    0.000    0.000 
#
# Total GULP energy -694564.068121 kJ/mol
# GULP energy per Si atom -12402.929788 kJ/mol
# Density = 1.842705 g / cm^3
# Si number density = 18.469085 Si / 1000 Ang^3
#
#
#
# Elastic Constant Matrix: (Units=GPa)
#
#
# Indices 1 2 3 4 5 6 
#
# 1 75.3550 44.9917 47.0472 0.0000 0.0000 0.0000
# 2 44.9917 85.5975 54.8533 0.0000 0.0000 0.0000
# 3 47.0472 54.8533 86.6660 0.0000 0.0000 0.0000
# 4 0.0000 0.0000 0.0000 30.8341 0.0000 0.0000
# 5 0.0000 0.0000 0.0000 0.0000 28.1256 0.0000
# 6 0.0000 0.0000 0.0000 0.0000 0.0000 16.4945
#
#
#
# Elastic Compliance Matrix: (Units=1/GPa)
#
#
# Indices 1 2 3 4 5 6 
#
# 1 0.022092 -0.006606 -0.007812 0.000000 0.000000 0.000000
# 2 -0.006606 0.021630 -0.010104 0.000000 0.000000 0.000000
# 3 -0.007812 -0.010104 0.022174 0.000000 0.000000 0.000000
# 4 0.000000 0.000000 0.000000 0.032432 0.000000 0.000000
# 5 0.000000 0.000000 0.000000 0.000000 0.035555 0.000000
# 6 0.000000 0.000000 0.000000 0.000000 0.000000 0.060626
#
#
# Mechanical properties :
#
#
# Convention : Reuss Voigt Hill
#
# Bulk Modulus (GPa) = 59.33771 60.15587 59.74679
# Shear Modulus (GPa) = 20.06670 21.80592 20.93631
#
# Velocity S-wave (km/s) = 3.29979 3.43982 3.37053
# Velocity P-wave (km/s) = 6.83491 6.95832 6.89689
#
# Compressibility (1/GPa) = 0.01685269
#
# Stress axis : x y z
#
# Youngs Moduli (GPa) = 45.26571 46.23273 45.09756
#
# Poissons Ratio (x) = 0.30541 0.35228
# Poissons Ratio (y) = 0.29903 0.45566
# Poissons Ratio (z) = 0.35359 0.46713
#
# Static dielectric constant tensor:
#      x y z
#    x 3.348800 0.000000 0.000000 
#    y 0.000000 3.290440 0.000000 
#    z 0.000000 0.000000 3.492110 
# 
# 
# High freq. dielectric constant tensor:
#      x y z
#    x 1.715360 0.000000 0.000000 
#    y 0.000000 1.701940 0.000000 
#    z 0.000000 0.000000 1.719020 
# 
# From -- ./inp_files/7231.got.cif
#   From: 2010.03.12/outbox.cif.g09.slc.cpg/sg47_4_cif.got.tgz:7231.got - 2010.04.14 03:12:58.
