data_PCOD8199947
_publ_section_title
;
Structure prediction by ZEFSAII (Michael W. Deem and Ramdas Pophale) SiO2 
 PCOD8199947
Probable space group: P M M M
;
_chemical_formula_sum "Si O2"
_cell_formula_units_Z 64
_cell_length_a 20.007603
_cell_length_b 20.349443
_cell_length_c 9.065975
_cell_angle_alpha 90.000000
_cell_angle_beta 90.000000
_cell_angle_gamma 90.000000
_cell_volume 3691.153489
_symmetry_space_group_name_H-M "P M M M"
_symmetry_group_IT_number 47
_symmetry_cell_setting 'orthorhombic'
loop_
_space_group_symop_operation_xyz
x,y,z
-x,-y,z
x,-y,-z
-x,y,-z
-x,-y,-z
x,y,-z
-x,y,z
x,-y,z
loop_
_atom_site_type_symbol
_atom_site_label
_atom_site_fract_x
_atom_site_fract_y
_atom_site_fract_z
Si Si1 0.299121 0.385340 0.171853
Si Si2 0.147557 0.190307 0.824673
Si Si3 0.429010 0.758088 0.829033
Si Si4 0.712998 0.763903 0.172147
Si Si5 0.427179 0.379775 0.327950
Si Si6 0.076984 0.075277 0.669570
Si Si7 0.078131 0.311469 0.671342
Si Si8 0.154352 0.573915 0.169961
O O1 0.287536 0.310965 0.229655
O O2 0.364585 0.416788 0.251180
O O3 0.232831 0.425839 0.211970
O O4 0.314653 0.387527 0.000000
O O5 0.223629 0.197443 0.761112
O O6 0.122388 0.119574 0.773560
O O7 0.102427 0.247965 0.759234
O O8 0.143175 0.194314 0.000000
O O9 0.500000 0.797293 0.803366
O O10 0.359951 0.797511 0.789809
O O11 0.430653 0.694034 0.730417
O O12 0.423766 0.736211 0.000000
O O13 0.726197 0.762985 0.000000
O O14 0.412640 0.378361 0.500000
O O15 0.500000 0.413524 0.296078
O O16 0.088493 0.095164 0.500000
O O17 0.000000 0.086240 0.712348
O O18 0.097707 0.000000 0.696342
O O19 0.094725 0.301509 0.500000
O O20 0.113477 0.377419 0.727063
O O21 0.000000 0.319968 0.699663
O O22 0.127378 0.500000 0.194131
O O23 0.145540 0.596312 0.000000
#
# Coordination Sequence:
#
# PCOD8199947 Si02
#       8
#     8   8   8   8   8   8   8   8
#     4   9  16  30  48  66  91 121 155 194 242 299
#     4  11  20  32  52  78 107 134 165 207 248 288
#     4   8  13  23  39  58  85 124 162 192 231 284
#     4   8  14  25  42  66  95 123 153 195 242 284
#     4   9  16  24  37  62  92 119 152 194 236 280
#     4   9  19  36  54  72 100 137 172 206 246 294
#     4  11  24  39  54  74 101 131 163 200 245 301
#     4  10  21  38  58  76  94 120 159 209 260 306
#
# _framework density 17.338754999999999
#
# number of rings (size 3 to 8) (size 9 to 14) (size 15 to 20)
#    0.000    2.625    1.250    2.625    0.000    4.750 
#    0.000    2.500    0.000    0.375    0.000    2.625 
#    0.000    0.500    0.000    6.250    0.000    1.125 
#
# Total GULP energy -792863.559042 kJ/mol
# GULP energy per Si atom -12388.493110 kJ/mol
# Density = 1.729929 g / cm^3
# Si number density = 17.338755 Si / 1000 Ang^3
#
#
#
# Elastic Constant Matrix: (Units=GPa)
#
#
# Indices 1 2 3 4 5 6 
#
# 1 127.8552 42.3076 51.9667 0.0000 0.0000 0.0000
# 2 42.3076 61.7760 28.9454 0.0000 0.0000 0.0000
# 3 51.9667 28.9454 66.3331 0.0000 0.0000 0.0000
# 4 0.0000 0.0000 0.0000 19.8761 0.0000 0.0000
# 5 0.0000 0.0000 0.0000 0.0000 24.0945 0.0000
# 6 0.0000 0.0000 0.0000 0.0000 0.0000 9.7751
#
#
#
# Elastic Compliance Matrix: (Units=1/GPa)
#
#
# Indices 1 2 3 4 5 6 
#
# 1 0.012610 -0.005037 -0.007681 0.000000 0.000000 0.000000
# 2 -0.005037 0.022360 -0.005811 0.000000 0.000000 0.000000
# 3 -0.007681 -0.005811 0.023628 0.000000 0.000000 0.000000
# 4 0.000000 0.000000 0.000000 0.050312 0.000000 0.000000
# 5 0.000000 0.000000 0.000000 0.000000 0.041503 0.000000
# 6 0.000000 0.000000 0.000000 0.000000 0.000000 0.102301
#
#
# Mechanical properties :
#
#
# Convention : Reuss Voigt Hill
#
# Bulk Modulus (GPa) = 46.42407 55.82264 51.12335
# Shear Modulus (GPa) = 16.83773 19.59878 18.21825
#
# Velocity S-wave (km/s) = 3.11963 3.36571 3.24500
# Velocity P-wave (km/s) = 6.30944 6.88253 6.60220
#
# Compressibility (1/GPa) = 0.02154055
#
# Stress axis : x y z
#
# Youngs Moduli (GPa) = 79.30172 44.72287 42.32178
#
# Poissons Ratio (x) = 0.22527 0.32507
# Poissons Ratio (y) = 0.39945 0.24593
# Poissons Ratio (z) = 0.60911 0.25988
#
# Static dielectric constant tensor:
#      x y z
#    x 3.890170 0.000000 0.000000 
#    y 0.000000 2.829300 0.000000 
#    z 0.000000 0.000000 3.153440 
# 
# 
# High freq. dielectric constant tensor:
#      x y z
#    x 1.694170 0.000000 0.000000 
#    y 0.000000 1.614990 0.000000 
#    z 0.000000 0.000000 1.660320 
# 
# From -- ./inp_files/11575.got.cif
#   From: 2010.03.12/outbox.cif.g09.slc.cpg/sg47_6_cif.got.tgz:11575.got - 2010.04.14 03:12:58.
