data_PCOD8199092
_publ_section_title
;
Structure prediction by ZEFSAII (Michael W. Deem and Ramdas Pophale) SiO2 
 PCOD8199092
Probable space group: P M M M
;
_chemical_formula_sum "Si O2"
_cell_formula_units_Z 52
_cell_length_a 18.323229
_cell_length_b 18.804288
_cell_length_c 8.206505
_cell_angle_alpha 90.000000
_cell_angle_beta 90.000000
_cell_angle_gamma 90.000000
_cell_volume 2827.594589
_symmetry_space_group_name_H-M "P M M M"
_symmetry_group_IT_number 47
_symmetry_cell_setting 'orthorhombic'
loop_
_space_group_symop_operation_xyz
x,y,z
-x,-y,z
x,-y,-z
-x,y,-z
-x,-y,-z
x,y,-z
-x,y,z
x,-y,z
loop_
_atom_site_type_symbol
_atom_site_label
_atom_site_fract_x
_atom_site_fract_y
_atom_site_fract_z
Si Si1 0.913689 0.080562 0.000000
Si Si2 0.342941 0.789623 0.689305
Si Si3 0.726089 0.577758 0.810829
Si Si4 0.581165 0.351570 0.309078
Si Si5 0.420060 0.077476 0.190772
Si Si6 0.797083 0.712583 0.311386
Si Si7 0.085292 0.825171 0.688579
O O1 0.888993 0.119337 0.169979
O O2 0.000000 0.076946 0.000000
O O3 0.881516 0.000000 0.000000
O O4 0.334934 0.803349 0.500000
O O5 0.405319 0.731695 0.729018
O O6 0.359844 0.864823 0.767782
O O7 0.266385 0.762306 0.764553
O O8 0.740007 0.500000 0.729572
O O9 0.643515 0.601523 0.772833
O O10 0.789421 0.632896 0.757520
O O11 0.733424 0.569511 0.000000
O O12 0.586176 0.365843 0.500000
O O13 0.500000 0.371450 0.243469
O O14 0.500000 0.097713 0.263873
O O15 0.395941 0.000000 0.259700
O O16 0.427134 0.072324 0.000000
O O17 0.780679 0.704390 0.500000
O O18 0.874740 0.749795 0.276559
O O19 0.102791 0.851329 0.500000
O O20 0.000000 0.809681 0.706115
#
# Coordination Sequence:
#
# PCOD8199092 Si02
#       7
#     4   8   8   8   8   8   8
#     4   9  18  32  52  82 115 145 178 213 257 313
#     4   9  17  30  47  67  91 118 155 203 248 295
#     4  10  21  34  49  73 102 132 167 208 257 313
#     4   9  18  32  49  69  94 126 165 208 255 308
#     4   9  18  31  44  60  86 120 158 200 245 293
#     4   9  19  35  54  75  99 131 169 209 255 309
#     4   9  18  34  57  83 110 143 183 224 264 310
#
# _framework density 18.390191000000002
#
# number of rings (size 3 to 8) (size 9 to 14) (size 15 to 20)
#    0.000    2.846    0.000    2.308    1.077    5.846 
#    0.000    4.615    0.000    3.231    0.000    3.231 
#    0.000    0.000    0.000    0.000    0.000    0.000 
#
# Total GULP energy -644214.941628 kJ/mol
# GULP energy per Si atom -12388.748877 kJ/mol
# Density = 1.834833 g / cm^3
# Si number density = 18.390191 Si / 1000 Ang^3
#
#
#
# Elastic Constant Matrix: (Units=GPa)
#
#
# Indices 1 2 3 4 5 6 
#
# 1 60.9636 47.5285 26.6641 0.0000 0.0000 0.0000
# 2 47.5285 155.6999 47.7835 0.0000 0.0000 0.0000
# 3 26.6641 47.7835 62.7649 0.0000 0.0000 0.0000
# 4 0.0000 0.0000 0.0000 28.7696 0.0000 0.0000
# 5 0.0000 0.0000 0.0000 0.0000 18.2534 0.0000
# 6 0.0000 0.0000 0.0000 0.0000 0.0000 22.6513
#
#
#
# Elastic Compliance Matrix: (Units=1/GPa)
#
#
# Indices 1 2 3 4 5 6 
#
# 1 0.023030 -0.005255 -0.005783 0.000000 0.000000 0.000000
# 2 -0.005255 0.009580 -0.005061 0.000000 0.000000 0.000000
# 3 -0.005783 -0.005061 0.022242 0.000000 0.000000 0.000000
# 4 0.000000 0.000000 0.000000 0.034759 0.000000 0.000000
# 5 0.000000 0.000000 0.000000 0.000000 0.054784 0.000000
# 6 0.000000 0.000000 0.000000 0.000000 0.000000 0.044148
#
#
# Mechanical properties :
#
#
# Convention : Reuss Voigt Hill
#
# Bulk Modulus (GPa) = 44.14218 58.15340 51.14779
# Shear Modulus (GPa) = 21.90189 24.43167 23.16678
#
# Velocity S-wave (km/s) = 3.45477 3.64884 3.55313
# Velocity P-wave (km/s) = 6.32211 7.03154 6.68624
#
# Compressibility (1/GPa) = 0.02265407
#
# Stress axis : x y z
#
# Youngs Moduli (GPa) = 43.42248 104.38484 44.96020
#
# Poissons Ratio (x) = 0.54857 0.25999
# Poissons Ratio (y) = 0.22820 0.22753
# Poissons Ratio (z) = 0.25110 0.52826
#
# Static dielectric constant tensor:
#      x y z
#    x 3.760230 0.000000 0.000000 
#    y 0.000000 3.901940 0.000000 
#    z 0.000000 0.000000 3.375930 
# 
# 
# High freq. dielectric constant tensor:
#      x y z
#    x 1.688290 0.000000 0.000000 
#    y 0.000000 1.710330 0.000000 
#    z 0.000000 0.000000 1.708940 
# 
# From -- ./inp_files/9582.got.cif
#   From: 2010.03.12/outbox.cif.g09.slc.cpg/sg47_5_cif.got.tgz:9582.got - 2010.04.14 03:12:58.
