data_PCOD8199187
_publ_section_title
;
Structure prediction by ZEFSAII (Michael W. Deem and Ramdas Pophale) SiO2 
 PCOD8199187
Probable space group: P M M M
;
_chemical_formula_sum "Si O2"
_cell_formula_units_Z 64
_cell_length_a 14.898744
_cell_length_b 18.479975
_cell_length_c 13.209054
_cell_angle_alpha 90.000000
_cell_angle_beta 90.000000
_cell_angle_gamma 90.000000
_cell_volume 3636.827923
_symmetry_space_group_name_H-M "P M M M"
_symmetry_group_IT_number 47
_symmetry_cell_setting 'orthorhombic'
loop_
_space_group_symop_operation_xyz
x,y,z
-x,-y,z
x,-y,-z
-x,y,-z
-x,-y,-z
x,y,-z
-x,y,z
x,-y,z
loop_
_atom_site_type_symbol
_atom_site_label
_atom_site_fract_x
_atom_site_fract_y
_atom_site_fract_z
Si Si1 0.893555 0.581024 0.613547
Si Si2 0.764493 0.204633 0.116345
Si Si3 0.393988 0.421467 0.112742
Si Si4 0.255842 0.081863 0.269645
Si Si5 0.603742 0.823462 0.615552
Si Si6 0.099302 0.141913 0.381755
Si Si7 0.396725 0.277817 0.792357
Si Si8 0.895546 0.716344 0.257700
O O1 0.855963 0.596322 0.500000
O O2 0.864294 0.500000 0.648700
O O3 0.859331 0.641100 0.693740
O O4 0.000000 0.586538 0.609124
O O5 0.770769 0.126702 0.169902
O O6 0.662625 0.231529 0.130075
O O7 0.834603 0.263438 0.161151
O O8 0.788356 0.193498 0.000000
O O9 0.500000 0.427027 0.107699
O O10 0.354460 0.500000 0.145223
O O11 0.366393 0.361523 0.195887
O O12 0.358127 0.400569 0.000000
O O13 0.340645 0.113506 0.330443
O O14 0.169364 0.082901 0.342257
O O15 0.278432 0.000000 0.238286
O O16 0.635849 0.811706 0.500000
O O17 0.500000 0.846859 0.619415
O O18 0.619422 0.748184 0.676649
O O19 0.108401 0.148139 0.500000
O O20 0.120621 0.221640 0.340378
O O21 0.000000 0.116523 0.348629
O O22 0.500000 0.266515 0.824918
O O23 0.000000 0.711051 0.224790
#
# Coordination Sequence:
#
# PCOD8199187 Si02
#       8
#     8   8   8   8   8   8   8   8
#     4   8  13  23  44  74 103 131 163 197 236 281
#     4  10  21  35  51  71  90 116 159 199 235 284
#     4   8  13  22  40  67  94 119 149 187 234 279
#     4  10  21  35  50  70  95 120 148 188 236 282
#     4   9  18  32  50  72  97 127 159 185 216 269
#     4   9  17  29  47  71  96 122 152 187 230 277
#     4   9  17  31  51  72  95 121 151 194 240 278
#     4   9  17  30  47  67  96 131 163 197 231 268
#
# _framework density 17.597753000000001
#
# number of rings (size 3 to 8) (size 9 to 14) (size 15 to 20)
#    0.000    3.000    0.000    1.875    0.000    4.250 
#    0.000    2.500    0.000    1.500    0.000   11.375 
#    0.000    0.000    0.000    0.000    0.000    0.000 
#
# Total GULP energy -793151.650371 kJ/mol
# GULP energy per Si atom -12392.994537 kJ/mol
# Density = 1.755770 g / cm^3
# Si number density = 17.597753 Si / 1000 Ang^3
#
#
#
# Elastic Constant Matrix: (Units=GPa)
#
#
# Indices 1 2 3 4 5 6 
#
# 1 60.5798 34.0578 35.2343 0.0000 0.0000 0.0000
# 2 34.0578 125.8906 59.8843 0.0000 0.0000 0.0000
# 3 35.2343 59.8843 108.0872 0.0000 0.0000 0.0000
# 4 0.0000 0.0000 0.0000 17.9276 0.0000 0.0000
# 5 0.0000 0.0000 0.0000 0.0000 19.2048 0.0000
# 6 0.0000 0.0000 0.0000 0.0000 0.0000 18.5157
#
#
#
# Elastic Compliance Matrix: (Units=1/GPa)
#
#
# Indices 1 2 3 4 5 6 
#
# 1 0.021361 -0.003349 -0.005108 0.000000 0.000000 0.000000
# 2 -0.003349 0.011311 -0.005175 0.000000 0.000000 0.000000
# 3 -0.005108 -0.005175 0.013784 0.000000 0.000000 0.000000
# 4 0.000000 0.000000 0.000000 0.055780 0.000000 0.000000
# 5 0.000000 0.000000 0.000000 0.000000 0.052070 0.000000
# 6 0.000000 0.000000 0.000000 0.000000 0.000000 0.054008
#
#
# Mechanical properties :
#
#
# Convention : Reuss Voigt Hill
#
# Bulk Modulus (GPa) = 52.10459 61.43448 56.76953
# Shear Modulus (GPa) = 20.66327 22.15505 21.40916
#
# Velocity S-wave (km/s) = 3.43038 3.55205 3.49174
# Velocity P-wave (km/s) = 6.73520 7.19784 6.97036
#
# Compressibility (1/GPa) = 0.01919217
#
# Stress axis : x y z
#
# Youngs Moduli (GPa) = 46.81485 88.40820 72.54834
#
# Poissons Ratio (x) = 0.29610 0.37055
# Poissons Ratio (y) = 0.15679 0.37544
# Poissons Ratio (z) = 0.23911 0.45751
#
# Static dielectric constant tensor:
#      x y z
#    x 3.237230 0.000000 0.000000 
#    y 0.000000 3.377250 0.000000 
#    z 0.000000 0.000000 3.185020 
# 
# 
# High freq. dielectric constant tensor:
#      x y z
#    x 1.668010 0.000000 0.000000 
#    y 0.000000 1.675400 0.000000 
#    z 0.000000 0.000000 1.662560 
# 
# From -- ./inp_files/24125.got.cif
#   From: 2010.03.12/outbox.cif.g09.slc.cpg/sg47_13_cif.got.tgz:24125.got - 2010.04.14 03:12:58.
