data_PCOD8199224
_publ_section_title
;
Structure prediction by ZEFSAII (Michael W. Deem and Ramdas Pophale) SiO2 
 PCOD8199224
Probable space group: P M M M
;
_chemical_formula_sum "Si O2"
_cell_formula_units_Z 56
_cell_length_a 15.815294
_cell_length_b 9.161445
_cell_length_c 19.837761
_cell_angle_alpha 90.000000
_cell_angle_beta 90.000000
_cell_angle_gamma 90.000000
_cell_volume 2874.311961
_symmetry_space_group_name_H-M "P M M M"
_symmetry_group_IT_number 47
_symmetry_cell_setting 'orthorhombic'
loop_
_space_group_symop_operation_xyz
x,y,z
-x,-y,z
x,-y,-z
-x,y,-z
-x,-y,-z
x,y,-z
-x,y,z
x,-y,z
loop_
_atom_site_type_symbol
_atom_site_label
_atom_site_fract_x
_atom_site_fract_y
_atom_site_fract_z
Si Si1 0.675699 0.332731 0.925203
Si Si2 0.404755 0.173453 0.662678
Si Si3 0.751441 0.826410 0.424277
Si Si4 0.849306 0.829948 0.075442
Si Si5 0.902218 0.171371 0.670842
Si Si6 0.597926 0.159182 0.189106
Si Si7 0.095671 0.659146 0.799896
O O1 0.701880 0.500000 0.911961
O O2 0.754905 0.227592 0.918566
O O3 0.611385 0.279612 0.868463
O O4 0.635142 0.316735 0.000000
O O5 0.500000 0.235607 0.646899
O O6 0.333743 0.235974 0.611480
O O7 0.371674 0.217345 0.737748
O O8 0.408770 0.000000 0.657682
O O9 0.753695 0.763654 0.500000
O O10 0.838755 0.776553 0.388179
O O11 0.747229 0.000000 0.424562
O O12 0.904323 0.743810 0.129384
O O13 0.851583 0.000000 0.092839
O O14 0.884987 0.801129 0.000000
O O15 0.865901 0.246398 0.738933
O O16 0.000000 0.213255 0.652999
O O17 0.895255 0.000000 0.683487
O O18 0.500000 0.132682 0.196715
O O19 0.639579 0.000000 0.171627
O O20 0.141155 0.500000 0.805918
O O21 0.000000 0.632315 0.780053
#
# Coordination Sequence:
#
# PCOD8199224 Si02
#       7
#     8   8   8   8   8   8   8
#     4  10  21  35  50  72 103 136 173 219 269 318
#     4   8  15  28  45  69 102 136 173 220 268 313
#     4   9  17  28  46  75 105 136 176 218 267 323
#     4  10  21  36  54  76 103 137 176 217 262 314
#     4   9  18  32  50  75 107 141 178 220 264 314
#     4   9  18  32  50  72  98 133 178 223 268 318
#     4  10  21  36  54  77 105 137 174 218 267 314
#
# _framework density 19.482924000000001
#
# number of rings (size 3 to 8) (size 9 to 14) (size 15 to 20)
#    0.000    2.714    0.000    2.143    2.000    4.000 
#    0.000    5.714    0.000    0.429    0.000    2.000 
#    0.000    0.000    0.000    4.429    0.000    4.571 
#
# Total GULP energy -693876.339023 kJ/mol
# GULP energy per Si atom -12390.648911 kJ/mol
# Density = 1.943858 g / cm^3
# Si number density = 19.482924 Si / 1000 Ang^3
#
#
#
# Elastic Constant Matrix: (Units=GPa)
#
#
# Indices 1 2 3 4 5 6 
#
# 1 78.4577 24.3631 60.3814 0.0000 0.0000 0.0000
# 2 24.3631 70.0877 53.4075 0.0000 0.0000 0.0000
# 3 60.3814 53.4075 165.4644 0.0000 0.0000 0.0000
# 4 0.0000 0.0000 0.0000 8.1676 0.0000 0.0000
# 5 0.0000 0.0000 0.0000 0.0000 30.6579 0.0000
# 6 0.0000 0.0000 0.0000 0.0000 0.0000 13.2195
#
#
#
# Elastic Compliance Matrix: (Units=1/GPa)
#
#
# Indices 1 2 3 4 5 6 
#
# 1 0.017865 -0.001647 -0.005988 0.000000 0.000000 0.000000
# 2 -0.001647 0.019074 -0.005555 0.000000 0.000000 0.000000
# 3 -0.005988 -0.005555 0.010022 0.000000 0.000000 0.000000
# 4 0.000000 0.000000 0.000000 0.122436 0.000000 0.000000
# 5 0.000000 0.000000 0.000000 0.000000 0.032618 0.000000
# 6 0.000000 0.000000 0.000000 0.000000 0.000000 0.075646
#
#
# Mechanical properties :
#
#
# Convention : Reuss Voigt Hill
#
# Bulk Modulus (GPa) = 48.59100 65.59039 57.09070
# Shear Modulus (GPa) = 16.08228 22.13285 19.10756
#
# Velocity S-wave (km/s) = 2.87619 3.37414 3.13506
# Velocity P-wave (km/s) = 6.00203 6.99417 6.51701
#
# Compressibility (1/GPa) = 0.02057994
#
# Stress axis : x y z
#
# Youngs Moduli (GPa) = 55.97387 52.42823 99.78321
#
# Poissons Ratio (x) = 0.08638 0.59747
# Poissons Ratio (y) = 0.09222 0.55432
# Poissons Ratio (z) = 0.33516 0.29125
#
# Static dielectric constant tensor:
#      x y z
#    x 3.485070 0.000000 0.000000 
#    y 0.000000 3.399150 0.000000 
#    z 0.000000 0.000000 3.869780 
# 
# 
# High freq. dielectric constant tensor:
#      x y z
#    x 1.747570 0.000000 0.000000 
#    y 0.000000 1.725760 0.000000 
#    z 0.000000 0.000000 1.762700 
# 
# From -- ./inp_files/7247.got.cif
#   From: 2010.03.12/outbox.cif.g09.slc.cpg/sg47_4_cif.got.tgz:7247.got - 2010.04.14 03:12:58.
