data_PCOD8199653
_publ_section_title
;
Structure prediction by ZEFSAII (Michael W. Deem and Ramdas Pophale) SiO2 
 PCOD8199653
Probable space group: P M M M
;
_chemical_formula_sum "Si O2"
_cell_formula_units_Z 40
_cell_length_a 17.474032
_cell_length_b 9.371780
_cell_length_c 13.070881
_cell_angle_alpha 90.000000
_cell_angle_beta 90.000000
_cell_angle_gamma 90.000000
_cell_volume 2140.523857
_symmetry_space_group_name_H-M "P M M M"
_symmetry_group_IT_number 47
_symmetry_cell_setting 'orthorhombic'
loop_
_space_group_symop_operation_xyz
x,y,z
-x,-y,z
x,-y,-z
-x,y,-z
-x,-y,-z
x,y,-z
-x,y,z
x,-y,z
loop_
_atom_site_type_symbol
_atom_site_label
_atom_site_fract_x
_atom_site_fract_y
_atom_site_fract_z
Si Si1 0.090695 0.000000 0.379538
Si Si2 0.297857 0.161636 0.890104
Si Si3 0.165881 0.751623 0.754246
Si Si4 0.413325 0.169610 0.726213
Si Si5 0.298611 0.342503 0.387152
Si Si6 0.909848 0.500000 0.881286
O O1 0.118725 0.140864 0.318727
O O2 0.118208 0.000000 0.500000
O O3 0.000000 0.000000 0.376610
O O4 0.215143 0.161642 0.836990
O O5 0.366281 0.231258 0.823718
O O6 0.321940 0.000000 0.907608
O O7 0.293766 0.241192 0.000000
O O8 0.225796 0.666619 0.685742
O O9 0.114081 0.640794 0.817647
O O10 0.500000 0.226162 0.730526
O O11 0.367826 0.231416 0.629602
O O12 0.410591 0.000000 0.718694
O O13 0.266618 0.313805 0.500000
O O14 0.334031 0.500000 0.375472
O O15 0.000000 0.500000 0.886851
O O16 0.878017 0.500000 0.000000
#
# Coordination Sequence:
#
# PCOD8199653 Si02
#       6
#     4   8   8   8   8   4
#     4  11  24  40  61  89 120 157 197 241 299 355
#     4   9  17  31  55  82 107 144 189 231 283 340
#     4  11  20  40  59  84 118 153 192 245 290 347
#     4   9  19  34  52  79 113 146 184 234 290 344
#     4  10  21  36  56  80 106 147 196 236 284 342
#     4  11  24  40  61  89 120 157 195 237 297 357
#
# _framework density 18.687013
#
# number of rings (size 3 to 8) (size 9 to 14) (size 15 to 20)
#    0.000    2.000    2.000    1.800    1.400    1.600 
#    0.000    4.000    0.000    4.800    0.000    2.800 
#    0.000    0.000    0.000    0.000    0.000    0.000 
#
# Total GULP energy -495581.375410 kJ/mol
# GULP energy per Si atom -12389.534385 kJ/mol
# Density = 1.864448 g / cm^3
# Si number density = 18.687013 Si / 1000 Ang^3
#
#
#
# Elastic Constant Matrix: (Units=GPa)
#
#
# Indices 1 2 3 4 5 6 
#
# 1 108.3757 33.2174 48.0816 0.0000 0.0000 0.0000
# 2 33.2174 67.4687 49.9007 0.0000 0.0000 0.0000
# 3 48.0816 49.9007 133.8504 0.0000 0.0000 0.0000
# 4 0.0000 0.0000 0.0000 18.4636 0.0000 0.0000
# 5 0.0000 0.0000 0.0000 0.0000 16.4231 0.0000
# 6 0.0000 0.0000 0.0000 0.0000 0.0000 25.9477
#
#
#
# Elastic Compliance Matrix: (Units=1/GPa)
#
#
# Indices 1 2 3 4 5 6 
#
# 1 0.011585 -0.003625 -0.002810 0.000000 0.000000 0.000000
# 2 -0.003625 0.021599 -0.006750 0.000000 0.000000 0.000000
# 3 -0.002810 -0.006750 0.010997 0.000000 0.000000 0.000000
# 4 0.000000 0.000000 0.000000 0.054161 0.000000 0.000000
# 5 0.000000 0.000000 0.000000 0.000000 0.060890 0.000000
# 6 0.000000 0.000000 0.000000 0.000000 0.000000 0.038539
#
#
# Mechanical properties :
#
#
# Convention : Reuss Voigt Hill
#
# Bulk Modulus (GPa) = 56.14788 63.56602 59.85695
# Shear Modulus (GPa) = 21.73176 24.06656 22.89916
#
# Velocity S-wave (km/s) = 3.41388 3.59259 3.50438
# Velocity P-wave (km/s) = 6.75656 7.16233 6.96240
#
# Compressibility (1/GPa) = 0.01781011
#
# Stress axis : x y z
#
# Youngs Moduli (GPa) = 86.31831 46.29843 90.93493
#
# Poissons Ratio (x) = 0.16785 0.25552
# Poissons Ratio (y) = 0.31294 0.61381
# Poissons Ratio (z) = 0.24255 0.31251
#
# Static dielectric constant tensor:
#      x y z
#    x 3.398800 0.000000 0.000000 
#    y 0.000000 3.310270 0.000000 
#    z 0.000000 0.000000 3.957910 
# 
# 
# High freq. dielectric constant tensor:
#      x y z
#    x 1.721300 0.000000 0.000000 
#    y 0.000000 1.712520 0.000000 
#    z 0.000000 0.000000 1.741350 
# 
# From -- ./inp_files/23378.got.cif
#   From: 2010.03.12/outbox.cif.g09.slc.cpg/sg47_12_cif.got.tgz:23378.got - 2010.04.14 03:12:58.
