data_PCOD8199578
_publ_section_title
;
Structure prediction by ZEFSAII (Michael W. Deem and Ramdas Pophale) SiO2 
 PCOD8199578
Probable space group: P M M M
;
_chemical_formula_sum "Si O2"
_cell_formula_units_Z 48
_cell_length_a 8.844318
_cell_length_b 20.491775
_cell_length_c 14.049199
_cell_angle_alpha 90.000000
_cell_angle_beta 90.000000
_cell_angle_gamma 90.000000
_cell_volume 2546.217462
_symmetry_space_group_name_H-M "P M M M"
_symmetry_group_IT_number 47
_symmetry_cell_setting 'orthorhombic'
loop_
_space_group_symop_operation_xyz
x,y,z
-x,-y,z
x,-y,-z
-x,y,-z
-x,-y,-z
x,y,-z
-x,y,z
x,-y,z
loop_
_atom_site_type_symbol
_atom_site_label
_atom_site_fract_x
_atom_site_fract_y
_atom_site_fract_z
Si Si1 0.678898 0.000000 0.608319
Si Si2 0.178062 0.874679 0.298166
Si Si3 0.175378 0.669399 0.108142
Si Si4 0.820624 0.816678 0.103590
Si Si5 0.673024 0.246838 0.389588
Si Si6 0.821332 0.500000 0.391712
Si Si7 0.323196 0.379531 0.286073
O O1 0.736252 0.063211 0.662501
O O2 0.500000 0.000000 0.608974
O O3 0.740157 0.000000 0.500000
O O4 0.234111 0.863345 0.189073
O O5 0.217724 0.811981 0.360953
O O6 0.000000 0.887324 0.303318
O O7 0.238553 0.743166 0.120259
O O8 0.270794 0.621954 0.176246
O O9 0.000000 0.665641 0.137011
O O10 0.199251 0.645584 0.000000
O O11 0.000000 0.813344 0.102251
O O12 0.762609 0.842660 0.000000
O O13 0.694607 0.262019 0.500000
O O14 0.500000 0.227404 0.366382
O O15 0.722942 0.311087 0.333412
O O16 0.762366 0.500000 0.500000
O O17 0.762085 0.563936 0.340367
O O18 0.000000 0.500000 0.387078
O O19 0.500000 0.393367 0.292538
#
# Coordination Sequence:
#
# PCOD8199578 Si02
#       7
#     4   8   8   8   8   4   8
#     4  11  25  43  58  73 108 158 193 225 284 353
#     4  11  21  35  59  87 111 140 188 241 279 323
#     4   9  17  33  58  86 118 154 190 231 282 340
#     4   8  15  30  54  84 116 147 179 222 279 335
#     4  10  21  36  54  79 113 150 185 225 281 344
#     4  11  25  43  62  83 112 153 199 244 290 343
#     4  11  22  37  59  86 118 153 191 236 287 346
#
# _framework density 18.851492
#
# number of rings (size 3 to 8) (size 9 to 14) (size 15 to 20)
#    0.000    2.000    1.667    3.500    0.000    5.333 
#    0.000    0.833    0.000    7.000    0.000    0.000 
#    0.000    0.000    0.000    0.000    0.000    0.000 
#
# Total GULP energy -595230.194944 kJ/mol
# GULP energy per Si atom -12400.629061 kJ/mol
# Density = 1.880859 g / cm^3
# Si number density = 18.851492 Si / 1000 Ang^3
#
#
#
# Elastic Constant Matrix: (Units=GPa)
#
#
# Indices 1 2 3 4 5 6 
#
# 1 49.5522 34.4988 39.0920 0.0000 0.0000 0.0000
# 2 34.4988 104.9647 63.6882 0.0000 0.0000 0.0000
# 3 39.0920 63.6882 149.9074 0.0000 0.0000 0.0000
# 4 0.0000 0.0000 0.0000 27.8905 0.0000 0.0000
# 5 0.0000 0.0000 0.0000 0.0000 23.8006 0.0000
# 6 0.0000 0.0000 0.0000 0.0000 0.0000 40.8313
#
#
#
# Elastic Compliance Matrix: (Units=1/GPa)
#
#
# Indices 1 2 3 4 5 6 
#
# 1 0.028369 -0.006515 -0.004630 0.000000 0.000000 0.000000
# 2 -0.006515 0.014332 -0.004390 0.000000 0.000000 0.000000
# 3 -0.004630 -0.004390 0.009743 0.000000 0.000000 0.000000
# 4 0.000000 0.000000 0.000000 0.035854 0.000000 0.000000
# 5 0.000000 0.000000 0.000000 0.000000 0.042016 0.000000
# 6 0.000000 0.000000 0.000000 0.000000 0.000000 0.024491
#
#
# Mechanical properties :
#
#
# Convention : Reuss Voigt Hill
#
# Bulk Modulus (GPa) = 46.78468 64.33137 55.55802
# Shear Modulus (GPa) = 25.90671 29.64751 27.77711
#
# Velocity S-wave (km/s) = 3.71111 3.97002 3.84275
# Velocity P-wave (km/s) = 6.57530 7.43062 7.01600
#
# Compressibility (1/GPa) = 0.02137452
#
# Stress axis : x y z
#
# Youngs Moduli (GPa) = 35.24959 69.77440 102.63443
#
# Poissons Ratio (x) = 0.45456 0.47521
# Poissons Ratio (y) = 0.22964 0.45057
# Poissons Ratio (z) = 0.16321 0.30631
#
# Static dielectric constant tensor:
#      x y z
#    x 3.316650 0.000000 0.000000 
#    y 0.000000 2.855780 0.000000 
#    z 0.000000 0.000000 3.891480 
# 
# 
# High freq. dielectric constant tensor:
#      x y z
#    x 1.719930 0.000000 0.000000 
#    y 0.000000 1.716660 0.000000 
#    z 0.000000 0.000000 1.752250 
# 
# From -- ./inp_files/9216.got.cif
#   From: 2010.03.12/outbox.cif.g09.slc.cpg/sg47_5_cif.got.tgz:9216.got - 2010.04.14 03:12:58.
