data_PCOD8199200
_publ_section_title
;
Structure prediction by ZEFSAII (Michael W. Deem and Ramdas Pophale) SiO2 
 PCOD8199200
Probable space group: P M M M
;
_chemical_formula_sum "Si O2"
_cell_formula_units_Z 44
_cell_length_a 14.349919
_cell_length_b 19.494041
_cell_length_c 8.917438
_cell_angle_alpha 90.000000
_cell_angle_beta 90.000000
_cell_angle_gamma 90.000000
_cell_volume 2494.545463
_symmetry_space_group_name_H-M "P M M M"
_symmetry_group_IT_number 47
_symmetry_cell_setting 'orthorhombic'
loop_
_space_group_symop_operation_xyz
x,y,z
-x,-y,z
x,-y,-z
-x,y,-z
-x,-y,-z
x,y,-z
-x,y,z
x,-y,z
loop_
_atom_site_type_symbol
_atom_site_label
_atom_site_fract_x
_atom_site_fract_y
_atom_site_fract_z
Si Si1 0.311697 0.423698 0.677767
Si Si2 0.393738 0.180502 0.322581
Si Si3 0.105609 0.169953 0.321469
Si Si4 0.500000 0.419394 0.834412
Si Si5 0.760395 0.714991 0.676908
Si Si6 0.742157 0.919931 0.825112
O O1 0.321353 0.425978 0.500000
O O2 0.282714 0.500000 0.737170
O O3 0.409521 0.397451 0.742064
O O4 0.238247 0.364887 0.731517
O O5 0.387591 0.169676 0.500000
O O6 0.500000 0.190581 0.268943
O O7 0.334059 0.246650 0.269971
O O8 0.350334 0.113479 0.245086
O O9 0.110919 0.163421 0.500000
O O10 0.149515 0.242824 0.266000
O O11 0.163663 0.107971 0.251155
O O12 0.000000 0.166428 0.262912
O O13 0.500000 0.500000 0.852728
O O14 0.500000 0.385194 0.000000
O O15 0.761575 0.714493 0.500000
O O16 0.736664 0.000000 0.792319
O O17 0.746206 0.902923 0.000000
#
# Coordination Sequence:
#
# PCOD8199200 Si02
#       6
#     8   8   8   4   8   8
#     4   9  16  26  43  65  89 122 160 192 227 275
#     4   9  18  32  50  70  93 128 169 201 230 267
#     4   9  18  34  55  74  91 118 157 197 238 283
#     4   9  17  27  37  55  87 121 152 189 230 267
#     4   8  15  28  47  69  93 120 154 196 234 273
#     4  10  21  35  50  71 100 128 152 186 236 288
#
# _framework density 17.638483999999998
#
# number of rings (size 3 to 8) (size 9 to 14) (size 15 to 20)
#    0.000    3.000    0.000    1.909    1.273    4.000 
#    0.000    7.273    0.000    0.545    0.000    3.818 
#    0.000    0.000    0.000   11.091    0.000   12.000 
#
# Total GULP energy -545222.771309 kJ/mol
# GULP energy per Si atom -12391.426621 kJ/mol
# Density = 1.759834 g / cm^3
# Si number density = 17.638484 Si / 1000 Ang^3
#
#
#
# Elastic Constant Matrix: (Units=GPa)
#
#
# Indices 1 2 3 4 5 6 
#
# 1 107.2566 42.7271 18.5302 0.0000 0.0000 0.0000
# 2 42.7271 113.2562 25.8980 0.0000 0.0000 0.0000
# 3 18.5302 25.8980 30.1030 0.0000 0.0000 0.0000
# 4 0.0000 0.0000 0.0000 8.8604 0.0000 0.0000
# 5 0.0000 0.0000 0.0000 0.0000 9.6528 0.0000
# 6 0.0000 0.0000 0.0000 0.0000 0.0000 17.9096
#
#
#
# Elastic Compliance Matrix: (Units=1/GPa)
#
#
# Indices 1 2 3 4 5 6 
#
# 1 0.011368 -0.003347 -0.004118 0.000000 0.000000 0.000000
# 2 -0.003347 0.011977 -0.008244 0.000000 0.000000 0.000000
# 3 -0.004118 -0.008244 0.042847 0.000000 0.000000 0.000000
# 4 0.000000 0.000000 0.000000 0.112862 0.000000 0.000000
# 5 0.000000 0.000000 0.000000 0.000000 0.103597 0.000000
# 6 0.000000 0.000000 0.000000 0.000000 0.000000 0.055836
#
#
# Mechanical properties :
#
#
# Convention : Reuss Voigt Hill
#
# Bulk Modulus (GPa) = 28.75738 47.21403 37.98570
# Shear Modulus (GPa) = 13.10625 18.18192 15.64409
#
# Velocity S-wave (km/s) = 2.72885 3.21411 2.98137
# Velocity P-wave (km/s) = 5.12523 6.37179 5.78220
#
# Compressibility (1/GPa) = 0.03477369
#
# Stress axis : x y z
#
# Youngs Moduli (GPa) = 87.96392 83.49064 23.33899
#
# Poissons Ratio (x) = 0.27945 0.09612
# Poissons Ratio (y) = 0.29442 0.19241
# Poissons Ratio (z) = 0.36226 0.68829
#
# Static dielectric constant tensor:
#      x y z
#    x 3.343590 0.000000 0.000000 
#    y 0.000000 3.606680 0.000000 
#    z 0.000000 0.000000 3.138500 
# 
# 
# High freq. dielectric constant tensor:
#      x y z
#    x 1.662010 0.000000 0.000000 
#    y 0.000000 1.686810 0.000000 
#    z 0.000000 0.000000 1.660770 
# 
# From -- ./inp_files/6831.got.cif
#   From: 2010.03.12/outbox.cif.g09.slc.cpg/sg47_4_cif.got.tgz:6831.got - 2010.04.14 03:12:58.
