data_PCOD8199931
_publ_section_title
;
Structure prediction by ZEFSAII (Michael W. Deem and Ramdas Pophale) SiO2 
 PCOD8199931
Probable space group: P M M M
;
_chemical_formula_sum "Si O2"
_cell_formula_units_Z 49
_cell_length_a 9.026643
_cell_length_b 30.469275
_cell_length_c 9.114634
_cell_angle_alpha 90.000000
_cell_angle_beta 90.000000
_cell_angle_gamma 90.000000
_cell_volume 2506.845804
_symmetry_space_group_name_H-M "P M M M"
_symmetry_group_IT_number 47
_symmetry_cell_setting 'orthorhombic'
loop_
_space_group_symop_operation_xyz
x,y,z
-x,-y,z
x,-y,-z
-x,y,-z
-x,-y,-z
x,y,-z
-x,y,z
x,-y,z
loop_
_atom_site_type_symbol
_atom_site_label
_atom_site_fract_x
_atom_site_fract_y
_atom_site_fract_z
Si Si1 0.171781 0.248509 0.832228
Si Si2 0.674106 0.080969 0.828716
Si Si3 0.175044 0.000000 0.670771
Si Si4 0.500000 0.500000 0.000000
Si Si5 0.172204 0.840230 0.671490
Si Si6 0.666847 0.664442 0.173812
Si Si7 0.832332 0.588466 0.335750
Si Si8 0.339506 0.500000 0.288220
O O1 0.213037 0.208022 0.728305
O O2 0.260154 0.290363 0.771330
O O3 0.000000 0.260422 0.821351
O O4 0.215766 0.236973 0.000000
O O5 0.500000 0.075037 0.803693
O O6 0.759123 0.042676 0.746100
O O7 0.725879 0.126740 0.761399
O O8 0.714793 0.079534 0.000000
O O9 0.218364 0.000000 0.500000
O O10 0.000000 0.000000 0.692518
O O11 0.364163 0.500000 0.885601
O O12 0.209533 0.843595 0.500000
O O13 0.000000 0.851078 0.701611
O O14 0.500000 0.662601 0.234098
O O15 0.752599 0.622341 0.229601
O O16 0.670889 0.662399 0.000000
O O17 0.829177 0.607842 0.500000
O O18 0.751511 0.542263 0.335786
O O19 0.000000 0.582177 0.280254
O O20 0.500000 0.500000 0.369803
#
# Coordination Sequence:
#
# PCOD8199931 Si02
#       8
#     8   8   4   1   8   8   8   4
#     4   9  18  35  57  82 113 153 195 237 285 338
#     4  11  24  40  59  86 118 154 195 240 286 340
#     4  11  24  41  62  88 118 151 192 239 288 344
#     4   8  24  40  60  92 120 144 184 240 280 336
#     4  10  21  37  59  87 118 152 192 238 288 343
#     4  10  22  38  59  85 117 151 191 238 287 341
#     4  11  24  40  59  85 117 152 192 236 282 337
#     4  10  22  40  62  84 118 148 184 230 283 335
#
# _framework density 19.546475000000001
#
# number of rings (size 3 to 8) (size 9 to 14) (size 15 to 20)
#    0.245    1.551    0.000    3.429    1.143   10.449 
#    0.000    3.673    0.000    0.000    0.000    0.000 
#    0.000    0.000    0.000    0.000    0.000    0.000 
#
# Total GULP energy -607198.505218 kJ/mol
# GULP energy per Si atom -12391.806229 kJ/mol
# Density = 1.950199 g / cm^3
# Si number density = 19.546475 Si / 1000 Ang^3
#
#
#
# Elastic Constant Matrix: (Units=GPa)
#
#
# Indices 1 2 3 4 5 6 
#
# 1 123.8202 74.9491 49.6860 0.0000 0.0000 0.0000
# 2 74.9491 141.8304 49.9907 0.0000 0.0000 0.0000
# 3 49.6860 49.9907 98.1005 0.0000 0.0000 0.0000
# 4 0.0000 0.0000 0.0000 31.1493 0.0000 0.0000
# 5 0.0000 0.0000 0.0000 0.0000 24.2323 0.0000
# 6 0.0000 0.0000 0.0000 0.0000 0.0000 63.3534
#
#
#
# Elastic Compliance Matrix: (Units=1/GPa)
#
#
# Indices 1 2 3 4 5 6 
#
# 1 0.012905 -0.005505 -0.003731 0.000000 0.000000 0.000000
# 2 -0.005505 0.010942 -0.002788 0.000000 0.000000 0.000000
# 3 -0.003731 -0.002788 0.013504 0.000000 0.000000 0.000000
# 4 0.000000 0.000000 0.000000 0.032103 0.000000 0.000000
# 5 0.000000 0.000000 0.000000 0.000000 0.041267 0.000000
# 6 0.000000 0.000000 0.000000 0.000000 0.000000 0.015784
#
#
# Mechanical properties :
#
#
# Convention : Reuss Voigt Hill
#
# Bulk Modulus (GPa) = 75.16528 79.22253 77.19390
# Shear Modulus (GPa) = 32.26021 36.35536 34.30779
#
# Velocity S-wave (km/s) = 4.06696 4.31739 4.19404
# Velocity P-wave (km/s) = 7.78407 8.09144 7.93924
#
# Compressibility (1/GPa) = 0.01330401
#
# Stress axis : x y z
#
# Youngs Moduli (GPa) = 77.48637 91.38894 74.05110
#
# Poissons Ratio (x) = 0.50306 0.27631
# Poissons Ratio (y) = 0.42653 0.20646
# Poissons Ratio (z) = 0.28912 0.25479
#
# Static dielectric constant tensor:
#      x y z
#    x 3.727420 0.000000 0.000000 
#    y 0.000000 3.917940 0.000000 
#    z 0.000000 0.000000 3.631890 
# 
# 
# High freq. dielectric constant tensor:
#      x y z
#    x 1.771010 0.000000 0.000000 
#    y 0.000000 1.766240 0.000000 
#    z 0.000000 0.000000 1.770020 
# 
# From -- ./inp_files/2867.got.cif
#   From: 2010.03.12/outbox.cif.g09.slc.cpg/sg47_2_cif.got.tgz:2867.got - 2010.04.14 03:12:58.
