data_PCOD8199646
_publ_section_title
;
Structure prediction by ZEFSAII (Michael W. Deem and Ramdas Pophale) SiO2 
 PCOD8199646
Probable space group: P M M M
;
_chemical_formula_sum "Si O2"
_cell_formula_units_Z 24
_cell_length_a 9.171718
_cell_length_b 12.322949
_cell_length_c 10.058398
_cell_angle_alpha 90.000000
_cell_angle_beta 90.000000
_cell_angle_gamma 90.000000
_cell_volume 1136.826426
_symmetry_space_group_name_H-M "P M M M"
_symmetry_group_IT_number 47
_symmetry_cell_setting 'orthorhombic'
loop_
_space_group_symop_operation_xyz
x,y,z
-x,-y,z
x,-y,-z
-x,y,-z
-x,-y,-z
x,y,-z
-x,y,z
x,-y,z
loop_
_atom_site_type_symbol
_atom_site_label
_atom_site_fract_x
_atom_site_fract_y
_atom_site_fract_z
Si Si1 0.166861 0.817004 0.853924
Si Si2 0.671779 0.624068 0.761284
Si Si3 0.173273 0.000000 0.346829
Si Si4 0.838921 0.372617 0.500000
O O1 0.263898 0.707720 0.867618
O O2 0.000000 0.784550 0.823021
O O3 0.227754 0.895461 0.737095
O O4 0.177013 0.873419 0.000000
O O5 0.500000 0.636247 0.746920
O O6 0.712512 0.500000 0.799382
O O7 0.747366 0.664086 0.626215
O O8 0.233407 0.000000 0.500000
O O9 0.000000 0.000000 0.348298
O O10 0.858422 0.500000 0.500000
O O11 0.000000 0.317124 0.500000
#
# Coordination Sequence:
#
# PCOD8199646 Si02
#       4
#     8   8   4   4
#     4  10  21  37  59  87 119 155 196 245 298 351
#     4  10  21  36  55  83 121 161 198 239 292 350
#     4   9  19  37  62  89 114 146 194 249 303 356
#     4   9  17  31  53  80 111 150 195 241 287 337
#
# _framework density 21.111401999999998
#
# number of rings (size 3 to 8) (size 9 to 14) (size 15 to 20)
#    0.000    2.333    0.000    2.000    2.333    7.333 
#    0.000    4.167    0.000    3.000    0.000    0.000 
#    0.000    0.000    0.000    0.000    0.000    0.000 
#
# Total GULP energy -297417.879510 kJ/mol
# GULP energy per Si atom -12392.411646 kJ/mol
# Density = 2.106335 g / cm^3
# Si number density = 21.111402 Si / 1000 Ang^3
#
#
#
# Elastic Constant Matrix: (Units=GPa)
#
#
# Indices 1 2 3 4 5 6 
#
# 1 83.4077 48.3752 30.7792 0.0000 0.0000 0.0000
# 2 48.3752 122.9321 55.1820 0.0000 0.0000 0.0000
# 3 30.7792 55.1820 134.4256 0.0000 0.0000 0.0000
# 4 0.0000 0.0000 0.0000 29.0544 0.0000 0.0000
# 5 0.0000 0.0000 0.0000 0.0000 19.0888 0.0000
# 6 0.0000 0.0000 0.0000 0.0000 0.0000 22.6004
#
#
#
# Elastic Compliance Matrix: (Units=1/GPa)
#
#
# Indices 1 2 3 4 5 6 
#
# 1 0.015718 -0.005602 -0.001299 0.000000 0.000000 0.000000
# 2 -0.005602 0.011969 -0.003631 0.000000 0.000000 0.000000
# 3 -0.001299 -0.003631 0.009227 0.000000 0.000000 0.000000
# 4 0.000000 0.000000 0.000000 0.034418 0.000000 0.000000
# 5 0.000000 0.000000 0.000000 0.000000 0.052387 0.000000
# 6 0.000000 0.000000 0.000000 0.000000 0.000000 0.044247
#
#
# Mechanical properties :
#
#
# Convention : Reuss Voigt Hill
#
# Bulk Modulus (GPa) = 63.09168 67.71535 65.40352
# Shear Modulus (GPa) = 25.73183 27.91066 26.82124
#
# Velocity S-wave (km/s) = 3.49500 3.63997 3.56822
# Velocity P-wave (km/s) = 6.79976 7.05767 6.92991
#
# Compressibility (1/GPa) = 0.01584995
#
# Stress axis : x y z
#
# Youngs Moduli (GPa) = 63.62224 83.55163 108.37895
#
# Poissons Ratio (x) = 0.46805 0.14081
# Poissons Ratio (y) = 0.35641 0.39347
# Poissons Ratio (z) = 0.08266 0.30333
#
# Static dielectric constant tensor:
#      x y z
#    x 3.525500 0.000000 0.000000 
#    y 0.000000 3.691100 0.000000 
#    z 0.000000 0.000000 3.998020 
# 
# 
# High freq. dielectric constant tensor:
#      x y z
#    x 1.798490 0.000000 0.000000 
#    y 0.000000 1.820010 0.000000 
#    z 0.000000 0.000000 1.835330 
# 
# From -- ./inp_files/14491.got.cif
#   From: 2010.03.12/outbox.cif.g09.slc.cpg/sg47_8_cif.got.tgz:14491.got - 2010.04.14 03:12:58.
