data_PCOD8199890
_publ_section_title
;
Structure prediction by ZEFSAII (Michael W. Deem and Ramdas Pophale) SiO2 
 PCOD8199890
Probable space group: P M M M
;
_chemical_formula_sum "Si O2"
_cell_formula_units_Z 56
_cell_length_a 23.107019
_cell_length_b 9.236680
_cell_length_c 14.308374
_cell_angle_alpha 90.000000
_cell_angle_beta 90.000000
_cell_angle_gamma 90.000000
_cell_volume 3053.866886
_symmetry_space_group_name_H-M "P M M M"
_symmetry_group_IT_number 47
_symmetry_cell_setting 'orthorhombic'
loop_
_space_group_symop_operation_xyz
x,y,z
-x,-y,z
x,-y,-z
-x,y,-z
-x,-y,-z
x,y,-z
-x,y,z
x,-y,z
loop_
_atom_site_type_symbol
_atom_site_label
_atom_site_fract_x
_atom_site_fract_y
_atom_site_fract_z
Si Si1 0.610213 0.666398 0.106804
Si Si2 0.565963 0.165889 0.726768
Si Si3 0.161940 0.167344 0.214310
Si Si4 0.773267 0.166656 0.394536
Si Si5 0.341063 0.334482 0.609940
Si Si6 0.257657 0.337511 0.109762
Si Si7 0.066179 0.669724 0.894243
O O1 0.590885 0.500000 0.117783
O O2 0.570207 0.768279 0.169359
O O3 0.676265 0.685142 0.141444
O O4 0.603263 0.716495 0.000000
O O5 0.500000 0.178346 0.692373
O O6 0.605106 0.254527 0.655629
O O7 0.586548 0.000000 0.728946
O O8 0.172646 0.194138 0.325065
O O9 0.218363 0.220230 0.159857
O O10 0.104713 0.250073 0.182171
O O11 0.152800 0.000000 0.191446
O O12 0.792643 0.208357 0.500000
O O13 0.719535 0.263035 0.360139
O O14 0.753261 0.000000 0.389585
O O15 0.349626 0.321789 0.500000
O O16 0.340157 0.500000 0.644357
O O17 0.236967 0.500000 0.135799
O O18 0.252236 0.313720 0.000000
O O19 0.074064 0.500000 0.879645
O O20 0.000000 0.715894 0.877515
O O21 0.085129 0.711834 0.000000
#
# Coordination Sequence:
#
# PCOD8199890 Si02
#       7
#     8   8   8   8   8   8   8
#     4   9  19  36  56  76  99 131 171 214 259 304
#     4  11  24  38  52  73 101 134 171 209 253 310
#     4  11  21  30  48  79 107 133 169 211 252 293
#     4   9  19  36  55  76 106 140 169 201 249 310
#     4  10  21  37  58  82 104 128 164 212 263 311
#     4   9  18  32  49  71 101 134 164 197 245 305
#     4   9  19  36  55  74 101 141 182 213 248 298
#
# _framework density 18.337406000000001
#
# number of rings (size 3 to 8) (size 9 to 14) (size 15 to 20)
#    0.000    2.286    0.000    3.857    0.000    9.429 
#    0.000    5.000    0.000    0.429    0.000    3.000 
#    0.000    0.000    0.000    0.000    0.000    0.000 
#
# Total GULP energy -694489.260857 kJ/mol
# GULP energy per Si atom -12401.593944 kJ/mol
# Density = 1.829567 g / cm^3
# Si number density = 18.337406 Si / 1000 Ang^3
#
#
#
# Elastic Constant Matrix: (Units=GPa)
#
#
# Indices 1 2 3 4 5 6 
#
# 1 86.4369 55.2215 52.4321 0.0000 0.0000 0.0000
# 2 55.2215 101.2371 47.7126 0.0000 0.0000 0.0000
# 3 52.4321 47.7126 67.0120 0.0000 0.0000 0.0000
# 4 0.0000 0.0000 0.0000 28.7674 0.0000 0.0000
# 5 0.0000 0.0000 0.0000 0.0000 28.0351 0.0000
# 6 0.0000 0.0000 0.0000 0.0000 0.0000 32.0088
#
#
#
# Elastic Compliance Matrix: (Units=1/GPa)
#
#
# Indices 1 2 3 4 5 6 
#
# 1 0.024597 -0.006542 -0.014588 0.000000 0.000000 0.000000
# 2 -0.006542 0.016606 -0.006705 0.000000 0.000000 0.000000
# 3 -0.014588 -0.006705 0.031111 0.000000 0.000000 0.000000
# 4 0.000000 0.000000 0.000000 0.034762 0.000000 0.000000
# 5 0.000000 0.000000 0.000000 0.000000 0.035670 0.000000
# 6 0.000000 0.000000 0.000000 0.000000 0.000000 0.031241
#
#
# Mechanical properties :
#
#
# Convention : Reuss Voigt Hill
#
# Bulk Modulus (GPa) = 60.07943 62.82425 61.45184
# Shear Modulus (GPa) = 21.25804 24.38357 22.82080
#
# Velocity S-wave (km/s) = 3.40850 3.65049 3.53157
# Velocity P-wave (km/s) = 6.95162 7.21821 7.08617
#
# Compressibility (1/GPa) = 0.01664463
#
# Stress axis : x y z
#
# Youngs Moduli (GPa) = 40.65462 60.21820 32.14323
#
# Poissons Ratio (x) = 0.39394 0.46890
# Poissons Ratio (y) = 0.26596 0.21552
# Poissons Ratio (z) = 0.59307 0.40377
#
# Static dielectric constant tensor:
#      x y z
#    x 3.219920 0.000000 0.000000 
#    y 0.000000 3.428520 0.000000 
#    z 0.000000 0.000000 3.461800 
# 
# 
# High freq. dielectric constant tensor:
#      x y z
#    x 1.695070 0.000000 0.000000 
#    y 0.000000 1.714430 0.000000 
#    z 0.000000 0.000000 1.714580 
# 
# From -- ./inp_files/11221.got.cif
#   From: 2010.03.12/outbox.cif.g09.slc.cpg/sg47_6_cif.got.tgz:11221.got - 2010.04.14 03:12:58.
