data_PCOD8199515
_publ_section_title
;
Structure prediction by ZEFSAII (Michael W. Deem and Ramdas Pophale) SiO2 
 PCOD8199515
Probable space group: P M M M
;
_chemical_formula_sum "Si O2"
_cell_formula_units_Z 40
_cell_length_a 9.472334
_cell_length_b 8.872937
_cell_length_c 25.535490
_cell_angle_alpha 90.000000
_cell_angle_beta 90.000000
_cell_angle_gamma 90.000000
_cell_volume 2146.192125
_symmetry_space_group_name_H-M "P M M M"
_symmetry_group_IT_number 47
_symmetry_cell_setting 'orthorhombic'
loop_
_space_group_symop_operation_xyz
x,y,z
-x,-y,z
x,-y,-z
-x,y,-z
-x,-y,-z
x,y,-z
-x,y,z
x,-y,z
loop_
_atom_site_type_symbol
_atom_site_label
_atom_site_fract_x
_atom_site_fract_y
_atom_site_fract_z
Si Si1 0.166488 0.328411 0.712004
Si Si2 0.661776 0.826188 0.800500
Si Si3 0.658421 0.319903 0.500000
Si Si4 0.156517 0.320996 0.404920
Si Si5 0.837439 0.177957 0.000000
Si Si6 0.662521 0.676879 0.908246
O O1 0.216820 0.500000 0.721652
O O2 0.243529 0.217418 0.751410
O O3 0.207155 0.274981 0.653267
O O4 0.000000 0.315610 0.720481
O O5 0.500000 0.793825 0.785589
O O6 0.707584 0.727471 0.850310
O O7 0.686776 0.000000 0.814629
O O8 0.659123 0.500000 0.500000
O O9 0.500000 0.256316 0.500000
O O10 0.736239 0.256505 0.551756
O O11 0.149320 0.500000 0.408153
O O12 0.000000 0.255743 0.416236
O O13 0.762790 0.240334 0.051357
O O14 0.000000 0.230163 0.000000
O O15 0.823749 0.000000 0.000000
O O16 0.500000 0.721821 0.919514
O O17 0.685399 0.500000 0.913923
#
# Coordination Sequence:
#
# PCOD8199515 Si02
#       6
#     8   8   4   8   4   8
#     4   9  18  32  50  73 100 132 171 212 255 304
#     4  10  21  36  54  77 104 135 171 210 255 307
#     4   9  15  21  33  59  92 123 158 201 248 296
#     4   8  14  25  40  59  88 126 163 199 244 299
#     4  11  24  39  56  82 114 145 176 211 254 302
#     4  10  21  38  60  83 106 137 177 216 256 304
#
# _framework density 18.637661000000001
#
# number of rings (size 3 to 8) (size 9 to 14) (size 15 to 20)
#    0.000    2.600    0.000    3.300    0.000    7.600 
#    0.000    2.000    0.000    0.000    0.000    0.700 
#    0.000    5.600    0.000    0.000    0.000    0.000 
#
# Total GULP energy -496007.385077 kJ/mol
# GULP energy per Si atom -12400.184627 kJ/mol
# Density = 1.859524 g / cm^3
# Si number density = 18.637661 Si / 1000 Ang^3
#
#
#
# Elastic Constant Matrix: (Units=GPa)
#
#
# Indices 1 2 3 4 5 6 
#
# 1 102.7393 33.3868 83.2696 0.0000 0.0000 0.0000
# 2 33.3868 44.1178 31.9807 0.0000 0.0000 0.0000
# 3 83.2696 31.9807 144.8026 0.0000 0.0000 0.0000
# 4 0.0000 0.0000 0.0000 -8.2282 0.0000 0.0000
# 5 0.0000 0.0000 0.0000 0.0000 39.9112 0.0000
# 6 0.0000 0.0000 0.0000 0.0000 0.0000 23.8872
#
#
#
# Elastic Compliance Matrix: (Units=1/GPa)
#
#
# Indices 1 2 3 4 5 6 
#
# 1 0.020498 -0.008295 -0.009955 0.000000 0.000000 0.000000
# 2 -0.008295 0.030344 -0.001931 0.000000 0.000000 0.000000
# 3 -0.009955 -0.001931 0.013057 0.000000 0.000000 0.000000
# 4 0.000000 0.000000 0.000000 -0.121533 0.000000 0.000000
# 5 0.000000 0.000000 0.000000 0.000000 0.025056 0.000000
# 6 0.000000 0.000000 0.000000 0.000000 0.000000 0.041864
#
#
# Mechanical properties :
#
#
# Convention : Reuss Voigt Hill
#
# Bulk Modulus (GPa) = 42.48955 65.43711 53.96333
# Shear Modulus (GPa) = 86.96340 20.64887 53.80613
#
# Velocity S-wave (km/s) = 6.83823 3.33214 5.37887
# Velocity P-wave (km/s) = 9.23015 7.07040 8.22150
#
# Compressibility (1/GPa) = 0.02353520
#
# Stress axis : x y z
#
# Youngs Moduli (GPa) = 48.78573 32.95506 76.58514
#
# Poissons Ratio (x) = 0.27338 0.76243
# Poissons Ratio (y) = 0.40470 0.14792
# Poissons Ratio (z) = 0.48568 0.06365
#
# Static dielectric constant tensor:
#      x y z
#    x 3.503630 0.000000 0.000000 
#    y 0.000000 3.127670 0.000000 
#    z 0.000000 0.000000 3.601570 
# 
# 
# High freq. dielectric constant tensor:
#      x y z
#    x 1.720330 0.000000 0.000000 
#    y 0.000000 1.693250 0.000000 
#    z 0.000000 0.000000 1.737180 
# 
# From -- ./inp_files/1781.got.cif
#   From: 2010.03.12/outbox.cif.g09.slc.cpg/sg47_1_cif.got.tgz:1781.got - 2010.04.14 03:12:58.
