data_PCOD8199839
_publ_section_title
;
Structure prediction by ZEFSAII (Michael W. Deem and Ramdas Pophale) SiO2 
 PCOD8199839
Probable space group: P M M M
;
_chemical_formula_sum "Si O2"
_cell_formula_units_Z 64
_cell_length_a 9.035531
_cell_length_b 18.479580
_cell_length_c 19.979479
_cell_angle_alpha 90.000000
_cell_angle_beta 90.000000
_cell_angle_gamma 90.000000
_cell_volume 3336.029910
_symmetry_space_group_name_H-M "P M M M"
_symmetry_group_IT_number 47
_symmetry_cell_setting 'orthorhombic'
loop_
_space_group_symop_operation_xyz
x,y,z
-x,-y,z
x,-y,-z
-x,y,-z
-x,-y,-z
x,y,-z
-x,y,z
x,-y,z
loop_
_atom_site_type_symbol
_atom_site_label
_atom_site_fract_x
_atom_site_fract_y
_atom_site_fract_z
Si Si1 0.826760 0.337325 0.692545
Si Si2 0.172091 0.083846 0.182178
Si Si3 0.672102 0.823414 0.077468
Si Si4 0.827302 0.675676 0.077703
Si Si5 0.172588 0.169789 0.688170
Si Si6 0.671992 0.415380 0.814597
Si Si7 0.670006 0.583627 0.577259
Si Si8 0.674115 0.081258 0.423914
O O1 0.786837 0.253251 0.697061
O O2 0.736419 0.377578 0.749484
O O3 0.778577 0.366899 0.620403
O O4 0.000000 0.351241 0.703200
O O5 0.265040 0.108753 0.118031
O O6 0.230079 0.127173 0.246752
O O7 0.000000 0.099401 0.168311
O O8 0.203502 0.000000 0.194926
O O9 0.500000 0.812624 0.092456
O O10 0.756067 0.751144 0.100832
O O11 0.702767 0.839813 0.000000
O O12 0.754586 0.610814 0.118746
O O13 0.000000 0.679762 0.094166
O O14 0.796043 0.660212 0.000000
O O15 0.250232 0.140242 0.622324
O O16 0.000000 0.157021 0.678486
O O17 0.500000 0.396340 0.821019
O O18 0.699746 0.500000 0.807132
O O19 0.700966 0.601552 0.500000
O O20 0.500000 0.600868 0.595577
O O21 0.704383 0.500000 0.592473
O O22 0.720848 0.098102 0.500000
O O23 0.500000 0.088101 0.415351
O O24 0.725533 0.000000 0.404373
#
# Coordination Sequence:
#
# PCOD8199839 Si02
#       8
#     8   8   8   8   8   8   8   8
#     4  11  23  37  56  83 114 147 185 232 281 330
#     4  10  21  37  57  80 108 145 189 235 281 331
#     4  10  21  37  58  84 114 148 185 226 275 332
#     4  10  21  38  61  87 115 148 186 228 274 327
#     4  10  22  38  55  79 110 143 182 226 271 323
#     4  11  24  40  59  84 114 148 187 231 277 329
#     4   9  19  37  59  81 108 145 187 229 276 333
#     4   9  19  36  57  82 111 142 179 223 270 323
#
# _framework density 19.184480000000001
#
# number of rings (size 3 to 8) (size 9 to 14) (size 15 to 20)
#    0.000    2.000    0.000    3.750    0.000    9.250 
#    0.000    6.250    0.000    0.000    0.000    0.000 
#    0.000    0.000    0.000    0.000    0.000    0.000 
#
# Total GULP energy -793941.526839 kJ/mol
# GULP energy per Si atom -12405.336357 kJ/mol
# Density = 1.914082 g / cm^3
# Si number density = 19.184480 Si / 1000 Ang^3
#
#
#
# Elastic Constant Matrix: (Units=GPa)
#
#
# Indices 1 2 3 4 5 6 
#
# 1 86.5728 65.0176 57.8435 0.0000 0.0000 0.0000
# 2 65.0176 118.1196 70.8273 0.0000 0.0000 0.0000
# 3 57.8435 70.8273 110.4011 0.0000 0.0000 0.0000
# 4 0.0000 0.0000 0.0000 40.9374 0.0000 0.0000
# 5 0.0000 0.0000 0.0000 0.0000 35.0628 0.0000
# 6 0.0000 0.0000 0.0000 0.0000 0.0000 35.2777
#
#
#
# Elastic Compliance Matrix: (Units=1/GPa)
#
#
# Indices 1 2 3 4 5 6 
#
# 1 0.021954 -0.008430 -0.006094 0.000000 0.000000 0.000000
# 2 -0.008430 0.016996 -0.006487 0.000000 0.000000 0.000000
# 3 -0.006094 -0.006487 0.016413 0.000000 0.000000 0.000000
# 4 0.000000 0.000000 0.000000 0.024428 0.000000 0.000000
# 5 0.000000 0.000000 0.000000 0.000000 0.028520 0.000000
# 6 0.000000 0.000000 0.000000 0.000000 0.000000 0.028347
#
#
# Mechanical properties :
#
#
# Convention : Reuss Voigt Hill
#
# Bulk Modulus (GPa) = 74.96210 78.05226 76.50718
# Shear Modulus (GPa) = 27.30366 30.34923 28.82645
#
# Velocity S-wave (km/s) = 3.77665 3.98171 3.88053
# Velocity P-wave (km/s) = 7.62736 7.86843 7.74883
#
# Compressibility (1/GPa) = 0.01334007
#
# Stress axis : x y z
#
# Youngs Moduli (GPa) = 45.54987 58.83788 60.92917
#
# Poissons Ratio (x) = 0.49601 0.37132
# Poissons Ratio (y) = 0.38399 0.39523
# Poissons Ratio (z) = 0.27759 0.38167
#
# Static dielectric constant tensor:
#      x y z
#    x 3.497300 0.000000 0.000000 
#    y 0.000000 3.532610 0.000000 
#    z 0.000000 0.000000 3.574660 
# 
# 
# High freq. dielectric constant tensor:
#      x y z
#    x 1.748420 0.000000 0.000000 
#    y 0.000000 1.749430 0.000000 
#    z 0.000000 0.000000 1.756830 
# 
# From -- ./inp_files/10053.got.cif
#   From: 2010.03.12/outbox.cif.g09.slc.cpg/sg47_6_cif.got.tgz:10053.got - 2010.04.14 03:12:58.
