data_PCOD8199543
_publ_section_title
;
Structure prediction by ZEFSAII (Michael W. Deem and Ramdas Pophale) SiO2 
 PCOD8199543
Probable space group: P M M M
;
_chemical_formula_sum "Si O2"
_cell_formula_units_Z 44
_cell_length_a 9.450486
_cell_length_b 27.957257
_cell_length_c 9.068403
_cell_angle_alpha 90.000000
_cell_angle_beta 90.000000
_cell_angle_gamma 90.000000
_cell_volume 2395.959727
_symmetry_space_group_name_H-M "P M M M"
_symmetry_group_IT_number 47
_symmetry_cell_setting 'orthorhombic'
loop_
_space_group_symop_operation_xyz
x,y,z
-x,-y,z
x,-y,-z
-x,y,-z
-x,-y,-z
x,y,-z
-x,y,z
x,-y,z
loop_
_atom_site_type_symbol
_atom_site_label
_atom_site_fract_x
_atom_site_fract_y
_atom_site_fract_z
Si Si1 0.836583 0.090377 0.671583
Si Si2 0.835558 0.812251 0.171560
Si Si3 0.663817 0.633434 0.170631
Si Si4 0.660111 0.000000 0.324664
Si Si5 0.835706 0.554976 0.667809
Si Si6 0.665587 0.729402 0.328729
O O1 0.807609 0.100641 0.500000
O O2 0.790770 0.136859 0.762142
O O3 0.741564 0.046948 0.732544
O O4 0.000000 0.076925 0.698726
O O5 0.746770 0.771840 0.250744
O O6 0.000000 0.802149 0.201356
O O7 0.798641 0.812239 0.000000
O O8 0.500000 0.623573 0.202551
O O9 0.747765 0.586826 0.220109
O O10 0.717718 0.679327 0.260986
O O11 0.693580 0.643529 0.000000
O O12 0.500000 0.000000 0.263216
O O13 0.661906 0.000000 0.500000
O O14 0.790104 0.566164 0.500000
O O15 0.803651 0.500000 0.706008
O O16 0.000000 0.566397 0.689735
O O17 0.703864 0.729353 0.500000
O O18 0.500000 0.736843 0.299850
#
# Coordination Sequence:
#
# PCOD8199543 Si02
#       6
#     8   8   8   4   8   8
#     4   9  17  31  51  73  99 133 171 210 254 303
#     4  10  21  36  54  78 107 138 173 213 259 311
#     4  10  21  36  54  78 108 140 174 213 259 312
#     4   9  17  29  48  75 102 128 166 215 258 299
#     4   9  19  36  56  78 105 138 177 219 261 306
#     4  10  21  37  57  79 103 135 175 216 259 308
#
# _framework density 18.364246999999999
#
# number of rings (size 3 to 8) (size 9 to 14) (size 15 to 20)
#    0.000    2.455    0.000    2.455    0.000    6.909 
#    0.000    5.000    0.000    2.727    0.000    0.000 
#    0.000    0.000    0.000    0.000    0.000    0.000 
#
# Total GULP energy -545747.588540 kJ/mol
# GULP energy per Si atom -12403.354285 kJ/mol
# Density = 1.832245 g / cm^3
# Si number density = 18.364247 Si / 1000 Ang^3
#
#
#
# Elastic Constant Matrix: (Units=GPa)
#
#
# Indices 1 2 3 4 5 6 
#
# 1 72.6513 74.0117 48.6031 0.0000 0.0000 0.0000
# 2 74.0117 151.8573 74.8430 0.0000 0.0000 0.0000
# 3 48.6031 74.8430 96.7551 0.0000 0.0000 0.0000
# 4 0.0000 0.0000 0.0000 -10.8461 0.0000 0.0000
# 5 0.0000 0.0000 0.0000 0.0000 27.9339 0.0000
# 6 0.0000 0.0000 0.0000 0.0000 0.0000 48.4715
#
#
#
# Elastic Compliance Matrix: (Units=1/GPa)
#
#
# Indices 1 2 3 4 5 6 
#
# 1 0.029305 -0.011357 -0.005936 0.000000 0.000000 0.000000
# 2 -0.011357 0.015044 -0.005932 0.000000 0.000000 0.000000
# 3 -0.005936 -0.005932 0.017906 0.000000 0.000000 0.000000
# 4 0.000000 0.000000 0.000000 -0.092199 0.000000 0.000000
# 5 0.000000 0.000000 0.000000 0.000000 0.035799 0.000000
# 6 0.000000 0.000000 0.000000 0.000000 0.000000 0.020631
#
#
# Mechanical properties :
#
#
# Convention : Reuss Voigt Hill
#
# Bulk Modulus (GPa) = 63.27095 79.57548 71.42322
# Shear Modulus (GPa) = 63.93609 21.36558 42.65084
#
# Velocity S-wave (km/s) = 5.90687 3.41461 4.82445
# Velocity P-wave (km/s) = 9.00276 7.67932 8.36724
#
# Compressibility (1/GPa) = 0.01580504
#
# Stress axis : x y z
#
# Youngs Moduli (GPa) = 34.12352 66.47215 55.84865
#
# Poissons Ratio (x) = 0.75494 0.33150
# Poissons Ratio (y) = 0.38755 0.33128
# Poissons Ratio (z) = 0.20255 0.39430
#
# Static dielectric constant tensor:
#      x y z
#    x 3.347060 0.000000 0.000000 
#    y 0.000000 3.489180 0.000000 
#    z 0.000000 0.000000 3.341840 
# 
# 
# High freq. dielectric constant tensor:
#      x y z
#    x 1.706710 0.000000 0.000000 
#    y 0.000000 1.723150 0.000000 
#    z 0.000000 0.000000 1.708290 
# 
# From -- ./inp_files/2193.got.cif
#   From: 2010.03.12/outbox.cif.g09.slc.cpg/sg47_2_cif.got.tgz:2193.got - 2010.04.14 03:12:58.
