data_PCOD8199768
_publ_section_title
;
Structure prediction by ZEFSAII (Michael W. Deem and Ramdas Pophale) SiO2 
 PCOD8199768
Probable space group: P M M M
;
_chemical_formula_sum "Si O2"
_cell_formula_units_Z 48
_cell_length_a 17.763142
_cell_length_b 8.463218
_cell_length_c 14.875463
_cell_angle_alpha 90.000000
_cell_angle_beta 90.000000
_cell_angle_gamma 90.000000
_cell_volume 2236.278083
_symmetry_space_group_name_H-M "P M M M"
_symmetry_group_IT_number 47
_symmetry_cell_setting 'orthorhombic'
loop_
_space_group_symop_operation_xyz
x,y,z
-x,-y,z
x,-y,-z
-x,y,-z
-x,-y,-z
x,y,-z
-x,y,z
x,-y,z
loop_
_atom_site_type_symbol
_atom_site_label
_atom_site_fract_x
_atom_site_fract_y
_atom_site_fract_z
Si Si1 0.583022 0.317155 0.161025
Si Si2 0.000000 0.188037 0.897958
Si Si3 0.261637 0.685556 0.901329
Si Si4 0.347381 0.181184 0.334240
Si Si5 0.862812 0.815035 0.776720
Si Si6 0.190606 0.315133 0.396870
Si Si7 0.415241 0.672277 0.500000
O O1 0.500000 0.234113 0.146802
O O2 0.569139 0.500000 0.145257
O O3 0.650354 0.258488 0.095474
O O4 0.617630 0.292285 0.258921
O O5 0.927098 0.250263 0.843808
O O6 0.000000 0.000000 0.902519
O O7 0.000000 0.256904 0.000000
O O8 0.256240 0.500000 0.878751
O O9 0.217487 0.779171 0.823729
O O10 0.227444 0.723046 0.000000
O O11 0.263043 0.221353 0.363458
O O12 0.399443 0.214500 0.417810
O O13 0.351676 0.000000 0.303319
O O14 0.871939 0.732523 0.678235
O O15 0.871676 0.000000 0.761372
O O16 0.168355 0.266091 0.500000
O O17 0.205983 0.500000 0.392953
O O18 0.370592 0.500000 0.500000
O O19 0.500000 0.621923 0.500000
#
# Coordination Sequence:
#
# PCOD8199768 Si02
#       7
#     8   4   8   8   8   8   4
#     4  10  21  37  56  78 113 161 206 251 309 372
#     4   9  20  40  66  99 136 170 201 239 298 367
#     4  10  21  37  59  87 120 160 207 256 307 368
#     4  12  23  35  55  82 112 150 201 260 314 364
#     4  11  22  39  66  96 127 163 203 251 304 362
#     4  11  23  40  63  88 121 163 204 249 305 371
#     4  11  23  37  53  75 109 154 201 252 315 377
#
# _framework density 21.464236
#
# number of rings (size 3 to 8) (size 9 to 14) (size 15 to 20)
#    0.000    1.333    2.500    3.750    0.000    5.333 
#    0.000    3.750    0.000    5.500    0.000    2.333 
#    0.000    0.000    0.000    0.000    0.000    0.000 
#
# Total GULP energy -594771.340497 kJ/mol
# GULP energy per Si atom -12391.069594 kJ/mol
# Density = 2.141538 g / cm^3
# Si number density = 21.464236 Si / 1000 Ang^3
#
#
#
# Elastic Constant Matrix: (Units=GPa)
#
#
# Indices 1 2 3 4 5 6 
#
# 1 104.3985 14.8742 44.0429 0.0000 0.0000 0.0000
# 2 14.8742 42.9498 16.5133 0.0000 0.0000 0.0000
# 3 44.0429 16.5133 147.3049 0.0000 0.0000 0.0000
# 4 0.0000 0.0000 0.0000 24.3480 0.0000 0.0000
# 5 0.0000 0.0000 0.0000 0.0000 36.3053 0.0000
# 6 0.0000 0.0000 0.0000 0.0000 0.0000 29.2537
#
#
#
# Elastic Compliance Matrix: (Units=1/GPa)
#
#
# Indices 1 2 3 4 5 6 
#
# 1 0.011258 -0.002722 -0.003061 0.000000 0.000000 0.000000
# 2 -0.002722 0.024990 -0.001988 0.000000 0.000000 0.000000
# 3 -0.003061 -0.001988 0.007927 0.000000 0.000000 0.000000
# 4 0.000000 0.000000 0.000000 0.041071 0.000000 0.000000
# 5 0.000000 0.000000 0.000000 0.000000 0.027544 0.000000
# 6 0.000000 0.000000 0.000000 0.000000 0.000000 0.034184
#
#
# Mechanical properties :
#
#
# Convention : Reuss Voigt Hill
#
# Bulk Modulus (GPa) = 34.92414 49.50157 42.21285
# Shear Modulus (GPa) = 29.05990 32.59627 30.82808
#
# Velocity S-wave (km/s) = 3.68350 3.90119 3.79390
# Velocity P-wave (km/s) = 5.86490 6.58823 6.23706
#
# Compressibility (1/GPa) = 0.02863349
#
# Stress axis : x y z
#
# Youngs Moduli (GPa) = 88.82752 40.01628 126.15719
#
# Poissons Ratio (x) = 0.10892 0.38615
# Poissons Ratio (y) = 0.24178 0.25075
# Poissons Ratio (z) = 0.27189 0.07954
#
# Static dielectric constant tensor:
#      x y z
#    x 4.051840 0.000000 0.000000 
#    y 0.000000 3.667050 0.000000 
#    z 0.000000 0.000000 4.332350 
# 
# 
# High freq. dielectric constant tensor:
#      x y z
#    x 1.829810 0.000000 0.000000 
#    y 0.000000 1.821180 0.000000 
#    z 0.000000 0.000000 1.857050 
# 
# From -- ./inp_files/6525.got.cif
#   From: 2010.03.12/outbox.cif.g09.slc.cpg/sg47_4_cif.got.tgz:6525.got - 2010.04.14 03:12:58.
