data_PCOD8199775
_publ_section_title
;
Structure prediction by ZEFSAII (Michael W. Deem and Ramdas Pophale) SiO2 
 PCOD8199775
Probable space group: P M M M
;
_chemical_formula_sum "Si O2"
_cell_formula_units_Z 64
_cell_length_a 9.121865
_cell_length_b 25.809061
_cell_length_c 14.400544
_cell_angle_alpha 90.000000
_cell_angle_beta 90.000000
_cell_angle_gamma 90.000000
_cell_volume 3390.273563
_symmetry_space_group_name_H-M "P M M M"
_symmetry_group_IT_number 47
_symmetry_cell_setting 'orthorhombic'
loop_
_space_group_symop_operation_xyz
x,y,z
-x,-y,z
x,-y,-z
-x,y,-z
-x,-y,-z
x,y,-z
-x,y,z
x,-y,z
loop_
_atom_site_type_symbol
_atom_site_label
_atom_site_fract_x
_atom_site_fract_y
_atom_site_fract_z
Si Si1 0.832909 0.940762 0.108168
Si Si2 0.670860 0.349854 0.108446
Si Si3 0.830730 0.558060 0.790611
Si Si4 0.326912 0.815096 0.398796
Si Si5 0.170807 0.245842 0.109423
Si Si6 0.672501 0.850618 0.795381
Si Si7 0.831373 0.395558 0.602883
Si Si8 0.339551 0.297634 0.390816
O O1 0.721263 0.905447 0.164433
O O2 0.000000 0.925210 0.131638
O O3 0.803223 0.000000 0.136686
O O4 0.802625 0.932584 0.000000
O O5 0.500000 0.343523 0.129806
O O6 0.729060 0.401604 0.156600
O O7 0.752580 0.298396 0.146604
O O8 0.703195 0.356052 0.000000
O O9 0.790298 0.500000 0.823335
O O10 0.804291 0.559793 0.678816
O O11 0.000000 0.570852 0.813468
O O12 0.264074 0.833789 0.500000
O O13 0.500000 0.808242 0.409258
O O14 0.287794 0.853678 0.314875
O O15 0.265014 0.758212 0.370409
O O16 0.242905 0.196206 0.156839
O O17 0.000000 0.248030 0.134982
O O18 0.195829 0.239734 0.000000
O O19 0.500000 0.842712 0.811639
O O20 0.769439 0.411400 0.500000
O O21 0.758737 0.344166 0.647309
O O22 0.000000 0.382070 0.592072
O O23 0.354864 0.304399 0.500000
O O24 0.500000 0.301885 0.343390
#
# Coordination Sequence:
#
# PCOD8199775 Si02
#       8
#     8   8   8   8   8   8   8   8
#     4   9  19  37  58  78 106 148 192 229 271 327
#     4  10  22  40  60  80 103 132 170 220 272 317
#     4  10  22  38  55  77 104 136 174 213 259 321
#     4   8  16  31  48  70 105 146 182 215 258 313
#     4  10  21  37  56  79 111 147 176 206 257 327
#     4  11  21  31  52  86 116 144 182 228 272 312
#     4   9  18  32  50  74 103 133 168 212 258 305
#     4   8  14  27  47  68  92 128 171 209 250 304
#
# _framework density 18.877534000000001
#
# number of rings (size 3 to 8) (size 9 to 14) (size 15 to 20)
#    0.000    2.625    0.000    2.625    1.750    4.750 
#    0.000    3.750    0.000    2.625    0.000    5.250 
#    0.000    0.000    0.000    0.000    0.000    0.000 
#
# Total GULP energy -793246.799161 kJ/mol
# GULP energy per Si atom -12394.481237 kJ/mol
# Density = 1.883457 g / cm^3
# Si number density = 18.877534 Si / 1000 Ang^3
#
#
#
# Elastic Constant Matrix: (Units=GPa)
#
#
# Indices 1 2 3 4 5 6 
#
# 1 80.9675 48.9008 42.2257 0.0000 0.0000 0.0000
# 2 48.9008 108.1516 53.3375 0.0000 0.0000 0.0000
# 3 42.2257 53.3375 68.5538 0.0000 0.0000 0.0000
# 4 0.0000 0.0000 0.0000 28.4892 0.0000 0.0000
# 5 0.0000 0.0000 0.0000 0.0000 18.8061 0.0000
# 6 0.0000 0.0000 0.0000 0.0000 0.0000 24.3665
#
#
#
# Elastic Compliance Matrix: (Units=1/GPa)
#
#
# Indices 1 2 3 4 5 6 
#
# 1 0.019571 -0.004712 -0.008389 0.000000 0.000000 0.000000
# 2 -0.004712 0.016138 -0.009653 0.000000 0.000000 0.000000
# 3 -0.008389 -0.009653 0.027265 0.000000 0.000000 0.000000
# 4 0.000000 0.000000 0.000000 0.035101 0.000000 0.000000
# 5 0.000000 0.000000 0.000000 0.000000 0.053174 0.000000
# 6 0.000000 0.000000 0.000000 0.000000 0.000000 0.041040
#
#
# Mechanical properties :
#
#
# Convention : Reuss Voigt Hill
#
# Bulk Modulus (GPa) = 57.25590 60.73344 58.99467
# Shear Modulus (GPa) = 20.52384 21.87961 21.20172
#
# Velocity S-wave (km/s) = 3.30086 3.40815 3.35493
# Velocity P-wave (km/s) = 6.70251 6.90865 6.80636
#
# Compressibility (1/GPa) = 0.01746545
#
# Stress axis : x y z
#
# Youngs Moduli (GPa) = 51.09495 61.96713 36.67732
#
# Poissons Ratio (x) = 0.29199 0.30768
# Poissons Ratio (y) = 0.24076 0.35406
# Poissons Ratio (z) = 0.42863 0.59819
#
# Static dielectric constant tensor:
#      x y z
#    x 3.457050 0.000000 0.000000 
#    y 0.000000 3.380930 0.000000 
#    z 0.000000 0.000000 3.607490 
# 
# 
# High freq. dielectric constant tensor:
#      x y z
#    x 1.720120 0.000000 0.000000 
#    y 0.000000 1.718580 0.000000 
#    z 0.000000 0.000000 1.736580 
# 
# From -- ./inp_files/21922.got.cif
#   From: 2010.03.12/outbox.cif.g09.slc.cpg/sg47_11_cif.got.tgz:21922.got - 2010.04.14 03:12:58.
