data_PCOD8199864
_publ_section_title
;
Structure prediction by ZEFSAII (Michael W. Deem and Ramdas Pophale) SiO2 
 PCOD8199864
Probable space group: P M M M
;
_chemical_formula_sum "Si O2"
_cell_formula_units_Z 56
_cell_length_a 8.755294
_cell_length_b 21.152968
_cell_length_c 15.146429
_cell_angle_alpha 90.000000
_cell_angle_beta 90.000000
_cell_angle_gamma 90.000000
_cell_volume 2805.125524
_symmetry_space_group_name_H-M "P M M M"
_symmetry_group_IT_number 47
_symmetry_cell_setting 'orthorhombic'
loop_
_space_group_symop_operation_xyz
x,y,z
-x,-y,z
x,-y,-z
-x,y,-z
-x,-y,-z
x,y,-z
-x,y,z
x,-y,z
loop_
_atom_site_type_symbol
_atom_site_label
_atom_site_fract_x
_atom_site_fract_y
_atom_site_fract_z
Si Si1 0.322471 0.736560 0.599363
Si Si2 0.818994 0.000000 0.598345
Si Si3 0.329425 0.118427 0.831554
Si Si4 0.328558 0.245780 0.903321
Si Si5 0.680222 0.427824 0.100209
Si Si6 0.177351 0.000000 0.904512
Si Si7 0.821720 0.327892 0.767438
Si Si8 0.182099 0.138268 0.341780
O O1 0.302370 0.708123 0.500000
O O2 0.500000 0.745905 0.622666
O O3 0.252124 0.687574 0.671406
O O4 0.241946 0.805883 0.595145
O O5 0.758806 0.933671 0.638784
O O6 0.757176 0.000000 0.500000
O O7 0.000000 0.000000 0.603366
O O8 0.500000 0.093197 0.813509
O O9 0.327191 0.169560 0.909806
O O10 0.258769 0.156540 0.750164
O O11 0.219898 0.060631 0.849603
O O12 0.500000 0.268841 0.876812
O O13 0.206635 0.269011 0.832260
O O14 0.286158 0.272242 0.000000
O O15 0.500000 0.420042 0.108193
O O16 0.730135 0.500000 0.115256
O O17 0.754929 0.388251 0.180101
O O18 0.730630 0.406896 0.000000
O O19 0.000000 0.000000 0.918860
O O20 0.261059 0.000000 0.000000
O O21 0.000000 0.337929 0.751262
O O22 0.000000 0.140569 0.340742
#
# Coordination Sequence:
#
# PCOD8199864 Si02
#       8
#     8   4   8   8   8   4   8   8
#     4  11  24  42  63  86 116 158 208 259 309 364
#     4   9  19  34  52  76 106 139 176 226 295 371
#     4  11  22  37  57  78 105 145 192 239 293 358
#     4  10  21  37  57  81 113 154 197 241 289 347
#     4   9  19  38  65  96 132 175 215 247 285 340
#     4  11  24  39  54  74 104 143 190 246 303 360
#     4  12  24  37  59  91 126 163 200 246 304 355
#     4  11  21  36  59  85 112 145 189 244 310 373
#
# _framework density 19.963456000000001
#
# number of rings (size 3 to 8) (size 9 to 14) (size 15 to 20)
#    0.000    1.429    1.429    4.929    0.000    6.571 
#    0.000    1.786    0.000    3.000    0.000    3.000 
#    0.000    0.000    0.000    0.000    0.000    0.000 
#
# Total GULP energy -693863.158171 kJ/mol
# GULP energy per Si atom -12390.413539 kJ/mol
# Density = 1.991802 g / cm^3
# Si number density = 19.963456 Si / 1000 Ang^3
#
#
#
# Elastic Constant Matrix: (Units=GPa)
#
#
# Indices 1 2 3 4 5 6 
#
# 1 99.5783 34.8575 44.9633 0.0000 0.0000 0.0000
# 2 34.8575 115.8190 47.0665 0.0000 0.0000 0.0000
# 3 44.9633 47.0665 125.1455 0.0000 0.0000 0.0000
# 4 0.0000 0.0000 0.0000 3.1516 0.0000 0.0000
# 5 0.0000 0.0000 0.0000 0.0000 22.6244 0.0000
# 6 0.0000 0.0000 0.0000 0.0000 0.0000 41.6130
#
#
#
# Elastic Compliance Matrix: (Units=1/GPa)
#
#
# Indices 1 2 3 4 5 6 
#
# 1 0.012478 -0.002282 -0.003625 0.000000 0.000000 0.000000
# 2 -0.002282 0.010609 -0.003170 0.000000 0.000000 0.000000
# 3 -0.003625 -0.003170 0.010485 0.000000 0.000000 0.000000
# 4 0.000000 0.000000 0.000000 0.317295 0.000000 0.000000
# 5 0.000000 0.000000 0.000000 0.000000 0.044200 0.000000
# 6 0.000000 0.000000 0.000000 0.000000 0.000000 0.024031
#
#
# Mechanical properties :
#
#
# Convention : Reuss Voigt Hill
#
# Bulk Modulus (GPa) = 64.85883 66.03526 65.44705
# Shear Modulus (GPa) = 11.30217 27.72152 19.51184
#
# Velocity S-wave (km/s) = 2.38196 3.73045 3.12970
# Velocity P-wave (km/s) = 6.33437 7.19061 6.77603
#
# Compressibility (1/GPa) = 0.01541810
#
# Stress axis : x y z
#
# Youngs Moduli (GPa) = 80.14080 94.25658 95.37163
#
# Poissons Ratio (x) = 0.21513 0.34570
# Poissons Ratio (y) = 0.18291 0.30233
# Poissons Ratio (z) = 0.29050 0.29880
#
# Static dielectric constant tensor:
#      x y z
#    x 3.481730 0.000000 0.000000 
#    y 0.000000 3.620820 0.000000 
#    z 0.000000 0.000000 3.861830 
# 
# 
# High freq. dielectric constant tensor:
#      x y z
#    x 1.770300 0.000000 0.000000 
#    y 0.000000 1.770030 0.000000 
#    z 0.000000 0.000000 1.782690 
# 
# From -- ./inp_files/21665.got.cif
#   From: 2010.03.12/outbox.cif.g09.slc.cpg/sg47_11_cif.got.tgz:21665.got - 2010.04.14 03:12:58.
