data_PCOD8199325
_publ_section_title
;
Structure prediction by ZEFSAII (Michael W. Deem and Ramdas Pophale) SiO2 
 PCOD8199325
Probable space group: P M M M
;
_chemical_formula_sum "Si O2"
_cell_formula_units_Z 64
_cell_length_a 14.759774
_cell_length_b 9.489082
_cell_length_c 24.290124
_cell_angle_alpha 90.000000
_cell_angle_beta 90.000000
_cell_angle_gamma 90.000000
_cell_volume 3401.994751
_symmetry_space_group_name_H-M "P M M M"
_symmetry_group_IT_number 47
_symmetry_cell_setting 'orthorhombic'
loop_
_space_group_symop_operation_xyz
x,y,z
-x,-y,z
x,-y,-z
-x,y,-z
-x,-y,-z
x,y,-z
-x,y,z
x,-y,z
loop_
_atom_site_type_symbol
_atom_site_label
_atom_site_fract_x
_atom_site_fract_y
_atom_site_fract_z
Si Si1 0.392578 0.656135 0.762539
Si Si2 0.737213 0.335622 0.935946
Si Si3 0.892530 0.344253 0.739653
Si Si4 0.607119 0.837326 0.135333
Si Si5 0.102483 0.162953 0.361296
Si Si6 0.100479 0.332722 0.139652
Si Si7 0.604532 0.335449 0.360070
Si Si8 0.735139 0.164288 0.562855
O O1 0.500000 0.649554 0.761188
O O2 0.355028 0.500000 0.777852
O O3 0.358256 0.768008 0.807526
O O4 0.359198 0.700766 0.701588
O O5 0.718358 0.500000 0.923596
O O6 0.652335 0.244398 0.915419
O O7 0.828346 0.280821 0.905916
O O8 0.751049 0.307403 0.000000
O O9 0.851173 0.500000 0.729730
O O10 0.856664 0.243636 0.691518
O O11 0.863899 0.284772 0.799793
O O12 0.000000 0.352127 0.738501
O O13 0.500000 0.820456 0.128396
O O14 0.636572 0.000000 0.135198
O O15 0.164898 0.197272 0.413608
O O16 0.000000 0.211536 0.375638
O O17 0.104746 0.000000 0.345620
O O18 0.092984 0.500000 0.139621
O O19 0.000000 0.269847 0.126779
O O20 0.500000 0.291648 0.365951
O O21 0.617439 0.500000 0.372104
O O22 0.659315 0.247858 0.404438
O O23 0.734368 0.215205 0.500000
O O24 0.712265 0.000000 0.568018
#
# Coordination Sequence:
#
# PCOD8199325 Si02
#       8
#     8   8   8   8   8   8   8   8
#     4   8  15  31  55  80 104 129 161 204 254 308
#     4  10  21  35  52  76 103 134 176 219 255 296
#     4   8  14  27  49  75 101 129 161 199 249 308
#     4  10  21  36  54  76 103 136 171 209 256 307
#     4   9  18  33  52  73  99 131 167 210 256 300
#     4   8  15  30  52  77 104 132 163 203 251 302
#     4   9  19  36  57  80 105 134 167 205 253 307
#     4  10  22  37  51  72 102 136 177 219 256 298
#
# _framework density 18.812491999999999
#
# number of rings (size 3 to 8) (size 9 to 14) (size 15 to 20)
#    0.000    3.000    0.000    1.875    0.000    4.500 
#    0.000   10.625    0.000    1.125    0.000    3.500 
#    0.000    0.000    0.000    0.000    0.000    0.000 
#
# Total GULP energy -793398.541091 kJ/mol
# GULP energy per Si atom -12396.852205 kJ/mol
# Density = 1.876967 g / cm^3
# Si number density = 18.812492 Si / 1000 Ang^3
#
#
#
# Elastic Constant Matrix: (Units=GPa)
#
#
# Indices 1 2 3 4 5 6 
#
# 1 57.9193 37.5367 37.1929 0.0000 0.0000 0.0000
# 2 37.5367 72.4610 60.0227 0.0000 0.0000 0.0000
# 3 37.1929 60.0227 133.2390 0.0000 0.0000 0.0000
# 4 0.0000 0.0000 0.0000 -39.6341 0.0000 0.0000
# 5 0.0000 0.0000 0.0000 0.0000 30.6126 0.0000
# 6 0.0000 0.0000 0.0000 0.0000 0.0000 18.8282
#
#
#
# Elastic Compliance Matrix: (Units=1/GPa)
#
#
# Indices 1 2 3 4 5 6 
#
# 1 0.026296 -0.012031 -0.001920 0.000000 0.000000 0.000000
# 2 -0.012031 0.027521 -0.009039 0.000000 0.000000 0.000000
# 3 -0.001920 -0.009039 0.012114 0.000000 0.000000 0.000000
# 4 0.000000 0.000000 0.000000 -0.025231 0.000000 0.000000
# 5 0.000000 0.000000 0.000000 0.000000 0.032666 0.000000
# 6 0.000000 0.000000 0.000000 0.000000 0.000000 0.053112
#
#
# Mechanical properties :
#
#
# Convention : Reuss Voigt Hill
#
# Bulk Modulus (GPa) = 50.12990 59.23600 54.68295
# Shear Modulus (GPa) = 27.91606 10.55249 19.23427
#
# Velocity S-wave (km/s) = 3.85634 2.37097 3.20100
# Velocity P-wave (km/s) = 6.82154 6.24910 6.54158
#
# Compressibility (1/GPa) = 0.01994817
#
# Stress axis : x y z
#
# Youngs Moduli (GPa) = 38.02886 36.33635 82.55250
#
# Poissons Ratio (x) = 0.43717 0.15854
# Poissons Ratio (y) = 0.45753 0.74622
# Poissons Ratio (z) = 0.07303 0.32846
#
# Static dielectric constant tensor:
#      x y z
#    x 3.477700 0.000000 0.000000 
#    y 0.000000 3.393190 0.000000 
#    z 0.000000 0.000000 3.587450 
# 
# 
# High freq. dielectric constant tensor:
#      x y z
#    x 1.728910 0.000000 0.000000 
#    y 0.000000 1.707020 0.000000 
#    z 0.000000 0.000000 1.730450 
# 
# From -- ./inp_files/7775.got.cif
#   From: 2010.03.12/outbox.cif.g09.slc.cpg/sg47_4_cif.got.tgz:7775.got - 2010.04.14 03:12:58.
