data_PCOD8199542
_publ_section_title
;
Structure prediction by ZEFSAII (Michael W. Deem and Ramdas Pophale) SiO2 
 PCOD8199542
Probable space group: P M M M
;
_chemical_formula_sum "Si O2"
_cell_formula_units_Z 48
_cell_length_a 8.941607
_cell_length_b 9.533545
_cell_length_c 30.736530
_cell_angle_alpha 90.000000
_cell_angle_beta 90.000000
_cell_angle_gamma 90.000000
_cell_volume 2620.142038
_symmetry_space_group_name_H-M "P M M M"
_symmetry_group_IT_number 47
_symmetry_cell_setting 'orthorhombic'
loop_
_space_group_symop_operation_xyz
x,y,z
-x,-y,z
x,-y,-z
-x,y,-z
-x,-y,-z
x,y,-z
-x,y,z
x,-y,z
loop_
_atom_site_type_symbol
_atom_site_label
_atom_site_fract_x
_atom_site_fract_y
_atom_site_fract_z
Si Si1 0.672482 0.339196 0.835021
Si Si2 0.176301 0.660930 0.586557
Si Si3 0.170761 0.165608 0.237536
Si Si4 0.824310 0.338441 0.075304
Si Si5 0.177639 0.155134 0.334509
Si Si6 0.669292 0.666871 0.500000
Si Si7 0.323419 0.837071 0.000000
O O1 0.500000 0.311620 0.846551
O O2 0.700649 0.500000 0.821818
O O3 0.719165 0.243247 0.794984
O O4 0.771378 0.297929 0.876547
O O5 0.222257 0.500000 0.592834
O O6 0.241058 0.741425 0.628625
O O7 0.250020 0.725505 0.543137
O O8 0.000000 0.679559 0.581783
O O9 0.223460 0.207041 0.286323
O O10 0.000000 0.214044 0.229354
O O11 0.185030 0.000000 0.230641
O O12 0.783130 0.500000 0.064523
O O13 0.741616 0.236234 0.042489
O O14 0.000000 0.313026 0.071506
O O15 0.000000 0.149445 0.336632
O O16 0.243124 0.000000 0.343261
O O17 0.681285 0.500000 0.500000
O O18 0.500000 0.720401 0.500000
O O19 0.500000 0.818503 0.000000
O O20 0.276652 0.000000 0.000000
#
# Coordination Sequence:
#
# PCOD8199542 Si02
#       7
#     8   8   8   8   8   4   4
#     4  10  21  36  54  78 107 138 173 213 256 302
#     4   9  16  27  46  70  91 115 153 197 236 279
#     4   9  18  33  53  76 102 134 170 207 251 303
#     4  10  21  38  60  83 106 137 177 217 259 306
#     4   8  15  29  48  70  96 124 156 196 241 289
#     4   9  17  29  44  63  90 122 152 187 236 288
#     4  11  24  39  56  82 114 145 176 211 254 304
#
# _framework density 18.319616
#
# number of rings (size 3 to 8) (size 9 to 14) (size 15 to 20)
#    0.000    2.667    0.000    2.750    0.000    6.333 
#    0.000    2.917    0.000    6.000    0.000    0.000 
#    0.000    0.000    0.000    0.000    0.000    0.000 
#
# Total GULP energy -595188.807892 kJ/mol
# GULP energy per Si atom -12399.766831 kJ/mol
# Density = 1.827792 g / cm^3
# Si number density = 18.319616 Si / 1000 Ang^3
#
#
#
# Elastic Constant Matrix: (Units=GPa)
#
#
# Indices 1 2 3 4 5 6 
#
# 1 57.6072 38.3186 44.7692 0.0000 0.0000 0.0000
# 2 38.3186 77.1257 75.2483 0.0000 0.0000 0.0000
# 3 44.7692 75.2483 152.8555 0.0000 0.0000 0.0000
# 4 0.0000 0.0000 0.0000 -2.5344 0.0000 0.0000
# 5 0.0000 0.0000 0.0000 0.0000 0.7959 0.0000
# 6 0.0000 0.0000 0.0000 0.0000 0.0000 22.8577
#
#
#
# Elastic Compliance Matrix: (Units=1/GPa)
#
#
# Indices 1 2 3 4 5 6 
#
# 1 0.026397 -0.010721 -0.002453 0.000000 0.000000 0.000000
# 2 -0.010721 0.029303 -0.011285 0.000000 0.000000 0.000000
# 3 -0.002453 -0.011285 0.012816 0.000000 0.000000 0.000000
# 4 0.000000 0.000000 0.000000 -0.394567 0.000000 0.000000
# 5 0.000000 0.000000 0.000000 0.000000 1.256374 0.000000
# 6 0.000000 0.000000 0.000000 0.000000 0.000000 0.043749
#
#
# Mechanical properties :
#
#
# Convention : Reuss Voigt Hill
#
# Bulk Modulus (GPa) = 51.02961 67.14008 59.08484
# Shear Modulus (GPa) = 4.85661 12.84066 8.84864
#
# Velocity S-wave (km/s) = 1.62997 2.65037 2.20014
# Velocity P-wave (km/s) = 5.60875 6.78931 6.22707
#
# Compressibility (1/GPa) = 0.01959647
#
# Stress axis : x y z
#
# Youngs Moduli (GPa) = 37.88296 34.12594 78.02547
#
# Poissons Ratio (x) = 0.36587 0.19143
# Poissons Ratio (y) = 0.40615 0.88055
# Poissons Ratio (z) = 0.09294 0.38513
#
# Static dielectric constant tensor:
#      x y z
#    x 3.221920 0.000000 0.000000 
#    y 0.000000 3.356920 0.000000 
#    z 0.000000 0.000000 3.599800 
# 
# 
# High freq. dielectric constant tensor:
#      x y z
#    x 1.695450 0.000000 0.000000 
#    y 0.000000 1.695210 0.000000 
#    z 0.000000 0.000000 1.724270 
# 
# From -- ./inp_files/34044.got.cif
#   From: 2010.03.12/outbox.cif.g09.slc.cpg/sg47_18_cif.got.tgz:34044.got - 2010.04.14 03:12:58.
