data_PCOD8199110
_publ_section_title
;
Structure prediction by ZEFSAII (Michael W. Deem and Ramdas Pophale) SiO2 
 PCOD8199110
Probable space group: P M M M
;
_chemical_formula_sum "Si O2"
_cell_formula_units_Z 64
_cell_length_a 9.287478
_cell_length_b 14.782526
_cell_length_c 26.198980
_cell_angle_alpha 90.000000
_cell_angle_beta 90.000000
_cell_angle_gamma 90.000000
_cell_volume 3596.920449
_symmetry_space_group_name_H-M "P M M M"
_symmetry_group_IT_number 47
_symmetry_cell_setting 'orthorhombic'
loop_
_space_group_symop_operation_xyz
x,y,z
-x,-y,z
x,-y,-z
-x,y,-z
-x,-y,-z
x,y,-z
-x,y,z
x,-y,z
loop_
_atom_site_type_symbol
_atom_site_label
_atom_site_fract_x
_atom_site_fract_y
_atom_site_fract_z
Si Si1 0.666385 0.259020 0.057210
Si Si2 0.328725 0.398250 0.443570
Si Si3 0.831575 0.105206 0.103017
Si Si4 0.328780 0.901043 0.312385
Si Si5 0.670813 0.398569 0.141078
Si Si6 0.671842 0.284827 0.650286
Si Si7 0.341888 0.893954 0.800321
Si Si8 0.670841 0.601587 0.745381
O O1 0.500000 0.237694 0.069302
O O2 0.754741 0.165246 0.060006
O O3 0.731209 0.331665 0.097433
O O4 0.684158 0.298147 0.000000
O O5 0.275750 0.367566 0.500000
O O6 0.500000 0.396200 0.441807
O O7 0.274923 0.500000 0.432053
O O8 0.264066 0.331477 0.400611
O O9 0.768950 0.140287 0.157159
O O10 0.000000 0.123747 0.102646
O O11 0.797090 0.000000 0.092498
O O12 0.500000 0.908138 0.310968
O O13 0.278147 0.820711 0.350123
O O14 0.277539 0.872578 0.255588
O O15 0.265747 0.000000 0.328844
O O16 0.500000 0.402018 0.137348
O O17 0.731642 0.500000 0.131703
O O18 0.717934 0.364596 0.197923
O O19 0.500000 0.291165 0.650263
O O20 0.733822 0.333858 0.700999
O O21 0.500000 0.847397 0.807955
O O22 0.362706 0.000000 0.805628
O O23 0.500000 0.600985 0.742047
O O24 0.728979 0.500000 0.736024
#
# Coordination Sequence:
#
# PCOD8199110 Si02
#       8
#     8   8   8   8   8   8   8   8
#     4  10  21  34  50  72  93 116 148 184 222 267
#     4   8  13  20  28  39  60  94 137 180 215 250
#     4  10  21  35  50  68  91 120 151 184 224 268
#     4   8  14  22  32  51  77 102 130 167 211 254
#     4   8  15  28  45  66  92 115 134 168 221 272
#     4   9  14  18  29  47  68  98 132 169 211 252
#     4   8  14  26  44  64  85 110 141 177 217 262
#     4   8  13  20  31  51  77 100 122 154 203 258
#
# _framework density 17.792998000000001
#
# number of rings (size 3 to 8) (size 9 to 14) (size 15 to 20)
#    0.000    3.375    0.000    2.625    1.750    3.000 
#    0.000    2.500    0.000    0.750    0.000    3.500 
#    0.000    0.000    0.000    0.000    0.000    0.625 
#
# Total GULP energy -792939.848358 kJ/mol
# GULP energy per Si atom -12389.685131 kJ/mol
# Density = 1.775250 g / cm^3
# Si number density = 17.792998 Si / 1000 Ang^3
#
#
#
# Elastic Constant Matrix: (Units=GPa)
#
#
# Indices 1 2 3 4 5 6 
#
# 1 23.3250 16.6513 16.0529 0.0000 0.0000 0.0000
# 2 16.6513 111.1772 82.1616 0.0000 0.0000 0.0000
# 3 16.0529 82.1616 136.6713 0.0000 0.0000 0.0000
# 4 0.0000 0.0000 0.0000 31.2808 0.0000 0.0000
# 5 0.0000 0.0000 0.0000 0.0000 1.5740 0.0000
# 6 0.0000 0.0000 0.0000 0.0000 0.0000 6.6691
#
#
#
# Elastic Compliance Matrix: (Units=1/GPa)
#
#
# Indices 1 2 3 4 5 6 
#
# 1 0.048435 -0.005488 -0.002390 0.000000 0.000000 0.000000
# 2 -0.005488 0.016807 -0.009459 0.000000 0.000000 0.000000
# 3 -0.002390 -0.009459 0.013284 0.000000 0.000000 0.000000
# 4 0.000000 0.000000 0.000000 0.031968 0.000000 0.000000
# 5 0.000000 0.000000 0.000000 0.000000 0.635324 0.000000
# 6 0.000000 0.000000 0.000000 0.000000 0.000000 0.149946
#
#
# Mechanical properties :
#
#
# Convention : Reuss Voigt Hill
#
# Bulk Modulus (GPa) = 22.80396 55.65612 39.23004
# Shear Modulus (GPa) = 5.29069 18.32529 11.80799
#
# Velocity S-wave (km/s) = 1.72625 3.21271 2.57890
# Velocity P-wave (km/s) = 4.10089 6.71638 5.56449
#
# Compressibility (1/GPa) = 0.04385204
#
# Stress axis : x y z
#
# Youngs Moduli (GPa) = 20.64617 59.49873 75.27861
#
# Poissons Ratio (x) = 0.32654 0.17989
# Poissons Ratio (y) = 0.11331 0.71207
# Poissons Ratio (z) = 0.04934 0.56281
#
# Static dielectric constant tensor:
#      x y z
#    x 2.621790 0.000000 0.000000 
#    y 0.000000 3.523590 0.000000 
#    z 0.000000 0.000000 3.534270 
# 
# 
# High freq. dielectric constant tensor:
#      x y z
#    x 1.604040 0.000000 0.000000 
#    y 0.000000 1.691430 0.000000 
#    z 0.000000 0.000000 1.682700 
# 
# From -- ./inp_files/34433.got.cif
#   From: 2010.03.12/outbox.cif.g09.slc.cpg/sg47_18_cif.got.tgz:34433.got - 2010.04.14 03:12:58.
