data_PCOD8199377
_publ_section_title
;
Structure prediction by ZEFSAII (Michael W. Deem and Ramdas Pophale) SiO2 
 PCOD8199377
Probable space group: P M M M
;
_chemical_formula_sum "Si O2"
_cell_formula_units_Z 48
_cell_length_a 15.354137
_cell_length_b 18.378103
_cell_length_c 9.168333
_cell_angle_alpha 90.000000
_cell_angle_beta 90.000000
_cell_angle_gamma 90.000000
_cell_volume 2587.119392
_symmetry_space_group_name_H-M "P M M M"
_symmetry_group_IT_number 47
_symmetry_cell_setting 'orthorhombic'
loop_
_space_group_symop_operation_xyz
x,y,z
-x,-y,z
x,-y,-z
-x,y,-z
-x,-y,-z
x,y,-z
-x,y,z
x,-y,z
loop_
_atom_site_type_symbol
_atom_site_label
_atom_site_fract_x
_atom_site_fract_y
_atom_site_fract_z
Si Si1 0.599930 0.179432 0.830421
Si Si2 0.263076 0.086136 0.666734
Si Si3 0.095844 0.086471 0.164386
Si Si4 0.500000 0.414220 0.664409
Si Si5 0.000000 0.414435 0.657977
Si Si6 0.188468 0.584051 0.326214
Si Si7 0.343340 0.341897 0.171226
O O1 0.500000 0.178326 0.777387
O O2 0.652587 0.118663 0.743970
O O3 0.640488 0.257646 0.796352
O O4 0.606163 0.160526 0.000000
O O5 0.263689 0.110442 0.500000
O O6 0.173260 0.117540 0.735295
O O7 0.268365 0.000000 0.685593
O O8 0.000000 0.113406 0.218861
O O9 0.097336 0.000000 0.168462
O O10 0.112151 0.114200 0.000000
O O11 0.500000 0.500000 0.656976
O O12 0.500000 0.381956 0.500000
O O13 0.584667 0.389541 0.749901
O O14 0.908412 0.394344 0.735264
O O15 0.000000 0.500000 0.632504
O O16 0.000000 0.376049 0.500000
O O17 0.195618 0.596967 0.500000
O O18 0.210654 0.500000 0.290486
O O19 0.250885 0.637247 0.238279
O O20 0.346354 0.359000 0.000000
#
# Coordination Sequence:
#
# PCOD8199377 Si02
#       7
#     8   8   8   4   4   8   8
#     4  10  22  41  59  74  99 140 186 223 264 325
#     4  10  21  35  54  84 115 139 171 221 274 319
#     4   8  14  27  50  79 109 142 177 210 251 308
#     4  11  23  37  55  81 110 141 180 221 263 320
#     4   7  12  26  49  75 105 141 178 217 258 305
#     4   9  17  31  53  81 110 142 182 222 263 316
#     4  11  22  37  55  78 108 141 179 224 272 318
#
# _framework density 18.553452
#
# number of rings (size 3 to 8) (size 9 to 14) (size 15 to 20)
#    0.000    2.500    0.833    3.250    0.000    6.333 
#    0.000    3.750    1.833    1.500    0.000    0.000 
#    0.000    0.000    0.000    0.000    0.000    0.000 
#
# Total GULP energy -594962.441455 kJ/mol
# GULP energy per Si atom -12395.050864 kJ/mol
# Density = 1.851122 g / cm^3
# Si number density = 18.553452 Si / 1000 Ang^3
#
#
#
# Elastic Constant Matrix: (Units=GPa)
#
#
# Indices 1 2 3 4 5 6 
#
# 1 180.2903 42.3385 70.8705 0.0000 0.0000 0.0000
# 2 42.3385 34.3427 33.7565 0.0000 0.0000 0.0000
# 3 70.8705 33.7565 87.4579 0.0000 0.0000 0.0000
# 4 0.0000 0.0000 0.0000 22.9650 0.0000 0.0000
# 5 0.0000 0.0000 0.0000 0.0000 40.7485 0.0000
# 6 0.0000 0.0000 0.0000 0.0000 0.0000 104.0000
#
#
#
# Elastic Compliance Matrix: (Units=1/GPa)
#
#
# Indices 1 2 3 4 5 6 
#
# 1 0.008903 -0.006259 -0.004798 0.000000 0.000000 0.000000
# 2 -0.006259 0.051319 -0.014736 0.000000 0.000000 0.000000
# 3 -0.004798 -0.014736 0.021010 0.000000 0.000000 0.000000
# 4 0.000000 0.000000 0.000000 0.043545 0.000000 0.000000
# 5 0.000000 0.000000 0.000000 0.000000 0.024541 0.000000
# 6 0.000000 0.000000 0.000000 0.000000 0.000000 0.009615
#
#
# Mechanical properties :
#
#
# Convention : Reuss Voigt Hill
#
# Bulk Modulus (GPa) = 33.73243 66.22463 49.97853
# Shear Modulus (GPa) = 22.68606 43.88440 33.28523
#
# Velocity S-wave (km/s) = 3.50056 4.86871 4.24018
# Velocity P-wave (km/s) = 5.87871 8.20836 7.13920
#
# Compressibility (1/GPa) = 0.02964506
#
# Stress axis : x y z
#
# Youngs Moduli (GPa) = 112.32672 19.48613 47.59637
#
# Poissons Ratio (x) = 0.12196 0.22838
# Poissons Ratio (y) = 0.70304 0.70137
# Poissons Ratio (z) = 0.53898 0.28714
#
# Static dielectric constant tensor:
#      x y z
#    x 3.897670 0.000000 0.000000 
#    y 0.000000 3.068970 0.000000 
#    z 0.000000 0.000000 3.407390 
# 
# 
# High freq. dielectric constant tensor:
#      x y z
#    x 1.742540 0.000000 0.000000 
#    y 0.000000 1.685860 0.000000 
#    z 0.000000 0.000000 1.711390 
# 
# From -- ./inp_files/6389.got.cif
#   From: 2010.03.12/outbox.cif.g09.slc.cpg/sg47_4_cif.got.tgz:6389.got - 2010.04.14 03:12:58.
