data_PCOD8199226
_publ_section_title
;
Structure prediction by ZEFSAII (Michael W. Deem and Ramdas Pophale) SiO2 
 PCOD8199226
Probable space group: P M M M
;
_chemical_formula_sum "Si O2"
_cell_formula_units_Z 64
_cell_length_a 9.140449
_cell_length_b 9.711644
_cell_length_c 40.275460
_cell_angle_alpha 90.000000
_cell_angle_beta 90.000000
_cell_angle_gamma 90.000000
_cell_volume 3575.203718
_symmetry_space_group_name_H-M "P M M M"
_symmetry_group_IT_number 47
_symmetry_cell_setting 'orthorhombic'
loop_
_space_group_symop_operation_xyz
x,y,z
-x,-y,z
x,-y,-z
-x,y,-z
-x,-y,-z
x,y,-z
-x,y,z
x,-y,z
loop_
_atom_site_type_symbol
_atom_site_label
_atom_site_fract_x
_atom_site_fract_y
_atom_site_fract_z
Si Si1 0.332558 0.658207 0.038509
Si Si2 0.673691 0.652106 0.784804
Si Si3 0.832743 0.341700 0.538509
Si Si4 0.668742 0.661334 0.289664
Si Si5 0.828558 0.841328 0.343122
Si Si6 0.328269 0.158306 0.843511
Si Si7 0.171001 0.841155 0.090140
Si Si8 0.670360 0.841103 0.590015
O O1 0.500000 0.696382 0.046745
O O2 0.301905 0.500000 0.047824
O O3 0.224975 0.754367 0.058979
O O4 0.299372 0.684104 0.000000
O O5 0.500000 0.647919 0.786132
O O6 0.736021 0.500000 0.792810
O O7 0.720142 0.697446 0.747798
O O8 0.735118 0.757853 0.812107
O O9 0.798654 0.316868 0.500000
O O10 0.804135 0.500000 0.548024
O O11 0.723935 0.246672 0.558968
O O12 0.000000 0.301628 0.546537
O O13 0.500000 0.703193 0.295269
O O14 0.690500 0.500000 0.296819
O O15 0.771179 0.749005 0.313312
O O16 0.753039 0.791573 0.376986
O O17 0.000000 0.818412 0.347153
O O18 0.789407 0.000000 0.335597
O O19 0.500000 0.182292 0.848285
O O20 0.249743 0.212430 0.876606
O O21 0.289901 0.000000 0.836730
O O22 0.000000 0.818694 0.094759
O O23 0.210875 0.000000 0.083503
O O24 0.500000 0.814739 0.595650
O O25 0.705016 0.000000 0.582352
#
# Coordination Sequence:
#
# PCOD8199226 Si02
#       8
#     8   8   8   8   8   8   8   8
#     4   9  19  36  56  77 100 127 163 207 252 298
#     4   8  15  29  49  73  99 126 160 204 250 295
#     4   9  19  36  56  78 105 137 172 208 248 298
#     4   9  18  33  53  77 104 133 166 205 251 303
#     4  10  21  36  53  74 101 134 172 211 252 300
#     4   9  17  30  49  72  97 128 168 209 247 290
#     4  10  21  35  50  72 104 138 169 203 246 296
#     4  10  21  36  54  77 104 134 170 212 256 301
#
# _framework density 17.901077999999998
#
# number of rings (size 3 to 8) (size 9 to 14) (size 15 to 20)
#    0.000    2.750    0.000    2.625    0.000    5.500 
#    0.000    6.875    0.000    2.250    0.000    0.000 
#    0.000    0.000    0.000    0.000    0.000    0.000 
#
# Total GULP energy -793671.698516 kJ/mol
# GULP energy per Si atom -12401.120289 kJ/mol
# Density = 1.786033 g / cm^3
# Si number density = 17.901078 Si / 1000 Ang^3
#
#
#
# Elastic Constant Matrix: (Units=GPa)
#
#
# Indices 1 2 3 4 5 6 
#
# 1 69.5849 43.3756 53.4211 0.0000 0.0000 0.0000
# 2 43.3756 74.7551 68.1463 0.0000 0.0000 0.0000
# 3 53.4211 68.1463 120.7165 0.0000 0.0000 0.0000
# 4 0.0000 0.0000 0.0000 -18.3828 0.0000 0.0000
# 5 0.0000 0.0000 0.0000 0.0000 9.9758 0.0000
# 6 0.0000 0.0000 0.0000 0.0000 0.0000 28.7833
#
#
#
# Elastic Compliance Matrix: (Units=1/GPa)
#
#
# Indices 1 2 3 4 5 6 
#
# 1 0.024314 -0.008857 -0.005760 0.000000 0.000000 0.000000
# 2 -0.008857 0.030786 -0.013459 0.000000 0.000000 0.000000
# 3 -0.005760 -0.013459 0.018431 0.000000 0.000000 0.000000
# 4 0.000000 0.000000 0.000000 -0.054399 0.000000 0.000000
# 5 0.000000 0.000000 0.000000 0.000000 0.100243 0.000000
# 6 0.000000 0.000000 0.000000 0.000000 0.000000 0.034742
#
#
# Mechanical properties :
#
#
# Convention : Reuss Voigt Hill
#
# Bulk Modulus (GPa) = 57.54492 66.10473 61.82483
# Shear Modulus (GPa) = 23.14145 10.74949 16.94547
#
# Velocity S-wave (km/s) = 3.59937 2.45316 3.08005
# Velocity P-wave (km/s) = 7.03490 6.71058 6.87465
#
# Compressibility (1/GPa) = 0.01737773
#
# Stress axis : x y z
#
# Youngs Moduli (GPa) = 41.12885 32.48232 54.25725
#
# Poissons Ratio (x) = 0.28771 0.31250
# Poissons Ratio (y) = 0.36430 0.73027
# Poissons Ratio (z) = 0.23688 0.43719
#
# Static dielectric constant tensor:
#      x y z
#    x 3.141850 0.000000 0.000000 
#    y 0.000000 3.339130 0.000000 
#    z 0.000000 0.000000 3.398570 
# 
# 
# High freq. dielectric constant tensor:
#      x y z
#    x 1.680200 0.000000 0.000000 
#    y 0.000000 1.690540 0.000000 
#    z 0.000000 0.000000 1.700260 
# 
# From -- ./inp_files/34363.got.cif
#   From: 2010.03.12/outbox.cif.g09.slc.cpg/sg47_18_cif.got.tgz:34363.got - 2010.04.14 03:12:58.
