data_PCOD8199659
_publ_section_title
;
Structure prediction by ZEFSAII (Michael W. Deem and Ramdas Pophale) SiO2 
 PCOD8199659
Probable space group: P M M M
;
_chemical_formula_sum "Si O2"
_cell_formula_units_Z 64
_cell_length_a 8.913880
_cell_length_b 26.010082
_cell_length_c 14.282650
_cell_angle_alpha 90.000000
_cell_angle_beta 90.000000
_cell_angle_gamma 90.000000
_cell_volume 3311.443111
_symmetry_space_group_name_H-M "P M M M"
_symmetry_group_IT_number 47
_symmetry_cell_setting 'orthorhombic'
loop_
_space_group_symop_operation_xyz
x,y,z
-x,-y,z
x,-y,-z
-x,y,-z
-x,-y,-z
x,y,-z
-x,y,z
x,-y,z
loop_
_atom_site_type_symbol
_atom_site_label
_atom_site_fract_x
_atom_site_fract_y
_atom_site_fract_z
Si Si1 0.325226 0.852098 0.108888
Si Si2 0.176269 0.310027 0.606193
Si Si3 0.164563 0.196093 0.389405
Si Si4 0.174936 0.747283 0.890062
Si Si5 0.677883 0.653548 0.218148
Si Si6 0.827344 0.942266 0.220176
Si Si7 0.674576 0.095425 0.392301
Si Si8 0.678182 0.443369 0.895174
O O1 0.500000 0.844257 0.128881
O O2 0.238310 0.801897 0.147218
O O3 0.270686 0.903378 0.159841
O O4 0.290421 0.859927 0.000000
O O5 0.234601 0.317886 0.500000
O O6 0.211660 0.252598 0.645777
O O7 0.265900 0.347897 0.674559
O O8 0.000000 0.321131 0.611325
O O9 0.152307 0.200566 0.500000
O O10 0.287043 0.153807 0.359894
O O11 0.000000 0.180577 0.349337
O O12 0.256869 0.701203 0.838556
O O13 0.000000 0.745047 0.866486
O O14 0.208106 0.741905 0.000000
O O15 0.500000 0.656770 0.215003
O O16 0.740449 0.600861 0.172772
O O17 0.769842 0.942704 0.327714
O O18 0.000000 0.925442 0.216463
O O19 0.806887 0.000000 0.180580
O O20 0.721236 0.085966 0.500000
O O21 0.500000 0.085529 0.376851
O O22 0.500000 0.441685 0.896308
O O23 0.732369 0.500000 0.860887
O O24 0.738971 0.432983 0.000000
#
# Coordination Sequence:
#
# PCOD8199659 Si02
#       8
#     8   8   8   8   8   8   8   8
#     4  10  22  41  64  87 111 140 177 226 280 328
#     4   9  19  35  52  72 105 150 193 230 272 326
#     4   8  15  30  51  72  96 132 177 219 261 317
#     4  10  21  37  57  82 115 152 184 216 263 330
#     4  11  21  31  52  85 116 147 185 234 286 332
#     4  11  25  42  60  82 108 143 185 225 268 328
#     4  10  21  36  56  82 111 142 177 224 278 326
#     4   8  15  30  52  78 110 148 189 233 281 333
#
# _framework density 19.326920000000001
#
# number of rings (size 3 to 8) (size 9 to 14) (size 15 to 20)
#    0.000    2.375    0.000    3.375    1.750    5.000 
#    0.000    3.750    0.000    1.875    0.000    7.000 
#    0.000    0.000    0.000    0.000    0.000    0.000 
#
# Total GULP energy -793522.575043 kJ/mol
# GULP energy per Si atom -12398.790235 kJ/mol
# Density = 1.928293 g / cm^3
# Si number density = 19.326920 Si / 1000 Ang^3
#
#
#
# Elastic Constant Matrix: (Units=GPa)
#
#
# Indices 1 2 3 4 5 6 
#
# 1 65.4372 35.9241 36.1888 0.0000 0.0000 0.0000
# 2 35.9241 123.8493 57.8808 0.0000 0.0000 0.0000
# 3 36.1888 57.8808 65.2025 0.0000 0.0000 0.0000
# 4 0.0000 0.0000 0.0000 32.1405 0.0000 0.0000
# 5 0.0000 0.0000 0.0000 0.0000 30.8436 0.0000
# 6 0.0000 0.0000 0.0000 0.0000 0.0000 9.8611
#
#
#
# Elastic Compliance Matrix: (Units=1/GPa)
#
#
# Indices 1 2 3 4 5 6 
#
# 1 0.022147 -0.001161 -0.011261 0.000000 0.000000 0.000000
# 2 -0.001161 0.013860 -0.011659 0.000000 0.000000 0.000000
# 3 -0.011261 -0.011659 0.031937 0.000000 0.000000 0.000000
# 4 0.000000 0.000000 0.000000 0.031113 0.000000 0.000000
# 5 0.000000 0.000000 0.000000 0.000000 0.032422 0.000000
# 6 0.000000 0.000000 0.000000 0.000000 0.000000 0.101409
#
#
# Mechanical properties :
#
#
# Convention : Reuss Voigt Hill
#
# Bulk Modulus (GPa) = 50.55395 57.16404 53.85899
# Shear Modulus (GPa) = 17.38250 22.86871 20.12561
#
# Velocity S-wave (km/s) = 3.00224 3.44358 3.23046
# Velocity P-wave (km/s) = 6.18320 6.74186 6.46856
#
# Compressibility (1/GPa) = 0.01978085
#
# Stress axis : x y z
#
# Youngs Moduli (GPa) = 45.15252 72.14967 31.31136
#
# Poissons Ratio (x) = 0.08377 0.35261
# Poissons Ratio (y) = 0.05242 0.36507
# Poissons Ratio (z) = 0.50848 0.84122
#
# Static dielectric constant tensor:
#      x y z
#    x 3.401690 0.000000 0.000000 
#    y 0.000000 3.668570 0.000000 
#    z 0.000000 0.000000 3.617390 
# 
# 
# High freq. dielectric constant tensor:
#      x y z
#    x 1.742780 0.000000 0.000000 
#    y 0.000000 1.740540 0.000000 
#    z 0.000000 0.000000 1.754190 
# 
# From -- ./inp_files/21891.got.cif
#   From: 2010.03.12/outbox.cif.g09.slc.cpg/sg47_11_cif.got.tgz:21891.got - 2010.04.14 03:12:58.
