data_PCOD8199138
_publ_section_title
;
Structure prediction by ZEFSAII (Michael W. Deem and Ramdas Pophale) SiO2 
 PCOD8199138
Probable space group: P M M M
;
_chemical_formula_sum "Si O2"
_cell_formula_units_Z 36
_cell_length_a 9.112352
_cell_length_b 23.343499
_cell_length_c 9.653007
_cell_angle_alpha 90.000000
_cell_angle_beta 90.000000
_cell_angle_gamma 90.000000
_cell_volume 2053.331467
_symmetry_space_group_name_H-M "P M M M"
_symmetry_group_IT_number 47
_symmetry_cell_setting 'orthorhombic'
loop_
_space_group_symop_operation_xyz
x,y,z
-x,-y,z
x,-y,-z
-x,y,-z
-x,-y,-z
x,y,-z
-x,y,z
x,-y,z
loop_
_atom_site_type_symbol
_atom_site_label
_atom_site_fract_x
_atom_site_fract_y
_atom_site_fract_z
Si Si1 0.172991 0.000000 0.150567
Si Si2 0.830800 0.875852 0.165004
Si Si3 0.828882 0.666114 0.340073
Si Si4 0.327501 0.781662 0.658840
Si Si5 0.825579 0.436811 0.155709
O O1 0.214883 0.060419 0.223420
O O2 0.000000 0.000000 0.128612
O O3 0.249086 0.000000 0.000000
O O4 0.727201 0.831971 0.242987
O O5 0.000000 0.862306 0.200863
O O6 0.805674 0.872247 0.000000
O O7 0.798783 0.653178 0.500000
O O8 0.745547 0.722797 0.290311
O O9 0.762829 0.612063 0.256634
O O10 0.000000 0.675475 0.308902
O O11 0.282707 0.794866 0.500000
O O12 0.500000 0.775353 0.675417
O O13 0.768766 0.500000 0.201721
O O14 0.000000 0.436488 0.162412
O O15 0.772086 0.423492 0.000000
#
# Coordination Sequence:
#
# PCOD8199138 Si02
#       5
#     4   8   8   8   8
#     4   7  12  26  48  73  98 120 146 187 236 281
#     4   9  17  31  53  77  97 120 154 195 237 282
#     4   9  17  29  46  67  89 116 153 194 232 272
#     4  10  21  35  48  65  95 132 164 196 236 279
#     4   8  14  25  42  66  94 118 141 178 230 281
#
# _framework density 17.532484
#
# number of rings (size 3 to 8) (size 9 to 14) (size 15 to 20)
#    0.000    3.222    0.000    2.667    0.000    3.111 
#    0.000    5.556    0.000    6.000    0.000    4.667 
#    0.000    0.000    0.000    0.000    0.000    0.000 
#
# Total GULP energy -446096.870643 kJ/mol
# GULP energy per Si atom -12391.579740 kJ/mol
# Density = 1.749258 g / cm^3
# Si number density = 17.532484 Si / 1000 Ang^3
#
#
#
# Elastic Constant Matrix: (Units=GPa)
#
#
# Indices 1 2 3 4 5 6 
#
# 1 39.1746 44.5769 25.3423 0.0000 0.0000 0.0000
# 2 44.5769 182.7525 73.2164 0.0000 0.0000 0.0000
# 3 25.3423 73.2164 60.2599 0.0000 0.0000 0.0000
# 4 0.0000 0.0000 0.0000 14.7882 0.0000 0.0000
# 5 0.0000 0.0000 0.0000 0.0000 18.5222 0.0000
# 6 0.0000 0.0000 0.0000 0.0000 0.0000 -0.7270
#
#
#
# Elastic Compliance Matrix: (Units=1/GPa)
#
#
# Indices 1 2 3 4 5 6 
#
# 1 0.037749 -0.005548 -0.009134 0.000000 0.000000 0.000000
# 2 -0.005548 0.011477 -0.011612 0.000000 0.000000 0.000000
# 3 -0.009134 -0.011612 0.034544 0.000000 0.000000 0.000000
# 4 0.000000 0.000000 0.000000 0.067622 0.000000 0.000000
# 5 0.000000 0.000000 0.000000 0.000000 0.053989 0.000000
# 6 0.000000 0.000000 0.000000 0.000000 0.000000 -1.375548
#
#
# Mechanical properties :
#
#
# Convention : Reuss Voigt Hill
#
# Bulk Modulus (GPa) = 32.06914 63.16202 47.61558
# Shear Modulus (GPa) = -4.51596 15.78677 5.63541
#
# Velocity S-wave (km/s) = -1.60666 3.00397 1.79478
# Velocity P-wave (km/s) = 3.85865 6.93799 5.61359
#
# Compressibility (1/GPa) = 0.03118263
#
# Stress axis : x y z
#
# Youngs Moduli (GPa) = 26.49063 87.12952 28.94839
#
# Poissons Ratio (x) = 0.48343 0.26442
# Poissons Ratio (y) = 0.14698 0.33613
# Poissons Ratio (z) = 0.24197 1.01171
#
# Static dielectric constant tensor:
#      x y z
#    x 2.865990 0.000000 0.000000 
#    y 0.000000 3.713930 0.000000 
#    z 0.000000 0.000000 3.159750 
# 
# 
# High freq. dielectric constant tensor:
#      x y z
#    x 1.637480 0.000000 0.000000 
#    y 0.000000 1.697310 0.000000 
#    z 0.000000 0.000000 1.659080 
# 
# From -- ./inp_files/1440.got.cif
#   From: 2010.03.12/outbox.cif.g09.slc.cpg/sg47_1_cif.got.tgz:1440.got - 2010.04.14 03:12:58.
