data_PCOD8199686
_publ_section_title
;
Structure prediction by ZEFSAII (Michael W. Deem and Ramdas Pophale) SiO2 
 PCOD8199686
Probable space group: P M M M
;
_chemical_formula_sum "Si O2"
_cell_formula_units_Z 48
_cell_length_a 8.849598
_cell_length_b 15.330421
_cell_length_c 18.576088
_cell_angle_alpha 90.000000
_cell_angle_beta 90.000000
_cell_angle_gamma 90.000000
_cell_volume 2520.181877
_symmetry_space_group_name_H-M "P M M M"
_symmetry_group_IT_number 47
_symmetry_cell_setting 'orthorhombic'
loop_
_space_group_symop_operation_xyz
x,y,z
-x,-y,z
x,-y,-z
-x,y,-z
-x,-y,-z
x,y,-z
-x,y,z
x,-y,z
loop_
_atom_site_type_symbol
_atom_site_label
_atom_site_fract_x
_atom_site_fract_y
_atom_site_fract_z
Si Si1 0.176493 0.898716 0.811249
Si Si2 0.327000 0.230865 0.914941
Si Si3 0.836501 0.500000 0.584590
Si Si4 0.180594 0.688303 0.417533
Si Si5 0.829521 0.404182 0.914492
Si Si6 0.678608 0.156097 0.336052
Si Si7 0.830296 0.000000 0.415164
O O1 0.226343 0.845909 0.881706
O O2 0.268764 0.861205 0.744536
O O3 0.000000 0.885325 0.797019
O O4 0.216282 0.000000 0.823051
O O5 0.500000 0.217398 0.892398
O O6 0.275101 0.325904 0.885112
O O7 0.303827 0.225280 0.000000
O O8 0.864121 0.500000 0.500000
O O9 0.755254 0.591513 0.604065
O O10 0.000000 0.500000 0.623105
O O11 0.224017 0.711831 0.500000
O O12 0.262303 0.750903 0.361827
O O13 0.000000 0.693222 0.408414
O O14 0.772445 0.500000 0.887326
O O15 0.000000 0.388106 0.886963
O O16 0.826271 0.403760 0.000000
O O17 0.500000 0.153050 0.339293
O O18 0.744032 0.084954 0.389842
O O19 0.837012 0.000000 0.500000
O O20 0.000000 0.000000 0.382528
#
# Coordination Sequence:
#
# PCOD8199686 Si02
#       7
#     8   8   4   8   8   8   4
#     4  11  24  42  63  81 104 144 192 237 281 337
#     4  10  21  36  57  87 120 150 182 227 283 337
#     4   7  12  26  51  81 109 143 188 231 270 315
#     4   9  17  32  56  84 114 149 190 233 274 325
#     4   8  14  27  50  80 113 148 185 224 266 317
#     4  12  24  37  56  82 114 149 184 230 287 342
#     4  11  23  39  59  83 112 147 190 235 275 325
#
# _framework density 19.046244000000002
#
# number of rings (size 3 to 8) (size 9 to 14) (size 15 to 20)
#    0.000    2.167    0.833    4.750    0.000    5.667 
#    0.000    3.750    1.833    1.500    0.000    0.000 
#    0.000    0.000    0.000    0.000    0.000    0.000 
#
# Total GULP energy -594992.898943 kJ/mol
# GULP energy per Si atom -12395.685395 kJ/mol
# Density = 1.900289 g / cm^3
# Si number density = 19.046244 Si / 1000 Ang^3
#
#
#
# Elastic Constant Matrix: (Units=GPa)
#
#
# Indices 1 2 3 4 5 6 
#
# 1 99.3775 65.1227 31.4023 0.0000 0.0000 0.0000
# 2 65.1227 172.3166 46.4308 0.0000 0.0000 0.0000
# 3 31.4023 46.4308 46.1962 0.0000 0.0000 0.0000
# 4 0.0000 0.0000 0.0000 -61.1752 0.0000 0.0000
# 5 0.0000 0.0000 0.0000 0.0000 23.3897 0.0000
# 6 0.0000 0.0000 0.0000 0.0000 0.0000 22.5798
#
#
#
# Elastic Compliance Matrix: (Units=1/GPa)
#
#
# Indices 1 2 3 4 5 6 
#
# 1 0.014479 -0.003867 -0.005955 0.000000 0.000000 0.000000
# 2 -0.003867 0.008992 -0.006408 0.000000 0.000000 0.000000
# 3 -0.005955 -0.006408 0.032136 0.000000 0.000000 0.000000
# 4 0.000000 0.000000 0.000000 -0.016346 0.000000 0.000000
# 5 0.000000 0.000000 0.000000 0.000000 0.042754 0.000000
# 6 0.000000 0.000000 0.000000 0.000000 0.000000 0.044287
#
#
# Mechanical properties :
#
#
# Convention : Reuss Voigt Hill
#
# Bulk Modulus (GPa) = 43.20691 67.08910 55.14800
# Shear Modulus (GPa) = 30.03420 8.62116 19.32768
#
# Velocity S-wave (km/s) = 3.97534 2.12985 3.18901
# Velocity P-wave (km/s) = 6.61858 6.43033 6.52513
#
# Compressibility (1/GPa) = 0.02314445
#
# Stress axis : x y z
#
# Youngs Moduli (GPa) = 69.06744 111.21557 31.11797
#
# Poissons Ratio (x) = 0.43010 0.18531
# Poissons Ratio (y) = 0.26710 0.19942
# Poissons Ratio (z) = 0.41130 0.71272
#
# Static dielectric constant tensor:
#      x y z
#    x 3.475760 0.000000 0.000000 
#    y 0.000000 3.952190 0.000000 
#    z 0.000000 0.000000 3.169690 
# 
# 
# High freq. dielectric constant tensor:
#      x y z
#    x 1.731610 0.000000 0.000000 
#    y 0.000000 1.762470 0.000000 
#    z 0.000000 0.000000 1.709190 
# 
# From -- ./inp_files/26550.got.cif
#   From: 2010.03.12/outbox.cif.g09.slc.cpg/sg47_14_cif.got.tgz:26550.got - 2010.04.14 03:12:58.
