data_PCOD8199921
_publ_section_title
;
Structure prediction by ZEFSAII (Michael W. Deem and Ramdas Pophale) SiO2 
 PCOD8199921
Probable space group: P M M M
;
_chemical_formula_sum "Si O2"
_cell_formula_units_Z 56
_cell_length_a 22.577778
_cell_length_b 14.077520
_cell_length_c 9.495482
_cell_angle_alpha 90.000000
_cell_angle_beta 90.000000
_cell_angle_gamma 90.000000
_cell_volume 3018.035656
_symmetry_space_group_name_H-M "P M M M"
_symmetry_group_IT_number 47
_symmetry_cell_setting 'orthorhombic'
loop_
_space_group_symop_operation_xyz
x,y,z
-x,-y,z
x,-y,-z
-x,y,-z
-x,-y,-z
x,y,-z
-x,y,z
x,-y,z
loop_
_atom_site_type_symbol
_atom_site_label
_atom_site_fract_x
_atom_site_fract_y
_atom_site_fract_z
Si Si1 0.321787 0.889749 0.334256
Si Si2 0.566223 0.231348 0.338645
Si Si3 0.139617 0.349960 0.156859
Si Si4 0.619616 0.390974 0.836475
Si Si5 0.069441 0.500000 0.667461
Si Si6 0.933981 0.163419 0.153588
Si Si7 0.070855 0.000000 0.344396
Si Si8 0.735431 0.272824 0.163786
O O1 0.309252 0.880612 0.500000
O O2 0.387535 0.851217 0.295000
O O3 0.274231 0.824421 0.251822
O O4 0.316899 0.000000 0.286210
O O5 0.576656 0.260442 0.500000
O O6 0.500000 0.190949 0.314410
O O7 0.572961 0.327444 0.248548
O O8 0.103094 0.410097 0.269101
O O9 0.107455 0.251688 0.145007
O O10 0.205552 0.328324 0.212578
O O11 0.141253 0.397755 0.000000
O O12 0.617367 0.500000 0.784206
O O13 0.684425 0.349067 0.806840
O O14 0.602975 0.384522 0.000000
O O15 0.076052 0.500000 0.500000
O O16 0.000000 0.500000 0.711142
O O17 0.905057 0.092395 0.265742
O O18 0.000000 0.194458 0.200804
O O19 0.936557 0.113847 0.000000
O O20 0.097312 0.000000 0.500000
O O21 0.000000 0.000000 0.340552
O O22 0.739488 0.243757 0.000000
#
# Coordination Sequence:
#
# PCOD8199921 Si02
#       8
#     8   8   8   8   4   8   4   8
#     4   9  18  34  55  77 106 144 180 218 268 322
#     4   9  18  32  50  75 106 138 178 225 266 311
#     4  10  21  37  59  82 104 137 180 224 264 311
#     4   9  18  32  51  73 101 138 175 215 266 320
#     4  11  25  41  57  83 117 147 174 213 270 329
#     4   9  17  31  51  74 100 130 166 210 258 306
#     4   9  17  29  47  71  97 129 165 199 244 303
#     4   9  19  35  55  79 104 134 176 225 268 310
#
# _framework density 18.555115000000001
#
# number of rings (size 3 to 8) (size 9 to 14) (size 15 to 20)
#    0.000    2.714    0.000    0.857    1.000    4.571 
#    1.286    4.286    0.000    0.000    0.000    4.000 
#    0.000    0.000    0.000    0.000    0.000    0.000 
#
# Total GULP energy -694150.817309 kJ/mol
# GULP energy per Si atom -12395.550309 kJ/mol
# Density = 1.851288 g / cm^3
# Si number density = 18.555115 Si / 1000 Ang^3
#
#
#
# Elastic Constant Matrix: (Units=GPa)
#
#
# Indices 1 2 3 4 5 6 
#
# 1 95.0424 30.6058 36.7082 0.0000 0.0000 0.0000
# 2 30.6058 102.5273 47.4594 0.0000 0.0000 0.0000
# 3 36.7082 47.4594 79.3406 0.0000 0.0000 0.0000
# 4 0.0000 0.0000 0.0000 17.9931 0.0000 0.0000
# 5 0.0000 0.0000 0.0000 0.0000 24.9031 0.0000
# 6 0.0000 0.0000 0.0000 0.0000 0.0000 23.0233
#
#
#
# Elastic Compliance Matrix: (Units=1/GPa)
#
#
# Indices 1 2 3 4 5 6 
#
# 1 0.012979 -0.001514 -0.005099 0.000000 0.000000 0.000000
# 2 -0.001514 0.013665 -0.007474 0.000000 0.000000 0.000000
# 3 -0.005099 -0.007474 0.019434 0.000000 0.000000 0.000000
# 4 0.000000 0.000000 0.000000 0.055577 0.000000 0.000000
# 5 0.000000 0.000000 0.000000 0.000000 0.040156 0.000000
# 6 0.000000 0.000000 0.000000 0.000000 0.000000 0.043434
#
#
# Mechanical properties :
#
#
# Convention : Reuss Voigt Hill
#
# Bulk Modulus (GPa) = 55.85402 56.27302 56.06352
# Shear Modulus (GPa) = 22.79098 23.99302 23.39200
#
# Velocity S-wave (km/s) = 3.50849 3.59983 3.55445
# Velocity P-wave (km/s) = 6.82493 6.90447 6.86482
#
# Compressibility (1/GPa) = 0.01790381
#
# Stress axis : x y z
#
# Youngs Moduli (GPa) = 77.05002 73.18029 51.45735
#
# Poissons Ratio (x) = 0.11079 0.26239
# Poissons Ratio (y) = 0.11665 0.38457
# Poissons Ratio (z) = 0.39289 0.54691
#
# Static dielectric constant tensor:
#      x y z
#    x 3.466820 0.000000 0.000000 
#    y 0.000000 3.292070 0.000000 
#    z 0.000000 0.000000 3.541370 
# 
# 
# High freq. dielectric constant tensor:
#      x y z
#    x 1.715770 0.000000 0.000000 
#    y 0.000000 1.716630 0.000000 
#    z 0.000000 0.000000 1.714880 
# 
# From -- ./inp_files/11306.got.cif
#   From: 2010.03.12/outbox.cif.g09.slc.cpg/sg47_6_cif.got.tgz:11306.got - 2010.04.14 03:12:58.
