data_PCOD8199722
_publ_section_title
;
Structure prediction by ZEFSAII (Michael W. Deem and Ramdas Pophale) SiO2 
 PCOD8199722
Probable space group: P M M M
;
_chemical_formula_sum "Si O2"
_cell_formula_units_Z 56
_cell_length_a 13.693770
_cell_length_b 13.909980
_cell_length_c 14.312944
_cell_angle_alpha 90.000000
_cell_angle_beta 90.000000
_cell_angle_gamma 90.000000
_cell_volume 2726.330530
_symmetry_space_group_name_H-M "P M M M"
_symmetry_group_IT_number 47
_symmetry_cell_setting 'orthorhombic'
loop_
_space_group_symop_operation_xyz
x,y,z
-x,-y,z
x,-y,-z
-x,y,-z
-x,-y,-z
x,y,-z
-x,y,z
x,-y,z
loop_
_atom_site_type_symbol
_atom_site_label
_atom_site_fract_x
_atom_site_fract_y
_atom_site_fract_z
Si Si1 0.890923 0.273311 0.607896
Si Si2 0.113279 0.803357 0.891810
Si Si3 0.187672 0.602074 0.108926
Si Si4 0.606481 0.325665 0.895269
Si Si5 0.704844 0.609972 0.609945
Si Si6 0.201344 0.889945 0.720394
Si Si7 0.392073 0.220267 0.713802
O O1 0.876140 0.247107 0.500000
O O2 0.814369 0.356081 0.637728
O O3 0.875282 0.174771 0.664157
O O4 0.000000 0.311980 0.627881
O O5 0.133599 0.695826 0.849713
O O6 0.178418 0.876396 0.830911
O O7 0.000000 0.828485 0.880623
O O8 0.146144 0.811624 0.000000
O O9 0.149730 0.500000 0.151749
O O10 0.304275 0.603395 0.128251
O O11 0.164338 0.601803 0.000000
O O12 0.500000 0.377878 0.885784
O O13 0.610727 0.235845 0.825216
O O14 0.620018 0.284302 0.000000
O O15 0.686332 0.619392 0.500000
O O16 0.691334 0.500000 0.643117
O O17 0.628078 0.678069 0.662533
O O18 0.311302 0.859765 0.690666
O O19 0.186754 0.000000 0.692135
O O20 0.500000 0.184209 0.682926
#
# Coordination Sequence:
#
# PCOD8199722 Si02
#       7
#     8   8   8   8   8   8   8
#     4   9  19  37  60  86 115 145 180 225 276 327
#     4  10  21  37  55  78 111 146 182 225 272 328
#     4   9  17  30  49  73 103 141 181 218 261 316
#     4   9  17  31  52  76 105 141 180 224 271 317
#     4   9  19  36  58  86 119 152 185 220 261 317
#     4  11  23  39  59  81 107 140 183 235 286 335
#     4  10  21  37  57  82 110 144 184 228 277 329
#
# _framework density 20.540430000000001
#
# number of rings (size 3 to 8) (size 9 to 14) (size 15 to 20)
#    0.000    2.429    1.429    0.429    0.000    4.000 
#    0.000    7.857    0.000    1.714    0.000    7.000 
#    0.000    0.000    0.000    0.000    0.000    0.000 
#
# Total GULP energy -694020.200532 kJ/mol
# GULP energy per Si atom -12393.217867 kJ/mol
# Density = 2.049368 g / cm^3
# Si number density = 20.540430 Si / 1000 Ang^3
#
#
#
# Elastic Constant Matrix: (Units=GPa)
#
#
# Indices 1 2 3 4 5 6 
#
# 1 97.4076 11.5175 10.8007 0.0000 0.0000 0.0000
# 2 11.5175 81.9472 5.8160 0.0000 0.0000 0.0000
# 3 10.8007 5.8160 34.7126 0.0000 0.0000 0.0000
# 4 0.0000 0.0000 0.0000 20.8940 0.0000 0.0000
# 5 0.0000 0.0000 0.0000 0.0000 22.8178 0.0000
# 6 0.0000 0.0000 0.0000 0.0000 0.0000 14.1581
#
#
#
# Elastic Compliance Matrix: (Units=1/GPa)
#
#
# Indices 1 2 3 4 5 6 
#
# 1 0.010766 -0.001291 -0.003134 0.000000 0.000000 0.000000
# 2 -0.001291 0.012505 -0.001693 0.000000 0.000000 0.000000
# 3 -0.003134 -0.001693 0.030067 0.000000 0.000000 0.000000
# 4 0.000000 0.000000 0.000000 0.047861 0.000000 0.000000
# 5 0.000000 0.000000 0.000000 0.000000 0.043825 0.000000
# 6 0.000000 0.000000 0.000000 0.000000 0.000000 0.070631
#
#
# Mechanical properties :
#
#
# Convention : Reuss Voigt Hill
#
# Bulk Modulus (GPa) = 24.32985 30.03733 27.18359
# Shear Modulus (GPa) = 20.69614 23.96952 22.33283
#
# Velocity S-wave (km/s) = 3.17768 3.41976 3.30094
# Velocity P-wave (km/s) = 5.03330 5.49984 5.27174
#
# Compressibility (1/GPa) = 0.04110178
#
# Stress axis : x y z
#
# Youngs Moduli (GPa) = 92.88310 79.97068 33.25935
#
# Poissons Ratio (x) = 0.10322 0.10422
# Poissons Ratio (y) = 0.11989 0.05632
# Poissons Ratio (z) = 0.29106 0.13543
#
# Static dielectric constant tensor:
#      x y z
#    x 3.873700 0.000000 0.000000 
#    y 0.000000 3.492920 0.000000 
#    z 0.000000 0.000000 3.776950 
# 
# 
# High freq. dielectric constant tensor:
#      x y z
#    x 1.808130 0.000000 0.000000 
#    y 0.000000 1.762960 0.000000 
#    z 0.000000 0.000000 1.803930 
# 
# From -- ./inp_files/17649.got.cif
#   From: 2010.03.12/outbox.cif.g09.slc.cpg/sg47_9_cif.got.tgz:17649.got - 2010.04.14 03:12:58.
