data_PCOD8199337
_publ_section_title
;
Structure prediction by ZEFSAII (Michael W. Deem and Ramdas Pophale) SiO2 
 PCOD8199337
Probable space group: P M M M
;
_chemical_formula_sum "Si O2"
_cell_formula_units_Z 48
_cell_length_a 32.102773
_cell_length_b 8.234812
_cell_length_c 9.373379
_cell_angle_alpha 90.000000
_cell_angle_beta 90.000000
_cell_angle_gamma 90.000000
_cell_volume 2477.949288
_symmetry_space_group_name_H-M "P M M M"
_symmetry_group_IT_number 47
_symmetry_cell_setting 'orthorhombic'
loop_
_space_group_symop_operation_xyz
x,y,z
-x,-y,z
x,-y,-z
-x,y,-z
-x,-y,-z
x,y,-z
-x,y,z
x,-y,z
loop_
_atom_site_type_symbol
_atom_site_label
_atom_site_fract_x
_atom_site_fract_y
_atom_site_fract_z
Si Si1 0.500000 0.687936 0.842346
Si Si2 0.810544 0.313530 0.661884
Si Si3 0.095748 0.318465 0.669955
Si Si4 0.737124 0.814374 0.159415
Si Si5 0.650254 0.313261 0.835999
Si Si6 0.575948 0.187530 0.339332
Si Si7 0.047341 0.000000 0.669874
O O1 0.500000 0.500000 0.869979
O O2 0.541014 0.729044 0.754910
O O3 0.500000 0.773251 0.000000
O O4 0.809357 0.252121 0.500000
O O5 0.796991 0.500000 0.673391
O O6 0.857096 0.289434 0.723822
O O7 0.778202 0.206117 0.747693
O O8 0.094929 0.319374 0.500000
O O9 0.080355 0.500000 0.721774
O O10 0.068299 0.167261 0.729141
O O11 0.697839 0.711012 0.216382
O O12 0.723000 0.000000 0.163501
O O13 0.748499 0.757263 0.000000
O O14 0.637597 0.500000 0.822096
O O15 0.620635 0.210543 0.733742
O O16 0.645691 0.253255 0.000000
O O17 0.576437 0.260894 0.500000
O O18 0.564993 0.000000 0.347291
O O19 0.050079 0.000000 0.500000
O O20 0.000000 0.000000 0.723921
#
# Coordination Sequence:
#
# PCOD8199337 Si02
#       7
#     4   8   8   8   8   8   4
#     4  11  24  41  62  88 114 143 182 221 262 316
#     4   9  18  32  50  72  98 133 175 215 260 315
#     4   8  15  27  41  61  92 127 166 213 262 315
#     4  10  21  35  52  77 107 138 174 217 264 314
#     4  10  21  38  59  80 104 139 179 216 260 314
#     4  11  24  40  59  85 115 144 177 219 265 312
#     4   9  16  24  38  62  91 129 173 211 259 320
#
# _framework density 19.370856
#
# number of rings (size 3 to 8) (size 9 to 14) (size 15 to 20)
#    0.000    2.333    0.000    3.500    1.167    8.333 
#    0.000    1.667    0.000    0.000    0.000    0.000 
#    0.000    1.333    0.000    3.667    0.000    3.667 
#
# Total GULP energy -595063.974116 kJ/mol
# GULP energy per Si atom -12397.166127 kJ/mol
# Density = 1.932677 g / cm^3
# Si number density = 19.370856 Si / 1000 Ang^3
#
#
#
# Elastic Constant Matrix: (Units=GPa)
#
#
# Indices 1 2 3 4 5 6 
#
# 1 127.1673 47.2244 50.2824 0.0000 0.0000 0.0000
# 2 47.2244 88.5372 29.1004 0.0000 0.0000 0.0000
# 3 50.2824 29.1004 78.0040 0.0000 0.0000 0.0000
# 4 0.0000 0.0000 0.0000 19.9419 0.0000 0.0000
# 5 0.0000 0.0000 0.0000 0.0000 -80.3860 0.0000
# 6 0.0000 0.0000 0.0000 0.0000 0.0000 38.3952
#
#
#
# Elastic Compliance Matrix: (Units=1/GPa)
#
#
# Indices 1 2 3 4 5 6 
#
# 1 0.011859 -0.004346 -0.006023 0.000000 0.000000 0.000000
# 2 -0.004346 0.014466 -0.002595 0.000000 0.000000 0.000000
# 3 -0.006023 -0.002595 0.017671 0.000000 0.000000 0.000000
# 4 0.000000 0.000000 0.000000 0.050146 0.000000 0.000000
# 5 0.000000 0.000000 0.000000 0.000000 -0.012440 0.000000
# 6 0.000000 0.000000 0.000000 0.000000 0.000000 0.026045
#
#
# Mechanical properties :
#
#
# Convention : Reuss Voigt Hill
#
# Bulk Modulus (GPa) = 55.34989 60.76922 58.05956
# Shear Modulus (GPa) = 35.79174 6.73031 21.26102
#
# Velocity S-wave (km/s) = 4.30316 1.86601 3.31657
# Velocity P-wave (km/s) = 7.30243 6.00685 6.68609
#
# Compressibility (1/GPa) = 0.01806688
#
# Stress axis : x y z
#
# Youngs Moduli (GPa) = 84.32338 69.12934 56.59063
#
# Poissons Ratio (x) = 0.30042 0.34086
# Poissons Ratio (y) = 0.36645 0.14687
# Poissons Ratio (z) = 0.50791 0.17941
#
# Static dielectric constant tensor:
#      x y z
#    x 3.549050 0.000000 0.000000 
#    y 0.000000 3.663190 0.000000 
#    z 0.000000 0.000000 3.361490 
# 
# 
# High freq. dielectric constant tensor:
#      x y z
#    x 1.756630 0.000000 0.000000 
#    y 0.000000 1.761940 0.000000 
#    z 0.000000 0.000000 1.718420 
# 
# From -- ./inp_files/13958.got.cif
#   From: 2010.03.12/outbox.cif.g09.slc.cpg/sg47_7_cif.got.tgz:13958.got - 2010.04.14 03:12:58.
