data_PCOD8199845
_publ_section_title
;
Structure prediction by ZEFSAII (Michael W. Deem and Ramdas Pophale) SiO2 
 PCOD8199845
Probable space group: P M M M
;
_chemical_formula_sum "Si O2"
_cell_formula_units_Z 44
_cell_length_a 9.584501
_cell_length_b 8.983374
_cell_length_c 28.221072
_cell_angle_alpha 90.000000
_cell_angle_beta 90.000000
_cell_angle_gamma 90.000000
_cell_volume 2429.866953
_symmetry_space_group_name_H-M "P M M M"
_symmetry_group_IT_number 47
_symmetry_cell_setting 'orthorhombic'
loop_
_space_group_symop_operation_xyz
x,y,z
-x,-y,z
x,-y,-z
-x,y,-z
-x,-y,-z
x,y,-z
-x,y,z
x,-y,z
loop_
_atom_site_type_symbol
_atom_site_label
_atom_site_fract_x
_atom_site_fract_y
_atom_site_fract_z
Si Si1 0.159379 0.175720 0.862365
Si Si2 0.660645 0.174845 0.418957
Si Si3 0.339364 0.328941 0.678467
Si Si4 0.837430 0.324094 0.500000
Si Si5 0.343248 0.822964 0.947752
Si Si6 0.160390 0.674194 0.232955
O O1 0.243771 0.242752 0.906984
O O2 0.218351 0.245089 0.813888
O O3 0.000000 0.223929 0.869916
O O4 0.176813 0.000000 0.858801
O O5 0.500000 0.214968 0.431418
O O6 0.697826 0.227280 0.366245
O O7 0.764076 0.258758 0.453820
O O8 0.686512 0.000000 0.423363
O O9 0.500000 0.312064 0.693023
O O10 0.302858 0.500000 0.666043
O O11 0.248167 0.269368 0.722158
O O12 0.818335 0.500000 0.500000
O O13 0.000000 0.278740 0.500000
O O14 0.500000 0.766520 0.938052
O O15 0.338534 0.000000 0.946395
O O16 0.293524 0.768429 0.000000
O O17 0.180918 0.500000 0.225278
O O18 0.000000 0.717136 0.242244
#
# Coordination Sequence:
#
# PCOD8199845 Si02
#       6
#     8   8   8   4   8   8
#     4   9  17  28  43  65  90 115 148 190 232 275
#     4  10  21  37  57  81 108 137 169 207 253 301
#     4   9  18  33  52  73  97 127 164 202 239 284
#     4  11  24  39  56  80 108 139 176 213 248 292
#     4   8  14  25  41  62  88 116 146 183 229 278
#     4   9  18  32  48  66  92 126 159 192 234 284
#
# _framework density 18.107987999999999
#
# number of rings (size 3 to 8) (size 9 to 14) (size 15 to 20)
#    0.000    2.818    0.000    1.636    0.000    5.455 
#    0.000    3.636    0.000    0.545    0.000    3.818 
#    0.000    0.000    0.000    0.000    0.000    0.000 
#
# Total GULP energy -545579.393836 kJ/mol
# GULP energy per Si atom -12399.531678 kJ/mol
# Density = 1.806677 g / cm^3
# Si number density = 18.107988 Si / 1000 Ang^3
#
#
#
# Elastic Constant Matrix: (Units=GPa)
#
#
# Indices 1 2 3 4 5 6 
#
# 1 99.4967 39.1695 96.7419 0.0000 0.0000 0.0000
# 2 39.1695 43.3103 46.8832 0.0000 0.0000 0.0000
# 3 96.7419 46.8832 172.4946 0.0000 0.0000 0.0000
# 4 0.0000 0.0000 0.0000 482.8957 0.0000 0.0000
# 5 0.0000 0.0000 0.0000 0.0000 38.4057 0.0000
# 6 0.0000 0.0000 0.0000 0.0000 0.0000 19.1019
#
#
#
# Elastic Compliance Matrix: (Units=1/GPa)
#
#
# Indices 1 2 3 4 5 6 
#
# 1 0.025115 -0.010579 -0.011210 0.000000 0.000000 0.000000
# 2 -0.010579 0.037170 -0.004170 0.000000 0.000000 0.000000
# 3 -0.011210 -0.004170 0.013218 0.000000 0.000000 0.000000
# 4 0.000000 0.000000 0.000000 0.002071 0.000000 0.000000
# 5 0.000000 0.000000 0.000000 0.000000 0.026038 0.000000
# 6 0.000000 0.000000 0.000000 0.000000 0.000000 0.052351
#
#
# Mechanical properties :
#
#
# Convention : Reuss Voigt Hill
#
# Bulk Modulus (GPa) = 42.39880 75.65455 59.02667
# Shear Modulus (GPa) = 23.17582 116.91446 70.04514
#
# Velocity S-wave (km/s) = 3.58140 8.04396 6.22622
# Velocity P-wave (km/s) = 6.36924 11.32007 9.18453
#
# Compressibility (1/GPa) = 0.02358557
#
# Stress axis : x y z
#
# Youngs Moduli (GPa) = 39.81658 26.90318 75.65573
#
# Poissons Ratio (x) = 0.28461 0.84812
# Poissons Ratio (y) = 0.42121 0.31546
# Poissons Ratio (z) = 0.44636 0.11218
#
# Static dielectric constant tensor:
#      x y z
#    x 3.430440 0.000000 0.000000 
#    y 0.000000 3.112890 0.000000 
#    z 0.000000 0.000000 3.589450 
# 
# 
# High freq. dielectric constant tensor:
#      x y z
#    x 1.696980 0.000000 0.000000 
#    y 0.000000 1.677780 0.000000 
#    z 0.000000 0.000000 1.714210 
# 
# From -- ./inp_files/1972.got.cif
#   From: 2010.03.12/outbox.cif.g09.slc.cpg/sg47_1_cif.got.tgz:1972.got - 2010.04.14 03:12:58.
