data_PCOD8199290
_publ_section_title
;
Structure prediction by ZEFSAII (Michael W. Deem and Ramdas Pophale) SiO2 
 PCOD8199290
Probable space group: P M M M
;
_chemical_formula_sum "Si O2"
_cell_formula_units_Z 40
_cell_length_a 32.848489
_cell_length_b 7.599714
_cell_length_c 7.823281
_cell_angle_alpha 90.000000
_cell_angle_beta 90.000000
_cell_angle_gamma 90.000000
_cell_volume 1952.996998
_symmetry_space_group_name_H-M "P M M M"
_symmetry_group_IT_number 47
_symmetry_cell_setting 'orthorhombic'
loop_
_space_group_symop_operation_xyz
x,y,z
-x,-y,z
x,-y,-z
-x,y,-z
-x,-y,-z
x,y,-z
-x,y,z
x,-y,z
loop_
_atom_site_type_symbol
_atom_site_label
_atom_site_fract_x
_atom_site_fract_y
_atom_site_fract_z
Si Si1 0.602198 0.297753 0.806652
Si Si2 0.045946 0.000000 0.704678
Si Si3 0.454874 0.707744 0.500000
Si Si4 0.101851 0.693619 0.698775
Si Si5 0.190749 0.302805 0.798029
Si Si6 0.658503 0.000000 0.304574
Si Si7 0.250215 0.000000 0.202735
O O1 0.614862 0.500000 0.768802
O O2 0.568219 0.230943 0.672287
O O3 0.641805 0.175749 0.787044
O O4 0.584986 0.279707 0.000000
O O5 0.069219 0.171395 0.778692
O O6 0.046997 0.000000 0.500000
O O7 0.000000 0.000000 0.774710
O O8 0.458539 0.500000 0.500000
O O9 0.500000 0.792582 0.500000
O O10 0.093076 0.678415 0.500000
O O11 0.096735 0.500000 0.784580
O O12 0.147520 0.764280 0.727298
O O13 0.200416 0.500000 0.730676
O O14 0.225932 0.172404 0.733660
O O15 0.188301 0.298591 0.000000
O O16 0.706815 0.000000 0.295213
O O17 0.644241 0.000000 0.500000
O O18 0.256467 0.000000 0.000000
#
# Coordination Sequence:
#
# PCOD8199290 Si02
#       7
#     8   4   4   8   8   4   4
#     4  10  21  39  62  86 118 159 198 240 292 349
#     4   9  17  28  43  66  95 125 159 200 245 295
#     4   9  18  35  61  93 124 153 195 248 297 349
#     4   9  17  29  47  69  92 121 158 201 248 301
#     4   9  18  33  52  73  99 130 164 208 263 318
#     4  12  24  39  59  82 115 154 194 238 283 340
#     4  10  21  35  51  75 103 132 174 220 262 318
#
# _framework density 20.481342000000001
#
# number of rings (size 3 to 8) (size 9 to 14) (size 15 to 20)
#    0.000    2.400    1.000    1.500    0.000    2.400 
#    0.000    7.000    0.000    2.400    0.000    2.800 
#    0.000    0.000    0.000    0.000    0.000    0.000 
#
# Total GULP energy -495918.597314 kJ/mol
# GULP energy per Si atom -12397.964933 kJ/mol
# Density = 2.043473 g / cm^3
# Si number density = 20.481342 Si / 1000 Ang^3
#
#
#
# Elastic Constant Matrix: (Units=GPa)
#
#
# Indices 1 2 3 4 5 6 
#
# 1 155.1071 84.6706 35.0169 0.0000 0.0000 0.0000
# 2 84.6706 124.5119 27.4205 0.0000 0.0000 0.0000
# 3 35.0169 27.4205 72.3460 0.0000 0.0000 0.0000
# 4 0.0000 0.0000 0.0000 14.3115 0.0000 0.0000
# 5 0.0000 0.0000 0.0000 0.0000 12.5086 0.0000
# 6 0.0000 0.0000 0.0000 0.0000 0.0000 22.2921
#
#
#
# Elastic Compliance Matrix: (Units=1/GPa)
#
#
# Indices 1 2 3 4 5 6 
#
# 1 0.010697 -0.006692 -0.002641 0.000000 0.000000 0.000000
# 2 -0.006692 0.012950 -0.001669 0.000000 0.000000 0.000000
# 3 -0.002641 -0.001669 0.015733 0.000000 0.000000 0.000000
# 4 0.000000 0.000000 0.000000 0.069874 0.000000 0.000000
# 5 0.000000 0.000000 0.000000 0.000000 0.079945 0.000000
# 6 0.000000 0.000000 0.000000 0.000000 0.000000 0.044859
#
#
# Mechanical properties :
#
#
# Convention : Reuss Voigt Hill
#
# Bulk Modulus (GPa) = 57.55286 71.79788 64.67537
# Shear Modulus (GPa) = 19.09464 23.47959 21.28711
#
# Velocity S-wave (km/s) = 3.05666 3.38951 3.22738
# Velocity P-wave (km/s) = 6.37328 7.10280 6.74791
#
# Compressibility (1/GPa) = 0.01737533
#
# Stress axis : x y z
#
# Youngs Moduli (GPa) = 93.48781 77.22117 63.55962
#
# Poissons Ratio (x) = 0.51679 0.16785
# Poissons Ratio (y) = 0.62565 0.10608
# Poissons Ratio (z) = 0.24689 0.12888
#
# Static dielectric constant tensor:
#      x y z
#    x 3.660630 0.000000 0.000000 
#    y 0.000000 4.118270 0.000000 
#    z 0.000000 0.000000 3.543990 
# 
# 
# High freq. dielectric constant tensor:
#      x y z
#    x 1.785610 0.000000 0.000000 
#    y 0.000000 1.808160 0.000000 
#    z 0.000000 0.000000 1.788580 
# 
# From -- ./inp_files/13137.got.cif
#   From: 2010.03.12/outbox.cif.g09.slc.cpg/sg47_7_cif.got.tgz:13137.got - 2010.04.14 03:12:58.
