data_PCOD8199182
_publ_section_title
;
Structure prediction by ZEFSAII (Michael W. Deem and Ramdas Pophale) SiO2 
 PCOD8199182
Probable space group: P M M M
;
_chemical_formula_sum "Si O2"
_cell_formula_units_Z 56
_cell_length_a 9.346834
_cell_length_b 18.659308
_cell_length_c 18.860542
_cell_angle_alpha 90.000000
_cell_angle_beta 90.000000
_cell_angle_gamma 90.000000
_cell_volume 3289.381398
_symmetry_space_group_name_H-M "P M M M"
_symmetry_group_IT_number 47
_symmetry_cell_setting 'orthorhombic'
loop_
_space_group_symop_operation_xyz
x,y,z
-x,-y,z
x,-y,-z
-x,y,-z
-x,-y,-z
x,y,-z
-x,y,z
x,-y,z
loop_
_atom_site_type_symbol
_atom_site_label
_atom_site_fract_x
_atom_site_fract_y
_atom_site_fract_z
Si Si1 0.833938 0.918509 0.857590
Si Si2 0.168571 0.288367 0.196983
Si Si3 0.170438 0.080866 0.578027
Si Si4 0.833440 0.580891 0.289395
Si Si5 0.664977 0.790005 0.918244
Si Si6 0.834142 0.843930 0.714664
Si Si7 0.660704 0.585139 0.422491
O O1 0.737982 0.867021 0.905839
O O2 0.804554 0.903643 0.774662
O O3 0.000000 0.903745 0.875411
O O4 0.791384 0.000000 0.874835
O O5 0.203436 0.368932 0.222401
O O6 0.255101 0.272684 0.125290
O O7 0.223227 0.232791 0.257577
O O8 0.000000 0.277234 0.181935
O O9 0.218158 0.109290 0.500000
O O10 0.237802 0.131051 0.640254
O O11 0.000000 0.080145 0.583156
O O12 0.227253 0.000000 0.588965
O O13 0.780931 0.500000 0.271769
O O14 0.760105 0.613991 0.359495
O O15 0.000000 0.582154 0.306049
O O16 0.500000 0.794463 0.894433
O O17 0.678728 0.768839 0.000000
O O18 0.000000 0.835451 0.699453
O O19 0.714052 0.612744 0.500000
O O20 0.500000 0.612395 0.408728
O O21 0.665497 0.500000 0.422242
#
# Coordination Sequence:
#
# PCOD8199182 Si02
#       7
#     8   8   8   8   8   8   8
#     4   9  17  29  47  70  94 123 157 189 222 263
#     4   9  18  32  49  68  89 116 150 185 225 278
#     4   8  12  17  28  49  77 109 143 179 220 258
#     4   9  17  29  46  69  95 120 149 190 238 283
#     4  10  21  35  50  69  93 120 148 181 225 274
#     4   8  13  23  38  56  82 114 148 184 218 255
#     4   8  14  25  41  62  89 121 156 190 223 265
#
# _framework density 17.024477999999998
#
# number of rings (size 3 to 8) (size 9 to 14) (size 15 to 20)
#    0.000    3.286    0.000    2.571    0.000    4.286 
#    0.000    3.571    0.000    3.000    0.000    3.000 
#    0.000    5.143    0.000   31.429    0.000   28.571 
#
# Total GULP energy -693943.577158 kJ/mol
# GULP energy per Si atom -12391.849592 kJ/mol
# Density = 1.698573 g / cm^3
# Si number density = 17.024478 Si / 1000 Ang^3
#
#
#
# Elastic Constant Matrix: (Units=GPa)
#
#
# Indices 1 2 3 4 5 6 
#
# 1 55.9472 36.3224 45.4220 0.0000 0.0000 0.0000
# 2 36.3224 82.4914 50.9503 0.0000 0.0000 0.0000
# 3 45.4220 50.9503 113.0849 0.0000 0.0000 0.0000
# 4 0.0000 0.0000 0.0000 18.2032 0.0000 0.0000
# 5 0.0000 0.0000 0.0000 0.0000 22.4224 0.0000
# 6 0.0000 0.0000 0.0000 0.0000 0.0000 11.5640
#
#
#
# Elastic Compliance Matrix: (Units=1/GPa)
#
#
# Indices 1 2 3 4 5 6 
#
# 1 0.029869 -0.007956 -0.008413 0.000000 0.000000 0.000000
# 2 -0.007956 0.018916 -0.005327 0.000000 0.000000 0.000000
# 3 -0.008413 -0.005327 0.014622 0.000000 0.000000 0.000000
# 4 0.000000 0.000000 0.000000 0.054935 0.000000 0.000000
# 5 0.000000 0.000000 0.000000 0.000000 0.044598 0.000000
# 6 0.000000 0.000000 0.000000 0.000000 0.000000 0.086475
#
#
# Mechanical properties :
#
#
# Convention : Reuss Voigt Hill
#
# Bulk Modulus (GPa) = 49.96036 57.43477 53.69756
# Shear Modulus (GPa) = 16.69567 18.35985 17.52776
#
# Velocity S-wave (km/s) = 3.13499 3.28752 3.21216
# Velocity P-wave (km/s) = 6.52028 6.94408 6.73551
#
# Compressibility (1/GPa) = 0.02001587
#
# Stress axis : x y z
#
# Youngs Moduli (GPa) = 33.47916 52.86617 68.38962
#
# Poissons Ratio (x) = 0.42059 0.57536
# Poissons Ratio (y) = 0.26635 0.36430
# Poissons Ratio (z) = 0.28166 0.28161
#
# Static dielectric constant tensor:
#      x y z
#    x 2.929870 0.000000 0.000000 
#    y 0.000000 3.115850 0.000000 
#    z 0.000000 0.000000 3.372330 
# 
# 
# High freq. dielectric constant tensor:
#      x y z
#    x 1.622180 0.000000 0.000000 
#    y 0.000000 1.634950 0.000000 
#    z 0.000000 0.000000 1.655950 
# 
# From -- ./inp_files/9860.got.cif
#   From: 2010.03.12/outbox.cif.g09.slc.cpg/sg47_5_cif.got.tgz:9860.got - 2010.04.14 03:12:58.
