data_PCOD8199032
_publ_section_title
;
Structure prediction by ZEFSAII (Michael W. Deem and Ramdas Pophale) SiO2 
 PCOD8199032
Probable space group: P M M M
;
_chemical_formula_sum "Si O2"
_cell_formula_units_Z 48
_cell_length_a 9.450459
_cell_length_b 15.217700
_cell_length_c 17.252575
_cell_angle_alpha 90.000000
_cell_angle_beta 90.000000
_cell_angle_gamma 90.000000
_cell_volume 2481.166133
_symmetry_space_group_name_H-M "P M M M"
_symmetry_group_IT_number 47
_symmetry_cell_setting 'orthorhombic'
loop_
_space_group_symop_operation_xyz
x,y,z
-x,-y,z
x,-y,-z
-x,y,-z
-x,-y,-z
x,y,-z
-x,y,z
x,-y,z
loop_
_atom_site_type_symbol
_atom_site_label
_atom_site_fract_x
_atom_site_fract_y
_atom_site_fract_z
Si Si1 0.335214 0.104024 0.691647
Si Si2 0.667928 0.664544 0.000000
Si Si3 0.846223 0.899393 0.166944
Si Si4 0.836146 0.763424 0.409861
Si Si5 0.836534 0.162304 0.000000
Si Si6 0.656089 0.397962 0.162998
Si Si7 0.164314 0.600461 0.306261
O O1 0.500000 0.127526 0.692157
O O2 0.270826 0.138284 0.773928
O O3 0.258515 0.158129 0.624124
O O4 0.311660 0.000000 0.677501
O O5 0.725023 0.761248 0.000000
O O6 0.724477 0.618368 0.921758
O O7 0.500000 0.661693 0.000000
O O8 0.000000 0.853030 0.180512
O O9 0.863122 0.000000 0.187743
O O10 0.801030 0.892465 0.077193
O O11 0.801893 0.757331 0.500000
O O12 0.797901 0.667271 0.375451
O O13 0.000000 0.786407 0.393887
O O14 0.000000 0.193837 0.000000
O O15 0.500000 0.353762 0.169481
O O16 0.640809 0.500000 0.176003
O O17 0.756819 0.361282 0.230290
O O18 0.210097 0.500000 0.328411
O O19 0.000000 0.602101 0.285992
#
# Coordination Sequence:
#
# PCOD8199032 Si02
#       7
#     8   4   8   8   4   8   8
#     4  10  22  39  59  84 114 148 186 230 280 330
#     4  10  21  33  47  73 107 144 184 225 267 315
#     4   9  18  35  57  78 104 142 185 226 270 322
#     4  10  22  39  60  86 114 146 183 224 275 337
#     4  10  21  33  49  77 109 142 180 225 271 317
#     4   9  18  34  54  74 101 142 187 226 267 317
#     4   9  19  36  58  84 113 144 181 227 277 328
#
# _framework density 19.345742999999999
#
# number of rings (size 3 to 8) (size 9 to 14) (size 15 to 20)
#    0.000    2.500    0.000    1.000    2.333    6.000 
#    0.000    3.333    0.000    5.000    0.000    3.500 
#    0.000    0.000    0.000    0.000    0.000    0.000 
#
# Total GULP energy -594902.089310 kJ/mol
# GULP energy per Si atom -12393.793527 kJ/mol
# Density = 1.930171 g / cm^3
# Si number density = 19.345743 Si / 1000 Ang^3
#
#
#
# Elastic Constant Matrix: (Units=GPa)
#
#
# Indices 1 2 3 4 5 6 
#
# 1 78.4865 46.1915 76.9189 0.0000 0.0000 0.0000
# 2 46.1915 64.6476 53.3111 0.0000 0.0000 0.0000
# 3 76.9189 53.3111 175.1942 0.0000 0.0000 0.0000
# 4 0.0000 0.0000 0.0000 34.7857 0.0000 0.0000
# 5 0.0000 0.0000 0.0000 0.0000 24.5325 0.0000
# 6 0.0000 0.0000 0.0000 0.0000 0.0000 26.3242
#
#
#
# Elastic Compliance Matrix: (Units=1/GPa)
#
#
# Indices 1 2 3 4 5 6 
#
# 1 0.029417 -0.013841 -0.008704 0.000000 0.000000 0.000000
# 2 -0.013841 0.027163 -0.002189 0.000000 0.000000 0.000000
# 3 -0.008704 -0.002189 0.010195 0.000000 0.000000 0.000000
# 4 0.000000 0.000000 0.000000 0.028747 0.000000 0.000000
# 5 0.000000 0.000000 0.000000 0.000000 0.040762 0.000000
# 6 0.000000 0.000000 0.000000 0.000000 0.000000 0.037988
#
#
# Mechanical properties :
#
#
# Convention : Reuss Voigt Hill
#
# Bulk Modulus (GPa) = 57.77637 74.57457 66.17547
# Shear Modulus (GPa) = 21.78563 26.58892 24.18727
#
# Velocity S-wave (km/s) = 3.35941 3.71132 3.53974
# Velocity P-wave (km/s) = 6.70653 7.54965 7.14054
#
# Compressibility (1/GPa) = 0.01730811
#
# Stress axis : x y z
#
# Youngs Moduli (GPa) = 33.99424 36.81459 98.08512
#
# Poissons Ratio (x) = 0.50956 0.85369
# Poissons Ratio (y) = 0.47053 0.21467
# Poissons Ratio (z) = 0.29587 0.08057
#
# Static dielectric constant tensor:
#      x y z
#    x 3.603070 0.000000 0.000000 
#    y 0.000000 3.438740 0.000000 
#    z 0.000000 0.000000 56.838560 
# 
# 
# High freq. dielectric constant tensor:
#      x y z
#    x 1.746180 0.000000 0.000000 
#    y 0.000000 1.743890 0.000000 
#    z 0.000000 0.000000 1.756480 
# 
# From -- ./inp_files/26483.got.cif
#   From: 2010.03.12/outbox.cif.g09.slc.cpg/sg47_14_cif.got.tgz:26483.got - 2010.04.14 03:12:58.
