data_PCOD8199294
_publ_section_title
;
Structure prediction by ZEFSAII (Michael W. Deem and Ramdas Pophale) SiO2 
 PCOD8199294
Probable space group: P M M M
;
_chemical_formula_sum "Si O2"
_cell_formula_units_Z 48
_cell_length_a 9.302882
_cell_length_b 30.738912
_cell_length_c 9.453551
_cell_angle_alpha 90.000000
_cell_angle_beta 90.000000
_cell_angle_gamma 90.000000
_cell_volume 2703.341898
_symmetry_space_group_name_H-M "P M M M"
_symmetry_group_IT_number 47
_symmetry_cell_setting 'orthorhombic'
loop_
_space_group_symop_operation_xyz
x,y,z
-x,-y,z
x,-y,-z
-x,y,-z
-x,-y,-z
x,y,-z
-x,y,z
x,-y,z
loop_
_atom_site_type_symbol
_atom_site_label
_atom_site_fract_x
_atom_site_fract_y
_atom_site_fract_z
Si Si1 0.666462 0.550375 0.660322
Si Si2 0.337573 0.787677 0.331793
Si Si3 0.166940 0.871201 0.665497
Si Si4 0.168936 0.619531 0.837377
Si Si5 0.170785 0.047829 0.159006
Si Si6 0.167338 0.703550 0.664181
O O1 0.714819 0.561394 0.500000
O O2 0.500000 0.561910 0.679984
O O3 0.694773 0.500000 0.693028
O O4 0.757368 0.577445 0.771743
O O5 0.335059 0.788324 0.500000
O O6 0.500000 0.787634 0.273131
O O7 0.254767 0.830091 0.274356
O O8 0.256227 0.744677 0.278015
O O9 0.191084 0.877447 0.500000
O O10 0.230372 0.914495 0.739116
O O11 0.000000 0.863455 0.701801
O O12 0.219905 0.662276 0.753621
O O13 0.000000 0.613033 0.821432
O O14 0.215679 0.624372 0.000000
O O15 0.000000 0.048031 0.164117
O O16 0.226132 0.000000 0.208689
O O17 0.224614 0.057146 0.000000
O O18 0.200020 0.693973 0.500000
O O19 0.000000 0.713729 0.688353
#
# Coordination Sequence:
#
# PCOD8199294 Si02
#       6
#     8   8   8   8   8   8
#     4   9  19  36  56  77 101 131 169 209 245 285
#     4   9  17  29  46  68  92 118 150 189 232 277
#     4   9  16  26  43  67  91 114 144 184 227 269
#     4  10  21  35  51  75 106 135 163 199 245 294
#     4   8  14  25  41  62  88 116 146 181 221 265
#     4   9  17  31  51  71  92 122 160 198 235 278
#
# _framework density 17.755801000000002
#
# number of rings (size 3 to 8) (size 9 to 14) (size 15 to 20)
#    0.000    3.000    0.000    2.000    0.000    5.000 
#    0.000    6.667    0.000    6.000    0.000    3.500 
#    0.000    0.000    0.000    0.000    0.000    0.000 
#
# Total GULP energy -595127.991346 kJ/mol
# GULP energy per Si atom -12398.499820 kJ/mol
# Density = 1.771539 g / cm^3
# Si number density = 17.755801 Si / 1000 Ang^3
#
#
#
# Elastic Constant Matrix: (Units=GPa)
#
#
# Indices 1 2 3 4 5 6 
#
# 1 56.7606 57.2809 35.9323 0.0000 0.0000 0.0000
# 2 57.2809 152.5830 70.6296 0.0000 0.0000 0.0000
# 3 35.9323 70.6296 77.6468 0.0000 0.0000 0.0000
# 4 0.0000 0.0000 0.0000 10.2275 0.0000 0.0000
# 5 0.0000 0.0000 0.0000 0.0000 16.2949 0.0000
# 6 0.0000 0.0000 0.0000 0.0000 0.0000 7.0618
#
#
#
# Elastic Compliance Matrix: (Units=1/GPa)
#
#
# Indices 1 2 3 4 5 6 
#
# 1 0.030044 -0.008365 -0.006294 0.000000 0.000000 0.000000
# 2 -0.008365 0.013650 -0.008545 0.000000 0.000000 0.000000
# 3 -0.006294 -0.008545 0.023564 0.000000 0.000000 0.000000
# 4 0.000000 0.000000 0.000000 0.097775 0.000000 0.000000
# 5 0.000000 0.000000 0.000000 0.000000 0.061369 0.000000
# 6 0.000000 0.000000 0.000000 0.000000 0.000000 0.141607
#
#
# Mechanical properties :
#
#
# Convention : Reuss Voigt Hill
#
# Bulk Modulus (GPa) = 47.96294 68.29735 58.13015
# Shear Modulus (GPa) = 11.86611 14.92669 13.39640
#
# Velocity S-wave (km/s) = 2.58794 2.90257 2.74976
# Velocity P-wave (km/s) = 6.00009 7.05560 6.54915
#
# Compressibility (1/GPa) = 0.02084943
#
# Stress axis : x y z
#
# Youngs Moduli (GPa) = 33.28401 73.26238 42.43738
#
# Poissons Ratio (x) = 0.61287 0.26711
# Poissons Ratio (y) = 0.27843 0.36262
# Poissons Ratio (z) = 0.20950 0.62601
#
# Static dielectric constant tensor:
#      x y z
#    x 3.100490 0.000000 0.000000 
#    y 0.000000 3.531240 0.000000 
#    z 0.000000 0.000000 3.150040 
# 
# 
# High freq. dielectric constant tensor:
#      x y z
#    x 1.662940 0.000000 0.000000 
#    y 0.000000 1.701160 0.000000 
#    z 0.000000 0.000000 1.664440 
# 
# From -- ./inp_files/2518.got.cif
#   From: 2010.03.12/outbox.cif.g09.slc.cpg/sg47_2_cif.got.tgz:2518.got - 2010.04.14 03:12:58.
