data_PCOD8199314
_publ_section_title
;
Structure prediction by ZEFSAII (Michael W. Deem and Ramdas Pophale) SiO2 
 PCOD8199314
Probable space group: P M M M
;
_chemical_formula_sum "Si O2"
_cell_formula_units_Z 56
_cell_length_a 20.999966
_cell_length_b 14.351659
_cell_length_c 9.210541
_cell_angle_alpha 90.000000
_cell_angle_beta 90.000000
_cell_angle_gamma 90.000000
_cell_volume 2775.912922
_symmetry_space_group_name_H-M "P M M M"
_symmetry_group_IT_number 47
_symmetry_cell_setting 'orthorhombic'
loop_
_space_group_symop_operation_xyz
x,y,z
-x,-y,z
x,-y,-z
-x,y,-z
-x,-y,-z
x,y,-z
-x,y,z
x,-y,z
loop_
_atom_site_type_symbol
_atom_site_label
_atom_site_fract_x
_atom_site_fract_y
_atom_site_fract_z
Si Si1 0.116252 0.101647 0.171411
Si Si2 0.813773 0.389841 0.332735
Si Si3 0.688312 0.393027 0.170567
Si Si4 0.255560 0.890533 0.840476
Si Si5 0.376929 0.892627 0.329679
Si Si6 0.429670 0.731116 0.167002
Si Si7 0.070907 0.704228 0.830582
O O1 0.186419 0.132502 0.227598
O O2 0.069198 0.185551 0.212854
O O3 0.094984 0.000000 0.236610
O O4 0.121343 0.089346 0.000000
O O5 0.810226 0.359442 0.500000
O O6 0.817023 0.500000 0.314243
O O7 0.750764 0.351187 0.250963
O O8 0.878229 0.350376 0.263875
O O9 0.678179 0.500000 0.215693
O O10 0.624543 0.339928 0.222570
O O11 0.699951 0.382692 0.000000
O O12 0.309435 0.854847 0.731257
O O13 0.261360 0.000000 0.859229
O O14 0.265143 0.843340 0.000000
O O15 0.377148 0.878723 0.500000
O O16 0.429905 0.827249 0.257714
O O17 0.390438 0.000000 0.287697
O O18 0.500000 0.685783 0.187324
O O19 0.417364 0.756697 0.000000
O O20 0.000000 0.665137 0.798833
O O21 0.088464 0.692536 0.000000
#
# Coordination Sequence:
#
# PCOD8199314 Si02
#       7
#     8   8   8   8   8   8   8
#     4   8  15  29  50  77 109 145 184 226 273 325
#     4  10  22  40  61  84 111 145 185 230 281 337
#     4   9  19  38  64  90 114 141 176 223 278 335
#     4   8  14  27  48  72  98 133 180 230 276 321
#     4  10  21  35  51  75 110 150 191 234 277 321
#     4  10  22  38  57  84 115 148 185 224 272 331
#     4  10  21  35  54  84 118 151 189 233 280 329
#
# _framework density 20.173544
#
# number of rings (size 3 to 8) (size 9 to 14) (size 15 to 20)
#    0.000    2.714    0.000    1.714    2.000    4.000 
#    0.000    5.714    0.000    0.429    0.000    4.000 
#    0.000    0.000    0.000    0.000    0.000    0.000 
#
# Total GULP energy -694090.591822 kJ/mol
# GULP energy per Si atom -12394.474854 kJ/mol
# Density = 2.012763 g / cm^3
# Si number density = 20.173544 Si / 1000 Ang^3
#
#
#
# Elastic Constant Matrix: (Units=GPa)
#
#
# Indices 1 2 3 4 5 6 
#
# 1 143.7720 50.3937 54.6592 0.0000 0.0000 0.0000
# 2 50.3937 57.1737 35.6105 0.0000 0.0000 0.0000
# 3 54.6592 35.6105 71.1591 0.0000 0.0000 0.0000
# 4 0.0000 0.0000 0.0000 20.8250 0.0000 0.0000
# 5 0.0000 0.0000 0.0000 0.0000 -0.9215 0.0000
# 6 0.0000 0.0000 0.0000 0.0000 0.0000 27.6341
#
#
#
# Elastic Compliance Matrix: (Units=1/GPa)
#
#
# Indices 1 2 3 4 5 6 
#
# 1 0.011325 -0.006631 -0.005381 0.000000 0.000000 0.000000
# 2 -0.006631 0.029293 -0.009566 0.000000 0.000000 0.000000
# 3 -0.005381 -0.009566 0.022974 0.000000 0.000000 0.000000
# 4 0.000000 0.000000 0.000000 0.048019 0.000000 0.000000
# 5 0.000000 0.000000 0.000000 0.000000 -1.085195 0.000000
# 6 0.000000 0.000000 0.000000 0.000000 0.000000 0.036187
#
#
# Mechanical properties :
#
#
# Convention : Reuss Voigt Hill
#
# Bulk Modulus (GPa) = 48.93245 61.49240 55.21242
# Shear Modulus (GPa) = -5.63426 18.27029 6.31802
#
# Velocity S-wave (km/s) = -1.67301 3.01268 1.77162
# Velocity P-wave (km/s) = 4.53613 6.53066 5.62254
#
# Compressibility (1/GPa) = 0.02043634
#
# Stress axis : x y z
#
# Youngs Moduli (GPa) = 88.29720 34.13752 43.52832
#
# Poissons Ratio (x) = 0.22636 0.23423
# Poissons Ratio (y) = 0.58548 0.41640
# Poissons Ratio (z) = 0.47513 0.32656
#
# Static dielectric constant tensor:
#      x y z
#    x 3.813190 0.000000 0.000000 
#    y 0.000000 3.690270 0.000000 
#    z 0.000000 0.000000 3.433100 
# 
# 
# High freq. dielectric constant tensor:
#      x y z
#    x 1.790880 0.000000 0.000000 
#    y 0.000000 1.784520 0.000000 
#    z 0.000000 0.000000 1.754710 
# 
# From -- ./inp_files/11186.got.cif
#   From: 2010.03.12/outbox.cif.g09.slc.cpg/sg47_6_cif.got.tgz:11186.got - 2010.04.14 03:12:58.
