data_PCOD8199757
_publ_section_title
;
Structure prediction by ZEFSAII (Michael W. Deem and Ramdas Pophale) SiO2 
 PCOD8199757
Probable space group: P M M M
;
_chemical_formula_sum "Si O2"
_cell_formula_units_Z 40
_cell_length_a 9.468068
_cell_length_b 25.645206
_cell_length_c 8.936595
_cell_angle_alpha 90.000000
_cell_angle_beta 90.000000
_cell_angle_gamma 90.000000
_cell_volume 2169.899585
_symmetry_space_group_name_H-M "P M M M"
_symmetry_group_IT_number 47
_symmetry_cell_setting 'orthorhombic'
loop_
_space_group_symop_operation_xyz
x,y,z
-x,-y,z
x,-y,-z
-x,y,-z
-x,-y,-z
x,y,-z
-x,y,z
x,-y,z
loop_
_atom_site_type_symbol
_atom_site_label
_atom_site_fract_x
_atom_site_fract_y
_atom_site_fract_z
Si Si1 0.335563 0.410176 0.325425
Si Si2 0.839241 0.500000 0.176624
Si Si3 0.163148 0.091430 0.175803
Si Si4 0.656226 0.293891 0.677787
Si Si5 0.836074 0.198170 0.671945
Si Si6 0.336007 0.000000 0.676548
O O1 0.304427 0.418332 0.500000
O O2 0.500000 0.421303 0.291914
O O3 0.238484 0.448622 0.233031
O O4 0.294583 0.351596 0.272484
O O5 0.000000 0.500000 0.235876
O O6 0.834437 0.500000 0.000000
O O7 0.208614 0.148653 0.229888
O O8 0.262736 0.050912 0.258018
O O9 0.000000 0.080109 0.218205
O O10 0.187285 0.086745 0.000000
O O11 0.653834 0.292866 0.500000
O O12 0.500000 0.282420 0.740838
O O13 0.758853 0.248973 0.739461
O O14 0.792963 0.187253 0.500000
O O15 0.000000 0.210107 0.686636
O O16 0.500000 0.000000 0.722654
O O17 0.316140 0.000000 0.500000
#
# Coordination Sequence:
#
# PCOD8199757 Si02
#       6
#     8   4   8   8   8   4
#     4   9  18  34  56  79 101 130 171 214 256 306
#     4  11  24  37  48  70 104 137 170 211 260 310
#     4  10  21  37  56  78 106 141 177 211 252 304
#     4   8  15  29  50  76 103 129 162 208 256 299
#     4   9  17  30  50  76 104 135 171 208 247 295
#     4  11  24  39  56  80 106 133 170 217 266 310
#
# _framework density 18.434032999999999
#
# number of rings (size 3 to 8) (size 9 to 14) (size 15 to 20)
#    0.000    2.600    0.000    3.000    0.000    7.200 
#    0.000    5.000    0.000    3.600    0.000    0.000 
#    0.000    0.000    0.000    0.000    0.000    0.000 
#
# Total GULP energy -495965.196720 kJ/mol
# GULP energy per Si atom -12399.129918 kJ/mol
# Density = 1.839208 g / cm^3
# Si number density = 18.434033 Si / 1000 Ang^3
#
#
#
# Elastic Constant Matrix: (Units=GPa)
#
#
# Indices 1 2 3 4 5 6 
#
# 1 107.1215 97.7391 49.2499 0.0000 0.0000 0.0000
# 2 97.7391 172.5948 50.7539 0.0000 0.0000 0.0000
# 3 49.2499 50.7539 56.8878 0.0000 0.0000 0.0000
# 4 0.0000 0.0000 0.0000 -19.6200 0.0000 0.0000
# 5 0.0000 0.0000 0.0000 0.0000 22.5773 0.0000
# 6 0.0000 0.0000 0.0000 0.0000 0.0000 40.4715
#
#
#
# Elastic Compliance Matrix: (Units=1/GPa)
#
#
# Indices 1 2 3 4 5 6 
#
# 1 0.023952 -0.010122 -0.011706 0.000000 0.000000 0.000000
# 2 -0.010122 0.012132 -0.002061 0.000000 0.000000 0.000000
# 3 -0.011706 -0.002061 0.029552 0.000000 0.000000 0.000000
# 4 0.000000 0.000000 0.000000 -0.050968 0.000000 0.000000
# 5 0.000000 0.000000 0.000000 0.000000 0.044292 0.000000
# 6 0.000000 0.000000 0.000000 0.000000 0.000000 0.024709
#
#
# Mechanical properties :
#
#
# Convention : Reuss Voigt Hill
#
# Bulk Modulus (GPa) = 55.99665 81.34334 68.66999
# Shear Modulus (GPa) = 36.39040 17.94316 27.16678
#
# Velocity S-wave (km/s) = 4.44789 3.12328 3.84308
# Velocity P-wave (km/s) = 7.53797 7.56498 7.55149
#
# Compressibility (1/GPa) = 0.01785821
#
# Stress axis : x y z
#
# Youngs Moduli (GPa) = 41.74955 82.42796 33.83908
#
# Poissons Ratio (x) = 0.83431 0.39612
# Poissons Ratio (y) = 0.42258 0.06974
# Poissons Ratio (z) = 0.48873 0.16988
#
# Static dielectric constant tensor:
#      x y z
#    x 3.519550 0.000000 0.000000 
#    y 0.000000 3.696660 0.000000 
#    z 0.000000 0.000000 3.171320 
# 
# 
# High freq. dielectric constant tensor:
#      x y z
#    x 1.712050 0.000000 0.000000 
#    y 0.000000 1.731620 0.000000 
#    z 0.000000 0.000000 1.692040 
# 
# From -- ./inp_files/1755.got.cif
#   From: 2010.03.12/outbox.cif.g09.slc.cpg/sg47_1_cif.got.tgz:1755.got - 2010.04.14 03:12:58.
