data_PCOD8199241
_publ_section_title
;
Structure prediction by ZEFSAII (Michael W. Deem and Ramdas Pophale) SiO2 
 PCOD8199241
Probable space group: P M M M
;
_chemical_formula_sum "Si O2"
_cell_formula_units_Z 44
_cell_length_a 8.009067
_cell_length_b 30.341124
_cell_length_c 9.211549
_cell_angle_alpha 90.000000
_cell_angle_beta 90.000000
_cell_angle_gamma 90.000000
_cell_volume 2238.444128
_symmetry_space_group_name_H-M "P M M M"
_symmetry_group_IT_number 47
_symmetry_cell_setting 'orthorhombic'
loop_
_space_group_symop_operation_xyz
x,y,z
-x,-y,z
x,-y,-z
-x,y,-z
-x,-y,-z
x,y,-z
-x,y,z
x,-y,z
loop_
_atom_site_type_symbol
_atom_site_label
_atom_site_fract_x
_atom_site_fract_y
_atom_site_fract_z
Si Si1 0.500000 0.049128 0.171857
Si Si2 0.805919 0.198117 0.665411
Si Si3 0.306801 0.719475 0.840361
Si Si4 0.809089 0.108435 0.170153
Si Si5 0.693361 0.360902 0.661367
Si Si6 0.806916 0.547287 0.670572
O O1 0.671666 0.072847 0.222877
O O2 0.500000 0.000000 0.239100
O O3 0.500000 0.046603 0.000000
O O4 0.742292 0.195192 0.500000
O O5 0.710033 0.236618 0.746820
O O6 0.765243 0.152455 0.743716
O O7 0.000000 0.209089 0.672458
O O8 0.500000 0.709382 0.861514
O O9 0.222757 0.677475 0.758998
O O10 0.223295 0.725208 0.000000
O O11 0.000000 0.092338 0.204205
O O12 0.789784 0.118460 0.000000
O O13 0.776018 0.359623 0.500000
O O14 0.500000 0.350693 0.646133
O O15 0.718050 0.409201 0.735555
O O16 0.773755 0.546630 0.500000
O O17 0.739491 0.500000 0.733820
O O18 0.000000 0.551359 0.707985
#
# Coordination Sequence:
#
# PCOD8199241 Si02
#       6
#     4   8   8   8   8   8
#     4   9  18  32  53  83 113 143 185 229 268 317
#     4  10  21  36  54  77 104 134 171 215 262 312
#     4  10  21  35  51  72 100 134 169 207 253 306
#     4   9  18  33  53  78 110 145 181 225 272 317
#     4   9  17  29  45  67  95 124 158 201 247 297
#     4   8  14  25  42  65  91 118 151 194 244 295
#
# _framework density 19.656509
#
# number of rings (size 3 to 8) (size 9 to 14) (size 15 to 20)
#    0.000    2.818    0.000    1.636    1.273    3.636 
#    0.000    5.455    0.000    1.636    0.000    6.364 
#    0.000    0.000    0.000    0.000    0.000    0.000 
#
# Total GULP energy -545221.984124 kJ/mol
# GULP energy per Si atom -12391.408730 kJ/mol
# Density = 1.961177 g / cm^3
# Si number density = 19.656509 Si / 1000 Ang^3
#
#
#
# Elastic Constant Matrix: (Units=GPa)
#
#
# Indices 1 2 3 4 5 6 
#
# 1 55.7589 53.5125 23.0617 0.0000 0.0000 0.0000
# 2 53.5125 179.4779 67.4298 0.0000 0.0000 0.0000
# 3 23.0617 67.4298 86.3726 0.0000 0.0000 0.0000
# 4 0.0000 0.0000 0.0000 20.6926 0.0000 0.0000
# 5 0.0000 0.0000 0.0000 0.0000 13.1738 0.0000
# 6 0.0000 0.0000 0.0000 0.0000 0.0000 11.8137
#
#
#
# Elastic Compliance Matrix: (Units=1/GPa)
#
#
# Indices 1 2 3 4 5 6 
#
# 1 0.025214 -0.007059 -0.001221 0.000000 0.000000 0.000000
# 2 -0.007059 0.009860 -0.005813 0.000000 0.000000 0.000000
# 3 -0.001221 -0.005813 0.016442 0.000000 0.000000 0.000000
# 4 0.000000 0.000000 0.000000 0.048326 0.000000 0.000000
# 5 0.000000 0.000000 0.000000 0.000000 0.075908 0.000000
# 6 0.000000 0.000000 0.000000 0.000000 0.000000 0.084647
#
#
# Mechanical properties :
#
#
# Convention : Reuss Voigt Hill
#
# Bulk Modulus (GPa) = 42.86396 67.73526 55.29961
# Shear Modulus (GPa) = 16.87130 20.97640 18.92385
#
# Velocity S-wave (km/s) = 2.93286 3.27027 3.10615
# Velocity P-wave (km/s) = 5.77259 6.98526 6.40767
#
# Compressibility (1/GPa) = 0.02332962
#
# Stress axis : x y z
#
# Youngs Moduli (GPa) = 39.66052 101.41654 60.81962
#
# Poissons Ratio (x) = 0.71588 0.07429
# Poissons Ratio (y) = 0.27996 0.35355
# Poissons Ratio (z) = 0.04844 0.58954
#
# Static dielectric constant tensor:
#      x y z
#    x 3.445160 0.000000 0.000000 
#    y 0.000000 3.799480 0.000000 
#    z 0.000000 0.000000 3.556880 
# 
# 
# High freq. dielectric constant tensor:
#      x y z
#    x 1.750910 0.000000 0.000000 
#    y 0.000000 1.777140 0.000000 
#    z 0.000000 0.000000 1.729610 
# 
# From -- ./inp_files/2323.got.cif
#   From: 2010.03.12/outbox.cif.g09.slc.cpg/sg47_2_cif.got.tgz:2323.got - 2010.04.14 03:12:58.
