data_PCOD8199191
_publ_section_title
;
Structure prediction by ZEFSAII (Michael W. Deem and Ramdas Pophale) SiO2 
 PCOD8199191
Probable space group: P M M M
;
_chemical_formula_sum "Si O2"
_cell_formula_units_Z 64
_cell_length_a 14.117281
_cell_length_b 28.382265
_cell_length_c 9.185781
_cell_angle_alpha 90.000000
_cell_angle_beta 90.000000
_cell_angle_gamma 90.000000
_cell_volume 3680.562501
_symmetry_space_group_name_H-M "P M M M"
_symmetry_group_IT_number 47
_symmetry_cell_setting 'orthorhombic'
loop_
_space_group_symop_operation_xyz
x,y,z
-x,-y,z
x,-y,-z
-x,y,-z
-x,-y,-z
x,y,-z
-x,y,z
x,-y,z
loop_
_atom_site_type_symbol
_atom_site_label
_atom_site_fract_x
_atom_site_fract_y
_atom_site_fract_z
Si Si1 0.241938 0.946611 0.329226
Si Si2 0.760729 0.554153 0.828350
Si Si3 0.258593 0.196254 0.829652
Si Si4 0.607489 0.870072 0.670735
Si Si5 0.111352 0.375110 0.669189
Si Si6 0.604324 0.625727 0.170982
Si Si7 0.892525 0.119279 0.170113
Si Si8 0.237681 0.696911 0.171938
O O1 0.223575 0.943845 0.500000
O O2 0.334458 0.916745 0.283716
O O3 0.149118 0.926093 0.251577
O O4 0.258734 0.000000 0.277217
O O5 0.753728 0.500000 0.782181
O O6 0.847573 0.577908 0.743781
O O7 0.662751 0.579385 0.780691
O O8 0.778694 0.560495 0.000000
O O9 0.350438 0.175695 0.749551
O O10 0.165788 0.166111 0.787986
O O11 0.241280 0.249255 0.776003
O O12 0.280060 0.194779 0.000000
O O13 0.614120 0.860902 0.500000
O O14 0.500000 0.877725 0.722205
O O15 0.139030 0.374968 0.500000
O O16 0.152159 0.328261 0.744542
O O17 0.000000 0.375316 0.693343
O O18 0.500000 0.626149 0.245897
O O19 0.663001 0.672298 0.215901
O O20 0.590285 0.624874 0.000000
O O21 0.000000 0.127442 0.221156
O O22 0.886068 0.108774 0.000000
O O23 0.218479 0.692338 0.000000
#
# Coordination Sequence:
#
# PCOD8199191 Si02
#       8
#     8   8   8   8   8   8   8   8
#     4   9  18  32  49  69  93 122 158 199 239 280
#     4   9  18  32  50  72  96 125 163 202 239 281
#     4   9  18  32  50  72  97 125 158 197 238 280
#     4   9  18  32  49  70  97 128 160 194 235 283
#     4  10  21  35  50  70  97 128 160 195 239 289
#     4   8  14  26  45  70  98 123 150 188 231 274
#     4   9  18  32  48  67  93 124 157 193 237 290
#     4   9  18  32  51  74  97 124 159 197 235 276
#
# _framework density 17.388646000000001
#
# number of rings (size 3 to 8) (size 9 to 14) (size 15 to 20)
#    0.000    3.000    0.000    1.125    0.000    4.500 
#    0.000    7.500    0.000    6.000    0.000    7.000 
#    0.000    0.000    0.000    0.000    0.000    0.000 
#
# Total GULP energy -793557.516951 kJ/mol
# GULP energy per Si atom -12399.336202 kJ/mol
# Density = 1.734907 g / cm^3
# Si number density = 17.388646 Si / 1000 Ang^3
#
#
#
# Elastic Constant Matrix: (Units=GPa)
#
#
# Indices 1 2 3 4 5 6 
#
# 1 140.9212 72.1588 43.1491 0.0000 0.0000 0.0000
# 2 72.1588 160.4850 42.3776 0.0000 0.0000 0.0000
# 3 43.1491 42.3776 38.8766 0.0000 0.0000 0.0000
# 4 0.0000 0.0000 0.0000 21.3758 0.0000 0.0000
# 5 0.0000 0.0000 0.0000 0.0000 23.7025 0.0000
# 6 0.0000 0.0000 0.0000 0.0000 0.0000 0.3968
#
#
#
# Elastic Compliance Matrix: (Units=1/GPa)
#
#
# Indices 1 2 3 4 5 6 
#
# 1 0.011428 -0.002512 -0.009945 0.000000 0.000000 0.000000
# 2 -0.002512 0.009302 -0.007351 0.000000 0.000000 0.000000
# 3 -0.009945 -0.007351 0.044774 0.000000 0.000000 0.000000
# 4 0.000000 0.000000 0.000000 0.046782 0.000000 0.000000
# 5 0.000000 0.000000 0.000000 0.000000 0.042190 0.000000
# 6 0.000000 0.000000 0.000000 0.000000 0.000000 2.520163
#
#
# Mechanical properties :
#
#
# Convention : Reuss Voigt Hill
#
# Bulk Modulus (GPa) = 38.63067 72.85043 55.74055
# Shear Modulus (GPa) = 1.83629 21.26817 11.55223
#
# Velocity S-wave (km/s) = 1.02875 3.50109 2.58030
# Velocity P-wave (km/s) = 4.86573 7.63740 6.40333
#
# Compressibility (1/GPa) = 0.02588617
#
# Stress axis : x y z
#
# Youngs Moduli (GPa) = 87.50729 107.50602 22.33440
#
# Poissons Ratio (x) = 0.27006 0.22212
# Poissons Ratio (y) = 0.21982 0.16419
# Poissons Ratio (z) = 0.87028 0.79031
#
# Static dielectric constant tensor:
#      x y z
#    x 3.395390 0.000000 0.000000 
#    y 0.000000 3.369990 0.000000 
#    z 0.000000 0.000000 3.067480 
# 
# 
# High freq. dielectric constant tensor:
#      x y z
#    x 1.673800 0.000000 0.000000 
#    y 0.000000 1.674970 0.000000 
#    z 0.000000 0.000000 1.652970 
# 
# From -- ./inp_files/8307.got.cif
#   From: 2010.03.12/outbox.cif.g09.slc.cpg/sg47_5_cif.got.tgz:8307.got - 2010.04.14 03:12:58.
