data_PCOD8199725
_publ_section_title
;
Structure prediction by ZEFSAII (Michael W. Deem and Ramdas Pophale) SiO2 
 PCOD8199725
Probable space group: P M M M
;
_chemical_formula_sum "Si O2"
_cell_formula_units_Z 48
_cell_length_a 31.197494
_cell_length_b 8.982981
_cell_length_c 9.423098
_cell_angle_alpha 90.000000
_cell_angle_beta 90.000000
_cell_angle_gamma 90.000000
_cell_volume 2640.790195
_symmetry_space_group_name_H-M "P M M M"
_symmetry_group_IT_number 47
_symmetry_cell_setting 'orthorhombic'
loop_
_space_group_symop_operation_xyz
x,y,z
-x,-y,z
x,-y,-z
-x,y,-z
-x,-y,-z
x,y,-z
-x,y,z
x,-y,z
loop_
_atom_site_type_symbol
_atom_site_label
_atom_site_fract_x
_atom_site_fract_y
_atom_site_fract_z
Si Si1 0.045389 0.166988 0.331269
Si Si2 0.620808 0.173964 0.334855
Si Si3 0.695967 0.324487 0.162845
Si Si4 0.450228 0.671265 0.162716
Si Si5 0.136983 0.821867 0.340228
Si Si6 0.782921 0.827572 0.835244
O O1 0.047888 0.161147 0.500000
O O2 0.090660 0.241132 0.281363
O O3 0.000000 0.247735 0.284921
O O4 0.043315 0.000000 0.270640
O O5 0.620080 0.215403 0.500000
O O6 0.659017 0.261070 0.260826
O O7 0.575898 0.222441 0.266656
O O8 0.627615 0.000000 0.310055
O O9 0.696991 0.500000 0.178645
O O10 0.741134 0.260260 0.217010
O O11 0.687459 0.276174 0.000000
O O12 0.500000 0.700307 0.192462
O O13 0.438295 0.500000 0.193700
O O14 0.438831 0.709742 0.000000
O O15 0.145535 0.766123 0.500000
O O16 0.175595 0.761080 0.244165
O O17 0.134980 0.000000 0.335112
O O18 0.775753 0.000000 0.797815
O O19 0.791261 0.801839 0.000000
#
# Coordination Sequence:
#
# PCOD8199725 Si02
#       6
#     8   8   8   8   8   8
#     4   7   9  14  26  46  73 105 141 179 217 260
#     4  11  24  38  53  78 110 139 167 203 248 295
#     4  10  21  37  56  75  95 124 165 208 247 292
#     4   9  19  37  60  84 109 139 176 213 246 284
#     4   8  13  21  35  56  81 111 147 184 222 269
#     4   9  17  29  45  65  90 119 149 185 234 288
#
# _framework density 18.176378
#
# number of rings (size 3 to 8) (size 9 to 14) (size 15 to 20)
#    0.000    3.000    0.000    3.500    0.000    6.000 
#    0.000    4.167    0.000    0.500    0.000    3.500 
#    0.000    0.667    0.000    8.333    0.000    7.667 
#
# Total GULP energy -594773.514579 kJ/mol
# GULP energy per Si atom -12391.114887 kJ/mol
# Density = 1.813501 g / cm^3
# Si number density = 18.176378 Si / 1000 Ang^3
#
#
#
# Elastic Constant Matrix: (Units=GPa)
#
#
# Indices 1 2 3 4 5 6 
#
# 1 157.1680 38.0494 63.0499 0.0000 0.0000 0.0000
# 2 38.0494 38.3816 28.0085 0.0000 0.0000 0.0000
# 3 63.0499 28.0085 67.6740 0.0000 0.0000 0.0000
# 4 0.0000 0.0000 0.0000 18.8925 0.0000 0.0000
# 5 0.0000 0.0000 0.0000 0.0000 22.9137 0.0000
# 6 0.0000 0.0000 0.0000 0.0000 0.0000 -2.1461
#
#
#
# Elastic Compliance Matrix: (Units=1/GPa)
#
#
# Indices 1 2 3 4 5 6 
#
# 1 0.010742 -0.004794 -0.008024 0.000000 0.000000 0.000000
# 2 -0.004794 0.039467 -0.011868 0.000000 0.000000 0.000000
# 3 -0.008024 -0.011868 0.027165 0.000000 0.000000 0.000000
# 4 0.000000 0.000000 0.000000 0.052931 0.000000 0.000000
# 5 0.000000 0.000000 0.000000 0.000000 0.043642 0.000000
# 6 0.000000 0.000000 0.000000 0.000000 0.000000 -0.465962
#
#
# Mechanical properties :
#
#
# Convention : Reuss Voigt Hill
#
# Bulk Modulus (GPa) = 35.71229 57.93769 46.82499
# Shear Modulus (GPa) = -21.43082 16.87307 -2.27887
#
# Velocity S-wave (km/s) = -3.43745 3.05010 -1.12093
# Velocity P-wave (km/s) = 1.98382 6.65948 4.91346
#
# Compressibility (1/GPa) = 0.02800156
#
# Stress axis : x y z
#
# Youngs Moduli (GPa) = 93.09143 25.33766 36.81265
#
# Poissons Ratio (x) = 0.12146 0.29539
# Poissons Ratio (y) = 0.44625 0.43690
# Poissons Ratio (z) = 0.74698 0.30071
#
# Static dielectric constant tensor:
#      x y z
#    x 3.875060 0.000000 0.000000 
#    y 0.000000 2.986240 0.000000 
#    z 0.000000 0.000000 3.208770 
# 
# 
# High freq. dielectric constant tensor:
#      x y z
#    x 1.732580 0.000000 0.000000 
#    y 0.000000 1.661040 0.000000 
#    z 0.000000 0.000000 1.678480 
# 
# From -- ./inp_files/13791.got.cif
#   From: 2010.03.12/outbox.cif.g09.slc.cpg/sg47_7_cif.got.tgz:13791.got - 2010.04.14 03:12:58.
