data_PCOD8199638
_publ_section_title
;
Structure prediction by ZEFSAII (Michael W. Deem and Ramdas Pophale) SiO2 
 PCOD8199638
Probable space group: P M M M
;
_chemical_formula_sum "Si O2"
_cell_formula_units_Z 44
_cell_length_a 30.033118
_cell_length_b 8.037796
_cell_length_c 9.072037
_cell_angle_alpha 90.000000
_cell_angle_beta 90.000000
_cell_angle_gamma 90.000000
_cell_volume 2189.990419
_symmetry_space_group_name_H-M "P M M M"
_symmetry_group_IT_number 47
_symmetry_cell_setting 'orthorhombic'
loop_
_space_group_symop_operation_xyz
x,y,z
-x,-y,z
x,-y,-z
-x,y,-z
-x,-y,-z
x,y,-z
-x,y,z
x,-y,z
loop_
_atom_site_type_symbol
_atom_site_label
_atom_site_fract_x
_atom_site_fract_y
_atom_site_fract_z
Si Si1 0.947396 0.000000 0.669794
Si Si2 0.809902 0.693774 0.334860
Si Si3 0.099956 0.693733 0.825211
Si Si4 0.630555 0.183551 0.173966
Si Si5 0.548066 0.692694 0.660848
Si Si6 0.273534 0.805784 0.838286
O O1 0.932028 0.171388 0.748500
O O2 0.930883 0.000000 0.500000
O O3 0.000000 0.000000 0.678453
O O4 0.820540 0.758778 0.500000
O O5 0.801301 0.500000 0.335836
O O6 0.850501 0.739645 0.227525
O O7 0.765018 0.776728 0.278743
O O8 0.087953 0.500000 0.782185
O O9 0.096873 0.716786 0.000000
O O10 0.588482 0.285111 0.227991
O O11 0.678648 0.266205 0.218360
O O12 0.626496 0.000000 0.243032
O O13 0.628680 0.177213 0.000000
O O14 0.559139 0.771453 0.500000
O O15 0.500000 0.765726 0.718062
O O16 0.541588 0.500000 0.640830
O O17 0.281331 0.000000 0.857688
O O18 0.260742 0.730238 0.000000
#
# Coordination Sequence:
#
# PCOD8199638 Si02
#       6
#     4   8   8   8   8   8
#     4  11  25  43  65  95 129 167 209 253 308 369
#     4  10  21  36  55  82 115 149 187 232 283 339
#     4  10  22  41  65  92 124 164 209 257 306 359
#     4   9  19  35  52  73 102 134 171 216 266 321
#     4   9  19  35  52  71  97 129 166 210 262 321
#     4   9  19  35  53  74 104 142 180 220 269 326
#
# _framework density 20.09141
#
# number of rings (size 3 to 8) (size 9 to 14) (size 15 to 20)
#    0.000    2.455    0.000    3.000    1.273    6.545 
#    0.000   10.000    0.000    0.000    0.000    0.000 
#    0.000    0.000    0.000    0.000    0.000    0.000 
#
# Total GULP energy -545127.243942 kJ/mol
# GULP energy per Si atom -12389.255544 kJ/mol
# Density = 2.004568 g / cm^3
# Si number density = 20.091410 Si / 1000 Ang^3
#
#
#
# Elastic Constant Matrix: (Units=GPa)
#
#
# Indices 1 2 3 4 5 6 
#
# 1 134.8314 45.3411 55.2025 0.0000 0.0000 0.0000
# 2 45.3411 62.0821 40.6100 0.0000 0.0000 0.0000
# 3 55.2025 40.6100 92.8629 0.0000 0.0000 0.0000
# 4 0.0000 0.0000 0.0000 30.9287 0.0000 0.0000
# 5 0.0000 0.0000 0.0000 0.0000 35.8718 0.0000
# 6 0.0000 0.0000 0.0000 0.0000 0.0000 31.2737
#
#
#
# Elastic Compliance Matrix: (Units=1/GPa)
#
#
# Indices 1 2 3 4 5 6 
#
# 1 0.010884 -0.005206 -0.004193 0.000000 0.000000 0.000000
# 2 -0.005206 0.025052 -0.007861 0.000000 0.000000 0.000000
# 3 -0.004193 -0.007861 0.016699 0.000000 0.000000 0.000000
# 4 0.000000 0.000000 0.000000 0.032332 0.000000 0.000000
# 5 0.000000 0.000000 0.000000 0.000000 0.027877 0.000000
# 6 0.000000 0.000000 0.000000 0.000000 0.000000 0.031976
#
#
# Mechanical properties :
#
#
# Convention : Reuss Voigt Hill
#
# Bulk Modulus (GPa) = 55.20430 63.56484 59.38457
# Shear Modulus (GPa) = 26.97177 29.52304 28.24741
#
# Velocity S-wave (km/s) = 3.66792 3.83748 3.75366
# Velocity P-wave (km/s) = 6.74347 7.16530 6.95758
#
# Compressibility (1/GPa) = 0.01811453
#
# Stress axis : x y z
#
# Youngs Moduli (GPa) = 91.87570 39.91716 59.88402
#
# Poissons Ratio (x) = 0.20781 0.25112
# Poissons Ratio (y) = 0.47832 0.47073
# Poissons Ratio (z) = 0.38528 0.31378
#
# Static dielectric constant tensor:
#      x y z
#    x 3.814640 0.000000 0.000000 
#    y 0.000000 3.602760 0.000000 
#    z 0.000000 0.000000 3.735670 
# 
# 
# High freq. dielectric constant tensor:
#      x y z
#    x 1.795200 0.000000 0.000000 
#    y 0.000000 1.770940 0.000000 
#    z 0.000000 0.000000 1.779760 
# 
# From -- ./inp_files/13582.got.cif
#   From: 2010.03.12/outbox.cif.g09.slc.cpg/sg47_7_cif.got.tgz:13582.got - 2010.04.14 03:12:58.
