data_PCOD8199969
_publ_section_title
;
Structure prediction by ZEFSAII (Michael W. Deem and Ramdas Pophale) SiO2 
 PCOD8199969
Probable space group: P M M M
;
_chemical_formula_sum "Si O2"
_cell_formula_units_Z 48
_cell_length_a 9.981097
_cell_length_b 29.093292
_cell_length_c 8.747924
_cell_angle_alpha 90.000000
_cell_angle_beta 90.000000
_cell_angle_gamma 90.000000
_cell_volume 2540.248148
_symmetry_space_group_name_H-M "P M M M"
_symmetry_group_IT_number 47
_symmetry_cell_setting 'orthorhombic'
loop_
_space_group_symop_operation_xyz
x,y,z
-x,-y,z
x,-y,-z
-x,y,-z
-x,-y,-z
x,y,-z
-x,y,z
x,-y,z
loop_
_atom_site_type_symbol
_atom_site_label
_atom_site_fract_x
_atom_site_fract_y
_atom_site_fract_z
Si Si1 0.347317 0.776320 0.320808
Si Si2 0.244941 0.400361 0.820165
Si Si3 0.000000 0.446554 0.330316
Si Si4 0.843862 0.306199 0.321254
Si Si5 0.500000 0.447562 0.680929
Si Si6 0.150003 0.051153 0.181863
Si Si7 0.650868 0.127843 0.818822
O O1 0.337826 0.784538 0.500000
O O2 0.500000 0.763038 0.273241
O O3 0.244214 0.737135 0.267741
O O4 0.299740 0.822833 0.239471
O O5 0.211878 0.348516 0.774590
O O6 0.374774 0.418683 0.736509
O O7 0.126914 0.433205 0.767955
O O8 0.265943 0.403574 0.000000
O O9 0.000000 0.500000 0.356591
O O10 0.000000 0.422650 0.500000
O O11 0.823317 0.316355 0.500000
O O12 0.000000 0.297287 0.283101
O O13 0.500000 0.500000 0.745735
O O14 0.500000 0.449281 0.500000
O O15 0.253372 0.088289 0.250646
O O16 0.000000 0.063249 0.238579
O O17 0.190397 0.000000 0.238741
O O18 0.154567 0.052388 0.000000
O O19 0.500000 0.117997 0.761125
O O20 0.657775 0.127975 0.000000
#
# Coordination Sequence:
#
# PCOD8199969 Si02
#       7
#     8   8   4   8   4   8   8
#     4   9  19  35  54  76 102 139 182 222 268 325
#     4  12  25  40  61  92 124 151 186 239 294 335
#     4  11  23  41  65  89 117 159 201 231 272 337
#     4  10  21  38  59  81 109 146 187 227 271 333
#     4  11  25  45  67  89 117 157 199 233 274 339
#     4   8  14  25  42  66  97 132 170 211 258 315
#     4   9  17  29  46  71 100 129 165 215 270 317
#
# _framework density 18.895792
#
# number of rings (size 3 to 8) (size 9 to 14) (size 15 to 20)
#    0.000    2.167    0.833    3.000    1.167    5.000 
#    0.000    1.667    0.000    0.500    0.000    3.500 
#    0.000    0.000    0.000    0.000    0.000    0.000 
#
# Total GULP energy -595172.326499 kJ/mol
# GULP energy per Si atom -12399.423469 kJ/mol
# Density = 1.885278 g / cm^3
# Si number density = 18.895792 Si / 1000 Ang^3
#
#
#
# Elastic Constant Matrix: (Units=GPa)
#
#
# Indices 1 2 3 4 5 6 
#
# 1 138.4466 81.4573 25.7276 0.0000 0.0000 0.0000
# 2 81.4573 137.7732 27.9107 0.0000 0.0000 0.0000
# 3 25.7276 27.9107 43.9468 0.0000 0.0000 0.0000
# 4 0.0000 0.0000 0.0000 41.9320 0.0000 0.0000
# 5 0.0000 0.0000 0.0000 0.0000 9.2939 0.0000
# 6 0.0000 0.0000 0.0000 0.0000 0.0000 44.2858
#
#
#
# Elastic Compliance Matrix: (Units=1/GPa)
#
#
# Indices 1 2 3 4 5 6 
#
# 1 0.011356 -0.006160 -0.002736 0.000000 0.000000 0.000000
# 2 -0.006160 0.011671 -0.003806 0.000000 0.000000 0.000000
# 3 -0.002736 -0.003806 0.026774 0.000000 0.000000 0.000000
# 4 0.000000 0.000000 0.000000 0.023848 0.000000 0.000000
# 5 0.000000 0.000000 0.000000 0.000000 0.107597 0.000000
# 6 0.000000 0.000000 0.000000 0.000000 0.000000 0.022581
#
#
# Mechanical properties :
#
#
# Convention : Reuss Voigt Hill
#
# Bulk Modulus (GPa) = 40.98883 65.59533 53.29208
# Shear Modulus (GPa) = 21.06479 31.44041 26.25260
#
# Velocity S-wave (km/s) = 3.34247 4.08350 3.73142
# Velocity P-wave (km/s) = 6.05270 7.55135 6.84318
#
# Compressibility (1/GPa) = 0.02439689
#
# Stress axis : x y z
#
# Youngs Moduli (GPa) = 88.06291 85.68059 37.34980
#
# Poissons Ratio (x) = 0.52776 0.10218
# Poissons Ratio (y) = 0.54243 0.14217
# Poissons Ratio (z) = 0.24093 0.32614
#
# Static dielectric constant tensor:
#      x y z
#    x 3.621270 0.000000 0.000000 
#    y 0.000000 3.647190 0.000000 
#    z 0.000000 0.000000 3.259720 
# 
# 
# High freq. dielectric constant tensor:
#      x y z
#    x 1.744270 0.000000 0.000000 
#    y 0.000000 1.742860 0.000000 
#    z 0.000000 0.000000 1.712280 
# 
# From -- ./inp_files/2814.got.cif
#   From: 2010.03.12/outbox.cif.g09.slc.cpg/sg47_2_cif.got.tgz:2814.got - 2010.04.14 03:12:58.
