data_PCOD8199741
_publ_section_title
;
Structure prediction by ZEFSAII (Michael W. Deem and Ramdas Pophale) SiO2 
 PCOD8199741
Probable space group: P M M M
;
_chemical_formula_sum "Si O2"
_cell_formula_units_Z 40
_cell_length_a 8.784444
_cell_length_b 25.777479
_cell_length_c 9.580891
_cell_angle_alpha 90.000000
_cell_angle_beta 90.000000
_cell_angle_gamma 90.000000
_cell_volume 2169.504821
_symmetry_space_group_name_H-M "P M M M"
_symmetry_group_IT_number 47
_symmetry_cell_setting 'orthorhombic'
loop_
_space_group_symop_operation_xyz
x,y,z
-x,-y,z
x,-y,-z
-x,y,-z
-x,-y,-z
x,y,-z
-x,y,z
x,-y,z
loop_
_atom_site_type_symbol
_atom_site_label
_atom_site_fract_x
_atom_site_fract_y
_atom_site_fract_z
Si Si1 0.318820 0.406384 0.843023
Si Si2 0.675780 0.802193 0.338618
Si Si3 0.319214 0.708270 0.156597
Si Si4 0.681925 0.500000 0.342478
Si Si5 0.178917 0.910009 0.660002
Si Si6 0.320071 0.000000 0.160042
O O1 0.500000 0.407815 0.841587
O O2 0.261437 0.348984 0.796873
O O3 0.253641 0.449075 0.736226
O O4 0.261601 0.418890 0.000000
O O5 0.694719 0.788906 0.500000
O O6 0.500000 0.812651 0.299511
O O7 0.745843 0.753024 0.256667
O O8 0.772165 0.852397 0.295767
O O9 0.500000 0.708797 0.164094
O O10 0.263209 0.720037 0.000000
O O11 0.500000 0.500000 0.341479
O O12 0.744910 0.500000 0.500000
O O13 0.228715 0.921357 0.500000
O O14 0.000000 0.916408 0.677390
O O15 0.260524 0.949217 0.763012
O O16 0.500000 0.000000 0.166758
O O17 0.262452 0.000000 0.000000
#
# Coordination Sequence:
#
# PCOD8199741 Si02
#       6
#     8   8   8   4   8   4
#     4   8  13  21  31  43  64  98 138 177 219 269
#     4   9  17  29  46  68  92 119 153 193 235 277
#     4   8  14  24  38  56  78 107 145 187 229 274
#     4   9  15  19  25  41  65  95 134 179 224 269
#     4  10  21  37  56  77 102 133 166 198 236 285
#     4  11  24  39  56  80 106 131 162 201 242 282
#
# _framework density 18.437387000000001
#
# number of rings (size 3 to 8) (size 9 to 14) (size 15 to 20)
#    0.000    3.000    0.000    2.700    0.000    6.000 
#    0.000    6.000    0.000    0.000    0.000    0.000 
#    0.000    0.000    0.000    0.900    0.000   19.200 
#
# Total GULP energy -495840.307195 kJ/mol
# GULP energy per Si atom -12396.007680 kJ/mol
# Density = 1.839542 g / cm^3
# Si number density = 18.437387 Si / 1000 Ang^3
#
#
#
# Elastic Constant Matrix: (Units=GPa)
#
#
# Indices 1 2 3 4 5 6 
#
# 1 25.3372 24.8392 25.1316 0.0000 0.0000 0.0000
# 2 24.8392 173.1138 108.0828 0.0000 0.0000 0.0000
# 3 25.1316 108.0828 128.9443 0.0000 0.0000 0.0000
# 4 0.0000 0.0000 0.0000 42.7272 0.0000 0.0000
# 5 0.0000 0.0000 0.0000 0.0000 11.6529 0.0000
# 6 0.0000 0.0000 0.0000 0.0000 0.0000 -4.8128
#
#
#
# Elastic Compliance Matrix: (Units=1/GPa)
#
#
# Indices 1 2 3 4 5 6 
#
# 1 0.049343 -0.002256 -0.007726 0.000000 0.000000 0.000000
# 2 -0.002256 0.012222 -0.009805 0.000000 0.000000 0.000000
# 3 -0.007726 -0.009805 0.017479 0.000000 0.000000 0.000000
# 4 0.000000 0.000000 0.000000 0.023404 0.000000 0.000000
# 5 0.000000 0.000000 0.000000 0.000000 0.085815 0.000000
# 6 0.000000 0.000000 0.000000 0.000000 0.000000 -0.207781
#
#
# Mechanical properties :
#
#
# Convention : Reuss Voigt Hill
#
# Bulk Modulus (GPa) = 25.33543 71.50027 48.41785
# Shear Modulus (GPa) = 150.54379 21.20292 85.87335
#
# Velocity S-wave (km/s) = 9.04592 3.39484 6.83204
# Velocity P-wave (km/s) = 11.08494 7.36416 9.41028
#
# Compressibility (1/GPa) = 0.03947041
#
# Stress axis : x y z
#
# Youngs Moduli (GPa) = 20.26640 81.82072 57.20995
#
# Poissons Ratio (x) = 0.18463 0.44198
# Poissons Ratio (y) = 0.04573 0.56093
# Poissons Ratio (z) = 0.15657 0.80223
#
# Static dielectric constant tensor:
#      x y z
#    x 2.851460 0.000000 0.000000 
#    y 0.000000 3.789800 0.000000 
#    z 0.000000 0.000000 3.553720 
# 
# 
# High freq. dielectric constant tensor:
#      x y z
#    x 1.657480 0.000000 0.000000 
#    y 0.000000 1.732380 0.000000 
#    z 0.000000 0.000000 1.713120 
# 
# From -- ./inp_files/1866.got.cif
#   From: 2010.03.12/outbox.cif.g09.slc.cpg/sg47_1_cif.got.tgz:1866.got - 2010.04.14 03:12:58.
