data_PCOD8200241
_publ_section_title
;
Structure prediction by ZEFSAII (Michael W. Deem and Ramdas Pophale) SiO2 
 PCOD8200241
Probable space group: P M M M
;
_chemical_formula_sum "Si O2"
_cell_formula_units_Z 52
_cell_length_a 9.270629
_cell_length_b 30.202146
_cell_length_c 12.584743
_cell_angle_alpha 90.000000
_cell_angle_beta 90.000000
_cell_angle_gamma 90.000000
_cell_volume 3523.638570
_symmetry_space_group_name_H-M "P M M M"
_symmetry_group_IT_number 47
_symmetry_cell_setting 'orthorhombic'
loop_
_space_group_symop_operation_xyz
x,y,z
-x,-y,z
x,-y,-z
-x,y,-z
-x,-y,-z
x,y,-z
-x,y,z
x,-y,z
loop_
_atom_site_type_symbol
_atom_site_label
_atom_site_fract_x
_atom_site_fract_y
_atom_site_fract_z
Si Si1 0.667129 0.052497 0.500000
Si Si2 0.837975 0.548752 0.373682
Si Si3 0.661709 0.631471 0.626936
Si Si4 0.829001 0.903618 0.304261
Si Si5 0.335654 0.051433 0.122401
Si Si6 0.161333 0.285467 0.373126
Si Si7 0.829620 0.810288 0.617384
O O1 0.500000 0.067635 0.500000
O O2 0.746576 0.070197 0.604110
O O3 0.678739 0.000000 0.500000
O O4 0.837251 0.551157 0.500000
O O5 0.782507 0.500000 0.337194
O O6 0.737099 0.587306 0.326691
O O7 0.000000 0.556588 0.331717
O O8 0.666430 0.631362 0.500000
O O9 0.500000 0.631859 0.670419
O O10 0.739598 0.675267 0.672222
O O11 0.776945 0.920404 0.190282
O O12 0.787648 0.851505 0.308240
O O13 0.000000 0.911052 0.317907
O O14 0.500000 0.062703 0.155405
O O15 0.305109 0.000000 0.142827
O O16 0.309484 0.063583 0.000000
O O17 0.159297 0.286016 0.500000
O O18 0.224529 0.237267 0.336418
O O19 0.000000 0.293294 0.329031
O O20 0.763768 0.819331 0.500000
O O21 0.000000 0.806040 0.606180
#
# Coordination Sequence:
#
# PCOD8200241 Si02
#       7
#     4   8   8   8   8   8   8
#     4  11  23  35  45  61  89 121 145 161 190 245
#     4   8  13  20  28  36  47  67  98 133 169 216
#     4   9  15  20  26  39  58  75  97 135 179 216
#     4  11  20  31  49  70  90 108 134 174 210 239
#     4   9  19  36  53  66  85 114 142 166 197 242
#     4   8  13  22  36  46  57  85 118 140 166 215
#     4   8  14  26  41  57  78 102 125 152 191 235
#
# _framework density 14.757472999999999
#
# number of rings (size 3 to 8) (size 9 to 14) (size 15 to 20)
#    0.000    3.000    0.769    3.462    0.000    5.231 
#    0.000    3.846    0.000    0.000    0.000    0.000 
#    0.000    0.000    0.000    0.000    0.000    0.000 
#
# Total GULP energy -644402.443562 kJ/mol
# GULP energy per Si atom -12392.354684 kJ/mol
# Density = 1.472388 g / cm^3
# Si number density = 14.757473 Si / 1000 Ang^3
#
#
#
# Elastic Constant Matrix: (Units=GPa)
#
#
# Indices 1 2 3 4 5 6 
#
# 1 90.6086 67.2277 24.7726 0.0000 0.0000 0.0000
# 2 67.2277 139.6907 32.1770 0.0000 0.0000 0.0000
# 3 24.7726 32.1770 35.3007 0.0000 0.0000 0.0000
# 4 0.0000 0.0000 0.0000 6.4264 0.0000 0.0000
# 5 0.0000 0.0000 0.0000 0.0000 14.9799 0.0000
# 6 0.0000 0.0000 0.0000 0.0000 0.0000 8.3000
#
#
#
# Elastic Compliance Matrix: (Units=1/GPa)
#
#
# Indices 1 2 3 4 5 6 
#
# 1 0.018128 -0.007334 -0.006037 0.000000 0.000000 0.000000
# 2 -0.007334 0.012028 -0.005817 0.000000 0.000000 0.000000
# 3 -0.006037 -0.005817 0.037867 0.000000 0.000000 0.000000
# 4 0.000000 0.000000 0.000000 0.155609 0.000000 0.000000
# 5 0.000000 0.000000 0.000000 0.000000 0.066756 0.000000
# 6 0.000000 0.000000 0.000000 0.000000 0.000000 0.120482
#
#
# Mechanical properties :
#
#
# Convention : Reuss Voigt Hill
#
# Bulk Modulus (GPa) = 33.72951 57.10606 45.41779
# Shear Modulus (GPa) = 10.89017 15.36942 13.12980
#
# Velocity S-wave (km/s) = 2.71946 3.23068 2.98603
# Velocity P-wave (km/s) = 5.72417 7.25925 6.53693
#
# Compressibility (1/GPa) = 0.02964763
#
# Stress axis : x y z
#
# Youngs Moduli (GPa) = 55.16188 83.13823 26.40830
#
# Poissons Ratio (x) = 0.60973 0.15942
# Poissons Ratio (y) = 0.40456 0.15362
# Poissons Ratio (z) = 0.33300 0.48362
#
# Static dielectric constant tensor:
#      x y z
#    x 2.894220 0.000000 0.000000 
#    y 0.000000 3.264530 0.000000 
#    z 0.000000 0.000000 2.298900 
# 
# 
# High freq. dielectric constant tensor:
#      x y z
#    x 1.561540 0.000000 0.000000 
#    y 0.000000 1.581410 0.000000 
#    z 0.000000 0.000000 1.484930 
# 
# From -- ./inp_files/15672.got.cif
#   From: 2010.03.12/outbox.cif.g09.slc.cpg/sg47_8_cif.got.tgz:15672.got - 2010.04.14 03:12:58.
