data_PCOD8200590
_publ_section_title
;
Structure prediction by ZEFSAII (Michael W. Deem and Ramdas Pophale) SiO2 
 PCOD8200590
Probable space group: P M M M
;
_chemical_formula_sum "Si O2"
_cell_formula_units_Z 44
_cell_length_a 9.324582
_cell_length_b 28.433459
_cell_length_c 9.433053
_cell_angle_alpha 90.000000
_cell_angle_beta 90.000000
_cell_angle_gamma 90.000000
_cell_volume 2500.986474
_symmetry_space_group_name_H-M "P M M M"
_symmetry_group_IT_number 47
_symmetry_cell_setting 'orthorhombic'
loop_
_space_group_symop_operation_xyz
x,y,z
-x,-y,z
x,-y,-z
-x,y,-z
-x,-y,-z
x,y,-z
-x,y,z
x,-y,z
loop_
_atom_site_type_symbol
_atom_site_label
_atom_site_fract_x
_atom_site_fract_y
_atom_site_fract_z
Si Si1 0.166545 0.360758 0.834576
Si Si2 0.168232 0.921662 0.164108
Si Si3 0.660911 0.270580 0.830936
Si Si4 0.331423 0.000000 0.333561
Si Si5 0.158426 0.184190 0.167856
Si Si6 0.829576 0.551671 0.659470
O O1 0.251463 0.315659 0.775867
O O2 0.230726 0.407302 0.760026
O O3 0.000000 0.352770 0.798652
O O4 0.191866 0.367899 0.000000
O O5 0.262293 0.954053 0.264583
O O6 0.209866 0.868315 0.206463
O O7 0.000000 0.930957 0.190029
O O8 0.205762 0.931921 0.000000
O O9 0.500000 0.273353 0.771234
O O10 0.733019 0.223005 0.769625
O O11 0.661836 0.269508 0.000000
O O12 0.500000 0.000000 0.302572
O O13 0.297904 0.000000 0.500000
O O14 0.000000 0.193520 0.231456
O O15 0.149495 0.188985 0.000000
O O16 0.775927 0.561278 0.500000
O O17 0.774871 0.500000 0.710256
O O18 0.000000 0.552124 0.665112
#
# Coordination Sequence:
#
# PCOD8200590 Si02
#       6
#     8   8   8   4   8   8
#     4   9  16  25  40  63  88 113 142 178 217 255
#     4   9  18  33  54  78  99 121 156 201 242 280
#     4   9  16  25  39  62  92 122 148 175 213 263
#     4  11  24  37  48  68 100 135 166 195 232 280
#     4   8  14  26  45  69  95 119 145 183 228 269
#     4   8  14  25  41  61  84 109 139 178 222 263
#
# _framework density 17.593059
#
# number of rings (size 3 to 8) (size 9 to 14) (size 15 to 20)
#    0.000    3.182    0.000    2.727    0.000    5.455 
#    0.000    3.636    0.000    2.182    0.000    6.364 
#    0.000    0.000    0.000    0.000    0.000    0.000 
#
# Total GULP energy -545371.779107 kJ/mol
# GULP energy per Si atom -12394.813162 kJ/mol
# Density = 1.755302 g / cm^3
# Si number density = 17.593059 Si / 1000 Ang^3
#
#
#
# Elastic Constant Matrix: (Units=GPa)
#
#
# Indices 1 2 3 4 5 6 
#
# 1 89.1340 82.5990 39.7379 0.0000 0.0000 0.0000
# 2 82.5990 188.2877 58.5833 0.0000 0.0000 0.0000
# 3 39.7379 58.5833 49.8632 0.0000 0.0000 0.0000
# 4 0.0000 0.0000 0.0000 2.1529 0.0000 0.0000
# 5 0.0000 0.0000 0.0000 0.0000 13.7929 0.0000
# 6 0.0000 0.0000 0.0000 0.0000 0.0000 6.4125
#
#
#
# Elastic Compliance Matrix: (Units=1/GPa)
#
#
# Indices 1 2 3 4 5 6 
#
# 1 0.021427 -0.006441 -0.009508 0.000000 0.000000 0.000000
# 2 -0.006441 0.010307 -0.006977 0.000000 0.000000 0.000000
# 3 -0.009508 -0.006977 0.035829 0.000000 0.000000 0.000000
# 4 0.000000 0.000000 0.000000 0.464499 0.000000 0.000000
# 5 0.000000 0.000000 0.000000 0.000000 0.072501 0.000000
# 6 0.000000 0.000000 0.000000 0.000000 0.000000 0.155947
#
#
# Mechanical properties :
#
#
# Convention : Reuss Voigt Hill
#
# Bulk Modulus (GPa) = 46.05931 76.56946 61.31439
# Shear Modulus (GPa) = 6.14552 14.22928 10.18740
#
# Velocity S-wave (km/s) = 1.87103 2.84703 2.40897
# Velocity P-wave (km/s) = 5.55922 7.37729 6.53182
#
# Compressibility (1/GPa) = 0.02171114
#
# Stress axis : x y z
#
# Youngs Moduli (GPa) = 46.66960 97.01711 27.91027
#
# Poissons Ratio (x) = 0.62493 0.26538
# Poissons Ratio (y) = 0.30062 0.19472
# Poissons Ratio (z) = 0.44375 0.67685
#
# Static dielectric constant tensor:
#      x y z
#    x 3.184130 0.000000 0.000000 
#    y 0.000000 3.674180 0.000000 
#    z 0.000000 0.000000 2.888490 
# 
# 
# High freq. dielectric constant tensor:
#      x y z
#    x 1.657540 0.000000 0.000000 
#    y 0.000000 1.700520 0.000000 
#    z 0.000000 0.000000 1.631780 
# 
# From -- ./inp_files/2079.got.cif
#   From: 2010.03.12/outbox.cif.g09.slc.cpg/sg47_2_cif.got.tgz:2079.got - 2010.04.14 03:12:58.
