data_PCOD8200704
_publ_section_title
;
Structure prediction by ZEFSAII (Michael W. Deem and Ramdas Pophale) SiO2 
 PCOD8200704
Probable space group: P M M M
;
_chemical_formula_sum "Si O2"
_cell_formula_units_Z 48
_cell_length_a 22.950526
_cell_length_b 18.142519
_cell_length_c 9.218555
_cell_angle_alpha 90.000000
_cell_angle_beta 90.000000
_cell_angle_gamma 90.000000
_cell_volume 3838.425194
_symmetry_space_group_name_H-M "P M M M"
_symmetry_group_IT_number 47
_symmetry_cell_setting 'orthorhombic'
loop_
_space_group_symop_operation_xyz
x,y,z
-x,-y,z
x,-y,-z
-x,y,-z
-x,-y,-z
x,y,-z
-x,y,z
x,-y,z
loop_
_atom_site_type_symbol
_atom_site_label
_atom_site_fract_x
_atom_site_fract_y
_atom_site_fract_z
Si Si1 0.224839 0.587656 0.836094
Si Si2 0.339051 0.415300 0.669163
Si Si3 0.430374 0.842458 0.837351
Si Si4 0.000000 0.587811 0.164599
Si Si5 0.434214 0.298920 0.670227
Si Si6 0.564063 0.000000 0.827231
Si Si7 0.887121 0.587899 0.664560
O O1 0.222317 0.500000 0.836945
O O2 0.283893 0.614256 0.758914
O O3 0.169993 0.618815 0.746086
O O4 0.222739 0.618614 0.000000
O O5 0.324429 0.405587 0.500000
O O6 0.353415 0.500000 0.706245
O O7 0.395035 0.368146 0.717185
O O8 0.500000 0.847684 0.832649
O O9 0.407815 0.775959 0.737611
O O10 0.404766 0.922378 0.781914
O O11 0.408654 0.826046 0.000000
O O12 0.056664 0.617561 0.249009
O O13 0.000000 0.500000 0.162300
O O14 0.000000 0.618313 0.000000
O O15 0.433530 0.287761 0.500000
O O16 0.500000 0.314072 0.726266
O O17 0.500000 0.000000 0.756076
O O18 0.558132 0.000000 0.000000
O O19 0.888333 0.618189 0.500000
O O20 0.886764 0.500000 0.663057
#
# Coordination Sequence:
#
# PCOD8200704 Si02
#       7
#     8   8   8   4   8   4   8
#     4   9  16  25  36  48  60  74  96 129 165 196
#     4   9  17  28  39  48  59  79 107 136 167 204
#     4   8  13  22  36  51  66  84 103 121 145 182
#     4   9  15  21  29  43  63  83 101 121 147 180
#     4   9  17  27  37  50  67  83 101 130 167 203
#     4   7  10  18  33  51  67  83 103 121 137 170
#     4   9  15  22  32  45  61  80 100 121 149 188
#
# _framework density 12.505127999999999
#
# number of rings (size 3 to 8) (size 9 to 14) (size 15 to 20)
#    0.000    3.333    0.000    2.250    0.000    6.000 
#    0.000    2.083    0.000    2.500    0.000    4.667 
#    0.000    0.000    0.000    0.000    0.000    0.000 
#
# Total GULP energy -594786.314073 kJ/mol
# GULP energy per Si atom -12391.381543 kJ/mol
# Density = 1.247667 g / cm^3
# Si number density = 12.505128 Si / 1000 Ang^3
#
#
#
# Elastic Constant Matrix: (Units=GPa)
#
#
# Indices 1 2 3 4 5 6 
#
# 1 79.3063 35.1190 44.3865 0.0000 0.0000 0.0000
# 2 35.1190 55.7950 26.2903 0.0000 0.0000 0.0000
# 3 44.3865 26.2903 69.9518 0.0000 0.0000 0.0000
# 4 0.0000 0.0000 0.0000 13.4590 0.0000 0.0000
# 5 0.0000 0.0000 0.0000 0.0000 17.4044 0.0000
# 6 0.0000 0.0000 0.0000 0.0000 0.0000 0.4996
#
#
#
# Elastic Compliance Matrix: (Units=1/GPa)
#
#
# Indices 1 2 3 4 5 6 
#
# 1 0.022863 -0.009181 -0.011057 0.000000 0.000000 0.000000
# 2 -0.009181 0.025466 -0.003746 0.000000 0.000000 0.000000
# 3 -0.011057 -0.003746 0.022719 0.000000 0.000000 0.000000
# 4 0.000000 0.000000 0.000000 0.074300 0.000000 0.000000
# 5 0.000000 0.000000 0.000000 0.000000 0.057457 0.000000
# 6 0.000000 0.000000 0.000000 0.000000 0.000000 2.001487
#
#
# Mechanical properties :
#
#
# Convention : Reuss Voigt Hill
#
# Bulk Modulus (GPa) = 43.32371 46.29388 44.80879
# Shear Modulus (GPa) = 2.21243 12.88976 7.55110
#
# Velocity S-wave (km/s) = 1.33156 3.21402 2.45998
# Velocity P-wave (km/s) = 6.08967 7.13257 6.63165
#
# Compressibility (1/GPa) = 0.02308205
#
# Stress axis : x y z
#
# Youngs Moduli (GPa) = 43.73827 39.26750 44.01549
#
# Poissons Ratio (x) = 0.36051 0.48668
# Poissons Ratio (y) = 0.40155 0.16487
# Poissons Ratio (z) = 0.48361 0.14708
#
# Static dielectric constant tensor:
#      x y z
#    x 2.488920 0.000000 0.000000 
#    y 0.000000 2.401630 0.000000 
#    z 0.000000 0.000000 2.638290 
# 
# 
# High freq. dielectric constant tensor:
#      x y z
#    x 1.451030 0.000000 0.000000 
#    y 0.000000 1.425140 0.000000 
#    z 0.000000 0.000000 1.480730 
# 
# From -- ./inp_files/11444.got.cif
#   From: 2010.03.12/outbox.cif.g09.slc.cpg/sg47_6_cif.got.tgz:11444.got - 2010.04.14 03:12:58.
