data_PCOD8200359
_publ_section_title
;
Structure prediction by ZEFSAII (Michael W. Deem and Ramdas Pophale) SiO2 
 PCOD8200359
Probable space group: P M M M
;
_chemical_formula_sum "Si O2"
_cell_formula_units_Z 52
_cell_length_a 12.332974
_cell_length_b 24.937361
_cell_length_c 8.786665
_cell_angle_alpha 90.000000
_cell_angle_beta 90.000000
_cell_angle_gamma 90.000000
_cell_volume 2702.354855
_symmetry_space_group_name_H-M "P M M M"
_symmetry_group_IT_number 47
_symmetry_cell_setting 'orthorhombic'
loop_
_space_group_symop_operation_xyz
x,y,z
-x,-y,z
x,-y,-z
-x,y,-z
-x,-y,-z
x,y,-z
-x,y,z
x,-y,z
loop_
_atom_site_type_symbol
_atom_site_label
_atom_site_fract_x
_atom_site_fract_y
_atom_site_fract_z
Si Si1 0.824614 0.389374 0.176400
Si Si2 0.620916 0.647565 0.328883
Si Si3 0.218897 0.151442 0.822001
Si Si4 0.378700 0.060137 0.180816
Si Si5 0.379025 0.773686 0.327959
Si Si6 0.000000 0.686493 0.319424
Si Si7 0.874895 0.500000 0.333266
Si Si8 0.000000 0.810215 0.680086
O O1 0.698198 0.378858 0.204490
O O2 0.893277 0.343668 0.261238
O O3 0.846842 0.448203 0.236594
O O4 0.853854 0.386832 0.000000
O O5 0.658536 0.632271 0.500000
O O6 0.500000 0.625665 0.299110
O O7 0.623303 0.710694 0.308359
O O8 0.286045 0.100227 0.756331
O O9 0.293527 0.202955 0.791027
O O10 0.104606 0.157557 0.738259
O O11 0.195575 0.146164 0.000000
O O12 0.500000 0.075626 0.240264
O O13 0.349483 0.000000 0.235398
O O14 0.379496 0.063255 0.000000
O O15 0.345588 0.789762 0.500000
O O16 0.500000 0.795187 0.291470
O O17 0.000000 0.684580 0.500000
O O18 0.000000 0.748310 0.261400
O O19 0.816209 0.500000 0.500000
O O20 0.000000 0.500000 0.366414
O O21 0.000000 0.810947 0.500000
#
# Coordination Sequence:
#
# PCOD8200359 Si02
#       8
#     8   8   8   8   8   4   4   4
#     4  12  24  37  59  89 118 142 173 230 290 324
#     4   9  19  37  58  79 109 152 194 222 256 325
#     4  11  21  33  53  81 110 140 182 235 283 323
#     4   8  15  30  53  81 111 141 175 220 276 333
#     4   9  18  33  54  80 111 148 185 221 268 329
#     4  11  23  40  60  80 106 147 193 224 261 330
#     4  11  23  41  64  85 109 146 188 224 264 329
#     4  11  25  41  55  73 107 154 192 222 265 330
#
# _framework density 19.242477999999998
#
# number of rings (size 3 to 8) (size 9 to 14) (size 15 to 20)
#    0.000    1.923    0.769    5.308    0.000    7.077 
#    0.000    2.308    0.000    6.462    0.000    5.385 
#    0.000    0.000    0.000    0.000    0.000    0.000 
#
# Total GULP energy -644705.991518 kJ/mol
# GULP energy per Si atom -12398.192145 kJ/mol
# Density = 1.919868 g / cm^3
# Si number density = 19.242478 Si / 1000 Ang^3
#
#
#
# Elastic Constant Matrix: (Units=GPa)
#
#
# Indices 1 2 3 4 5 6 
#
# 1 133.7721 65.2012 38.2193 0.0000 0.0000 0.0000
# 2 65.2012 100.9098 35.8998 0.0000 0.0000 0.0000
# 3 38.2193 35.8998 73.5125 0.0000 0.0000 0.0000
# 4 0.0000 0.0000 0.0000 18.2121 0.0000 0.0000
# 5 0.0000 0.0000 0.0000 0.0000 30.5066 0.0000
# 6 0.0000 0.0000 0.0000 0.0000 0.0000 17.1034
#
#
#
# Elastic Compliance Matrix: (Units=1/GPa)
#
#
# Indices 1 2 3 4 5 6 
#
# 1 0.011373 -0.006348 -0.002813 0.000000 0.000000 0.000000
# 2 -0.006348 0.015536 -0.004287 0.000000 0.000000 0.000000
# 3 -0.002813 -0.004287 0.017159 0.000000 0.000000 0.000000
# 4 0.000000 0.000000 0.000000 0.054909 0.000000 0.000000
# 5 0.000000 0.000000 0.000000 0.000000 0.032780 0.000000
# 6 0.000000 0.000000 0.000000 0.000000 0.000000 0.058468
#
#
# Mechanical properties :
#
#
# Convention : Reuss Voigt Hill
#
# Bulk Modulus (GPa) = 58.23020 65.20391 61.71705
# Shear Modulus (GPa) = 22.43715 24.42270 23.42993
#
# Velocity S-wave (km/s) = 3.41841 3.56646 3.49322
# Velocity P-wave (km/s) = 6.77552 7.13572 6.95795
#
# Compressibility (1/GPa) = 0.01717322
#
# Stress axis : x y z
#
# Youngs Moduli (GPa) = 87.92764 64.36467 58.27801
#
# Poissons Ratio (x) = 0.40857 0.16393
# Poissons Ratio (y) = 0.55814 0.24984
# Poissons Ratio (z) = 0.24733 0.27593
#
# Static dielectric constant tensor:
#      x y z
#    x 12.663740 0.000000 0.000000 
#    y 0.000000 3.561760 0.000000 
#    z 0.000000 0.000000 3.377540 
# 
# 
# High freq. dielectric constant tensor:
#      x y z
#    x 1.754420 0.000000 0.000000 
#    y 0.000000 1.741960 0.000000 
#    z 0.000000 0.000000 1.735230 
# 
# From -- ./inp_files/4632.got.cif
#   From: 2010.03.12/outbox.cif.g09.slc.cpg/sg47_3_cif.got.tgz:4632.got - 2010.04.14 03:12:58.
