data_PCOD8200524
_publ_section_title
;
Structure prediction by ZEFSAII (Michael W. Deem and Ramdas Pophale) SiO2 
 PCOD8200524
Probable space group: P M M M
;
_chemical_formula_sum "Si O2"
_cell_formula_units_Z 48
_cell_length_a 19.572558
_cell_length_b 14.961392
_cell_length_c 9.354143
_cell_angle_alpha 90.000000
_cell_angle_beta 90.000000
_cell_angle_gamma 90.000000
_cell_volume 2739.199069
_symmetry_space_group_name_H-M "P M M M"
_symmetry_group_IT_number 47
_symmetry_cell_setting 'orthorhombic'
loop_
_space_group_symop_operation_xyz
x,y,z
-x,-y,z
x,-y,-z
-x,y,-z
-x,-y,-z
x,y,-z
-x,y,z
x,-y,z
loop_
_atom_site_type_symbol
_atom_site_label
_atom_site_fract_x
_atom_site_fract_y
_atom_site_fract_z
Si Si1 0.000000 0.899253 0.667393
Si Si2 0.688384 0.711179 0.829717
Si Si3 0.167279 0.640787 0.158667
Si Si4 0.080698 0.500000 0.670336
Si Si5 0.123302 0.841696 0.157105
Si Si6 0.730855 0.097362 0.830849
Si Si7 0.579091 0.602120 0.335765
O O1 0.933591 0.851420 0.724822
O O2 0.000000 0.890044 0.500000
O O3 0.000000 0.000000 0.721862
O O4 0.754663 0.652105 0.784132
O O5 0.692067 0.814377 0.771185
O O6 0.621449 0.667969 0.763644
O O7 0.682845 0.711567 0.000000
O O8 0.120073 0.585776 0.267360
O O9 0.137019 0.737987 0.144139
O O10 0.166959 0.595912 0.000000
O O11 0.087791 0.500000 0.500000
O O12 0.000000 0.500000 0.714267
O O13 0.189615 0.895234 0.210688
O O14 0.100220 0.876986 0.000000
O O15 0.703697 0.000000 0.772440
O O16 0.723674 0.099321 0.000000
O O17 0.599612 0.617817 0.500000
O O18 0.500000 0.624695 0.311546
O O19 0.594169 0.500000 0.291902
#
# Coordination Sequence:
#
# PCOD8200524 Si02
#       7
#     4   8   8   4   8   8   8
#     4  11  23  33  43  66  99 128 153 197 260 307
#     4   9  18  32  53  82 108 130 166 213 254 297
#     4   9  20  37  54  75 100 128 165 212 263 304
#     4  11  25  39  51  71  98 133 178 215 251 306
#     4   9  18  33  53  72  90 121 166 207 247 303
#     4   8  14  28  51  76 101 128 161 205 252 296
#     4   9  19  35  53  75 106 142 174 204 246 302
#
# _framework density 17.52337
#
# number of rings (size 3 to 8) (size 9 to 14) (size 15 to 20)
#    0.000    2.833    0.000    3.500    2.333    4.000 
#    0.000    3.333    0.000    2.000    0.000    3.500 
#    0.000    0.000    0.000    0.000    0.000    0.000 
#
# Total GULP energy -594786.067466 kJ/mol
# GULP energy per Si atom -12391.376406 kJ/mol
# Density = 1.748349 g / cm^3
# Si number density = 17.523370 Si / 1000 Ang^3
#
#
#
# Elastic Constant Matrix: (Units=GPa)
#
#
# Indices 1 2 3 4 5 6 
#
# 1 87.6848 54.9899 33.8311 0.0000 0.0000 0.0000
# 2 54.9899 98.4742 32.9090 0.0000 0.0000 0.0000
# 3 33.8311 32.9090 42.4570 0.0000 0.0000 0.0000
# 4 0.0000 0.0000 0.0000 24.4769 0.0000 0.0000
# 5 0.0000 0.0000 0.0000 0.0000 26.8325 0.0000
# 6 0.0000 0.0000 0.0000 0.0000 0.0000 11.7974
#
#
#
# Elastic Compliance Matrix: (Units=1/GPa)
#
#
# Indices 1 2 3 4 5 6 
#
# 1 0.020249 -0.007983 -0.009947 0.000000 0.000000 0.000000
# 2 -0.007983 0.016852 -0.006701 0.000000 0.000000 0.000000
# 3 -0.009947 -0.006701 0.036674 0.000000 0.000000 0.000000
# 4 0.000000 0.000000 0.000000 0.040855 0.000000 0.000000
# 5 0.000000 0.000000 0.000000 0.000000 0.037268 0.000000
# 6 0.000000 0.000000 0.000000 0.000000 0.000000 0.084764
#
#
# Mechanical properties :
#
#
# Convention : Reuss Voigt Hill
#
# Bulk Modulus (GPa) = 40.79656 52.45287 46.62472
# Shear Modulus (GPa) = 17.00126 19.74710 18.37418
#
# Velocity S-wave (km/s) = 3.11819 3.36058 3.24165
# Velocity P-wave (km/s) = 6.02461 6.71238 6.37777
#
# Compressibility (1/GPa) = 0.02451187
#
# Stress axis : x y z
#
# Youngs Moduli (GPa) = 49.38563 59.33877 27.26754
#
# Poissons Ratio (x) = 0.47371 0.27123
# Poissons Ratio (y) = 0.39425 0.18273
# Poissons Ratio (z) = 0.49124 0.39765
#
# Static dielectric constant tensor:
#      x y z
#    x 3.158180 0.000000 0.000000 
#    y 0.000000 3.593200 0.000000 
#    z 0.000000 0.000000 3.045340 
# 
# 
# High freq. dielectric constant tensor:
#      x y z
#    x 1.661950 0.000000 0.000000 
#    y 0.000000 1.687990 0.000000 
#    z 0.000000 0.000000 1.654600 
# 
# From -- ./inp_files/9210.got.cif
#   From: 2010.03.12/outbox.cif.g09.slc.cpg/sg47_5_cif.got.tgz:9210.got - 2010.04.14 03:12:58.
