data_PCOD8200674
_publ_section_title
;
Structure prediction by ZEFSAII (Michael W. Deem and Ramdas Pophale) SiO2 
 PCOD8200674
Probable space group: P M M M
;
_chemical_formula_sum "Si O2"
_cell_formula_units_Z 52
_cell_length_a 34.034653
_cell_length_b 9.373569
_cell_length_c 9.382605
_cell_angle_alpha 90.000000
_cell_angle_beta 90.000000
_cell_angle_gamma 90.000000
_cell_volume 2993.296522
_symmetry_space_group_name_H-M "P M M M"
_symmetry_group_IT_number 47
_symmetry_cell_setting 'orthorhombic'
loop_
_space_group_symop_operation_xyz
x,y,z
-x,-y,z
x,-y,-z
-x,y,-z
-x,-y,-z
x,y,-z
-x,y,z
x,-y,z
loop_
_atom_site_type_symbol
_atom_site_label
_atom_site_fract_x
_atom_site_fract_y
_atom_site_fract_z
Si Si1 0.342381 0.670214 0.661246
Si Si2 0.192907 0.333333 0.335134
Si Si3 0.584301 0.670854 0.839497
Si Si4 0.731723 0.330223 0.838571
Si Si5 0.043082 0.830446 0.160555
Si Si6 0.500000 0.343981 0.831035
Si Si7 0.883496 0.835069 0.666006
O O1 0.339679 0.728566 0.500000
O O2 0.342010 0.500000 0.661796
O O3 0.382362 0.728611 0.733037
O O4 0.305710 0.729624 0.752119
O O5 0.202312 0.299289 0.500000
O O6 0.185420 0.500000 0.311787
O O7 0.229113 0.277058 0.240917
O O8 0.154473 0.250767 0.281039
O O9 0.582371 0.500000 0.837176
O O10 0.541351 0.732978 0.788802
O O11 0.594395 0.722306 0.000000
O O12 0.730423 0.500000 0.839639
O O13 0.731001 0.270564 0.000000
O O14 0.077912 0.769429 0.258517
O O15 0.000000 0.776306 0.213205
O O16 0.043577 0.000000 0.167353
O O17 0.050494 0.777409 0.000000
O O18 0.500000 0.500000 0.758548
O O19 0.500000 0.361976 0.000000
O O20 0.890341 0.812875 0.500000
O O21 0.876969 0.000000 0.705886
#
# Coordination Sequence:
#
# PCOD8200674 Si02
#       7
#     8   8   8   8   8   4   8
#     4   9  15  21  29  42  60  81 106 140 184 228
#     4   9  17  29  43  58  79 106 131 157 194 236
#     4   8  12  18  27  37  50  71 101 137 177 221
#     4   9  16  25  37  52  68  88 118 154 188 224
#     4   8  14  25  41  61  84 108 133 162 196 230
#     4   7  10  16  25  35  47  67  97 133 174 219
#     4   9  17  28  43  64  86 106 131 163 195 228
#
# _framework density 17.372152
#
# number of rings (size 3 to 8) (size 9 to 14) (size 15 to 20)
#    0.000    3.462    0.000    2.308    0.000    4.615 
#    0.000    1.923    0.000    2.769    0.000    3.231 
#    0.000    0.000    0.000    0.000    0.000    0.000 
#
# Total GULP energy -644339.307867 kJ/mol
# GULP energy per Si atom -12391.140536 kJ/mol
# Density = 1.733261 g / cm^3
# Si number density = 17.372152 Si / 1000 Ang^3
#
#
#
# Elastic Constant Matrix: (Units=GPa)
#
#
# Indices 1 2 3 4 5 6 
#
# 1 208.6350 22.5733 97.0373 0.0000 0.0000 0.0000
# 2 22.5733 9.9737 13.0628 0.0000 0.0000 0.0000
# 3 97.0373 13.0628 108.7509 0.0000 0.0000 0.0000
# 4 0.0000 0.0000 0.0000 6.7375 0.0000 0.0000
# 5 0.0000 0.0000 0.0000 0.0000 35.6422 0.0000
# 6 0.0000 0.0000 0.0000 0.0000 0.0000 -0.2764
#
#
#
# Elastic Compliance Matrix: (Units=1/GPa)
#
#
# Indices 1 2 3 4 5 6 
#
# 1 0.009271 -0.012042 -0.006826 0.000000 0.000000 0.000000
# 2 -0.012042 0.134625 -0.005425 0.000000 0.000000 0.000000
# 3 -0.006826 -0.005425 0.015937 0.000000 0.000000 0.000000
# 4 0.000000 0.000000 0.000000 0.148422 0.000000 0.000000
# 5 0.000000 0.000000 0.000000 0.000000 0.028057 0.000000
# 6 0.000000 0.000000 0.000000 0.000000 0.000000 -3.617963
#
#
# Mechanical properties :
#
#
# Convention : Reuss Voigt Hill
#
# Bulk Modulus (GPa) = 8.98905 65.85628 37.42267
# Shear Modulus (GPa) = -1.56446 21.39974 9.91764
#
# Velocity S-wave (km/s) = -0.95001 3.51357 2.39193
# Velocity P-wave (km/s) = 1.99557 7.37913 5.40527
#
# Compressibility (1/GPa) = 0.11124642
#
# Stress axis : x y z
#
# Youngs Moduli (GPa) = 107.86797 7.42803 62.74553
#
# Poissons Ratio (x) = 0.08945 0.42827
# Poissons Ratio (y) = 1.29899 0.34042
# Poissons Ratio (z) = 0.73626 0.04030
#
# Static dielectric constant tensor:
#      x y z
#    x 3.749800 0.000000 0.000000 
#    y 0.000000 2.480160 0.000000 
#    z 0.000000 0.000000 3.274420 
# 
# 
# High freq. dielectric constant tensor:
#      x y z
#    x 1.695540 0.000000 0.000000 
#    y 0.000000 1.580210 0.000000 
#    z 0.000000 0.000000 1.664450 
# 
# From -- ./inp_files/14098.got.cif
#   From: 2010.03.12/outbox.cif.g09.slc.cpg/sg47_8_cif.got.tgz:14098.got - 2010.04.14 03:12:58.
