data_PCOD8200311
_publ_section_title
;
Structure prediction by ZEFSAII (Michael W. Deem and Ramdas Pophale) SiO2 
 PCOD8200311
Probable space group: P M M M
;
_chemical_formula_sum "Si O2"
_cell_formula_units_Z 40
_cell_length_a 18.692935
_cell_length_b 8.895470
_cell_length_c 13.866458
_cell_angle_alpha 90.000000
_cell_angle_beta 90.000000
_cell_angle_gamma 90.000000
_cell_volume 2305.748505
_symmetry_space_group_name_H-M "P M M M"
_symmetry_group_IT_number 47
_symmetry_cell_setting 'orthorhombic'
loop_
_space_group_symop_operation_xyz
x,y,z
-x,-y,z
x,-y,-z
-x,y,-z
-x,-y,-z
x,y,-z
-x,y,z
x,-y,z
loop_
_atom_site_type_symbol
_atom_site_label
_atom_site_fract_x
_atom_site_fract_y
_atom_site_fract_z
Si Si1 0.831290 0.174418 0.391278
Si Si2 0.217944 0.178415 0.109184
Si Si3 0.078198 0.176466 0.786711
Si Si4 0.706167 0.676786 0.281923
Si Si5 0.582632 0.173770 0.389779
O O1 0.854018 0.213807 0.500000
O O2 0.898024 0.214767 0.322640
O O3 0.762398 0.270248 0.362323
O O4 0.810055 0.000000 0.379623
O O5 0.138670 0.237339 0.139771
O O6 0.277527 0.250723 0.177771
O O7 0.221891 0.000000 0.121486
O O8 0.233041 0.229119 0.000000
O O9 0.000000 0.250994 0.806257
O O10 0.070879 0.000000 0.801054
O O11 0.709599 0.500000 0.270466
O O12 0.627705 0.725423 0.316230
O O13 0.598900 0.221096 0.500000
O O14 0.500000 0.202000 0.365358
O O15 0.602860 0.000000 0.374822
#
# Coordination Sequence:
#
# PCOD8200311 Si02
#       5
#     8   8   8   8   8
#     4   9  17  29  45  65  92 128 166 199 232 277
#     4   9  18  33  52  71  91 120 159 200 243 291
#     4   8  14  25  43  70  98 118 146 196 251 293
#     4  11  21  31  47  71  99 128 158 196 238 279
#     4   9  18  33  53  76 102 132 162 190 224 270
#
# _framework density 17.347944999999999
#
# number of rings (size 3 to 8) (size 9 to 14) (size 15 to 20)
#    0.000    2.800    0.000    4.200    0.000    4.800 
#    0.000    5.000    0.000   10.200    0.000   15.400 
#    0.000    0.000    0.000    0.000    0.000    0.000 
#
# Total GULP energy -495876.759602 kJ/mol
# GULP energy per Si atom -12396.918990 kJ/mol
# Density = 1.730846 g / cm^3
# Si number density = 17.347945 Si / 1000 Ang^3
#
#
#
# Elastic Constant Matrix: (Units=GPa)
#
#
# Indices 1 2 3 4 5 6 
#
# 1 98.7015 32.7462 53.3124 0.0000 0.0000 0.0000
# 2 32.7462 54.6394 40.0161 0.0000 0.0000 0.0000
# 3 53.3124 40.0161 131.5602 0.0000 0.0000 0.0000
# 4 0.0000 0.0000 0.0000 10.6119 0.0000 0.0000
# 5 0.0000 0.0000 0.0000 0.0000 20.2456 0.0000
# 6 0.0000 0.0000 0.0000 0.0000 0.0000 3.2191
#
#
#
# Elastic Compliance Matrix: (Units=1/GPa)
#
#
# Indices 1 2 3 4 5 6 
#
# 1 0.014152 -0.005508 -0.004059 0.000000 0.000000 0.000000
# 2 -0.005508 0.025691 -0.005582 0.000000 0.000000 0.000000
# 3 -0.004059 -0.005582 0.010944 0.000000 0.000000 0.000000
# 4 0.000000 0.000000 0.000000 0.094234 0.000000 0.000000
# 5 0.000000 0.000000 0.000000 0.000000 0.049393 0.000000
# 6 0.000000 0.000000 0.000000 0.000000 0.000000 0.310649
#
#
# Mechanical properties :
#
#
# Convention : Reuss Voigt Hill
#
# Bulk Modulus (GPa) = 48.81112 59.67228 54.24170
# Shear Modulus (GPa) = 9.22183 17.40374 13.31279
#
# Velocity S-wave (km/s) = 2.30810 3.17080 2.77320
# Velocity P-wave (km/s) = 5.94144 6.91934 6.44895
#
# Compressibility (1/GPa) = 0.02048713
#
# Stress axis : x y z
#
# Youngs Moduli (GPa) = 70.66326 38.92360 91.37484
#
# Poissons Ratio (x) = 0.21441 0.37091
# Poissons Ratio (y) = 0.38924 0.51008
# Poissons Ratio (z) = 0.28684 0.21728
#
# Static dielectric constant tensor:
#      x y z
#    x 3.288960 0.000000 0.000000 
#    y 0.000000 2.922540 0.000000 
#    z 0.000000 0.000000 3.269710 
# 
# 
# High freq. dielectric constant tensor:
#      x y z
#    x 1.664230 0.000000 0.000000 
#    y 0.000000 1.638660 0.000000 
#    z 0.000000 0.000000 1.665460 
# 
# From -- ./inp_files/5925.got.cif
#   From: 2010.03.12/outbox.cif.g09.slc.cpg/sg47_3_cif.got.tgz:5925.got - 2010.04.14 03:12:58.
