data_PCOD8200540
_publ_section_title
;
Structure prediction by ZEFSAII (Michael W. Deem and Ramdas Pophale) SiO2 
 PCOD8200540
Probable space group: P M M M
;
_chemical_formula_sum "Si O2"
_cell_formula_units_Z 44
_cell_length_a 12.495783
_cell_length_b 24.853421
_cell_length_c 9.153417
_cell_angle_alpha 90.000000
_cell_angle_beta 90.000000
_cell_angle_gamma 90.000000
_cell_volume 2842.712238
_symmetry_space_group_name_H-M "P M M M"
_symmetry_group_IT_number 47
_symmetry_cell_setting 'orthorhombic'
loop_
_space_group_symop_operation_xyz
x,y,z
-x,-y,z
x,-y,-z
-x,y,-z
-x,-y,-z
x,y,-z
-x,y,z
x,-y,z
loop_
_atom_site_type_symbol
_atom_site_label
_atom_site_fract_x
_atom_site_fract_y
_atom_site_fract_z
Si Si1 0.876477 0.062467 0.833602
Si Si2 0.500000 0.063766 0.168603
Si Si3 0.626997 0.658232 0.161244
Si Si4 0.625157 0.222501 0.170201
Si Si5 0.627118 0.558494 0.336592
Si Si6 0.305018 0.120443 0.673456
O O1 0.809689 0.097065 0.718375
O O2 0.000000 0.077349 0.810567
O O3 0.856344 0.000000 0.801050
O O4 0.841345 0.075685 0.000000
O O5 0.604588 0.085375 0.248422
O O6 0.500000 0.000000 0.178246
O O7 0.500000 0.083346 0.000000
O O8 0.500000 0.652657 0.155010
O O9 0.655443 0.717220 0.224975
O O10 0.678554 0.609048 0.251881
O O11 0.675487 0.653264 0.000000
O O12 0.500000 0.210784 0.192651
O O13 0.690800 0.181842 0.271380
O O14 0.655436 0.215439 0.000000
O O15 0.671935 0.561381 0.500000
O O16 0.500000 0.563879 0.337075
O O17 0.658987 0.500000 0.267849
O O18 0.320082 0.118095 0.500000
#
# Coordination Sequence:
#
# PCOD8200540 Si02
#       6
#     8   4   8   8   8   8
#     4   9  19  37  58  74  88 113 148 178 210 262
#     4  11  23  37  51  65  87 121 152 177 212 261
#     4   8  14  23  35  51  68  94 134 176 213 245
#     4   9  17  30  45  58  80 115 149 179 214 260
#     4   8  13  20  29  43  65  94 127 165 211 256
#     4  12  23  32  47  72  96 116 142 180 225 266
#
# _framework density 15.478175999999999
#
# number of rings (size 3 to 8) (size 9 to 14) (size 15 to 20)
#    0.000    2.636    0.909    4.636    0.000    4.727 
#    0.000    4.545    0.000    0.000    0.000    0.000 
#    0.000    0.000    0.000    0.000    0.000    0.909 
#
# Total GULP energy -545335.138898 kJ/mol
# GULP energy per Si atom -12393.980430 kJ/mol
# Density = 1.544295 g / cm^3
# Si number density = 15.478176 Si / 1000 Ang^3
#
#
#
# Elastic Constant Matrix: (Units=GPa)
#
#
# Indices 1 2 3 4 5 6 
#
# 1 41.2698 33.7704 30.3725 0.0000 0.0000 0.0000
# 2 33.7704 128.5715 65.0822 0.0000 0.0000 0.0000
# 3 30.3725 65.0822 98.0846 0.0000 0.0000 0.0000
# 4 0.0000 0.0000 0.0000 19.8561 0.0000 0.0000
# 5 0.0000 0.0000 0.0000 0.0000 14.1170 0.0000
# 6 0.0000 0.0000 0.0000 0.0000 0.0000 9.0456
#
#
#
# Elastic Compliance Matrix: (Units=1/GPa)
#
#
# Indices 1 2 3 4 5 6 
#
# 1 0.033678 -0.005371 -0.006865 0.000000 0.000000 0.000000
# 2 -0.005371 0.012568 -0.006676 0.000000 0.000000 0.000000
# 3 -0.006865 -0.006676 0.016751 0.000000 0.000000 0.000000
# 4 0.000000 0.000000 0.000000 0.050362 0.000000 0.000000
# 5 0.000000 0.000000 0.000000 0.000000 0.070836 0.000000
# 6 0.000000 0.000000 0.000000 0.000000 0.000000 0.110552
#
#
# Mechanical properties :
#
#
# Convention : Reuss Voigt Hill
#
# Bulk Modulus (GPa) = 39.72505 58.48624 49.10565
# Shear Modulus (GPa) = 14.66443 17.85046 16.25745
#
# Velocity S-wave (km/s) = 3.08137 3.39966 3.24442
# Velocity P-wave (km/s) = 6.19522 7.29922 6.76976
#
# Compressibility (1/GPa) = 0.02517303
#
# Stress axis : x y z
#
# Youngs Moduli (GPa) = 29.69317 79.56812 59.69873
#
# Poissons Ratio (x) = 0.42735 0.40982
# Poissons Ratio (y) = 0.15948 0.39855
# Poissons Ratio (z) = 0.20384 0.53120
#
# Static dielectric constant tensor:
#      x y z
#    x 2.473900 0.000000 0.000000 
#    y 0.000000 3.270780 0.000000 
#    z 0.000000 0.000000 3.053060 
# 
# 
# High freq. dielectric constant tensor:
#      x y z
#    x 1.526110 0.000000 0.000000 
#    y 0.000000 1.608810 0.000000 
#    z 0.000000 0.000000 1.592310 
# 
# From -- ./inp_files/4330.got.cif
#   From: 2010.03.12/outbox.cif.g09.slc.cpg/sg47_3_cif.got.tgz:4330.got - 2010.04.14 03:12:58.
