data_PCOD8200930
_publ_section_title
;
Structure prediction by ZEFSAII (Michael W. Deem and Ramdas Pophale) SiO2 
 PCOD8200930
Probable space group: P M M M
;
_chemical_formula_sum "Si O2"
_cell_formula_units_Z 52
_cell_length_a 9.639672
_cell_length_b 9.697417
_cell_length_c 33.403323
_cell_angle_alpha 90.000000
_cell_angle_beta 90.000000
_cell_angle_gamma 90.000000
_cell_volume 3122.539933
_symmetry_space_group_name_H-M "P M M M"
_symmetry_group_IT_number 47
_symmetry_cell_setting 'orthorhombic'
loop_
_space_group_symop_operation_xyz
x,y,z
-x,-y,z
x,-y,-z
-x,y,-z
-x,-y,-z
x,y,-z
-x,y,z
x,-y,z
loop_
_atom_site_type_symbol
_atom_site_label
_atom_site_fract_x
_atom_site_fract_y
_atom_site_fract_z
Si Si1 0.664760 0.654726 0.455816
Si Si2 0.339027 0.840207 0.383978
Si Si3 0.838900 0.340261 0.767267
Si Si4 0.344001 0.335939 0.928304
Si Si5 0.156822 0.335229 0.000000
Si Si6 0.160472 0.840726 0.692052
Si Si7 0.344802 0.663701 0.839675
O O1 0.719546 0.698943 0.500000
O O2 0.500000 0.660388 0.456051
O O3 0.715611 0.500000 0.445866
O O4 0.721887 0.757721 0.422037
O O5 0.500000 0.805879 0.375807
O O6 0.252280 0.793772 0.345456
O O7 0.316615 0.000000 0.393591
O O8 0.802647 0.500000 0.758935
O O9 0.791327 0.252271 0.729136
O O10 0.758704 0.279842 0.805835
O O11 0.000000 0.319651 0.776348
O O12 0.500000 0.284839 0.938519
O O13 0.341880 0.500000 0.929390
O O14 0.300161 0.283385 0.883918
O O15 0.235897 0.277084 0.960785
O O16 0.157161 0.500000 0.000000
O O17 0.000000 0.278144 0.000000
O O18 0.000000 0.814547 0.681398
O O19 0.187563 0.000000 0.703036
O O20 0.500000 0.715455 0.829764
O O21 0.340112 0.500000 0.839761
#
# Coordination Sequence:
#
# PCOD8200930 Si02
#       7
#     8   8   8   8   4   8   8
#     4   8  14  25  41  62  88 114 137 164 202 245
#     4   9  17  28  43  64  85 104 133 172 205 233
#     4   9  17  28  42  60  79 100 131 169 203 236
#     4   8  13  21  31  42  61  92 126 157 192 237
#     4   9  15  19  25  41  63  89 126 167 200 231
#     4   9  18  32  46  59  81 113 140 162 199 250
#     4   8  14  24  37  53  73  98 128 162 202 246
#
# _framework density 16.653110999999999
#
# number of rings (size 3 to 8) (size 9 to 14) (size 15 to 20)
#    0.000    3.462    0.000    1.615    0.000    3.077 
#    0.000    4.615    0.000    0.462    0.000    3.231 
#    0.000    0.000    0.000    0.692    0.000   14.769 
#
# Total GULP energy -644504.233690 kJ/mol
# GULP energy per Si atom -12394.312186 kJ/mol
# Density = 1.661521 g / cm^3
# Si number density = 16.653111 Si / 1000 Ang^3
#
#
#
# Elastic Constant Matrix: (Units=GPa)
#
#
# Indices 1 2 3 4 5 6 
#
# 1 74.3514 27.8636 82.1508 0.0000 0.0000 0.0000
# 2 27.8636 36.9398 55.9974 0.0000 0.0000 0.0000
# 3 82.1508 55.9974 183.4762 0.0000 0.0000 0.0000
# 4 0.0000 0.0000 0.0000 3.8041 0.0000 0.0000
# 5 0.0000 0.0000 0.0000 0.0000 15.8936 0.0000
# 6 0.0000 0.0000 0.0000 0.0000 0.0000 10.2639
#
#
#
# Elastic Compliance Matrix: (Units=1/GPa)
#
#
# Indices 1 2 3 4 5 6 
#
# 1 0.026899 -0.003782 -0.010890 0.000000 0.000000 0.000000
# 2 -0.003782 0.050912 -0.013845 0.000000 0.000000 0.000000
# 3 -0.010890 -0.013845 0.014552 0.000000 0.000000 0.000000
# 4 0.000000 0.000000 0.000000 0.262874 0.000000 0.000000
# 5 0.000000 0.000000 0.000000 0.000000 0.062918 0.000000
# 6 0.000000 0.000000 0.000000 0.000000 0.000000 0.097429
#
#
# Mechanical properties :
#
#
# Convention : Reuss Voigt Hill
#
# Bulk Modulus (GPa) = 28.30554 69.64345 48.97450
# Shear Modulus (GPa) = 8.55589 14.57602 11.56595
#
# Velocity S-wave (km/s) = 2.26911 2.96171 2.63824
# Velocity P-wave (km/s) = 4.88868 7.32165 6.22518
#
# Compressibility (1/GPa) = 0.03532877
#
# Stress axis : x y z
#
# Youngs Moduli (GPa) = 37.17629 19.64185 68.72132
#
# Poissons Ratio (x) = 0.07429 0.74834
# Poissons Ratio (y) = 0.14061 0.95144
# Poissons Ratio (z) = 0.40483 0.27194
#
# Static dielectric constant tensor:
#      x y z
#    x 3.073260 0.000000 0.000000 
#    y 0.000000 2.771330 0.000000 
#    z 0.000000 0.000000 3.506540 
# 
# 
# High freq. dielectric constant tensor:
#      x y z
#    x 1.624270 0.000000 0.000000 
#    y 0.000000 1.592690 0.000000 
#    z 0.000000 0.000000 1.654430 
# 
# From -- ./inp_files/33258.got.cif
#   From: 2010.03.12/outbox.cif.g09.slc.cpg/sg47_17_cif.got.tgz:33258.got - 2010.04.14 03:12:58.
