data_PCOD8200105
_publ_section_title
;
Structure prediction by ZEFSAII (Michael W. Deem and Ramdas Pophale) SiO2 
 PCOD8200105
Probable space group: P M M M
;
_chemical_formula_sum "Si O2"
_cell_formula_units_Z 52
_cell_length_a 9.883827
_cell_length_b 13.463614
_cell_length_c 21.298890
_cell_angle_alpha 90.000000
_cell_angle_beta 90.000000
_cell_angle_gamma 90.000000
_cell_volume 2834.286563
_symmetry_space_group_name_H-M "P M M M"
_symmetry_group_IT_number 47
_symmetry_cell_setting 'orthorhombic'
loop_
_space_group_symop_operation_xyz
x,y,z
-x,-y,z
x,-y,-z
-x,y,-z
-x,-y,-z
x,y,-z
-x,y,z
x,-y,z
loop_
_atom_site_type_symbol
_atom_site_label
_atom_site_fract_x
_atom_site_fract_y
_atom_site_fract_z
Si Si1 0.652643 0.611862 0.834131
Si Si2 0.156013 0.710724 0.071966
Si Si3 0.658898 0.211040 0.256258
Si Si4 0.751231 0.257812 0.608744
Si Si5 0.847360 0.111908 0.161017
Si Si6 0.000000 0.382844 0.425969
Si Si7 0.500000 0.389764 0.573021
Si Si8 0.160607 0.883395 0.500000
O O1 0.500000 0.630407 0.858534
O O2 0.672785 0.500000 0.810122
O O3 0.753540 0.630679 0.891754
O O4 0.683367 0.681253 0.774581
O O5 0.182233 0.819085 0.101200
O O6 0.000000 0.678445 0.078398
O O7 0.202158 0.714039 0.000000
O O8 0.500000 0.183922 0.260120
O O9 0.728401 0.208787 0.323892
O O10 0.737975 0.129545 0.215527
O O11 0.873914 0.334239 0.608380
O O12 0.626564 0.326089 0.592405
O O13 0.773173 0.166825 0.561011
O O14 0.000000 0.131415 0.186808
O O15 0.831500 0.000000 0.136811
O O16 0.000000 0.500000 0.414698
O O17 0.000000 0.357166 0.500000
O O18 0.500000 0.500000 0.605069
O O19 0.500000 0.407216 0.500000
O O20 0.000000 0.865669 0.500000
O O21 0.196319 0.000000 0.500000
#
# Coordination Sequence:
#
# PCOD8200105 Si02
#       8
#     8   8   8   8   8   4   4   4
#     4   9  19  36  54  75 107 149 190 223 258 314
#     4   9  18  33  54  81 112 143 176 223 279 326
#     4  10  22  37  57  80 112 148 182 227 277 328
#     4  12  21  40  59  86 116 148 187 237 282 336
#     4   9  19  36  58  82 108 142 185 229 274 329
#     4  11  22  38  60  86 116 148 183 228 285 343
#     4  11  22  36  60  88 118 148 179 224 291 351
#     4  11  24  43  64  83 109 151 193 235 288 343
#
# _framework density 18.346768000000001
#
# number of rings (size 3 to 8) (size 9 to 14) (size 15 to 20)
#    0.000    1.923    3.077    0.462    1.077    4.615 
#    0.000    5.385    0.000    0.000    0.000    4.308 
#    0.000    0.000    0.000    0.000    0.000    0.000 
#
# Total GULP energy -644803.006906 kJ/mol
# GULP energy per Si atom -12400.057825 kJ/mol
# Density = 1.830501 g / cm^3
# Si number density = 18.346768 Si / 1000 Ang^3
#
#
#
# Elastic Constant Matrix: (Units=GPa)
#
#
# Indices 1 2 3 4 5 6 
#
# 1 102.9142 35.3257 39.2910 0.0000 0.0000 0.0000
# 2 35.3257 98.4423 24.4759 0.0000 0.0000 0.0000
# 3 39.2910 24.4759 108.0953 0.0000 0.0000 0.0000
# 4 0.0000 0.0000 0.0000 15.8739 0.0000 0.0000
# 5 0.0000 0.0000 0.0000 0.0000 26.9785 0.0000
# 6 0.0000 0.0000 0.0000 0.0000 0.0000 32.5103
#
#
#
# Elastic Compliance Matrix: (Units=1/GPa)
#
#
# Indices 1 2 3 4 5 6 
#
# 1 0.012328 -0.003507 -0.003687 0.000000 0.000000 0.000000
# 2 -0.003507 0.011762 -0.001388 0.000000 0.000000 0.000000
# 3 -0.003687 -0.001388 0.010906 0.000000 0.000000 0.000000
# 4 0.000000 0.000000 0.000000 0.062997 0.000000 0.000000
# 5 0.000000 0.000000 0.000000 0.000000 0.037067 0.000000
# 6 0.000000 0.000000 0.000000 0.000000 0.000000 0.030759
#
#
# Mechanical properties :
#
#
# Convention : Reuss Voigt Hill
#
# Bulk Modulus (GPa) = 56.08340 56.40411 56.24376
# Shear Modulus (GPa) = 26.46515 29.09647 27.78081
#
# Velocity S-wave (km/s) = 3.80214 3.98668 3.89550
# Velocity P-wave (km/s) = 7.06470 7.21121 7.13833
#
# Compressibility (1/GPa) = 0.01783059
#
# Stress axis : x y z
#
# Youngs Moduli (GPa) = 81.11372 85.01945 91.69559
#
# Poissons Ratio (x) = 0.29819 0.33808
# Poissons Ratio (y) = 0.28449 0.12731
# Poissons Ratio (z) = 0.29907 0.11804
#
# Static dielectric constant tensor:
#      x y z
#    x 3.528650 0.000000 0.000000 
#    y 0.000000 3.413020 0.000000 
#    z 0.000000 0.000000 3.453330 
# 
# 
# High freq. dielectric constant tensor:
#      x y z
#    x 1.722930 0.000000 0.000000 
#    y 0.000000 1.714210 0.000000 
#    z 0.000000 0.000000 1.701410 
# 
# From -- ./inp_files/29652.got.cif
#   From: 2010.03.12/outbox.cif.g09.slc.cpg/sg47_15_cif.got.tgz:29652.got - 2010.04.14 03:12:58.
