data_PCOD8200208
_publ_section_title
;
Structure prediction by ZEFSAII (Michael W. Deem and Ramdas Pophale) SiO2 
 PCOD8200208
Probable space group: P M M M
;
_chemical_formula_sum "Si O2"
_cell_formula_units_Z 40
_cell_length_a 23.646223
_cell_length_b 8.130907
_cell_length_c 13.029342
_cell_angle_alpha 90.000000
_cell_angle_beta 90.000000
_cell_angle_gamma 90.000000
_cell_volume 2505.089568
_symmetry_space_group_name_H-M "P M M M"
_symmetry_group_IT_number 47
_symmetry_cell_setting 'orthorhombic'
loop_
_space_group_symop_operation_xyz
x,y,z
-x,-y,z
x,-y,-z
-x,y,-z
-x,-y,-z
x,y,-z
-x,y,z
x,-y,z
loop_
_atom_site_type_symbol
_atom_site_label
_atom_site_fract_x
_atom_site_fract_y
_atom_site_fract_z
Si Si1 0.062283 0.693010 0.112982
Si Si2 0.064319 0.196326 0.500000
Si Si3 0.240563 0.308865 0.384478
Si Si4 0.128979 0.811210 0.302247
Si Si5 0.367485 0.683785 0.622257
Si Si6 0.564169 0.000000 0.377707
O O1 0.058448 0.500000 0.105394
O O2 0.109587 0.736716 0.195146
O O3 0.000000 0.762286 0.144803
O O4 0.078973 0.763345 0.000000
O O5 0.095926 0.268580 0.600666
O O6 0.000000 0.260261 0.500000
O O7 0.067209 0.000000 0.500000
O O8 0.235930 0.237708 0.500000
O O9 0.225701 0.500000 0.384140
O O10 0.196181 0.215050 0.312589
O O11 0.303601 0.279292 0.340574
O O12 0.113662 0.000000 0.298794
O O13 0.368489 0.681123 0.500000
O O14 0.386871 0.500000 0.660920
O O15 0.406764 0.831956 0.664796
O O16 0.500000 0.000000 0.338028
O O17 0.567215 0.000000 0.500000
#
# Coordination Sequence:
#
# PCOD8200208 Si02
#       6
#     8   4   8   8   8   4
#     4   9  19  36  53  65  81 109 145 184 225 272
#     4   9  18  30  39  57  91 117 133 166 221 274
#     4   9  17  29  43  59  84 114 147 182 218 263
#     4  11  20  29  45  68  89 113 142 179 225 271
#     4   8  15  26  38  54  77 110 146 185 225 261
#     4   9  16  24  36  56  78 108 147 188 225 259
#
# _framework density 15.967494
#
# number of rings (size 3 to 8) (size 9 to 14) (size 15 to 20)
#    0.000    2.800    1.000    3.000    1.400    2.000 
#    0.000    3.000    0.000    2.400    0.000    0.000 
#    0.000    0.000    0.000    0.000    0.000    2.000 
#
# Total GULP energy -495723.442489 kJ/mol
# GULP energy per Si atom -12393.086062 kJ/mol
# Density = 1.593115 g / cm^3
# Si number density = 15.967494 Si / 1000 Ang^3
#
#
#
# Elastic Constant Matrix: (Units=GPa)
#
#
# Indices 1 2 3 4 5 6 
#
# 1 108.9806 44.3132 36.6083 0.0000 0.0000 0.0000
# 2 44.3132 65.0066 21.8640 0.0000 0.0000 0.0000
# 3 36.6083 21.8640 66.9603 0.0000 0.0000 0.0000
# 4 0.0000 0.0000 0.0000 12.4829 0.0000 0.0000
# 5 0.0000 0.0000 0.0000 0.0000 1.3263 0.0000
# 6 0.0000 0.0000 0.0000 0.0000 0.0000 23.4658
#
#
#
# Elastic Compliance Matrix: (Units=1/GPa)
#
#
# Indices 1 2 3 4 5 6 
#
# 1 0.014110 -0.007891 -0.005138 0.000000 0.000000 0.000000
# 2 -0.007891 0.021693 -0.002769 0.000000 0.000000 0.000000
# 3 -0.005138 -0.002769 0.018647 0.000000 0.000000 0.000000
# 4 0.000000 0.000000 0.000000 0.080110 0.000000 0.000000
# 5 0.000000 0.000000 0.000000 0.000000 0.753993 0.000000
# 6 0.000000 0.000000 0.000000 0.000000 0.000000 0.042615
#
#
# Mechanical properties :
#
#
# Convention : Reuss Voigt Hill
#
# Bulk Modulus (GPa) = 43.75354 49.61318 46.68336
# Shear Modulus (GPa) = 5.15260 16.66579 10.90920
#
# Velocity S-wave (km/s) = 1.79832 3.23419 2.61667
# Velocity P-wave (km/s) = 5.63676 6.71457 6.19913
#
# Compressibility (1/GPa) = 0.02285529
#
# Stress axis : x y z
#
# Youngs Moduli (GPa) = 70.87050 46.09726 53.62658
#
# Poissons Ratio (x) = 0.36373 0.27553
# Poissons Ratio (y) = 0.55920 0.14852
# Poissons Ratio (z) = 0.36412 0.12766
#
# Static dielectric constant tensor:
#      x y z
#    x 3.062130 0.000000 0.000000 
#    y 0.000000 3.076320 0.000000 
#    z 0.000000 0.000000 2.891650 
# 
# 
# High freq. dielectric constant tensor:
#      x y z
#    x 1.608240 0.000000 0.000000 
#    y 0.000000 1.615550 0.000000 
#    z 0.000000 0.000000 1.552890 
# 
# From -- ./inp_files/15127.got.cif
#   From: 2010.03.12/outbox.cif.g09.slc.cpg/sg47_8_cif.got.tgz:15127.got - 2010.04.14 03:12:58.
