data_PCOD8200801
_publ_section_title
;
Structure prediction by ZEFSAII (Michael W. Deem and Ramdas Pophale) SiO2 
 PCOD8200801
Probable space group: P M M M
;
_chemical_formula_sum "Si O2"
_cell_formula_units_Z 64
_cell_length_a 9.373439
_cell_length_b 9.954199
_cell_length_c 40.819484
_cell_angle_alpha 90.000000
_cell_angle_beta 90.000000
_cell_angle_gamma 90.000000
_cell_volume 3808.665103
_symmetry_space_group_name_H-M "P M M M"
_symmetry_group_IT_number 47
_symmetry_cell_setting 'orthorhombic'
loop_
_space_group_symop_operation_xyz
x,y,z
-x,-y,z
x,-y,-z
-x,y,-z
-x,-y,-z
x,y,-z
-x,y,z
x,-y,z
loop_
_atom_site_type_symbol
_atom_site_label
_atom_site_fract_x
_atom_site_fract_y
_atom_site_fract_z
Si Si1 0.166998 0.845868 0.219497
Si Si2 0.334219 0.845814 0.715727
Si Si3 0.166922 0.654190 0.407618
Si Si4 0.830175 0.349519 0.090651
Si Si5 0.169799 0.150438 0.963603
Si Si6 0.169513 0.349529 0.836573
Si Si7 0.830537 0.150521 0.536357
Si Si8 0.334213 0.654178 0.342848
O O1 0.246596 0.802460 0.252422
O O2 0.229418 0.755364 0.189998
O O3 0.000000 0.820984 0.225071
O O4 0.199306 0.000000 0.210449
O O5 0.500000 0.823937 0.723534
O O6 0.282893 0.750003 0.686438
O O7 0.302150 0.000000 0.705948
O O8 0.198757 0.500000 0.416641
O O9 0.229598 0.744254 0.437173
O O10 0.246684 0.697539 0.374710
O O11 0.000000 0.679676 0.402027
O O12 0.778459 0.500000 0.082329
O O13 0.763312 0.249575 0.063610
O O14 0.776515 0.308407 0.127055
O O15 0.000000 0.342966 0.089635
O O16 0.000000 0.154106 0.962009
O O17 0.224227 0.000000 0.956084
O O18 0.220031 0.195109 0.000000
O O19 0.222762 0.500000 0.827869
O O20 0.000000 0.345838 0.836295
O O21 0.773336 0.188268 0.500000
O O22 0.000000 0.157398 0.536067
O O23 0.780148 0.000000 0.545753
O O24 0.500000 0.675990 0.350646
O O25 0.302064 0.500000 0.333071
#
# Coordination Sequence:
#
# PCOD8200801 Si02
#       8
#     8   8   8   8   8   8   8   8
#     4   9  17  28  42  61  82 102 128 163 199 235
#     4   9  18  32  47  62  82 108 136 165 199 240
#     4   9  17  28  43  65  89 110 137 174 209 239
#     4   8  13  20  29  41  58  82 113 148 185 226
#     4   8  13  19  25  35  53  78 111 151 190 225
#     4   8  14  24  36  51  72  96 122 154 194 238
#     4   8  14  25  41  62  88 115 141 170 205 243
#     4   9  18  32  47  62  83 111 139 166 199 241
#
# _framework density 16.803788999999998
#
# number of rings (size 3 to 8) (size 9 to 14) (size 15 to 20)
#    0.000    3.500    0.000    1.500    0.000    2.500 
#    0.000    5.000    0.000    0.375    0.000    2.625 
#    0.000    0.000    0.000    0.000    0.000    0.625 
#
# Total GULP energy -793267.632780 kJ/mol
# GULP energy per Si atom -12394.806762 kJ/mol
# Density = 1.676554 g / cm^3
# Si number density = 16.803789 Si / 1000 Ang^3
#
#
#
# Elastic Constant Matrix: (Units=GPa)
#
#
# Indices 1 2 3 4 5 6 
#
# 1 16.5544 22.7916 32.0318 0.0000 0.0000 0.0000
# 2 22.7916 114.9971 114.3656 0.0000 0.0000 0.0000
# 3 32.0318 114.3656 178.6282 0.0000 0.0000 0.0000
# 4 0.0000 0.0000 0.0000 43.1341 0.0000 0.0000
# 5 0.0000 0.0000 0.0000 0.0000 -0.8721 0.0000
# 6 0.0000 0.0000 0.0000 0.0000 0.0000 10.9277
#
#
#
# Elastic Compliance Matrix: (Units=1/GPa)
#
#
# Indices 1 2 3 4 5 6 
#
# 1 0.093584 -0.005115 -0.013506 0.000000 0.000000 0.000000
# 2 -0.005115 0.024217 -0.014588 0.000000 0.000000 0.000000
# 3 -0.013506 -0.014588 0.017360 0.000000 0.000000 0.000000
# 4 0.000000 0.000000 0.000000 0.023184 0.000000 0.000000
# 5 0.000000 0.000000 0.000000 0.000000 -1.146608 0.000000
# 6 0.000000 0.000000 0.000000 0.000000 0.000000 0.091511
#
#
# Mechanical properties :
#
#
# Convention : Reuss Voigt Hill
#
# Bulk Modulus (GPa) = 14.54716 72.06198 43.30457
# Shear Modulus (GPa) = -6.19256 20.03731 6.92237
#
# Velocity S-wave (km/s) = -1.92177 3.45690 2.03186
# Velocity P-wave (km/s) = 1.93690 7.67535 5.59744
#
# Compressibility (1/GPa) = 0.06874194
#
# Stress axis : x y z
#
# Youngs Moduli (GPa) = 10.68561 41.29290 57.60413
#
# Poissons Ratio (x) = 0.21123 0.77803
# Poissons Ratio (y) = 0.05466 0.84031
# Poissons Ratio (z) = 0.14433 0.60237
#
# Static dielectric constant tensor:
#      x y z
#    x 2.614860 0.000000 0.000000 
#    y 0.000000 3.361320 0.000000 
#    z 0.000000 0.000000 3.442720 
# 
# 
# High freq. dielectric constant tensor:
#      x y z
#    x 1.586690 0.000000 0.000000 
#    y 0.000000 1.652060 0.000000 
#    z 0.000000 0.000000 1.655920 
# 
# From -- ./inp_files/34364.got.cif
#   From: 2010.03.12/outbox.cif.g09.slc.cpg/sg47_18_cif.got.tgz:34364.got - 2010.04.14 03:12:58.
