data_PCOD8200964
_publ_section_title
;
Structure prediction by ZEFSAII (Michael W. Deem and Ramdas Pophale) SiO2 
 PCOD8200964
Probable space group: P M M M
;
_chemical_formula_sum "Si O2"
_cell_formula_units_Z 44
_cell_length_a 9.109718
_cell_length_b 28.659337
_cell_length_c 9.415381
_cell_angle_alpha 90.000000
_cell_angle_beta 90.000000
_cell_angle_gamma 90.000000
_cell_volume 2458.153343
_symmetry_space_group_name_H-M "P M M M"
_symmetry_group_IT_number 47
_symmetry_cell_setting 'orthorhombic'
loop_
_space_group_symop_operation_xyz
x,y,z
-x,-y,z
x,-y,-z
-x,y,-z
-x,-y,-z
x,y,-z
-x,y,z
x,-y,z
loop_
_atom_site_type_symbol
_atom_site_label
_atom_site_fract_x
_atom_site_fract_y
_atom_site_fract_z
Si Si1 0.674616 0.051681 0.159410
Si Si2 0.325071 0.137175 0.659869
Si Si3 0.334038 0.408971 0.169433
Si Si4 0.165963 0.500000 0.830696
Si Si5 0.328429 0.773851 0.164545
Si Si6 0.834470 0.318484 0.830971
O O1 0.500000 0.054058 0.159749
O O2 0.739307 0.090634 0.265465
O O3 0.726157 0.000000 0.208981
O O4 0.731882 0.061792 0.000000
O O5 0.263478 0.139425 0.500000
O O6 0.500000 0.135673 0.660477
O O7 0.270171 0.182260 0.745912
O O8 0.500000 0.409753 0.227614
O O9 0.249200 0.454348 0.227386
O O10 0.253104 0.363046 0.229323
O O11 0.333785 0.408720 0.000000
O O12 0.000000 0.500000 0.772159
O O13 0.165556 0.500000 0.000000
O O14 0.500000 0.764799 0.188242
O O15 0.243714 0.728555 0.222116
O O16 0.293873 0.783957 0.000000
O O17 0.000000 0.319858 0.771892
O O18 0.833394 0.319994 0.000000
#
# Coordination Sequence:
#
# PCOD8200964 Si02
#       6
#     8   8   8   4   8   8
#     4   8  13  21  33  50  75 108 142 173 207 249
#     4   9  16  24  35  53  77 105 137 173 211 250
#     4   9  15  22  32  47  69  98 133 171 211 256
#     4   9  15  21  29  43  67 101 138 173 210 253
#     4   9  16  26  40  56  75 102 135 169 207 252
#     4   9  16  25  37  53  72  95 128 171 213 251
#
# _framework density 17.899615000000001
#
# number of rings (size 3 to 8) (size 9 to 14) (size 15 to 20)
#    0.000    3.182    0.000    2.455    0.000    8.000 
#    0.000    1.818    0.000    0.545    0.000    0.000 
#    0.000    0.727    0.000    9.182    0.000   28.545 
#
# Total GULP energy -545439.978950 kJ/mol
# GULP energy per Si atom -12396.363158 kJ/mol
# Density = 1.785887 g / cm^3
# Si number density = 17.899615 Si / 1000 Ang^3
#
#
#
# Elastic Constant Matrix: (Units=GPa)
#
#
# Indices 1 2 3 4 5 6 
#
# 1 87.4360 67.9652 22.8585 0.0000 0.0000 0.0000
# 2 67.9652 206.8183 61.3628 0.0000 0.0000 0.0000
# 3 22.8585 61.3628 57.2597 0.0000 0.0000 0.0000
# 4 0.0000 0.0000 0.0000 3.3102 0.0000 0.0000
# 5 0.0000 0.0000 0.0000 0.0000 3.5206 0.0000
# 6 0.0000 0.0000 0.0000 0.0000 0.0000 6.5295
#
#
#
# Elastic Compliance Matrix: (Units=1/GPa)
#
#
# Indices 1 2 3 4 5 6 
#
# 1 0.015405 -0.004747 -0.001062 0.000000 0.000000 0.000000
# 2 -0.004747 0.008552 -0.007270 0.000000 0.000000 0.000000
# 3 -0.001062 -0.007270 0.025679 0.000000 0.000000 0.000000
# 4 0.000000 0.000000 0.000000 0.302093 0.000000 0.000000
# 5 0.000000 0.000000 0.000000 0.000000 0.284039 0.000000
# 6 0.000000 0.000000 0.000000 0.000000 0.000000 0.153151
#
#
# Mechanical properties :
#
#
# Convention : Reuss Voigt Hill
#
# Bulk Modulus (GPa) = 42.59438 72.87633 57.73536
# Shear Modulus (GPa) = 6.07604 15.96058 11.01831
#
# Velocity S-wave (km/s) = 1.84442 2.98933 2.48374
# Velocity P-wave (km/s) = 5.32764 7.26065 6.36792
#
# Compressibility (1/GPa) = 0.02347727
#
# Stress axis : x y z
#
# Youngs Moduli (GPa) = 64.91535 116.92977 38.94202
#
# Poissons Ratio (x) = 0.55508 0.04137
# Poissons Ratio (y) = 0.30816 0.28310
# Poissons Ratio (z) = 0.06896 0.85007
#
# Static dielectric constant tensor:
#      x y z
#    x 3.037910 0.000000 0.000000 
#    y 0.000000 3.634810 0.000000 
#    z 0.000000 0.000000 2.876650 
# 
# 
# High freq. dielectric constant tensor:
#      x y z
#    x 1.656860 0.000000 0.000000 
#    y 0.000000 1.714670 0.000000 
#    z 0.000000 0.000000 1.631590 
# 
# From -- ./inp_files/2021.got.cif
#   From: 2010.03.12/outbox.cif.g09.slc.cpg/sg47_2_cif.got.tgz:2021.got - 2010.04.14 03:12:58.
