data_PCOD8200169
_publ_section_title
;
Structure prediction by ZEFSAII (Michael W. Deem and Ramdas Pophale) SiO2 
 PCOD8200169
Probable space group: P M M M
;
_chemical_formula_sum "Si O2"
_cell_formula_units_Z 52
_cell_length_a 21.453946
_cell_length_b 14.759792
_cell_length_c 9.086593
_cell_angle_alpha 90.000000
_cell_angle_beta 90.000000
_cell_angle_gamma 90.000000
_cell_volume 2877.322199
_symmetry_space_group_name_H-M "P M M M"
_symmetry_group_IT_number 47
_symmetry_cell_setting 'orthorhombic'
loop_
_space_group_symop_operation_xyz
x,y,z
-x,-y,z
x,-y,-z
-x,y,-z
-x,-y,-z
x,y,-z
-x,y,z
x,-y,z
loop_
_atom_site_type_symbol
_atom_site_label
_atom_site_fract_x
_atom_site_fract_y
_atom_site_fract_z
Si Si1 0.072402 0.602883 0.672054
Si Si2 0.116864 0.220645 0.175064
Si Si3 0.572771 0.000000 0.161232
Si Si4 0.780038 0.104562 0.327852
Si Si5 0.360272 0.847941 0.327998
Si Si6 0.426117 0.694855 0.170692
Si Si7 0.566718 0.500000 0.828399
Si Si8 0.000000 0.102768 0.825469
O O1 0.083852 0.619359 0.500000
O O2 0.093303 0.500000 0.714533
O O3 0.111619 0.677259 0.762241
O O4 0.000000 0.615285 0.711780
O O5 0.178803 0.172924 0.233174
O O6 0.059989 0.157832 0.231088
O O7 0.118905 0.227198 0.000000
O O8 0.591223 0.087992 0.249110
O O9 0.500000 0.000000 0.141966
O O10 0.604532 0.000000 0.000000
O O11 0.791504 0.122535 0.500000
O O12 0.709541 0.126552 0.282193
O O13 0.795060 0.000000 0.287937
O O14 0.369097 0.858825 0.500000
O O15 0.380106 0.749276 0.275790
O O16 0.500000 0.705012 0.207843
O O17 0.399515 0.594176 0.209154
O O18 0.415454 0.720911 0.000000
O O19 0.500000 0.500000 0.746231
O O20 0.552654 0.500000 0.000000
O O21 0.000000 0.000000 0.760370
O O22 0.000000 0.097473 0.000000
#
# Coordination Sequence:
#
# PCOD8200169 Si02
#       8
#     8   8   4   8   8   8   4   4
#     4   9  18  34  57  84 115 151 186 221 268 329
#     4  11  21  34  56  85 114 144 180 229 280 322
#     4  11  23  37  55  81 111 142 181 228 273 325
#     4  10  22  41  58  74 103 146 191 227 265 325
#     4  11  22  37  55  77 108 144 182 225 272 324
#     4   9  17  31  53  81 109 138 175 219 268 322
#     4   7  12  26  49  75 105 139 171 208 259 318
#     4   9  18  32  48  75 116 146 169 215 274 323
#
# _framework density 18.07236
#
# number of rings (size 3 to 8) (size 9 to 14) (size 15 to 20)
#    0.000    2.231    1.538    3.462    0.000    5.231 
#    0.000    1.154    1.692    3.231    0.000    0.000 
#    0.000    0.000    0.000    0.000    0.000    0.000 
#
# Total GULP energy -644493.775512 kJ/mol
# GULP energy per Si atom -12394.111068 kJ/mol
# Density = 1.803123 g / cm^3
# Si number density = 18.072360 Si / 1000 Ang^3
#
#
#
# Elastic Constant Matrix: (Units=GPa)
#
#
# Indices 1 2 3 4 5 6 
#
# 1 69.4246 50.2967 44.2145 0.0000 0.0000 0.0000
# 2 50.2967 152.3335 51.7088 0.0000 0.0000 0.0000
# 3 44.2145 51.7088 68.3403 0.0000 0.0000 0.0000
# 4 0.0000 0.0000 0.0000 37.4981 0.0000 0.0000
# 5 0.0000 0.0000 0.0000 0.0000 26.9599 0.0000
# 6 0.0000 0.0000 0.0000 0.0000 0.0000 -2.6133
#
#
#
# Elastic Compliance Matrix: (Units=1/GPa)
#
#
# Indices 1 2 3 4 5 6 
#
# 1 0.026101 -0.003883 -0.013948 0.000000 0.000000 0.000000
# 2 -0.003883 0.009411 -0.004608 0.000000 0.000000 0.000000
# 3 -0.013948 -0.004608 0.027144 0.000000 0.000000 0.000000
# 4 0.000000 0.000000 0.000000 0.026668 0.000000 0.000000
# 5 0.000000 0.000000 0.000000 0.000000 0.037092 0.000000
# 6 0.000000 0.000000 0.000000 0.000000 0.000000 -0.382661
#
#
# Mechanical properties :
#
#
# Convention : Reuss Voigt Hill
#
# Bulk Modulus (GPa) = 56.25680 64.72651 60.49165
# Shear Modulus (GPa) = -24.33798 21.96084 -1.18857
#
# Velocity S-wave (km/s) = -3.67372 3.48970 -0.81185
# Velocity P-wave (km/s) = 3.63336 7.22013 5.71540
#
# Compressibility (1/GPa) = 0.01777563
#
# Stress axis : x y z
#
# Youngs Moduli (GPa) = 38.31316 106.25930 36.84075
#
# Poissons Ratio (x) = 0.41261 0.51387
# Poissons Ratio (y) = 0.14877 0.16978
# Poissons Ratio (z) = 0.53441 0.48969
#
# Static dielectric constant tensor:
#      x y z
#    x 3.145240 0.000000 0.000000 
#    y 0.000000 3.369700 0.000000 
#    z 0.000000 0.000000 3.175120 
# 
# 
# High freq. dielectric constant tensor:
#      x y z
#    x 1.676290 0.000000 0.000000 
#    y 0.000000 1.718650 0.000000 
#    z 0.000000 0.000000 1.688140 
# 
# From -- ./inp_files/11162.got.cif
#   From: 2010.03.12/outbox.cif.g09.slc.cpg/sg47_6_cif.got.tgz:11162.got - 2010.04.14 03:12:58.
