data_PCOD8200627
_publ_section_title
;
Structure prediction by ZEFSAII (Michael W. Deem and Ramdas Pophale) SiO2 
 PCOD8200627
Probable space group: P M M M
;
_chemical_formula_sum "Si O2"
_cell_formula_units_Z 48
_cell_length_a 15.316189
_cell_length_b 17.278189
_cell_length_c 8.979747
_cell_angle_alpha 90.000000
_cell_angle_beta 90.000000
_cell_angle_gamma 90.000000
_cell_volume 2376.364402
_symmetry_space_group_name_H-M "P M M M"
_symmetry_group_IT_number 47
_symmetry_cell_setting 'orthorhombic'
loop_
_space_group_symop_operation_xyz
x,y,z
-x,-y,z
x,-y,-z
-x,y,-z
-x,-y,-z
x,y,-z
-x,y,z
x,-y,z
loop_
_atom_site_type_symbol
_atom_site_label
_atom_site_fract_x
_atom_site_fract_y
_atom_site_fract_z
Si Si1 0.000000 0.915697 0.176436
Si Si2 0.500000 0.909843 0.823003
Si Si3 0.404014 0.591020 0.165225
Si Si4 0.900333 0.411756 0.175598
Si Si5 0.183742 0.909753 0.835822
Si Si6 0.743477 0.327041 0.325943
Si Si7 0.332316 0.162456 0.673902
O O1 0.090863 0.871416 0.218575
O O2 0.000000 0.000000 0.254894
O O3 0.000000 0.925324 0.000000
O O4 0.582693 0.862736 0.763831
O O5 0.500000 0.000000 0.768336
O O6 0.500000 0.907757 0.000000
O O7 0.500000 0.624383 0.209370
O O8 0.409631 0.500000 0.161022
O O9 0.332443 0.612996 0.286382
O O10 0.377856 0.621679 0.000000
O O11 0.878368 0.500000 0.225930
O O12 0.834580 0.350602 0.249812
O O13 0.000000 0.391409 0.221740
O O14 0.888928 0.404955 0.000000
O O15 0.256785 0.898246 0.711509
O O16 0.165603 0.000000 0.851979
O O17 0.212168 0.877516 0.000000
O O18 0.760834 0.327005 0.500000
O O19 0.706677 0.244364 0.271084
O O20 0.355019 0.162124 0.500000
#
# Coordination Sequence:
#
# PCOD8200627 Si02
#       7
#     4   4   8   8   8   8   8
#     4   7  12  26  51  81 109 135 168 221 278 319
#     4  11  25  45  69  93 112 141 196 255 299 350
#     4   9  19  36  58  84 112 145 188 236 284 335
#     4   9  19  38  64  91 118 153 202 255 299 343
#     4   9  17  33  58  85 111 142 187 237 280 332
#     4  11  24  38  54  82 121 159 194 234 285 347
#     4  11  25  41  56  82 120 158 189 230 291 351
#
# _framework density 20.198922
#
# number of rings (size 3 to 8) (size 9 to 14) (size 15 to 20)
#    0.000    2.333    0.000    4.250    1.167    9.000 
#    1.500    2.083    0.000    1.500    0.000    0.000 
#    0.000    0.000    0.000    0.000    0.000    0.000 
#
# Total GULP energy -594766.468841 kJ/mol
# GULP energy per Si atom -12390.968101 kJ/mol
# Density = 2.015295 g / cm^3
# Si number density = 20.198922 Si / 1000 Ang^3
#
#
#
# Elastic Constant Matrix: (Units=GPa)
#
#
# Indices 1 2 3 4 5 6 
#
# 1 178.4115 60.2144 51.2821 0.0000 0.0000 0.0000
# 2 60.2144 75.2568 39.7073 0.0000 0.0000 0.0000
# 3 51.2821 39.7073 60.1899 0.0000 0.0000 0.0000
# 4 0.0000 0.0000 0.0000 28.5983 0.0000 0.0000
# 5 0.0000 0.0000 0.0000 0.0000 1.4212 0.0000
# 6 0.0000 0.0000 0.0000 0.0000 0.0000 29.9289
#
#
#
# Elastic Compliance Matrix: (Units=1/GPa)
#
#
# Indices 1 2 3 4 5 6 
#
# 1 0.008297 -0.004462 -0.004125 0.000000 0.000000 0.000000
# 2 -0.004462 0.022782 -0.011228 0.000000 0.000000 0.000000
# 3 -0.004125 -0.011228 0.027536 0.000000 0.000000 0.000000
# 4 0.000000 0.000000 0.000000 0.034967 0.000000 0.000000
# 5 0.000000 0.000000 0.000000 0.000000 0.703629 0.000000
# 6 0.000000 0.000000 0.000000 0.000000 0.000000 0.033413
#
#
# Mechanical properties :
#
#
# Convention : Reuss Voigt Hill
#
# Bulk Modulus (GPa) = 52.67424 68.47395 60.57409
# Shear Modulus (GPa) = 5.70398 22.83331 14.26865
#
# Velocity S-wave (km/s) = 1.68227 3.36582 2.66071
# Velocity P-wave (km/s) = 5.46880 7.00560 6.28435
#
# Compressibility (1/GPa) = 0.01898461
#
# Stress axis : x y z
#
# Youngs Moduli (GPa) = 120.53086 43.89495 36.31621
#
# Poissons Ratio (x) = 0.19584 0.14982
# Poissons Ratio (y) = 0.53776 0.40775
# Poissons Ratio (z) = 0.49724 0.49284
#
# Static dielectric constant tensor:
#      x y z
#    x 4.220670 0.000000 0.000000 
#    y 0.000000 3.567330 0.000000 
#    z 0.000000 0.000000 3.431520 
# 
# 
# High freq. dielectric constant tensor:
#      x y z
#    x 1.813300 0.000000 0.000000 
#    y 0.000000 1.767480 0.000000 
#    z 0.000000 0.000000 1.768600 
# 
# From -- ./inp_files/6431.got.cif
#   From: 2010.03.12/outbox.cif.g09.slc.cpg/sg47_4_cif.got.tgz:6431.got - 2010.04.14 03:12:58.
