data_PCOD8200522
_publ_section_title
;
Structure prediction by ZEFSAII (Michael W. Deem and Ramdas Pophale) SiO2 
 PCOD8200522
Probable space group: P M M M
;
_chemical_formula_sum "Si O2"
_cell_formula_units_Z 52
_cell_length_a 18.279705
_cell_length_b 18.306870
_cell_length_c 9.510596
_cell_angle_alpha 90.000000
_cell_angle_beta 90.000000
_cell_angle_gamma 90.000000
_cell_volume 3182.665629
_symmetry_space_group_name_H-M "P M M M"
_symmetry_group_IT_number 47
_symmetry_cell_setting 'orthorhombic'
loop_
_space_group_symop_operation_xyz
x,y,z
-x,-y,z
x,-y,-z
-x,y,-z
-x,-y,-z
x,y,-z
-x,y,z
x,-y,z
loop_
_atom_site_type_symbol
_atom_site_label
_atom_site_fract_x
_atom_site_fract_y
_atom_site_fract_z
Si Si1 0.797978 0.208213 0.654928
Si Si2 0.651879 0.133995 0.666010
Si Si3 0.839199 0.419528 0.161666
Si Si4 0.082763 0.726370 0.834477
Si Si5 0.281858 0.637519 0.656397
Si Si6 0.580685 0.284105 0.332702
Si Si7 0.586227 0.000000 0.166472
O O1 0.829811 0.190899 0.500000
O O2 0.738559 0.146525 0.697114
O O3 0.865682 0.212658 0.762964
O O4 0.756545 0.284472 0.651219
O O5 0.639635 0.117617 0.500000
O O6 0.606234 0.204348 0.717166
O O7 0.623706 0.069288 0.762384
O O8 0.874595 0.500000 0.186598
O O9 0.894913 0.356284 0.211574
O O10 0.762511 0.416840 0.244082
O O11 0.819418 0.407409 0.000000
O O12 0.000000 0.739049 0.783596
O O13 0.090246 0.736482 0.000000
O O14 0.284548 0.603234 0.500000
O O15 0.363612 0.652030 0.717834
O O16 0.581407 0.284147 0.500000
O O17 0.500000 0.300687 0.271832
O O18 0.500000 0.000000 0.198592
O O19 0.601733 0.000000 0.000000
#
# Coordination Sequence:
#
# PCOD8200522 Si02
#       7
#     8   8   8   8   8   8   4
#     4   8  15  28  45  65  86 109 142 181 217 252
#     4   9  17  30  48  66  85 116 154 182 208 253
#     4   9  17  28  41  57  80 112 145 174 206 248
#     4   9  17  28  43  65  90 114 141 173 212 259
#     4   8  14  25  41  60  80 102 133 175 216 253
#     4   8  13  23  42  65  83 101 133 178 220 253
#     4  11  23  33  41  63 100 131 152 179 215 250
#
# _framework density 16.338505000000001
#
# number of rings (size 3 to 8) (size 9 to 14) (size 15 to 20)
#    0.000    3.308    0.000    2.538    0.000    2.769 
#    0.000    3.846    0.000    1.846    0.000    8.077 
#    0.000    4.308    0.000    0.000    0.000    0.000 
#
# Total GULP energy -644342.641409 kJ/mol
# GULP energy per Si atom -12391.204642 kJ/mol
# Density = 1.630132 g / cm^3
# Si number density = 16.338505 Si / 1000 Ang^3
#
#
#
# Elastic Constant Matrix: (Units=GPa)
#
#
# Indices 1 2 3 4 5 6 
#
# 1 129.8384 31.6278 46.4330 0.0000 0.0000 0.0000
# 2 31.6278 41.8783 26.4635 0.0000 0.0000 0.0000
# 3 46.4330 26.4635 53.7801 0.0000 0.0000 0.0000
# 4 0.0000 0.0000 0.0000 20.3159 0.0000 0.0000
# 5 0.0000 0.0000 0.0000 0.0000 23.8680 0.0000
# 6 0.0000 0.0000 0.0000 0.0000 0.0000 19.8544
#
#
#
# Elastic Compliance Matrix: (Units=1/GPa)
#
#
# Indices 1 2 3 4 5 6 
#
# 1 0.011484 -0.003494 -0.008196 0.000000 0.000000 0.000000
# 2 -0.003494 0.035717 -0.014559 0.000000 0.000000 0.000000
# 3 -0.008196 -0.014559 0.032834 0.000000 0.000000 0.000000
# 4 0.000000 0.000000 0.000000 0.049223 0.000000 0.000000
# 5 0.000000 0.000000 0.000000 0.000000 0.041897 0.000000
# 6 0.000000 0.000000 0.000000 0.000000 0.000000 0.050367
#
#
# Mechanical properties :
#
#
# Convention : Reuss Voigt Hill
#
# Bulk Modulus (GPa) = 36.31274 48.28283 42.29779
# Shear Modulus (GPa) = 17.65543 20.87247 19.26395
#
# Velocity S-wave (km/s) = 3.29082 3.57809 3.43746
# Velocity P-wave (km/s) = 6.05911 6.83272 6.45751
#
# Compressibility (1/GPa) = 0.02753854
#
# Stress axis : x y z
#
# Youngs Moduli (GPa) = 87.07760 27.99752 30.45593
#
# Poissons Ratio (x) = 0.09782 0.24961
# Poissons Ratio (y) = 0.30425 0.44340
# Poissons Ratio (z) = 0.71367 0.40761
#
# Static dielectric constant tensor:
#      x y z
#    x 3.392930 0.000000 0.000000 
#    y 0.000000 2.891680 0.000000 
#    z 0.000000 0.000000 3.016540 
# 
# 
# High freq. dielectric constant tensor:
#      x y z
#    x 1.626580 0.000000 0.000000 
#    y 0.000000 1.596870 0.000000 
#    z 0.000000 0.000000 1.610950 
# 
# From -- ./inp_files/9569.got.cif
#   From: 2010.03.12/outbox.cif.g09.slc.cpg/sg47_5_cif.got.tgz:9569.got - 2010.04.14 03:12:58.
