data_PCOD8200881
_publ_section_title
;
Structure prediction by ZEFSAII (Michael W. Deem and Ramdas Pophale) SiO2 
 PCOD8200881
Probable space group: P M M M
;
_chemical_formula_sum "Si O2"
_cell_formula_units_Z 40
_cell_length_a 9.654303
_cell_length_b 9.955390
_cell_length_c 25.770978
_cell_angle_alpha 90.000000
_cell_angle_beta 90.000000
_cell_angle_gamma 90.000000
_cell_volume 2476.909297
_symmetry_space_group_name_H-M "P M M M"
_symmetry_group_IT_number 47
_symmetry_cell_setting 'orthorhombic'
loop_
_space_group_symop_operation_xyz
x,y,z
-x,-y,z
x,-y,-z
-x,y,-z
-x,-y,-z
x,y,-z
-x,y,z
x,-y,z
loop_
_atom_site_type_symbol
_atom_site_label
_atom_site_fract_x
_atom_site_fract_y
_atom_site_fract_z
Si Si1 0.337860 0.844145 0.647236
Si Si2 0.846185 0.159547 0.742001
Si Si3 0.835224 0.650275 0.057801
Si Si4 0.335541 0.650320 0.557625
Si Si5 0.835018 0.850208 0.856170
O O1 0.500000 0.820151 0.656319
O O2 0.260044 0.789845 0.698339
O O3 0.279201 0.758791 0.598739
O O4 0.305197 0.000000 0.636009
O O5 0.793417 0.205676 0.799031
O O6 0.000000 0.217547 0.730300
O O7 0.853311 0.000000 0.742459
O O8 0.781389 0.500000 0.069939
O O9 0.771232 0.752249 0.100065
O O10 0.000000 0.652523 0.060899
O O11 0.787516 0.694226 0.000000
O O12 0.279552 0.686898 0.500000
O O13 0.500000 0.655599 0.556934
O O14 0.286125 0.500000 0.573088
O O15 0.000000 0.855208 0.859663
O O16 0.774939 0.000000 0.865459
#
# Coordination Sequence:
#
# PCOD8200881 Si02
#       5
#     8   8   8   8   8
#     4   9  16  25  40  62  81  96 122 160 191 215
#     4   8  14  25  39  54  76 105 129 150 184 227
#     4   8  13  20  29  43  66  93 116 143 184 224
#     4   8  14  25  40  57  78 103 126 149 185 230
#     4   8  13  21  33  47  63  89 124 151 171 208
#
# _framework density 16.149158
#
# number of rings (size 3 to 8) (size 9 to 14) (size 15 to 20)
#    0.000    3.800    0.000    2.400    0.000    0.800 
#    0.000    5.000    0.000    2.400    0.000    4.200 
#    0.000    0.800    0.000   10.000    0.000   11.600 
#
# Total GULP energy -495611.248710 kJ/mol
# GULP energy per Si atom -12390.281218 kJ/mol
# Density = 1.611240 g / cm^3
# Si number density = 16.149158 Si / 1000 Ang^3
#
#
#
# Elastic Constant Matrix: (Units=GPa)
#
#
# Indices 1 2 3 4 5 6 
#
# 1 20.1473 18.6965 32.0246 0.0000 0.0000 0.0000
# 2 18.6965 80.5477 84.9631 0.0000 0.0000 0.0000
# 3 32.0246 84.9631 172.0406 0.0000 0.0000 0.0000
# 4 0.0000 0.0000 0.0000 19.3920 0.0000 0.0000
# 5 0.0000 0.0000 0.0000 0.0000 8.8185 0.0000
# 6 0.0000 0.0000 0.0000 0.0000 0.0000 6.4631
#
#
#
# Elastic Compliance Matrix: (Units=1/GPa)
#
#
# Indices 1 2 3 4 5 6 
#
# 1 0.071577 -0.005344 -0.010685 0.000000 0.000000 0.000000
# 2 -0.005344 0.026314 -0.012000 0.000000 0.000000 0.000000
# 3 -0.010685 -0.012000 0.013728 0.000000 0.000000 0.000000
# 4 0.000000 0.000000 0.000000 0.051568 0.000000 0.000000
# 5 0.000000 0.000000 0.000000 0.000000 0.113397 0.000000
# 6 0.000000 0.000000 0.000000 0.000000 0.000000 0.154723
#
#
# Mechanical properties :
#
#
# Convention : Reuss Voigt Hill
#
# Bulk Modulus (GPa) = 17.99837 60.45600 39.22718
# Shear Modulus (GPa) = 9.88368 16.07150 12.97759
#
# Velocity S-wave (km/s) = 2.47660 3.15809 2.83787
# Velocity P-wave (km/s) = 4.39856 7.12849 5.92295
#
# Compressibility (1/GPa) = 0.05556059
#
# Stress axis : x y z
#
# Youngs Moduli (GPa) = 13.97102 38.00322 72.84433
#
# Poissons Ratio (x) = 0.20308 0.77831
# Poissons Ratio (y) = 0.07466 0.87416
# Poissons Ratio (z) = 0.14927 0.45605
#
# Static dielectric constant tensor:
#      x y z
#    x 2.555680 0.000000 0.000000 
#    y 0.000000 3.123100 0.000000 
#    z 0.000000 0.000000 3.541480 
# 
# 
# High freq. dielectric constant tensor:
#      x y z
#    x 1.551430 0.000000 0.000000 
#    y 0.000000 1.603750 0.000000 
#    z 0.000000 0.000000 1.635250 
# 
# From -- ./inp_files/1415.got.cif
#   From: 2010.03.12/outbox.cif.g09.slc.cpg/sg47_1_cif.got.tgz:1415.got - 2010.04.14 03:12:58.
