data_PCOD8200899
_publ_section_title
;
Structure prediction by ZEFSAII (Michael W. Deem and Ramdas Pophale) SiO2 
 PCOD8200899
Probable space group: P M M M
;
_chemical_formula_sum "Si O2"
_cell_formula_units_Z 36
_cell_length_a 12.566003
_cell_length_b 7.766767
_cell_length_c 24.087186
_cell_angle_alpha 90.000000
_cell_angle_beta 90.000000
_cell_angle_gamma 90.000000
_cell_volume 2350.842329
_symmetry_space_group_name_H-M "P M M M"
_symmetry_group_IT_number 47
_symmetry_cell_setting 'orthorhombic'
loop_
_space_group_symop_operation_xyz
x,y,z
-x,-y,z
x,-y,-z
-x,y,-z
-x,-y,-z
x,y,-z
-x,y,z
x,-y,z
loop_
_atom_site_type_symbol
_atom_site_label
_atom_site_fract_x
_atom_site_fract_y
_atom_site_fract_z
Si Si1 0.874543 0.500000 0.739197
Si Si2 0.873504 0.808807 0.937791
Si Si3 0.500000 0.306822 0.434310
Si Si4 0.872593 0.500000 0.136770
Si Si5 0.273312 0.197420 0.561143
Si Si6 0.124468 0.800203 0.341785
O O1 0.825186 0.500000 0.800969
O O2 0.838858 0.675761 0.708311
O O3 0.000000 0.500000 0.744359
O O4 0.827924 0.668930 0.894732
O O5 0.000000 0.802347 0.937470
O O6 0.834761 0.000000 0.919950
O O7 0.832794 0.765815 0.000000
O O8 0.500000 0.500000 0.412149
O O9 0.500000 0.292956 0.500000
O O10 0.608210 0.217999 0.412822
O O11 0.000000 0.500000 0.137058
O O12 0.264014 0.288637 0.500000
O O13 0.186714 0.270511 0.604057
O O14 0.247522 0.000000 0.552743
O O15 0.000000 0.779789 0.354474
O O16 0.152623 0.000000 0.327346
#
# Coordination Sequence:
#
# PCOD8200899 Si02
#       6
#     4   8   4   4   8   8
#     4   9  18  29  39  52  71  98 133 169 200 232
#     4   8  13  20  30  46  67  88 112 148 194 236
#     4   9  17  27  41  63  85 101 119 149 193 245
#     4   9  15  22  33  47  63  89 123 156 192 231
#     4   9  17  29  45  62  80 102 126 157 200 249
#     4   9  18  31  44  58  78 104 133 167 204 238
#
# _framework density 15.313658999999999
#
# number of rings (size 3 to 8) (size 9 to 14) (size 15 to 20)
#    0.000    3.222    0.000    1.333    1.556    4.000 
#    0.000    6.667    0.000    2.000    0.000    0.000 
#    0.000    0.000    0.000    0.000    0.000    0.000 
#
# Total GULP energy -446036.659949 kJ/mol
# GULP energy per Si atom -12389.907221 kJ/mol
# Density = 1.527880 g / cm^3
# Si number density = 15.313659 Si / 1000 Ang^3
#
#
#
# Elastic Constant Matrix: (Units=GPa)
#
#
# Indices 1 2 3 4 5 6 
#
# 1 36.4667 20.4333 35.2742 0.0000 0.0000 0.0000
# 2 20.4333 92.9876 65.8784 0.0000 0.0000 0.0000
# 3 35.2742 65.8784 121.1319 0.0000 0.0000 0.0000
# 4 0.0000 0.0000 0.0000 20.5483 0.0000 0.0000
# 5 0.0000 0.0000 0.0000 0.0000 0.8570 0.0000
# 6 0.0000 0.0000 0.0000 0.0000 0.0000 9.3731
#
#
#
# Elastic Compliance Matrix: (Units=1/GPa)
#
#
# Indices 1 2 3 4 5 6 
#
# 1 0.038216 -0.000835 -0.010674 0.000000 0.000000 0.000000
# 2 -0.000835 0.017513 -0.009282 0.000000 0.000000 0.000000
# 3 -0.010674 -0.009282 0.016412 0.000000 0.000000 0.000000
# 4 0.000000 0.000000 0.000000 0.048666 0.000000 0.000000
# 5 0.000000 0.000000 0.000000 0.000000 1.166919 0.000000
# 6 0.000000 0.000000 0.000000 0.000000 0.000000 0.106688
#
#
# Mechanical properties :
#
#
# Convention : Reuss Voigt Hill
#
# Bulk Modulus (GPa) = 32.72416 54.86199 43.79308
# Shear Modulus (GPa) = 3.45738 14.75569 9.10653
#
# Velocity S-wave (km/s) = 1.50420 3.10750 2.44123
# Velocity P-wave (km/s) = 4.94292 6.98418 6.05026
#
# Compressibility (1/GPa) = 0.03055846
#
# Stress axis : x y z
#
# Youngs Moduli (GPa) = 26.16738 57.09960 60.93216
#
# Poissons Ratio (x) = 0.04769 0.65041
# Poissons Ratio (y) = 0.02185 0.56554
# Poissons Ratio (z) = 0.27932 0.52997
#
# Static dielectric constant tensor:
#      x y z
#    x 2.575570 0.000000 0.000000 
#    y 0.000000 3.128430 0.000000 
#    z 0.000000 0.000000 3.162000 
# 
# 
# High freq. dielectric constant tensor:
#      x y z
#    x 1.523910 0.000000 0.000000 
#    y 0.000000 1.599830 0.000000 
#    z 0.000000 0.000000 1.570040 
# 
# From -- ./inp_files/18867.got.cif
#   From: 2010.03.12/outbox.cif.g09.slc.cpg/sg47_10_cif.got.tgz:18867.got - 2010.04.14 03:12:58.
