data_PCOD8200416
_publ_section_title
;
Structure prediction by ZEFSAII (Michael W. Deem and Ramdas Pophale) SiO2 
 PCOD8200416
Probable space group: P M M M
;
_chemical_formula_sum "Si O2"
_cell_formula_units_Z 48
_cell_length_a 8.718277
_cell_length_b 20.611042
_cell_length_c 14.015570
_cell_angle_alpha 90.000000
_cell_angle_beta 90.000000
_cell_angle_gamma 90.000000
_cell_volume 2518.496644
_symmetry_space_group_name_H-M "P M M M"
_symmetry_group_IT_number 47
_symmetry_cell_setting 'orthorhombic'
loop_
_space_group_symop_operation_xyz
x,y,z
-x,-y,z
x,-y,-z
-x,y,-z
-x,-y,-z
x,y,-z
-x,y,z
x,-y,z
loop_
_atom_site_type_symbol
_atom_site_label
_atom_site_fract_x
_atom_site_fract_y
_atom_site_fract_z
Si Si1 0.319819 0.253599 0.389972
Si Si2 0.818349 0.072518 0.895714
Si Si3 0.818258 0.126642 0.699516
Si Si4 0.325800 0.500000 0.612664
Si Si5 0.674448 0.000000 0.387347
Si Si6 0.321424 0.574877 0.107458
Si Si7 0.820342 0.623378 0.290352
O O1 0.268579 0.255402 0.500000
O O2 0.500000 0.264425 0.379773
O O3 0.274233 0.185411 0.345319
O O4 0.233746 0.309294 0.333274
O O5 0.767288 0.120588 0.810939
O O6 0.000000 0.067739 0.895526
O O7 0.752095 0.000000 0.877065
O O8 0.761123 0.097946 0.000000
O O9 0.000000 0.137626 0.688207
O O10 0.769367 0.062065 0.645601
O O11 0.500000 0.500000 0.648759
O O12 0.313526 0.500000 0.500000
O O13 0.248646 0.564511 0.650633
O O14 0.500000 0.000000 0.346464
O O15 0.667819 0.000000 0.500000
O O16 0.500000 0.590578 0.117284
O O17 0.289398 0.500000 0.133463
O O18 0.228223 0.620177 0.179559
O O19 0.265279 0.589706 0.000000
O O20 0.000000 0.618848 0.298273
#
# Coordination Sequence:
#
# PCOD8200416 Si02
#       7
#     8   8   8   4   4   8   8
#     4  11  25  44  62  80 112 161 204 240 295 363
#     4   8  14  28  53  85 118 149 182 225 282 344
#     4  11  21  36  60  89 115 146 192 246 297 342
#     4  11  23  39  60  85 116 155 197 242 294 355
#     4  11  23  37  54  79 114 154 193 235 288 353
#     4   9  18  35  61  90 121 159 198 237 287 348
#     4  12  24  38  60  91 121 152 194 248 300 347
#
# _framework density 19.058990999999999
#
# number of rings (size 3 to 8) (size 9 to 14) (size 15 to 20)
#    0.000    1.667    1.667    5.000    0.000    7.000 
#    0.000    1.667    0.000    5.500    0.000    0.000 
#    0.000    0.000    0.000    0.000    0.000    0.000 
#
# Total GULP energy -595202.266748 kJ/mol
# GULP energy per Si atom -12400.047224 kJ/mol
# Density = 1.901561 g / cm^3
# Si number density = 19.058991 Si / 1000 Ang^3
#
#
#
# Elastic Constant Matrix: (Units=GPa)
#
#
# Indices 1 2 3 4 5 6 
#
# 1 83.7060 29.3328 48.7594 0.0000 0.0000 0.0000
# 2 29.3328 94.7744 48.8664 0.0000 0.0000 0.0000
# 3 48.7594 48.8664 131.4740 0.0000 0.0000 0.0000
# 4 0.0000 0.0000 0.0000 38.6057 0.0000 0.0000
# 5 0.0000 0.0000 0.0000 0.0000 20.7830 0.0000
# 6 0.0000 0.0000 0.0000 0.0000 0.0000 183.7121
#
#
#
# Elastic Compliance Matrix: (Units=1/GPa)
#
#
# Indices 1 2 3 4 5 6 
#
# 1 0.015629 -0.002287 -0.004946 0.000000 0.000000 0.000000
# 2 -0.002287 0.013387 -0.004128 0.000000 0.000000 0.000000
# 3 -0.004946 -0.004128 0.010975 0.000000 0.000000 0.000000
# 4 0.000000 0.000000 0.000000 0.025903 0.000000 0.000000
# 5 0.000000 0.000000 0.000000 0.000000 0.048116 0.000000
# 6 0.000000 0.000000 0.000000 0.000000 0.000000 0.005443
#
#
# Mechanical properties :
#
#
# Convention : Reuss Voigt Hill
#
# Bulk Modulus (GPa) = 57.90580 62.65240 60.27910
# Shear Modulus (GPa) = 33.79920 60.81986 47.30953
#
# Velocity S-wave (km/s) = 4.21574 5.65514 4.98764
# Velocity P-wave (km/s) = 7.35833 8.69397 8.05389
#
# Compressibility (1/GPa) = 0.01726943
#
# Stress axis : x y z
#
# Youngs Moduli (GPa) = 63.98244 74.69679 91.11844
#
# Poissons Ratio (x) = 0.17082 0.45071
# Poissons Ratio (y) = 0.14632 0.37611
# Poissons Ratio (z) = 0.31648 0.30833
#
# Static dielectric constant tensor:
#      x y z
#    x 3.456840 0.000000 0.000000 
#    y 0.000000 3.198870 0.000000 
#    z 0.000000 0.000000 3.986910 
# 
# 
# High freq. dielectric constant tensor:
#      x y z
#    x 1.734020 0.000000 0.000000 
#    y 0.000000 1.727250 0.000000 
#    z 0.000000 0.000000 1.763320 
# 
# From -- ./inp_files/21068.got.cif
#   From: 2010.03.12/outbox.cif.g09.slc.cpg/sg47_11_cif.got.tgz:21068.got - 2010.04.14 03:12:58.
