data_PCOD8200603
_publ_section_title
;
Structure prediction by ZEFSAII (Michael W. Deem and Ramdas Pophale) SiO2 
 PCOD8200603
Probable space group: P M M M
;
_chemical_formula_sum "Si O2"
_cell_formula_units_Z 44
_cell_length_a 9.451103
_cell_length_b 28.451464
_cell_length_c 9.307811
_cell_angle_alpha 90.000000
_cell_angle_beta 90.000000
_cell_angle_gamma 90.000000
_cell_volume 2502.849126
_symmetry_space_group_name_H-M "P M M M"
_symmetry_group_IT_number 47
_symmetry_cell_setting 'orthorhombic'
loop_
_space_group_symop_operation_xyz
x,y,z
-x,-y,z
x,-y,-z
-x,y,-z
-x,-y,-z
x,y,-z
-x,y,z
x,-y,z
loop_
_atom_site_type_symbol
_atom_site_label
_atom_site_fract_x
_atom_site_fract_y
_atom_site_fract_z
Si Si1 0.334353 0.421443 0.832736
Si Si2 0.344027 0.316110 0.170386
Si Si3 0.831219 0.860742 0.661662
Si Si4 0.831712 0.948095 0.161367
Si Si5 0.835276 0.770512 0.832906
Si Si6 0.834317 0.500000 0.669407
O O1 0.500000 0.431607 0.804625
O O2 0.294773 0.368327 0.785056
O O3 0.237486 0.454162 0.735983
O O4 0.299439 0.430222 0.000000
O O5 0.500000 0.305869 0.233287
O O6 0.238422 0.276359 0.229404
O O7 0.349536 0.314169 0.000000
O O8 0.773157 0.858245 0.500000
O O9 0.769163 0.908065 0.734401
O O10 0.775412 0.815474 0.748020
O O11 0.000000 0.861795 0.664954
O O12 0.000000 0.945701 0.161891
O O13 0.782350 0.000000 0.213883
O O14 0.776272 0.938759 0.000000
O O15 0.000000 0.763564 0.805028
O O16 0.801532 0.778672 0.000000
O O17 0.808097 0.500000 0.500000
O O18 0.000000 0.500000 0.707294
#
# Coordination Sequence:
#
# PCOD8200603 Si02
#       6
#     8   8   8   8   8   4
#     4   9  18  34  56  78  97 121 157 198 238 281
#     4   8  15  29  49  72  94 114 143 187 230 265
#     4   9  16  24  34  51  78 111 144 178 217 260
#     4   8  13  21  33  49  71 102 140 180 220 262
#     4   9  16  26  42  63  86 114 146 177 213 261
#     4  11  24  37  48  70 104 135 162 193 230 274
#
# _framework density 17.579965999999999
#
# number of rings (size 3 to 8) (size 9 to 14) (size 15 to 20)
#    0.000    3.182    0.000    2.727    0.000    5.455 
#    0.000    4.545    0.000    3.818    0.000    0.000 
#    0.000    0.727    0.000    8.364    0.000   10.727 
#
# Total GULP energy -545366.251936 kJ/mol
# GULP energy per Si atom -12394.687544 kJ/mol
# Density = 1.753995 g / cm^3
# Si number density = 17.579966 Si / 1000 Ang^3
#
#
#
# Elastic Constant Matrix: (Units=GPa)
#
#
# Indices 1 2 3 4 5 6 
#
# 1 48.8427 60.7647 40.1207 0.0000 0.0000 0.0000
# 2 60.7647 191.0581 79.5948 0.0000 0.0000 0.0000
# 3 40.1207 79.5948 87.9498 0.0000 0.0000 0.0000
# 4 0.0000 0.0000 0.0000 6.3059 0.0000 0.0000
# 5 0.0000 0.0000 0.0000 0.0000 13.2998 0.0000
# 6 0.0000 0.0000 0.0000 0.0000 0.0000 2.4437
#
#
#
# Elastic Compliance Matrix: (Units=1/GPa)
#
#
# Indices 1 2 3 4 5 6 
#
# 1 0.039191 -0.008052 -0.010591 0.000000 0.000000 0.000000
# 2 -0.008052 0.010056 -0.005427 0.000000 0.000000 0.000000
# 3 -0.010591 -0.005427 0.021113 0.000000 0.000000 0.000000
# 4 0.000000 0.000000 0.000000 0.158581 0.000000 0.000000
# 5 0.000000 0.000000 0.000000 0.000000 0.075189 0.000000
# 6 0.000000 0.000000 0.000000 0.000000 0.000000 0.409217
#
#
# Mechanical properties :
#
#
# Convention : Reuss Voigt Hill
#
# Bulk Modulus (GPa) = 45.00564 76.53456 60.77010
# Shear Modulus (GPa) = 6.50284 14.23459 10.36872
#
# Velocity S-wave (km/s) = 1.92537 2.84862 2.43122
# Velocity P-wave (km/s) = 5.53162 7.37896 6.52104
#
# Compressibility (1/GPa) = 0.02221944
#
# Stress axis : x y z
#
# Youngs Moduli (GPa) = 25.51587 99.44195 47.36369
#
# Poissons Ratio (x) = 0.80075 0.50161
# Poissons Ratio (y) = 0.20547 0.25707
# Poissons Ratio (z) = 0.27023 0.53972
#
# Static dielectric constant tensor:
#      x y z
#    x 2.943450 0.000000 0.000000 
#    y 0.000000 3.671440 0.000000 
#    z 0.000000 0.000000 3.134650 
# 
# 
# High freq. dielectric constant tensor:
#      x y z
#    x 1.630520 0.000000 0.000000 
#    y 0.000000 1.700000 0.000000 
#    z 0.000000 0.000000 1.657500 
# 
# From -- ./inp_files/2005.got.cif
#   From: 2010.03.12/outbox.cif.g09.slc.cpg/sg47_2_cif.got.tgz:2005.got - 2010.04.14 03:12:58.
