data_PCOD8200430
_publ_section_title
;
Structure prediction by ZEFSAII (Michael W. Deem and Ramdas Pophale) SiO2 
 PCOD8200430
Probable space group: P M M M
;
_chemical_formula_sum "Si O2"
_cell_formula_units_Z 52
_cell_length_a 9.297165
_cell_length_b 14.265098
_cell_length_c 25.780146
_cell_angle_alpha 90.000000
_cell_angle_beta 90.000000
_cell_angle_gamma 90.000000
_cell_volume 3419.091086
_symmetry_space_group_name_H-M "P M M M"
_symmetry_group_IT_number 47
_symmetry_cell_setting 'orthorhombic'
loop_
_space_group_symop_operation_xyz
x,y,z
-x,-y,z
x,-y,-z
-x,y,-z
-x,-y,-z
x,y,-z
-x,y,z
x,-y,z
loop_
_atom_site_type_symbol
_atom_site_label
_atom_site_fract_x
_atom_site_fract_y
_atom_site_fract_z
Si Si1 0.661560 0.888524 0.942766
Si Si2 0.161641 0.111768 0.153648
Si Si3 0.844791 0.389955 0.500000
Si Si4 0.669878 0.221691 0.354947
Si Si5 0.828422 0.393081 0.387454
Si Si6 0.835106 0.890941 0.559322
Si Si7 0.666797 0.107898 0.746832
O O1 0.500000 0.851548 0.933050
O O2 0.764528 0.846651 0.898279
O O3 0.662081 0.000000 0.939899
O O4 0.715450 0.856286 0.000000
O O5 0.245165 0.147961 0.204347
O O6 0.000000 0.150433 0.155823
O O7 0.165373 0.000000 0.152119
O O8 0.872679 0.500000 0.500000
O O9 0.767884 0.365373 0.445456
O O10 0.000000 0.338846 0.500000
O O11 0.500000 0.233607 0.360734
O O12 0.745118 0.323454 0.348992
O O13 0.729215 0.167441 0.404706
O O14 0.712319 0.165216 0.303639
O O15 0.788541 0.500000 0.373006
O O16 0.000000 0.378690 0.384670
O O17 0.810619 0.858369 0.500000
O O18 0.000000 0.872500 0.575836
O O19 0.797261 0.000000 0.565117
O O20 0.500000 0.119900 0.760329
O O21 0.705540 0.000000 0.735726
#
# Coordination Sequence:
#
# PCOD8200430 Si02
#       7
#     8   8   4   8   8   8   8
#     4   8  13  21  33  49  71 102 137 168 202 248
#     4   9  16  24  36  55  76  99 132 177 219 244
#     4   7  12  26  47  65  78  97 126 155 185 230
#     4  11  22  32  46  68  90 110 135 171 216 258
#     4   9  18  33  51  68  86 110 138 166 200 249
#     4   9  19  35  51  65  83 110 142 172 204 248
#     4   9  18  32  45  56  77 111 145 173 206 252
#
# _framework density 15.20872
#
# number of rings (size 3 to 8) (size 9 to 14) (size 15 to 20)
#    0.000    3.000    0.000    3.231    1.077    4.923 
#    0.000    3.846    0.000    1.385    0.000    0.000 
#    0.000    0.000    0.000    0.000    0.000    0.769 
#
# Total GULP energy -644458.888042 kJ/mol
# GULP energy per Si atom -12393.440155 kJ/mol
# Density = 1.517410 g / cm^3
# Si number density = 15.208720 Si / 1000 Ang^3
#
#
#
# Elastic Constant Matrix: (Units=GPa)
#
#
# Indices 1 2 3 4 5 6 
#
# 1 77.4521 35.7176 61.9722 0.0000 0.0000 0.0000
# 2 35.7176 51.4882 44.8020 0.0000 0.0000 0.0000
# 3 61.9722 44.8020 114.9774 0.0000 0.0000 0.0000
# 4 0.0000 0.0000 0.0000 4.1847 0.0000 0.0000
# 5 0.0000 0.0000 0.0000 0.0000 18.5003 0.0000
# 6 0.0000 0.0000 0.0000 0.0000 0.0000 17.8459
#
#
#
# Elastic Compliance Matrix: (Units=1/GPa)
#
#
# Indices 1 2 3 4 5 6 
#
# 1 0.024928 -0.008475 -0.010134 0.000000 0.000000 0.000000
# 2 -0.008475 0.032266 -0.008005 0.000000 0.000000 0.000000
# 3 -0.010134 -0.008005 0.017279 0.000000 0.000000 0.000000
# 4 0.000000 0.000000 0.000000 0.238966 0.000000 0.000000
# 5 0.000000 0.000000 0.000000 0.000000 0.054053 0.000000
# 6 0.000000 0.000000 0.000000 0.000000 0.000000 0.056035
#
#
# Mechanical properties :
#
#
# Convention : Reuss Voigt Hill
#
# Bulk Modulus (GPa) = 47.06808 58.76681 52.91745
# Shear Modulus (GPa) = 10.33409 14.86790 12.60100
#
# Velocity S-wave (km/s) = 2.60952 3.13004 2.88156
# Velocity P-wave (km/s) = 6.33204 7.19631 6.77797
#
# Compressibility (1/GPa) = 0.02124582
#
# Stress axis : x y z
#
# Youngs Moduli (GPa) = 40.11605 30.99196 57.87511
#
# Poissons Ratio (x) = 0.26265 0.58649
# Poissons Ratio (y) = 0.33997 0.46329
# Poissons Ratio (z) = 0.40652 0.24809
#
# Static dielectric constant tensor:
#      x y z
#    x 2.900070 0.000000 0.000000 
#    y 0.000000 2.629090 0.000000 
#    z 0.000000 0.000000 3.071660 
# 
# 
# High freq. dielectric constant tensor:
#      x y z
#    x 1.578340 0.000000 0.000000 
#    y 0.000000 1.535570 0.000000 
#    z 0.000000 0.000000 1.577850 
# 
# From -- ./inp_files/32018.got.cif
#   From: 2010.03.12/outbox.cif.g09.slc.cpg/sg47_17_cif.got.tgz:32018.got - 2010.04.14 03:12:58.
