data_PCOD8200322
_publ_section_title
;
Structure prediction by ZEFSAII (Michael W. Deem and Ramdas Pophale) SiO2 
 PCOD8200322
Probable space group: P M M M
;
_chemical_formula_sum "Si O2"
_cell_formula_units_Z 40
_cell_length_a 21.022006
_cell_length_b 9.209281
_cell_length_c 14.000843
_cell_angle_alpha 90.000000
_cell_angle_beta 90.000000
_cell_angle_gamma 90.000000
_cell_volume 2710.529049
_symmetry_space_group_name_H-M "P M M M"
_symmetry_group_IT_number 47
_symmetry_cell_setting 'orthorhombic'
loop_
_space_group_symop_operation_xyz
x,y,z
-x,-y,z
x,-y,-z
-x,y,-z
-x,-y,-z
x,y,-z
-x,y,z
x,-y,z
loop_
_atom_site_type_symbol
_atom_site_label
_atom_site_fract_x
_atom_site_fract_y
_atom_site_fract_z
Si Si1 0.135981 0.336953 0.385789
Si Si2 0.574265 0.666150 0.108741
Si Si3 0.000000 0.326961 0.605124
Si Si4 0.385414 0.171776 0.713917
Si Si5 0.500000 0.332107 0.387051
Si Si6 0.257529 0.830183 0.391718
O O1 0.132065 0.330164 0.500000
O O2 0.149460 0.500000 0.350770
O O3 0.066997 0.281106 0.344019
O O4 0.193813 0.239743 0.347154
O O5 0.500000 0.684224 0.132042
O O6 0.595026 0.500000 0.126516
O O7 0.613324 0.773841 0.176852
O O8 0.588686 0.711524 0.000000
O O9 0.000000 0.500000 0.595704
O O10 0.000000 0.256325 0.500000
O O11 0.437833 0.253798 0.652222
O O12 0.317271 0.215833 0.671871
O O13 0.397831 0.000000 0.708977
O O14 0.500000 0.500000 0.353871
O O15 0.500000 0.317972 0.500000
O O16 0.269499 0.775256 0.500000
O O17 0.246805 0.000000 0.389965
#
# Coordination Sequence:
#
# PCOD8200322 Si02
#       6
#     8   8   4   8   4   8
#     4   8  13  22  37  55  74 101 138 174 205 238
#     4   9  18  33  51  68  86 105 127 165 215 260
#     4   7  10  18  33  53  75  97 128 173 212 235
#     4  11  21  32  47  65  84 109 139 174 213 252
#     4  11  23  35  46  61  82 109 143 180 212 245
#     4   9  18  30  40  54  82 115 142 170 205 242
#
# _framework density 14.757268
#
# number of rings (size 3 to 8) (size 9 to 14) (size 15 to 20)
#    0.000    2.800    1.000    3.300    0.000    3.600 
#    0.000    3.500    0.000    3.000    0.000    0.000 
#    0.000    0.000    0.000    0.900    0.000   17.700 
#
# Total GULP energy -495700.098926 kJ/mol
# GULP energy per Si atom -12392.502473 kJ/mol
# Density = 1.472368 g / cm^3
# Si number density = 14.757268 Si / 1000 Ang^3
#
#
#
# Elastic Constant Matrix: (Units=GPa)
#
#
# Indices 1 2 3 4 5 6 
#
# 1 145.0334 57.2093 45.1024 0.0000 0.0000 0.0000
# 2 57.2093 58.8702 31.7662 0.0000 0.0000 0.0000
# 3 45.1024 31.7662 58.8615 0.0000 0.0000 0.0000
# 4 0.0000 0.0000 0.0000 19.9198 0.0000 0.0000
# 5 0.0000 0.0000 0.0000 0.0000 3.8007 0.0000
# 6 0.0000 0.0000 0.0000 0.0000 0.0000 20.8829
#
#
#
# Elastic Compliance Matrix: (Units=1/GPa)
#
#
# Indices 1 2 3 4 5 6 
#
# 1 0.011823 -0.009313 -0.004033 0.000000 0.000000 0.000000
# 2 -0.009313 0.031301 -0.009757 0.000000 0.000000 0.000000
# 3 -0.004033 -0.009757 0.025345 0.000000 0.000000 0.000000
# 4 0.000000 0.000000 0.000000 0.050201 0.000000 0.000000
# 5 0.000000 0.000000 0.000000 0.000000 0.263106 0.000000
# 6 0.000000 0.000000 0.000000 0.000000 0.000000 0.047886
#
#
# Mechanical properties :
#
#
# Convention : Reuss Voigt Hill
#
# Bulk Modulus (GPa) = 44.91652 58.99122 51.95387
# Shear Modulus (GPa) = 10.34577 17.49984 13.92280
#
# Velocity S-wave (km/s) = 2.65063 3.44735 3.07490
# Velocity P-wave (km/s) = 6.31433 7.47708 6.92017
#
# Compressibility (1/GPa) = 0.02226352
#
# Stress axis : x y z
#
# Youngs Moduli (GPa) = 84.58290 31.94747 39.45567
#
# Poissons Ratio (x) = 0.29752 0.15913
# Poissons Ratio (y) = 0.78771 0.38496
# Poissons Ratio (z) = 0.34114 0.31170
#
# Static dielectric constant tensor:
#      x y z
#    x 3.132820 0.000000 0.000000 
#    y 0.000000 2.829590 0.000000 
#    z 0.000000 0.000000 2.613350 
# 
# 
# High freq. dielectric constant tensor:
#      x y z
#    x 1.566830 0.000000 0.000000 
#    y 0.000000 1.561730 0.000000 
#    z 0.000000 0.000000 1.518650 
# 
# From -- ./inp_files/24833.got.cif
#   From: 2010.03.12/outbox.cif.g09.slc.cpg/sg47_13_cif.got.tgz:24833.got - 2010.04.14 03:12:58.
