data_PCOD8200125
_publ_section_title
;
Structure prediction by ZEFSAII (Michael W. Deem and Ramdas Pophale) SiO2 
 PCOD8200125
Probable space group: P M M M
;
_chemical_formula_sum "Si O2"
_cell_formula_units_Z 52
_cell_length_a 28.048151
_cell_length_b 11.549146
_cell_length_c 8.866509
_cell_angle_alpha 90.000000
_cell_angle_beta 90.000000
_cell_angle_gamma 90.000000
_cell_volume 2872.147686
_symmetry_space_group_name_H-M "P M M M"
_symmetry_group_IT_number 47
_symmetry_cell_setting 'orthorhombic'
loop_
_space_group_symop_operation_xyz
x,y,z
-x,-y,z
x,-y,-z
-x,y,-z
-x,-y,-z
x,y,-z
-x,y,z
x,-y,z
loop_
_atom_site_type_symbol
_atom_site_label
_atom_site_fract_x
_atom_site_fract_y
_atom_site_fract_z
Si Si1 0.448444 0.362547 0.671242
Si Si2 0.797124 0.500000 0.676559
Si Si3 0.182694 0.867370 0.675333
Si Si4 0.644803 0.630476 0.174542
Si Si5 0.253427 0.289634 0.823977
Si Si6 0.101664 0.500000 0.821716
Si Si7 0.914211 0.738041 0.678070
Si Si8 0.000000 0.136525 0.170280
O O1 0.445017 0.321443 0.500000
O O2 0.500000 0.320521 0.737835
O O3 0.446093 0.500000 0.684684
O O4 0.402529 0.310236 0.755780
O O5 0.811153 0.500000 0.500000
O O6 0.767352 0.612692 0.715641
O O7 0.843407 0.500000 0.778965
O O8 0.195258 0.852302 0.500000
O O9 0.228507 0.830241 0.775050
O O10 0.137853 0.787588 0.720607
O O11 0.170377 0.000000 0.713781
O O12 0.654655 0.500000 0.238288
O O13 0.689893 0.713563 0.207956
O O14 0.634732 0.620771 0.000000
O O15 0.243575 0.317138 0.000000
O O16 0.076932 0.386577 0.752751
O O17 0.094921 0.500000 0.000000
O O18 0.920171 0.727164 0.500000
O O19 0.953174 0.824687 0.741734
O O20 0.000000 0.000000 0.167700
O O21 0.000000 0.186416 0.000000
#
# Coordination Sequence:
#
# PCOD8200125 Si02
#       8
#     8   4   8   8   8   4   8   4
#     4   8  14  24  37  56  85 123 167 211 254 303
#     4  12  22  34  53  79 109 145 182 216 262 319
#     4  10  22  39  58  81 109 141 179 221 265 318
#     4   9  17  28  41  63  95 130 170 212 258 309
#     4  11  21  34  52  76 107 141 178 223 267 312
#     4  12  24  39  61  90 120 147 178 222 271 320
#     4  11  23  41  65  90 115 148 185 222 269 324
#     4  11  25  44  65  90 119 151 189 231 274 319
#
# _framework density 18.104917
#
# number of rings (size 3 to 8) (size 9 to 14) (size 15 to 20)
#    0.000    1.769    2.308    3.462    0.000    4.000 
#    0.000    3.077    0.000    0.000    0.000    0.000 
#    0.000    0.615    0.000    6.769    0.000    5.231 
#
# Total GULP energy -644693.283976 kJ/mol
# GULP energy per Si atom -12397.947769 kJ/mol
# Density = 1.806371 g / cm^3
# Si number density = 18.104917 Si / 1000 Ang^3
#
#
#
# Elastic Constant Matrix: (Units=GPa)
#
#
# Indices 1 2 3 4 5 6 
#
# 1 126.4916 28.8568 53.3099 0.0000 0.0000 0.0000
# 2 28.8568 74.0022 33.3192 0.0000 0.0000 0.0000
# 3 53.3099 33.3192 85.5064 0.0000 0.0000 0.0000
# 4 0.0000 0.0000 0.0000 24.5538 0.0000 0.0000
# 5 0.0000 0.0000 0.0000 0.0000 34.3394 0.0000
# 6 0.0000 0.0000 0.0000 0.0000 0.0000 39.5621
#
#
#
# Elastic Compliance Matrix: (Units=1/GPa)
#
#
# Indices 1 2 3 4 5 6 
#
# 1 0.010848 -0.001437 -0.006203 0.000000 0.000000 0.000000
# 2 -0.001437 0.016579 -0.005564 0.000000 0.000000 0.000000
# 3 -0.006203 -0.005564 0.017731 0.000000 0.000000 0.000000
# 4 0.000000 0.000000 0.000000 0.040727 0.000000 0.000000
# 5 0.000000 0.000000 0.000000 0.000000 0.029121 0.000000
# 6 0.000000 0.000000 0.000000 0.000000 0.000000 0.025277
#
#
# Mechanical properties :
#
#
# Convention : Reuss Voigt Hill
#
# Bulk Modulus (GPa) = 53.33846 57.44131 55.38988
# Shear Modulus (GPa) = 28.91166 31.05868 29.98517
#
# Velocity S-wave (km/s) = 4.00045 4.14633 4.07405
# Velocity P-wave (km/s) = 7.13182 7.39720 7.26572
#
# Compressibility (1/GPa) = 0.01874820
#
# Stress axis : x y z
#
# Youngs Moduli (GPa) = 92.18406 60.31808 56.39925
#
# Poissons Ratio (x) = 0.08668 0.34986
# Poissons Ratio (y) = 0.13248 0.31382
# Poissons Ratio (z) = 0.57184 0.33563
#
# Static dielectric constant tensor:
#      x y z
#    x 3.709630 0.000000 0.000000 
#    y 0.000000 3.271790 0.000000 
#    z 0.000000 0.000000 3.385010 
# 
# 
# High freq. dielectric constant tensor:
#      x y z
#    x 1.709360 0.000000 0.000000 
#    y 0.000000 1.661930 0.000000 
#    z 0.000000 0.000000 1.705840 
# 
# From -- ./inp_files/13325.got.cif
#   From: 2010.03.12/outbox.cif.g09.slc.cpg/sg47_7_cif.got.tgz:13325.got - 2010.04.14 03:12:58.
