data_PCOD8200517
_publ_section_title
;
Structure prediction by ZEFSAII (Michael W. Deem and Ramdas Pophale) SiO2 
 PCOD8200517
Probable space group: P M M M
;
_chemical_formula_sum "Si O2"
_cell_formula_units_Z 48
_cell_length_a 9.656288
_cell_length_b 8.561228
_cell_length_c 29.872593
_cell_angle_alpha 90.000000
_cell_angle_beta 90.000000
_cell_angle_gamma 90.000000
_cell_volume 2469.557800
_symmetry_space_group_name_H-M "P M M M"
_symmetry_group_IT_number 47
_symmetry_cell_setting 'orthorhombic'
loop_
_space_group_symop_operation_xyz
x,y,z
-x,-y,z
x,-y,-z
-x,y,-z
-x,-y,-z
x,y,-z
-x,y,z
x,-y,z
loop_
_atom_site_type_symbol
_atom_site_label
_atom_site_fract_x
_atom_site_fract_y
_atom_site_fract_z
Si Si1 0.160254 0.683126 0.696961
Si Si2 0.500000 0.318618 0.550038
Si Si3 0.000000 0.814965 0.549228
Si Si4 0.662335 0.183261 0.776639
Si Si5 0.255422 0.183385 0.394652
Si Si6 0.160536 0.686832 0.144560
Si Si7 0.836153 0.326129 0.952739
O O1 0.164750 0.500000 0.687683
O O2 0.250299 0.721320 0.740322
O O3 0.235511 0.772422 0.656780
O O4 0.000000 0.738817 0.702761
O O5 0.500000 0.500000 0.541835
O O6 0.500000 0.238632 0.500000
O O7 0.624457 0.272148 0.581156
O O8 0.127538 0.754276 0.577214
O O9 0.000000 0.738514 0.500000
O O10 0.000000 0.000000 0.545263
O O11 0.500000 0.232928 0.776124
O O12 0.731963 0.225479 0.823691
O O13 0.676774 0.000000 0.767150
O O14 0.280918 0.000000 0.398013
O O15 0.177835 0.500000 0.148105
O O16 0.205602 0.750609 0.094836
O O17 0.000000 0.730855 0.155668
O O18 0.773357 0.500000 0.953870
O O19 0.000000 0.337985 0.952048
O O20 0.789269 0.240794 0.000000
#
# Coordination Sequence:
#
# PCOD8200517 Si02
#       7
#     8   4   4   8   8   8   8
#     4  11  24  42  64  89 117 146 182 230 289 350
#     4  11  25  43  61  87 125 165 201 237 280 329
#     4   9  18  34  59  91 121 149 187 231 274 323
#     4  11  25  41  57  79 109 147 192 236 281 337
#     4  11  22  39  64  91 121 155 193 236 281 333
#     4   9  17  31  54  84 114 144 183 231 284 338
#     4   7  10  19  40  73 110 143 176 220 274 330
#
# _framework density 19.436679000000002
#
# number of rings (size 3 to 8) (size 9 to 14) (size 15 to 20)
#    0.000    2.167    0.833    4.250    1.167    6.000 
#    0.000    0.000    0.000    3.000    0.000    5.833 
#    0.000    0.000    0.000    0.000    0.000    0.000 
#
# Total GULP energy -594628.293769 kJ/mol
# GULP energy per Si atom -12388.089454 kJ/mol
# Density = 1.939244 g / cm^3
# Si number density = 19.436679 Si / 1000 Ang^3
#
#
#
# Elastic Constant Matrix: (Units=GPa)
#
#
# Indices 1 2 3 4 5 6 
#
# 1 117.5523 21.8243 52.1769 0.0000 0.0000 0.0000
# 2 21.8243 42.5154 9.2628 0.0000 0.0000 0.0000
# 3 52.1769 9.2628 145.9727 0.0000 0.0000 0.0000
# 4 0.0000 0.0000 0.0000 -3.2023 0.0000 0.0000
# 5 0.0000 0.0000 0.0000 0.0000 27.0864 0.0000
# 6 0.0000 0.0000 0.0000 0.0000 0.0000 -10.9948
#
#
#
# Elastic Compliance Matrix: (Units=1/GPa)
#
#
# Indices 1 2 3 4 5 6 
#
# 1 0.011022 -0.004867 -0.003631 0.000000 0.000000 0.000000
# 2 -0.004867 0.026000 0.000090 0.000000 0.000000 0.000000
# 3 -0.003631 0.000090 0.008143 0.000000 0.000000 0.000000
# 4 0.000000 0.000000 0.000000 -0.312277 0.000000 0.000000
# 5 0.000000 0.000000 0.000000 0.000000 0.036919 0.000000
# 6 0.000000 0.000000 0.000000 0.000000 0.000000 -0.090952
#
#
# Mechanical properties :
#
#
# Convention : Reuss Voigt Hill
#
# Bulk Modulus (GPa) = 35.27528 52.50758 43.89143
# Shear Modulus (GPa) = -16.95601 17.42962 0.23681
#
# Velocity S-wave (km/s) = -2.95680 2.99781 0.34943
# Velocity P-wave (km/s) = 2.55565 6.24946 4.77426
#
# Compressibility (1/GPa) = 0.02834846
#
# Stress axis : x y z
#
# Youngs Moduli (GPa) = 90.72737 38.46215 122.80871
#
# Poissons Ratio (x) = 0.18719 0.44591
# Poissons Ratio (y) = 0.44155 -0.01103
# Poissons Ratio (z) = 0.32942 -0.00345
#
# Static dielectric constant tensor:
#      x y z
#    x 3.444020 0.000000 0.000000 
#    y 0.000000 3.267380 0.000000 
#    z 0.000000 0.000000 4.200410 
# 
# 
# High freq. dielectric constant tensor:
#      x y z
#    x 1.741160 0.000000 0.000000 
#    y 0.000000 1.728590 0.000000 
#    z 0.000000 0.000000 1.785960 
# 
# From -- ./inp_files/34039.got.cif
#   From: 2010.03.12/outbox.cif.g09.slc.cpg/sg47_18_cif.got.tgz:34039.got - 2010.04.14 03:12:58.
