data_PCOD8200970
_publ_section_title
;
Structure prediction by ZEFSAII (Michael W. Deem and Ramdas Pophale) SiO2 
 PCOD8200970
Probable space group: P M M M
;
_chemical_formula_sum "Si O2"
_cell_formula_units_Z 64
_cell_length_a 26.612917
_cell_length_b 9.902843
_cell_length_c 18.166891
_cell_angle_alpha 90.000000
_cell_angle_beta 90.000000
_cell_angle_gamma 90.000000
_cell_volume 4787.766744
_symmetry_space_group_name_H-M "P M M M"
_symmetry_group_IT_number 47
_symmetry_cell_setting 'orthorhombic'
loop_
_space_group_symop_operation_xyz
x,y,z
-x,-y,z
x,-y,-z
-x,y,-z
-x,-y,-z
x,y,-z
-x,y,z
x,-y,z
loop_
_atom_site_type_symbol
_atom_site_label
_atom_site_fract_x
_atom_site_fract_y
_atom_site_fract_z
Si Si1 0.150249 0.660905 0.082019
Si Si2 0.213245 0.349350 0.216030
Si Si3 0.555673 0.348694 0.412624
Si Si4 0.741608 0.155147 0.325243
Si Si5 0.158340 0.154738 0.584580
Si Si6 0.887916 0.349998 0.690975
Si Si7 0.642947 0.843718 0.585439
Si Si8 0.055427 0.339416 0.831202
O O1 0.147123 0.500000 0.082012
O O2 0.196560 0.704269 0.134979
O O3 0.096919 0.719351 0.112039
O O4 0.159761 0.718090 0.000000
O O5 0.237024 0.500000 0.211248
O O6 0.253278 0.246996 0.252138
O O7 0.163808 0.355056 0.265012
O O8 0.554827 0.342125 0.500000
O O9 0.500000 0.310342 0.382718
O O10 0.570063 0.500000 0.386614
O O11 0.596553 0.242990 0.382464
O O12 0.787196 0.180660 0.380918
O O13 0.691571 0.197635 0.368103
O O14 0.739735 0.000000 0.299531
O O15 0.161578 0.197320 0.500000
O O16 0.116004 0.246356 0.623331
O O17 0.141830 0.000000 0.594252
O O18 0.900350 0.500000 0.660484
O O19 0.930821 0.298785 0.747251
O O20 0.653889 0.810906 0.500000
O O21 0.629140 0.000000 0.595845
O O22 0.055651 0.500000 0.836885
O O23 0.000000 0.281528 0.850446
#
# Coordination Sequence:
#
# PCOD8200970 Si02
#       8
#     8   8   8   8   8   8   8   8
#     4   8  13  21  34  53  75  95 114 137 164 195
#     4   8  14  24  36  50  69  92 115 137 163 199
#     4   8  14  24  35  46  63  89 120 152 184 216
#     4   9  16  25  36  50  69  91 114 142 177 213
#     4   9  16  25  37  51  66  85 110 141 176 211
#     4   8  14  24  36  50  68  88 110 136 165 200
#     4   9  16  24  34  49  68  89 116 152 189 218
#     4   8  13  21  34  52  72  92 112 135 165 200
#
# _framework density 13.367402
#
# number of rings (size 3 to 8) (size 9 to 14) (size 15 to 20)
#    0.000    3.625    0.000    2.250    0.000    2.750 
#    0.000    2.500    0.000    3.375    0.000    2.625 
#    0.000    0.000    0.000    9.750    0.000   10.625 
#
# Total GULP energy -793077.107010 kJ/mol
# GULP energy per Si atom -12391.829797 kJ/mol
# Density = 1.333698 g / cm^3
# Si number density = 13.367402 Si / 1000 Ang^3
#
#
#
# Elastic Constant Matrix: (Units=GPa)
#
#
# Indices 1 2 3 4 5 6 
#
# 1 64.0021 34.6459 40.8134 0.0000 0.0000 0.0000
# 2 34.6459 48.9529 40.9293 0.0000 0.0000 0.0000
# 3 40.8134 40.9293 84.8630 0.0000 0.0000 0.0000
# 4 0.0000 0.0000 0.0000 11.0902 0.0000 0.0000
# 5 0.0000 0.0000 0.0000 0.0000 10.6510 0.0000
# 6 0.0000 0.0000 0.0000 0.0000 0.0000 15.7348
#
#
#
# Elastic Compliance Matrix: (Units=1/GPa)
#
#
# Indices 1 2 3 4 5 6 
#
# 1 0.027240 -0.013951 -0.006372 0.000000 0.000000 0.000000
# 2 -0.013951 0.041377 -0.013246 0.000000 0.000000 0.000000
# 3 -0.006372 -0.013246 0.021237 0.000000 0.000000 0.000000
# 4 0.000000 0.000000 0.000000 0.090169 0.000000 0.000000
# 5 0.000000 0.000000 0.000000 0.000000 0.093888 0.000000
# 6 0.000000 0.000000 0.000000 0.000000 0.000000 0.063553
#
#
# Mechanical properties :
#
#
# Convention : Reuss Voigt Hill
#
# Bulk Modulus (GPa) = 44.02458 47.84391 45.93424
# Shear Modulus (GPa) = 12.13077 12.92383 12.52730
#
# Velocity S-wave (km/s) = 3.01572 3.11274 3.06462
# Velocity P-wave (km/s) = 6.71803 6.98484 6.85273
#
# Compressibility (1/GPa) = 0.02271458
#
# Stress axis : x y z
#
# Youngs Moduli (GPa) = 36.71087 24.16814 47.08791
#
# Poissons Ratio (x) = 0.33717 0.30004
# Poissons Ratio (y) = 0.51216 0.62374
# Poissons Ratio (z) = 0.23392 0.32014
#
# Static dielectric constant tensor:
#      x y z
#    x 2.690960 0.000000 0.000000 
#    y 0.000000 2.651770 0.000000 
#    z 0.000000 0.000000 2.686730 
# 
# 
# High freq. dielectric constant tensor:
#      x y z
#    x 1.486590 0.000000 0.000000 
#    y 0.000000 1.491970 0.000000 
#    z 0.000000 0.000000 1.481570 
# 
# From -- ./inp_files/28958.got.cif
#   From: 2010.03.12/outbox.cif.g09.slc.cpg/sg47_15_cif.got.tgz:28958.got - 2010.04.14 03:12:58.
