data_PCOD8200717
_publ_section_title
;
Structure prediction by ZEFSAII (Michael W. Deem and Ramdas Pophale) SiO2 
 PCOD8200717
Probable space group: P M M M
;
_chemical_formula_sum "Si O2"
_cell_formula_units_Z 52
_cell_length_a 33.869772
_cell_length_b 9.631913
_cell_length_c 9.389110
_cell_angle_alpha 90.000000
_cell_angle_beta 90.000000
_cell_angle_gamma 90.000000
_cell_volume 3063.015902
_symmetry_space_group_name_H-M "P M M M"
_symmetry_group_IT_number 47
_symmetry_cell_setting 'orthorhombic'
loop_
_space_group_symop_operation_xyz
x,y,z
-x,-y,z
x,-y,-z
-x,y,-z
-x,-y,-z
x,y,-z
-x,y,z
x,-y,z
loop_
_atom_site_type_symbol
_atom_site_label
_atom_site_fract_x
_atom_site_fract_y
_atom_site_fract_z
Si Si1 0.690948 0.835049 0.161100
Si Si2 0.456439 0.344299 0.330860
Si Si3 0.158860 0.340524 0.333575
Si Si4 0.000000 0.652426 0.169446
Si Si5 0.384549 0.837890 0.665919
Si Si6 0.915541 0.665927 0.840313
Si Si7 0.766644 0.161515 0.334460
O O1 0.652631 0.780479 0.245316
O O2 0.729838 0.782654 0.242932
O O3 0.690532 0.000000 0.161354
O O4 0.690797 0.776555 0.000000
O O5 0.456631 0.339917 0.500000
O O6 0.500000 0.299277 0.274851
O O7 0.446704 0.500000 0.277897
O O8 0.423227 0.239643 0.273188
O O9 0.151827 0.325329 0.500000
O O10 0.166915 0.500000 0.289673
O O11 0.119596 0.280163 0.259491
O O12 0.195697 0.248779 0.282975
O O13 0.041573 0.726950 0.213203
O O14 0.000000 0.500000 0.240068
O O15 0.000000 0.637362 0.000000
O O16 0.376758 0.805475 0.500000
O O17 0.391499 0.000000 0.691368
O O18 0.918286 0.500000 0.836155
O O19 0.906390 0.717580 0.000000
O O20 0.756984 0.187913 0.500000
O O21 0.775287 0.000000 0.305404
#
# Coordination Sequence:
#
# PCOD8200717 Si02
#       7
#     8   8   8   4   8   8   8
#     4   9  17  29  45  64  85 108 135 170 209 244
#     4   8  14  25  41  62  88 115 141 170 204 240
#     4   9  17  28  41  60  86 109 129 162 208 247
#     4   7  10  18  33  53  76 103 136 168 196 233
#     4   9  16  26  43  66  87 107 135 171 207 242
#     4   8  13  22  37  56  79 108 138 166 199 241
#     4   9  17  30  47  63  80 107 141 170 198 241
#
# _framework density 16.976731999999998
#
# number of rings (size 3 to 8) (size 9 to 14) (size 15 to 20)
#    0.000    3.462    0.000    1.846    0.000    2.769 
#    0.000    2.692    0.000    7.846    0.000    3.769 
#    0.000    4.308    0.000    0.000    0.000    0.000 
#
# Total GULP energy -644372.639054 kJ/mol
# GULP energy per Si atom -12391.781520 kJ/mol
# Density = 1.693809 g / cm^3
# Si number density = 16.976732 Si / 1000 Ang^3
#
#
#
# Elastic Constant Matrix: (Units=GPa)
#
#
# Indices 1 2 3 4 5 6 
#
# 1 202.9981 56.1401 68.8507 0.0000 0.0000 0.0000
# 2 56.1401 37.8749 23.8873 0.0000 0.0000 0.0000
# 3 68.8507 23.8873 58.4749 0.0000 0.0000 0.0000
# 4 0.0000 0.0000 0.0000 9.2292 0.0000 0.0000
# 5 0.0000 0.0000 0.0000 0.0000 15.8964 0.0000
# 6 0.0000 0.0000 0.0000 0.0000 0.0000 20.1695
#
#
#
# Elastic Compliance Matrix: (Units=1/GPa)
#
#
# Indices 1 2 3 4 5 6 
#
# 1 0.010636 -0.010597 -0.008194 0.000000 0.000000 0.000000
# 2 -0.010597 0.046125 -0.006364 0.000000 0.000000 0.000000
# 3 -0.008194 -0.006364 0.029350 0.000000 0.000000 0.000000
# 4 0.000000 0.000000 0.000000 0.108352 0.000000 0.000000
# 5 0.000000 0.000000 0.000000 0.000000 0.062907 0.000000
# 6 0.000000 0.000000 0.000000 0.000000 0.000000 0.049580
#
#
# Mechanical properties :
#
#
# Convention : Reuss Voigt Hill
#
# Bulk Modulus (GPa) = 27.93433 66.34490 47.13961
# Shear Modulus (GPa) = 13.54298 19.09032 16.31665
#
# Velocity S-wave (km/s) = 2.82749 3.35699 3.10355
# Velocity P-wave (km/s) = 5.21055 7.36143 6.37732
#
# Compressibility (1/GPa) = 0.03579825
#
# Stress axis : x y z
#
# Youngs Moduli (GPa) = 94.01827 21.68038 34.07196
#
# Poissons Ratio (x) = 0.22976 0.27920
# Poissons Ratio (y) = 0.99635 0.21684
# Poissons Ratio (z) = 0.77043 0.13798
#
# Static dielectric constant tensor:
#      x y z
#    x 3.638200 0.000000 0.000000 
#    y 0.000000 2.827760 0.000000 
#    z 0.000000 0.000000 2.997460 
# 
# 
# High freq. dielectric constant tensor:
#      x y z
#    x 1.675240 0.000000 0.000000 
#    y 0.000000 1.605310 0.000000 
#    z 0.000000 0.000000 1.626830 
# 
# From -- ./inp_files/14134.got.cif
#   From: 2010.03.12/outbox.cif.g09.slc.cpg/sg47_8_cif.got.tgz:14134.got - 2010.04.14 03:12:58.
