data_PCOD8200773
_publ_section_title
;
Structure prediction by ZEFSAII (Michael W. Deem and Ramdas Pophale) SiO2 
 PCOD8200773
Probable space group: P M M M
;
_chemical_formula_sum "Si O2"
_cell_formula_units_Z 60
_cell_length_a 9.503811
_cell_length_b 28.068475
_cell_length_c 14.744144
_cell_angle_alpha 90.000000
_cell_angle_beta 90.000000
_cell_angle_gamma 90.000000
_cell_volume 3933.110720
_symmetry_space_group_name_H-M "P M M M"
_symmetry_group_IT_number 47
_symmetry_cell_setting 'orthorhombic'
loop_
_space_group_symop_operation_xyz
x,y,z
-x,-y,z
x,-y,-z
-x,y,-z
-x,-y,-z
x,y,-z
-x,y,z
x,-y,z
loop_
_atom_site_type_symbol
_atom_site_label
_atom_site_fract_x
_atom_site_fract_y
_atom_site_fract_z
Si Si1 0.157380 0.556598 0.599196
Si Si2 0.335669 0.816676 0.105728
Si Si3 0.332126 0.000000 0.102488
Si Si4 0.338433 0.637303 0.894658
Si Si5 0.332785 0.945984 0.400624
Si Si6 0.159321 0.274303 0.107742
Si Si7 0.663364 0.446160 0.764317
Si Si8 0.332728 0.909301 0.787669
O O1 0.204694 0.575793 0.500000
O O2 0.162459 0.500000 0.598179
O O3 0.260735 0.576008 0.676296
O O4 0.000000 0.574393 0.620941
O O5 0.500000 0.805602 0.122073
O O6 0.245195 0.771903 0.139964
O O7 0.280499 0.860612 0.166285
O O8 0.308781 0.828470 0.000000
O O9 0.273636 0.046539 0.153986
O O10 0.500000 0.000000 0.102304
O O11 0.273823 0.000000 0.000000
O O12 0.500000 0.651818 0.875639
O O13 0.239010 0.678880 0.855010
O O14 0.298977 0.587227 0.848776
O O15 0.310696 0.629334 0.000000
O O16 0.280114 0.927146 0.500000
O O17 0.500000 0.945929 0.399450
O O18 0.277314 0.913478 0.316841
O O19 0.279192 0.000000 0.385800
O O20 0.000000 0.272815 0.145989
O O21 0.158885 0.275905 0.000000
O O22 0.500000 0.445819 0.741618
O O23 0.714418 0.500000 0.787115
O O24 0.500000 0.910793 0.789856
#
# Coordination Sequence:
#
# PCOD8200773 Si02
#       8
#     8   8   4   8   8   8   8   8
#     4   8  14  25  40  57  79 109 142 173 205 240
#     4   9  16  25  38  57  80 103 127 159 201 245
#     4   9  14  18  25  41  70 104 131 154 184 226
#     4   9  17  29  44  61  84 114 143 171 204 242
#     4   8  12  18  28  43  68 103 136 162 191 228
#     4   9  17  29  44  60  77 100 134 174 210 242
#     4   9  17  27  40  62  89 114 140 169 203 246
#     4   9  14  20  30  48  74 103 131 159 192 232
#
# _framework density 15.255101
#
# number of rings (size 3 to 8) (size 9 to 14) (size 15 to 20)
#    0.000    3.267    0.667    1.600    0.000    4.267 
#    0.000    2.667    0.000    0.000    0.000    5.133 
#    0.000    8.533    0.000    1.467    0.000    1.333 
#
# Total GULP energy -743543.670596 kJ/mol
# GULP energy per Si atom -12392.394510 kJ/mol
# Density = 1.522038 g / cm^3
# Si number density = 15.255101 Si / 1000 Ang^3
#
#
#
# Elastic Constant Matrix: (Units=GPa)
#
#
# Indices 1 2 3 4 5 6 
#
# 1 48.1089 43.8046 31.9915 0.0000 0.0000 0.0000
# 2 43.8046 104.3711 56.8713 0.0000 0.0000 0.0000
# 3 31.9915 56.8713 97.5812 0.0000 0.0000 0.0000
# 4 0.0000 0.0000 0.0000 8.4461 0.0000 0.0000
# 5 0.0000 0.0000 0.0000 0.0000 12.7605 0.0000
# 6 0.0000 0.0000 0.0000 0.0000 0.0000 6.7805
#
#
#
# Elastic Compliance Matrix: (Units=1/GPa)
#
#
# Indices 1 2 3 4 5 6 
#
# 1 0.034803 -0.012294 -0.004245 0.000000 0.000000 0.000000
# 2 -0.012294 0.018382 -0.006683 0.000000 0.000000 0.000000
# 3 -0.004245 -0.006683 0.015535 0.000000 0.000000 0.000000
# 4 0.000000 0.000000 0.000000 0.118398 0.000000 0.000000
# 5 0.000000 0.000000 0.000000 0.000000 0.078367 0.000000
# 6 0.000000 0.000000 0.000000 0.000000 0.000000 0.147482
#
#
# Mechanical properties :
#
#
# Convention : Reuss Voigt Hill
#
# Bulk Modulus (GPa) = 44.89085 57.26621 51.07853
# Shear Modulus (GPa) = 10.71040 13.42366 12.06703
#
# Velocity S-wave (km/s) = 2.65257 2.96961 2.81555
# Velocity P-wave (km/s) = 6.23475 7.02699 6.64269
#
# Compressibility (1/GPa) = 0.02227625
#
# Stress axis : x y z
#
# Youngs Moduli (GPa) = 28.73335 54.39980 64.37266
#
# Poissons Ratio (x) = 0.66877 0.27326
# Poissons Ratio (y) = 0.35324 0.43021
# Poissons Ratio (z) = 0.12197 0.36356
#
# Static dielectric constant tensor:
#      x y z
#    x 2.720380 0.000000 0.000000 
#    y 0.000000 2.887040 0.000000 
#    z 0.000000 0.000000 3.134640 
# 
# 
# High freq. dielectric constant tensor:
#      x y z
#    x 1.551170 0.000000 0.000000 
#    y 0.000000 1.565060 0.000000 
#    z 0.000000 0.000000 1.573140 
# 
# From -- ./inp_files/23135.got.cif
#   From: 2010.03.12/outbox.cif.g09.slc.cpg/sg47_12_cif.got.tgz:23135.got - 2010.04.14 03:12:58.
