data_PCOD8200172
_publ_section_title
;
Structure prediction by ZEFSAII (Michael W. Deem and Ramdas Pophale) SiO2 
 PCOD8200172
Probable space group: P M M M
;
_chemical_formula_sum "Si O2"
_cell_formula_units_Z 56
_cell_length_a 21.322217
_cell_length_b 15.053705
_cell_length_c 8.619398
_cell_angle_alpha 90.000000
_cell_angle_beta 90.000000
_cell_angle_gamma 90.000000
_cell_volume 2766.640274
_symmetry_space_group_name_H-M "P M M M"
_symmetry_group_IT_number 47
_symmetry_cell_setting 'orthorhombic'
loop_
_space_group_symop_operation_xyz
x,y,z
-x,-y,z
x,-y,-z
-x,y,-z
-x,-y,-z
x,y,-z
-x,y,z
x,-y,z
loop_
_atom_site_type_symbol
_atom_site_label
_atom_site_fract_x
_atom_site_fract_y
_atom_site_fract_z
Si Si1 0.127165 0.345094 0.179604
Si Si2 0.570758 0.400609 0.683206
Si Si3 0.000000 0.604432 0.322229
Si Si4 0.328993 0.729205 0.822093
Si Si5 0.758236 0.597315 0.326405
Si Si6 0.131719 0.160814 0.316704
Si Si7 0.744366 0.901130 0.180366
Si Si8 0.000000 0.896309 0.826797
O O1 0.056722 0.351947 0.233845
O O2 0.168950 0.413223 0.279925
O O3 0.151030 0.247282 0.219870
O O4 0.133449 0.367822 0.000000
O O5 0.574490 0.402391 0.500000
O O6 0.500000 0.382138 0.740155
O O7 0.591600 0.500000 0.743920
O O8 0.612416 0.316814 0.736635
O O9 0.000000 0.500000 0.303272
O O10 0.000000 0.634791 0.500000
O O11 0.271437 0.661954 0.800128
O O12 0.306293 0.826665 0.759300
O O13 0.347783 0.737485 0.000000
O O14 0.750576 0.636618 0.500000
O O15 0.726770 0.500000 0.320466
O O16 0.129983 0.178242 0.500000
O O17 0.189603 0.096344 0.274122
O O18 0.062941 0.128347 0.265860
O O19 0.714799 0.000000 0.201912
O O20 0.759116 0.881749 0.000000
O O21 0.000000 0.000000 0.847775
O O22 0.000000 0.852095 0.000000
#
# Coordination Sequence:
#
# PCOD8200172 Si02
#       8
#     8   8   4   8   8   8   8   4
#     4  12  24  39  58  80 108 144 189 239 291 350
#     4   9  19  37  61  90 127 170 208 243 291 349
#     4  11  24  41  58  77 105 143 188 238 295 356
#     4  11  22  36  59  90 122 158 200 246 293 346
#     4  11  23  38  57  83 117 155 192 236 291 348
#     4  12  24  39  60  85 113 145 190 247 305 366
#     4  10  22  41  62  85 118 159 201 248 306 366
#     4  11  24  41  60  81 109 145 184 236 307 376
#
# _framework density 20.241157999999999
#
# number of rings (size 3 to 8) (size 9 to 14) (size 15 to 20)
#    0.000    1.143    1.429    6.000    0.000    8.857 
#    0.000    0.714    0.000    0.429    0.000    3.000 
#    0.000    0.000    0.000    0.000    0.000    0.000 
#
# Total GULP energy -694035.474854 kJ/mol
# GULP energy per Si atom -12393.490622 kJ/mol
# Density = 2.019509 g / cm^3
# Si number density = 20.241158 Si / 1000 Ang^3
#
#
#
# Elastic Constant Matrix: (Units=GPa)
#
#
# Indices 1 2 3 4 5 6 
#
# 1 115.7191 53.0555 21.3143 0.0000 0.0000 0.0000
# 2 53.0555 117.7797 30.8687 0.0000 0.0000 0.0000
# 3 21.3143 30.8687 71.5764 0.0000 0.0000 0.0000
# 4 0.0000 0.0000 0.0000 17.9558 0.0000 0.0000
# 5 0.0000 0.0000 0.0000 0.0000 38.3909 0.0000
# 6 0.0000 0.0000 0.0000 0.0000 0.0000 27.6858
#
#
#
# Elastic Compliance Matrix: (Units=1/GPa)
#
#
# Indices 1 2 3 4 5 6 
#
# 1 0.010994 -0.004616 -0.001283 0.000000 0.000000 0.000000
# 2 -0.004616 0.011511 -0.003590 0.000000 0.000000 0.000000
# 3 -0.001283 -0.003590 0.015901 0.000000 0.000000 0.000000
# 4 0.000000 0.000000 0.000000 0.055692 0.000000 0.000000
# 5 0.000000 0.000000 0.000000 0.000000 0.026048 0.000000
# 6 0.000000 0.000000 0.000000 0.000000 0.000000 0.036120
#
#
# Mechanical properties :
#
#
# Convention : Reuss Voigt Hill
#
# Bulk Modulus (GPa) = 51.47087 57.28360 54.37724
# Shear Modulus (GPa) = 27.51481 30.12893 28.82187
#
# Velocity S-wave (km/s) = 3.69094 3.86229 3.77759
# Velocity P-wave (km/s) = 6.60667 6.94635 6.77863
#
# Compressibility (1/GPa) = 0.01942846
#
# Stress axis : x y z
#
# Youngs Moduli (GPa) = 90.95485 86.87577 62.88818
#
# Poissons Ratio (x) = 0.40105 0.08069
# Poissons Ratio (y) = 0.41988 0.22574
# Poissons Ratio (z) = 0.11670 0.31184
#
# Static dielectric constant tensor:
#      x y z
#    x 3.723610 0.000000 0.000000 
#    y 0.000000 3.937940 0.000000 
#    z 0.000000 0.000000 3.628880 
# 
# 
# High freq. dielectric constant tensor:
#      x y z
#    x 1.779630 0.000000 0.000000 
#    y 0.000000 1.792770 0.000000 
#    z 0.000000 0.000000 1.789650 
# 
# From -- ./inp_files/11349.got.cif
#   From: 2010.03.12/outbox.cif.g09.slc.cpg/sg47_6_cif.got.tgz:11349.got - 2010.04.14 03:12:58.
