data_PCOD8200668
_publ_section_title
;
Structure prediction by ZEFSAII (Michael W. Deem and Ramdas Pophale) SiO2 
 PCOD8200668
Probable space group: P M M M
;
_chemical_formula_sum "Si O2"
_cell_formula_units_Z 28
_cell_length_a 22.977176
_cell_length_b 8.813550
_cell_length_c 7.553512
_cell_angle_alpha 90.000000
_cell_angle_beta 90.000000
_cell_angle_gamma 90.000000
_cell_volume 1529.665413
_symmetry_space_group_name_H-M "P M M M"
_symmetry_group_IT_number 47
_symmetry_cell_setting 'orthorhombic'
loop_
_space_group_symop_operation_xyz
x,y,z
-x,-y,z
x,-y,-z
-x,y,-z
-x,-y,-z
x,y,-z
-x,y,z
x,-y,z
loop_
_atom_site_type_symbol
_atom_site_label
_atom_site_fract_x
_atom_site_fract_y
_atom_site_fract_z
Si Si1 0.358972 0.676576 0.500000
Si Si2 0.567478 0.174323 0.203154
Si Si3 0.066458 0.820294 0.000000
Si Si4 0.766000 0.178667 0.500000
Si Si5 0.838247 0.329004 0.195371
O O1 0.343751 0.500000 0.500000
O O2 0.395117 0.715477 0.324754
O O3 0.300105 0.770284 0.500000
O O4 0.500000 0.211084 0.234886
O O5 0.580380 0.000000 0.253740
O O6 0.584543 0.205094 0.000000
O O7 0.098529 0.753004 0.175620
O O8 0.000000 0.765594 0.000000
O O9 0.071706 0.000000 0.000000
O O10 0.797238 0.237763 0.325191
O O11 0.768827 0.000000 0.500000
O O12 0.847295 0.500000 0.266273
O O13 0.808300 0.330367 0.000000
#
# Coordination Sequence:
#
# PCOD8200668 Si02
#       5
#     4   8   4   4   8
#     4  12  25  37  54  82 117 150 187 232 283 341
#     4   9  19  38  62  85 111 145 187 234 283 335
#     4   9  17  33  59  89 119 151 190 231 274 331
#     4  12  24  39  60  81 110 151 197 239 281 344
#     4   9  20  37  59  83 115 150 184 233 288 336
#
# _framework density 18.304655
#
# number of rings (size 3 to 8) (size 9 to 14) (size 15 to 20)
#    0.857    1.286    0.000    4.714    0.000    5.143 
#    0.000    2.143    0.000    4.286    0.000    0.000 
#    0.000    0.000    0.000    0.000    0.000    0.000 
#
# Total GULP energy -347098.336849 kJ/mol
# GULP energy per Si atom -12396.369173 kJ/mol
# Density = 1.826299 g / cm^3
# Si number density = 18.304655 Si / 1000 Ang^3
#
#
#
# Elastic Constant Matrix: (Units=GPa)
#
#
# Indices 1 2 3 4 5 6 
#
# 1 102.6453 47.6550 52.9223 0.0000 0.0000 0.0000
# 2 47.6550 133.5054 45.4586 0.0000 0.0000 0.0000
# 3 52.9223 45.4586 95.2100 0.0000 0.0000 0.0000
# 4 0.0000 0.0000 0.0000 35.9134 0.0000 0.0000
# 5 0.0000 0.0000 0.0000 0.0000 117.5274 0.0000
# 6 0.0000 0.0000 0.0000 0.0000 0.0000 7.8113
#
#
#
# Elastic Compliance Matrix: (Units=1/GPa)
#
#
# Indices 1 2 3 4 5 6 
#
# 1 0.014546 -0.002913 -0.006695 0.000000 0.000000 0.000000
# 2 -0.002913 0.009528 -0.002930 0.000000 0.000000 0.000000
# 3 -0.006695 -0.002930 0.015623 0.000000 0.000000 0.000000
# 4 0.000000 0.000000 0.000000 0.027845 0.000000 0.000000
# 5 0.000000 0.000000 0.000000 0.000000 0.008509 0.000000
# 6 0.000000 0.000000 0.000000 0.000000 0.000000 0.128020
#
#
# Mechanical properties :
#
#
# Convention : Reuss Voigt Hill
#
# Bulk Modulus (GPa) = 68.38916 69.27027 68.82972
# Shear Modulus (GPa) = 21.36573 44.60542 32.98557
#
# Velocity S-wave (km/s) = 3.42018 4.94179 4.24964
# Velocity P-wave (km/s) = 7.28283 8.39564 7.85896
#
# Compressibility (1/GPa) = 0.01462220
#
# Stress axis : x y z
#
# Youngs Moduli (GPa) = 68.74583 104.95691 64.00669
#
# Poissons Ratio (x) = 0.30571 0.42851
# Poissons Ratio (y) = 0.20024 0.18754
# Poissons Ratio (z) = 0.46024 0.30753
#
# Static dielectric constant tensor:
#      x y z
#    x 3.279730 0.000000 0.000000 
#    y 0.000000 3.388940 0.000000 
#    z 0.000000 0.000000 3.310730 
# 
# 
# High freq. dielectric constant tensor:
#      x y z
#    x 1.699980 0.000000 0.000000 
#    y 0.000000 1.720040 0.000000 
#    z 0.000000 0.000000 1.707110 
# 
# From -- ./inp_files/10285.got.cif
#   From: 2010.03.12/outbox.cif.g09.slc.cpg/sg47_6_cif.got.tgz:10285.got - 2010.04.14 03:12:58.
