data_PCOD8200174
_publ_section_title
;
Structure prediction by ZEFSAII (Michael W. Deem and Ramdas Pophale) SiO2 
 PCOD8200174
Probable space group: P M M M
;
_chemical_formula_sum "Si O2"
_cell_formula_units_Z 56
_cell_length_a 21.157412
_cell_length_b 8.789869
_cell_length_c 15.211277
_cell_angle_alpha 90.000000
_cell_angle_beta 90.000000
_cell_angle_gamma 90.000000
_cell_volume 2828.854567
_symmetry_space_group_name_H-M "P M M M"
_symmetry_group_IT_number 47
_symmetry_cell_setting 'orthorhombic'
loop_
_space_group_symop_operation_xyz
x,y,z
-x,-y,z
x,-y,-z
-x,y,-z
-x,-y,-z
x,y,-z
-x,y,z
x,-y,z
loop_
_atom_site_type_symbol
_atom_site_label
_atom_site_fract_x
_atom_site_fract_y
_atom_site_fract_z
Si Si1 0.847645 0.676913 0.250392
Si Si2 0.926818 0.175419 0.899133
Si Si3 0.073645 0.174623 0.399529
Si Si4 0.622848 0.825702 0.597964
Si Si5 0.371871 0.673225 0.099281
Si Si6 0.500000 0.820872 0.151899
Si Si7 0.712261 0.178681 0.244879
Si Si8 0.500000 0.322693 0.340601
O O1 0.831318 0.500000 0.249148
O O2 0.885428 0.717413 0.162256
O O3 0.888075 0.714251 0.336618
O O4 0.783835 0.771516 0.254446
O O5 0.000000 0.214031 0.883163
O O6 0.913622 0.000000 0.875219
O O7 0.908264 0.207872 0.000000
O O8 0.093162 0.208276 0.500000
O O9 0.000000 0.207360 0.385591
O O10 0.089018 0.000000 0.375385
O O11 0.651475 0.808761 0.500000
O O12 0.675356 0.770992 0.667147
O O13 0.561710 0.719158 0.603864
O O14 0.602843 0.000000 0.616793
O O15 0.383250 0.500000 0.128504
O O16 0.438107 0.759178 0.104396
O O17 0.318779 0.744776 0.160474
O O18 0.346279 0.684031 0.000000
O O19 0.500000 0.775162 0.252830
O O20 0.500000 0.000000 0.143721
O O21 0.709062 0.000000 0.230847
O O22 0.500000 0.500000 0.317829
#
# Coordination Sequence:
#
# PCOD8200174 Si02
#       8
#     8   8   8   8   8   4   8   4
#     4  12  25  38  57  87 125 163 198 243 301 357
#     4   9  19  38  64  91 118 152 198 249 296 349
#     4   9  19  38  64  91 119 155 201 250 297 350
#     4  10  22  41  64  89 117 151 195 247 300 356
#     4  11  24  42  64  91 123 156 192 245 309 360
#     4  12  23  38  63  92 122 158 199 245 294 349
#     4  11  24  42  63  85 115 161 208 248 291 349
#     4  12  23  36  61  92 124 156 191 243 302 353
#
# _framework density 19.795997
#
# number of rings (size 3 to 8) (size 9 to 14) (size 15 to 20)
#    0.000    1.429    1.429    5.143    0.000    7.714 
#    0.000    2.857    0.000    0.000    0.000    0.000 
#    0.000    0.000    0.000    0.000    0.000    0.000 
#
# Total GULP energy -694673.720741 kJ/mol
# GULP energy per Si atom -12404.887870 kJ/mol
# Density = 1.975094 g / cm^3
# Si number density = 19.795997 Si / 1000 Ang^3
#
#
#
# Elastic Constant Matrix: (Units=GPa)
#
#
# Indices 1 2 3 4 5 6 
#
# 1 90.6797 32.5153 52.2923 0.0000 0.0000 0.0000
# 2 32.5153 100.0362 43.1041 0.0000 0.0000 0.0000
# 3 52.2923 43.1041 126.3194 0.0000 0.0000 0.0000
# 4 0.0000 0.0000 0.0000 25.4207 0.0000 0.0000
# 5 0.0000 0.0000 0.0000 0.0000 1.1195 0.0000
# 6 0.0000 0.0000 0.0000 0.0000 0.0000 12.7971
#
#
#
# Elastic Compliance Matrix: (Units=1/GPa)
#
#
# Indices 1 2 3 4 5 6 
#
# 1 0.015035 -0.002585 -0.005342 0.000000 0.000000 0.000000
# 2 -0.002585 0.012164 -0.003081 0.000000 0.000000 0.000000
# 3 -0.005342 -0.003081 0.011179 0.000000 0.000000 0.000000
# 4 0.000000 0.000000 0.000000 0.039338 0.000000 0.000000
# 5 0.000000 0.000000 0.000000 0.000000 0.893270 0.000000
# 6 0.000000 0.000000 0.000000 0.000000 0.000000 0.078143
#
#
# Mechanical properties :
#
#
# Convention : Reuss Voigt Hill
#
# Bulk Modulus (GPa) = 61.11391 63.65095 62.38243
# Shear Modulus (GPa) = 4.64425 20.47569 12.55997
#
# Velocity S-wave (km/s) = 1.53335 3.21960 2.52160
# Velocity P-wave (km/s) = 5.83727 6.78560 6.32922
#
# Compressibility (1/GPa) = 0.01636289
#
# Stress axis : x y z
#
# Youngs Moduli (GPa) = 66.50962 82.20958 89.45313
#
# Poissons Ratio (x) = 0.21253 0.47786
# Poissons Ratio (y) = 0.17194 0.27556
# Poissons Ratio (z) = 0.35530 0.25325
#
# Static dielectric constant tensor:
#      x y z
#    x 3.430530 0.000000 0.000000 
#    y 0.000000 3.579190 0.000000 
#    z 0.000000 0.000000 3.729560 
# 
# 
# High freq. dielectric constant tensor:
#      x y z
#    x 1.766910 0.000000 0.000000 
#    y 0.000000 1.771880 0.000000 
#    z 0.000000 0.000000 1.787880 
# 
# From -- ./inp_files/25212.got.cif
#   From: 2010.03.12/outbox.cif.g09.slc.cpg/sg47_13_cif.got.tgz:25212.got - 2010.04.14 03:12:58.
