data_PCOD8200439
_publ_section_title
;
Structure prediction by ZEFSAII (Michael W. Deem and Ramdas Pophale) SiO2 
 PCOD8200439
Probable space group: P M M M
;
_chemical_formula_sum "Si O2"
_cell_formula_units_Z 44
_cell_length_a 9.571563
_cell_length_b 13.660425
_cell_length_c 18.149477
_cell_angle_alpha 90.000000
_cell_angle_beta 90.000000
_cell_angle_gamma 90.000000
_cell_volume 2373.073493
_symmetry_space_group_name_H-M "P M M M"
_symmetry_group_IT_number 47
_symmetry_cell_setting 'orthorhombic'
loop_
_space_group_symop_operation_xyz
x,y,z
-x,-y,z
x,-y,-z
-x,y,-z
-x,-y,-z
x,y,-z
-x,y,z
x,-y,z
loop_
_atom_site_type_symbol
_atom_site_label
_atom_site_fract_x
_atom_site_fract_y
_atom_site_fract_z
Si Si1 0.157382 0.383449 0.080483
Si Si2 0.842257 0.883537 0.159705
Si Si3 0.661240 0.799119 0.709618
Si Si4 0.658372 0.390891 0.212396
Si Si5 0.835383 0.107337 0.000000
Si Si6 0.840802 0.113362 0.415105
O O1 0.168924 0.500000 0.079063
O O2 0.253965 0.342905 0.145613
O O3 0.000000 0.349809 0.097465
O O4 0.203061 0.342320 0.000000
O O5 0.734142 0.851834 0.221902
O O6 0.797832 0.838623 0.078355
O O7 0.000000 0.849844 0.181128
O O8 0.838524 0.000000 0.152674
O O9 0.500000 0.832914 0.706767
O O10 0.673241 0.681402 0.718244
O O11 0.735204 0.823655 0.633138
O O12 0.500000 0.395637 0.184328
O O13 0.710819 0.500000 0.234879
O O14 0.000000 0.092583 0.000000
O O15 0.763048 0.000000 0.000000
O O16 0.804243 0.132884 0.500000
O O17 0.000000 0.144662 0.398241
O O18 0.820603 0.000000 0.395180
#
# Coordination Sequence:
#
# PCOD8200439 Si02
#       6
#     8   8   8   8   4   8
#     4   8  14  26  45  68  91 116 156 215 272 310
#     4   9  17  31  51  72  97 132 171 208 248 301
#     4  11  22  33  49  77 106 132 167 211 255 299
#     4   9  19  35  50  65  93 136 179 213 250 300
#     4   7  12  26  47  67  88 123 172 212 239 281
#     4   9  19  37  60  84 109 136 163 192 235 299
#
# _framework density 18.541354999999999
#
# number of rings (size 3 to 8) (size 9 to 14) (size 15 to 20)
#    0.000    3.000    0.000    3.273    0.000    5.091 
#    1.636    3.182    0.000    2.182    0.000    3.818 
#    0.000    0.000    0.000    0.000    0.000    0.000 
#
# Total GULP energy -545281.452657 kJ/mol
# GULP energy per Si atom -12392.760288 kJ/mol
# Density = 1.849915 g / cm^3
# Si number density = 18.541355 Si / 1000 Ang^3
#
#
#
# Elastic Constant Matrix: (Units=GPa)
#
#
# Indices 1 2 3 4 5 6 
#
# 1 103.1933 37.4587 71.4541 0.0000 0.0000 0.0000
# 2 37.4587 40.8913 43.5698 0.0000 0.0000 0.0000
# 3 71.4541 43.5698 120.0835 0.0000 0.0000 0.0000
# 4 0.0000 0.0000 0.0000 26.7088 0.0000 0.0000
# 5 0.0000 0.0000 0.0000 0.0000 16.8407 0.0000
# 6 0.0000 0.0000 0.0000 0.0000 0.0000 15.6712
#
#
#
# Elastic Compliance Matrix: (Units=1/GPa)
#
#
# Indices 1 2 3 4 5 6 
#
# 1 0.018059 -0.008304 -0.007733 0.000000 0.000000 0.000000
# 2 -0.008304 0.043686 -0.010909 0.000000 0.000000 0.000000
# 3 -0.007733 -0.010909 0.016887 0.000000 0.000000 0.000000
# 4 0.000000 0.000000 0.000000 0.037441 0.000000 0.000000
# 5 0.000000 0.000000 0.000000 0.000000 0.059380 0.000000
# 6 0.000000 0.000000 0.000000 0.000000 0.000000 0.063811
#
#
# Mechanical properties :
#
#
# Convention : Reuss Voigt Hill
#
# Bulk Modulus (GPa) = 40.42059 63.23702 51.82880
# Shear Modulus (GPa) = 16.58903 19.28985 17.93944
#
# Velocity S-wave (km/s) = 2.99441 3.22897 3.11390
# Velocity P-wave (km/s) = 5.81402 6.93410 6.39861
#
# Compressibility (1/GPa) = 0.02473987
#
# Stress axis : x y z
#
# Youngs Moduli (GPa) = 55.37265 22.89071 59.21590
#
# Poissons Ratio (x) = 0.19008 0.45793
# Poissons Ratio (y) = 0.45980 0.64601
# Poissons Ratio (z) = 0.42821 0.24973
#
# Static dielectric constant tensor:
#      x y z
#    x 3.354750 0.000000 0.000000 
#    y 0.000000 3.412130 0.000000 
#    z 0.000000 0.000000 3.455850 
# 
# 
# High freq. dielectric constant tensor:
#      x y z
#    x 1.703530 0.000000 0.000000 
#    y 0.000000 1.718390 0.000000 
#    z 0.000000 0.000000 1.706440 
# 
# From -- ./inp_files/6115.got.cif
#   From: 2010.03.12/outbox.cif.g09.slc.cpg/sg47_4_cif.got.tgz:6115.got - 2010.04.14 03:12:58.
