data_PCOD8200934
_publ_section_title
;
Structure prediction by ZEFSAII (Michael W. Deem and Ramdas Pophale) SiO2 
 PCOD8200934
Probable space group: P M M M
;
_chemical_formula_sum "Si O2"
_cell_formula_units_Z 32
_cell_length_a 9.267400
_cell_length_b 9.493332
_cell_length_c 20.897520
_cell_angle_alpha 90.000000
_cell_angle_beta 90.000000
_cell_angle_gamma 90.000000
_cell_volume 1838.532567
_symmetry_space_group_name_H-M "P M M M"
_symmetry_group_IT_number 47
_symmetry_cell_setting 'orthorhombic'
loop_
_space_group_symop_operation_xyz
x,y,z
-x,-y,z
x,-y,-z
-x,y,-z
-x,-y,-z
x,y,-z
-x,y,z
x,-y,z
loop_
_atom_site_type_symbol
_atom_site_label
_atom_site_fract_x
_atom_site_fract_y
_atom_site_fract_z
Si Si1 0.328111 0.342735 0.383182
Si Si2 0.339128 0.332343 0.757542
Si Si3 0.336750 0.332118 0.000000
Si Si4 0.162566 0.668066 0.122504
Si Si5 0.327674 0.841338 0.500000
O O1 0.500000 0.348279 0.385209
O O2 0.267323 0.500000 0.396419
O O3 0.280287 0.287681 0.312750
O O4 0.267286 0.237550 0.437050
O O5 0.500000 0.271489 0.769479
O O6 0.346171 0.500000 0.760411
O O7 0.233317 0.272831 0.812173
O O8 0.254268 0.274810 0.062548
O O9 0.337893 0.500000 0.000000
O O10 0.500000 0.273689 0.000000
O O11 0.162497 0.500000 0.122648
O O12 0.000000 0.726317 0.117383
O O13 0.500000 0.840128 0.500000
O O14 0.267607 0.000000 0.500000
#
# Coordination Sequence:
#
# PCOD8200934 Si02
#       5
#     8   8   4   8   4
#     4   8  13  21  33  48  68  97 130 159 189 232
#     4   8  13  21  32  45  62  88 123 157 187 225
#     4   9  15  21  29  41  61  93 128 155 182 225
#     4   9  15  21  29  43  64  89 119 157 196 227
#     4   9  15  21  31  51  78 101 120 152 200 241
#
# _framework density 17.405186
#
# number of rings (size 3 to 8) (size 9 to 14) (size 15 to 20)
#    0.000    3.500    0.000    3.000    0.000    6.000 
#    0.000    0.000    0.000    0.000    0.000    0.875 
#    0.000    8.000    0.000    1.125    0.000   27.750 
#
# Total GULP energy -396563.407681 kJ/mol
# GULP energy per Si atom -12392.606490 kJ/mol
# Density = 1.736557 g / cm^3
# Si number density = 17.405186 Si / 1000 Ang^3
#
#
#
# Elastic Constant Matrix: (Units=GPa)
#
#
# Indices 1 2 3 4 5 6 
#
# 1 91.0313 15.8596 70.3402 0.0000 0.0000 0.0000
# 2 15.8596 40.4400 43.2435 0.0000 0.0000 0.0000
# 3 70.3402 43.2435 197.5422 0.0000 0.0000 0.0000
# 4 0.0000 0.0000 0.0000 1.8527 0.0000 0.0000
# 5 0.0000 0.0000 0.0000 0.0000 7.7497 0.0000
# 6 0.0000 0.0000 0.0000 0.0000 0.0000 2.6734
#
#
#
# Elastic Compliance Matrix: (Units=1/GPa)
#
#
# Indices 1 2 3 4 5 6 
#
# 1 0.015157 -0.000226 -0.005347 0.000000 0.000000 0.000000
# 2 -0.000226 0.032289 -0.006988 0.000000 0.000000 0.000000
# 3 -0.005347 -0.006988 0.008496 0.000000 0.000000 0.000000
# 4 0.000000 0.000000 0.000000 0.539765 0.000000 0.000000
# 5 0.000000 0.000000 0.000000 0.000000 0.129037 0.000000
# 6 0.000000 0.000000 0.000000 0.000000 0.000000 0.374061
#
#
# Mechanical properties :
#
#
# Convention : Reuss Voigt Hill
#
# Bulk Modulus (GPa) = 32.44741 65.32223 48.88482
# Shear Modulus (GPa) = 4.40839 15.75982 10.08411
#
# Velocity S-wave (km/s) = 1.59321 3.01236 2.40963
# Velocity P-wave (km/s) = 4.69758 7.05060 5.99075
#
# Compressibility (1/GPa) = 0.03081910
#
# Stress axis : x y z
#
# Youngs Moduli (GPa) = 65.97787 30.97043 117.70220
#
# Poissons Ratio (x) = 0.00700 0.62941
# Poissons Ratio (y) = 0.01490 0.82249
# Poissons Ratio (z) = 0.35281 0.21642
#
# Static dielectric constant tensor:
#      x y z
#    x 3.023330 0.000000 0.000000 
#    y 0.000000 2.640980 0.000000 
#    z 0.000000 0.000000 3.707040 
# 
# 
# High freq. dielectric constant tensor:
#      x y z
#    x 1.633620 0.000000 0.000000 
#    y 0.000000 1.590540 0.000000 
#    z 0.000000 0.000000 1.696770 
# 
# From -- ./inp_files/10543.got.cif
#   From: 2010.03.12/outbox.cif.g09.slc.cpg/sg47_6_cif.got.tgz:10543.got - 2010.04.14 03:12:58.
