data_PCOD8200347
_publ_section_title
;
Structure prediction by ZEFSAII (Michael W. Deem and Ramdas Pophale) SiO2 
 PCOD8200347
Probable space group: P M M M
;
_chemical_formula_sum "Si O2"
_cell_formula_units_Z 28
_cell_length_a 16.981545
_cell_length_b 7.559248
_cell_length_c 11.840115
_cell_angle_alpha 90.000000
_cell_angle_beta 90.000000
_cell_angle_gamma 90.000000
_cell_volume 1519.888450
_symmetry_space_group_name_H-M "P M M M"
_symmetry_group_IT_number 47
_symmetry_cell_setting 'orthorhombic'
loop_
_space_group_symop_operation_xyz
x,y,z
-x,-y,z
x,-y,-z
-x,y,-z
-x,-y,-z
x,y,-z
-x,y,z
x,-y,z
loop_
_atom_site_type_symbol
_atom_site_label
_atom_site_fract_x
_atom_site_fract_y
_atom_site_fract_z
Si Si1 0.907839 0.206172 0.000000
Si Si2 0.500000 0.694358 0.134518
Si Si3 0.668146 0.711232 0.873830
Si Si4 0.090805 0.000000 0.633145
Si Si5 0.827697 0.299407 0.771582
O O1 0.872389 0.297927 0.890237
O O2 0.000000 0.240422 0.000000
O O3 0.886922 0.000000 0.000000
O O4 0.500000 0.500000 0.189838
O O5 0.417057 0.788705 0.169713
O O6 0.500000 0.678540 0.000000
O O7 0.662859 0.500000 0.878565
O O8 0.738087 0.770113 0.790249
O O9 0.686606 0.783323 0.000000
O O10 0.130981 0.175901 0.680400
O O11 0.100115 0.000000 0.500000
O O12 0.000000 0.000000 0.671447
O O13 0.828614 0.500000 0.724902
#
# Coordination Sequence:
#
# PCOD8200347 Si02
#       5
#     4   4   8   4   8
#     4  11  21  33  51  79 113 144 173 208 264 332
#     4   7  10  18  36  65 107 148 173 197 236 294
#     4   8  13  23  42  74 111 143 172 203 246 307
#     4  11  26  45  59  74  99 135 184 235 278 320
#     4  11  21  35  57  83 109 140 177 218 268 321
#
# _framework density 18.422404
#
# number of rings (size 3 to 8) (size 9 to 14) (size 15 to 20)
#    0.000    2.429    2.857    3.000    0.000    3.429 
#    0.000    1.429    0.000    0.857    0.000    6.000 
#    0.000    5.714    0.000    0.000    0.000    0.000 
#
# Total GULP energy -346930.216477 kJ/mol
# GULP energy per Si atom -12390.364874 kJ/mol
# Density = 1.838047 g / cm^3
# Si number density = 18.422404 Si / 1000 Ang^3
#
#
#
# Elastic Constant Matrix: (Units=GPa)
#
#
# Indices 1 2 3 4 5 6 
#
# 1 184.7437 49.6154 52.0479 0.0000 0.0000 0.0000
# 2 49.6154 71.5337 25.0529 0.0000 0.0000 0.0000
# 3 52.0479 25.0529 56.3009 0.0000 0.0000 0.0000
# 4 0.0000 0.0000 0.0000 -6.7242 0.0000 0.0000
# 5 0.0000 0.0000 0.0000 0.0000 8.8060 0.0000
# 6 0.0000 0.0000 0.0000 0.0000 0.0000 -31.8693
#
#
#
# Elastic Compliance Matrix: (Units=1/GPa)
#
#
# Indices 1 2 3 4 5 6 
#
# 1 0.007998 -0.003504 -0.005834 0.000000 0.000000 0.000000
# 2 -0.003504 0.018095 -0.004813 0.000000 0.000000 0.000000
# 3 -0.005834 -0.004813 0.025297 0.000000 0.000000 0.000000
# 4 0.000000 0.000000 0.000000 -0.148716 0.000000 0.000000
# 5 0.000000 0.000000 0.000000 0.000000 0.113559 0.000000
# 6 0.000000 0.000000 0.000000 0.000000 0.000000 -0.031378
#
#
# Mechanical properties :
#
#
# Convention : Reuss Voigt Hill
#
# Bulk Modulus (GPa) = 43.31316 62.89007 53.10162
# Shear Modulus (GPa) = 239.78037 6.43331 123.10684
#
# Velocity S-wave (km/s) = 11.42101 1.87075 8.18350
# Velocity P-wave (km/s) = 14.05281 6.23524 10.87106
#
# Compressibility (1/GPa) = 0.02308767
#
# Stress axis : x y z
#
# Youngs Moduli (GPa) = 125.03768 55.26318 39.53040
#
# Poissons Ratio (x) = 0.19363 0.23063
# Poissons Ratio (y) = 0.43810 0.19026
# Poissons Ratio (z) = 0.72951 0.26598
#
# Static dielectric constant tensor:
#      x y z
#    x 4.191740 0.000000 0.000000 
#    y 0.000000 3.226110 0.000000 
#    z 0.000000 0.000000 2.853120 
# 
# 
# High freq. dielectric constant tensor:
#      x y z
#    x 1.747870 0.000000 0.000000 
#    y 0.000000 1.702700 0.000000 
#    z 0.000000 0.000000 1.640830 
# 
# From -- ./inp_files/18134.got.cif
#   From: 2010.03.12/outbox.cif.g09.slc.cpg/sg47_10_cif.got.tgz:18134.got - 2010.04.14 03:12:58.
