data_PCOD8200877
_publ_section_title
;
Structure prediction by ZEFSAII (Michael W. Deem and Ramdas Pophale) SiO2 
 PCOD8200877
Probable space group: P M M M
;
_chemical_formula_sum "Si O2"
_cell_formula_units_Z 44
_cell_length_a 13.003351
_cell_length_b 24.865593
_cell_length_c 9.452867
_cell_angle_alpha 90.000000
_cell_angle_beta 90.000000
_cell_angle_gamma 90.000000
_cell_volume 3056.452522
_symmetry_space_group_name_H-M "P M M M"
_symmetry_group_IT_number 47
_symmetry_cell_setting 'orthorhombic'
loop_
_space_group_symop_operation_xyz
x,y,z
-x,-y,z
x,-y,-z
-x,y,-z
-x,-y,-z
x,y,-z
-x,y,z
x,-y,z
loop_
_atom_site_type_symbol
_atom_site_label
_atom_site_fract_x
_atom_site_fract_y
_atom_site_fract_z
Si Si1 0.877457 0.657699 0.340682
Si Si2 0.805422 0.874025 0.831732
Si Si3 0.879532 0.759590 0.836610
Si Si4 0.386114 0.060499 0.168300
Si Si5 0.122304 0.440395 0.158767
Si Si6 0.000000 0.939293 0.168857
O O1 0.834397 0.659656 0.500000
O O2 0.838995 0.710079 0.256692
O O3 0.832379 0.604335 0.264932
O O4 0.000000 0.656027 0.339774
O O5 0.817534 0.812131 0.784520
O O6 0.698645 0.898117 0.770618
O O7 0.899369 0.909291 0.771155
O O8 0.807806 0.877155 0.000000
O O9 0.000000 0.770867 0.813896
O O10 0.857200 0.745931 0.000000
O O11 0.500000 0.077719 0.221570
O O12 0.360628 0.000000 0.220608
O O13 0.383315 0.061446 0.000000
O O14 0.158342 0.500000 0.207814
O O15 0.000000 0.437626 0.159203
O O16 0.162329 0.428581 0.000000
O O17 0.000000 0.000000 0.226467
O O18 0.000000 0.938420 0.000000
#
# Coordination Sequence:
#
# PCOD8200877 Si02
#       6
#     8   8   8   8   8   4
#     4   9  16  23  31  44  62  85 114 146 179 212
#     4   9  14  20  29  43  62  86 114 141 172 211
#     4   9  15  23  33  44  62  87 115 145 175 208
#     4   8  13  20  29  42  63  90 113 134 170 221
#     4   8  13  21  32  45  61  83 113 147 180 210
#     4   9  14  18  26  42  63  83 104 137 178 211
#
# _framework density 14.395775
#
# number of rings (size 3 to 8) (size 9 to 14) (size 15 to 20)
#    0.000    3.364    0.909    2.182    0.000    4.727 
#    0.000    1.818    0.000    0.000    0.000    0.000 
#    0.000    4.364    0.000    2.000    0.000    2.727 
#
# Total GULP energy -545272.127855 kJ/mol
# GULP energy per Si atom -12392.548360 kJ/mol
# Density = 1.436301 g / cm^3
# Si number density = 14.395775 Si / 1000 Ang^3
#
#
#
# Elastic Constant Matrix: (Units=GPa)
#
#
# Indices 1 2 3 4 5 6 
#
# 1 59.6014 48.7756 17.4104 0.0000 0.0000 0.0000
# 2 48.7756 150.3045 54.7081 0.0000 0.0000 0.0000
# 3 17.4104 54.7081 53.2943 0.0000 0.0000 0.0000
# 4 0.0000 0.0000 0.0000 3.4409 0.0000 0.0000
# 5 0.0000 0.0000 0.0000 0.0000 2.3969 0.0000
# 6 0.0000 0.0000 0.0000 0.0000 0.0000 10.2355
#
#
#
# Elastic Compliance Matrix: (Units=1/GPa)
#
#
# Indices 1 2 3 4 5 6 
#
# 1 0.022847 -0.007500 0.000235 0.000000 0.000000 0.000000
# 2 -0.007500 0.013084 -0.010981 0.000000 0.000000 0.000000
# 3 0.000235 -0.010981 0.029959 0.000000 0.000000 0.000000
# 4 0.000000 0.000000 0.000000 0.290622 0.000000 0.000000
# 5 0.000000 0.000000 0.000000 0.000000 0.417212 0.000000
# 6 0.000000 0.000000 0.000000 0.000000 0.000000 0.097699
#
#
# Mechanical properties :
#
#
# Convention : Reuss Voigt Hill
#
# Bulk Modulus (GPa) = 34.01525 56.10983 45.06254
# Shear Modulus (GPa) = 5.44833 12.70173 9.07503
#
# Velocity S-wave (km/s) = 1.94753 2.97362 2.51349
# Velocity P-wave (km/s) = 5.36070 7.13099 6.30826
#
# Compressibility (1/GPa) = 0.02939858
#
# Stress axis : x y z
#
# Youngs Moduli (GPa) = 43.76960 76.43133 33.37885
#
# Poissons Ratio (x) = 0.57320 -0.00784
# Poissons Ratio (y) = 0.32825 0.36652
# Poissons Ratio (z) = -0.01027 0.83927
#
# Static dielectric constant tensor:
#      x y z
#    x 2.567840 0.000000 0.000000 
#    y 0.000000 3.060860 0.000000 
#    z 0.000000 0.000000 2.521240 
# 
# 
# High freq. dielectric constant tensor:
#      x y z
#    x 1.490080 0.000000 0.000000 
#    y 0.000000 1.563150 0.000000 
#    z 0.000000 0.000000 1.508630 
# 
# From -- ./inp_files/4471.got.cif
#   From: 2010.03.12/outbox.cif.g09.slc.cpg/sg47_3_cif.got.tgz:4471.got - 2010.04.14 03:12:58.
