data_PCOD8200136
_publ_section_title
;
Structure prediction by ZEFSAII (Michael W. Deem and Ramdas Pophale) SiO2 
 PCOD8200136
Probable space group: P M M M
;
_chemical_formula_sum "Si O2"
_cell_formula_units_Z 32
_cell_length_a 24.153331
_cell_length_b 7.698464
_cell_length_c 8.915123
_cell_angle_alpha 90.000000
_cell_angle_beta 90.000000
_cell_angle_gamma 90.000000
_cell_volume 1657.709612
_symmetry_space_group_name_H-M "P M M M"
_symmetry_group_IT_number 47
_symmetry_cell_setting 'orthorhombic'
loop_
_space_group_symop_operation_xyz
x,y,z
-x,-y,z
x,-y,-z
-x,y,-z
-x,-y,-z
x,y,-z
-x,y,z
x,-y,z
loop_
_atom_site_type_symbol
_atom_site_label
_atom_site_fract_x
_atom_site_fract_y
_atom_site_fract_z
Si Si1 0.132309 0.700072 0.676643
Si Si2 0.934894 0.000000 0.826776
Si Si3 0.362822 0.808516 0.822776
Si Si4 0.755431 0.704191 0.168837
Si Si5 0.562230 0.500000 0.820637
O O1 0.128197 0.722290 0.500000
O O2 0.120819 0.500000 0.725114
O O3 0.193210 0.760173 0.728426
O O4 0.087504 0.824157 0.752146
O O5 0.000000 0.000000 0.803251
O O6 0.917828 0.000000 0.000000
O O7 0.300511 0.784631 0.760113
O O8 0.405987 0.669234 0.756639
O O9 0.384688 0.000000 0.780078
O O10 0.359115 0.780717 0.000000
O O11 0.746986 0.500000 0.167255
O O12 0.766319 0.773530 0.000000
O O13 0.500000 0.500000 0.756273
O O14 0.560929 0.500000 0.000000
#
# Coordination Sequence:
#
# PCOD8200136 Si02
#       5
#     8   4   8   8   4
#     4  10  22  39  59  86 119 152 186 231 286 341
#     4  11  25  43  63  87 115 151 196 237 274 327
#     4   9  16  25  39  62  91 127 172 219 269 324
#     4   9  16  29  50  74 103 138 178 224 273 330
#     4   9  16  26  38  56  91 135 176 221 272 325
#
# _framework density 19.303742
#
# number of rings (size 3 to 8) (size 9 to 14) (size 15 to 20)
#    0.000    2.500    1.250    1.125    1.750    3.500 
#    0.000    5.000    0.000    0.000    0.000    0.000 
#    0.000    2.000    0.000    2.250    0.000    2.500 
#
# Total GULP energy -396742.966911 kJ/mol
# GULP energy per Si atom -12398.217716 kJ/mol
# Density = 1.925981 g / cm^3
# Si number density = 19.303742 Si / 1000 Ang^3
#
#
#
# Elastic Constant Matrix: (Units=GPa)
#
#
# Indices 1 2 3 4 5 6 
#
# 1 134.1271 79.0265 42.0180 0.0000 0.0000 0.0000
# 2 79.0265 129.8023 37.4866 0.0000 0.0000 0.0000
# 3 42.0180 37.4866 58.1727 0.0000 0.0000 0.0000
# 4 0.0000 0.0000 0.0000 18.1332 0.0000 0.0000
# 5 0.0000 0.0000 0.0000 0.0000 0.2679 0.0000
# 6 0.0000 0.0000 0.0000 0.0000 0.0000 24.7172
#
#
#
# Elastic Compliance Matrix: (Units=1/GPa)
#
#
# Indices 1 2 3 4 5 6 
#
# 1 0.012783 -0.006286 -0.005182 0.000000 0.000000 0.000000
# 2 -0.006286 0.012556 -0.003551 0.000000 0.000000 0.000000
# 3 -0.005182 -0.003551 0.023222 0.000000 0.000000 0.000000
# 4 0.000000 0.000000 0.000000 0.055147 0.000000 0.000000
# 5 0.000000 0.000000 0.000000 0.000000 3.732435 0.000000
# 6 0.000000 0.000000 0.000000 0.000000 0.000000 0.040458
#
#
# Mechanical properties :
#
#
# Convention : Reuss Voigt Hill
#
# Bulk Modulus (GPa) = 53.98896 71.01826 62.50361
# Shear Modulus (GPa) = 1.27785 19.52840 10.40313
#
# Velocity S-wave (km/s) = 0.81450 3.18408 2.32398
# Velocity P-wave (km/s) = 5.37712 7.09842 6.29686
#
# Compressibility (1/GPa) = 0.01852230
#
# Stress axis : x y z
#
# Youngs Moduli (GPa) = 78.23190 79.64018 43.06295
#
# Poissons Ratio (x) = 0.50059 0.22316
# Poissons Ratio (y) = 0.49174 0.15293
# Poissons Ratio (z) = 0.40542 0.28283
#
# Static dielectric constant tensor:
#      x y z
#    x 3.612210 0.000000 0.000000 
#    y 0.000000 3.647830 0.000000 
#    z 0.000000 0.000000 3.115360 
# 
# 
# High freq. dielectric constant tensor:
#      x y z
#    x 1.752970 0.000000 0.000000 
#    y 0.000000 1.762870 0.000000 
#    z 0.000000 0.000000 1.700750 
# 
# From -- ./inp_files/12011.got.cif
#   From: 2010.03.12/outbox.cif.g09.slc.cpg/sg47_7_cif.got.tgz:12011.got - 2010.04.14 03:12:58.
