data_PCOD8200221
_publ_section_title
;
Structure prediction by ZEFSAII (Michael W. Deem and Ramdas Pophale) SiO2 
 PCOD8200221
Probable space group: P M M M
;
_chemical_formula_sum "Si O2"
_cell_formula_units_Z 44
_cell_length_a 9.466000
_cell_length_b 24.778650
_cell_length_c 12.454671
_cell_angle_alpha 90.000000
_cell_angle_beta 90.000000
_cell_angle_gamma 90.000000
_cell_volume 2921.301631
_symmetry_space_group_name_H-M "P M M M"
_symmetry_group_IT_number 47
_symmetry_cell_setting 'orthorhombic'
loop_
_space_group_symop_operation_xyz
x,y,z
-x,-y,z
x,-y,-z
-x,y,-z
-x,-y,-z
x,y,-z
-x,y,z
x,-y,z
loop_
_atom_site_type_symbol
_atom_site_label
_atom_site_fract_x
_atom_site_fract_y
_atom_site_fract_z
Si Si1 0.841970 0.059156 0.372404
Si Si2 0.665626 0.275706 0.624808
Si Si3 0.831431 0.373327 0.293397
Si Si4 0.832727 0.560237 0.500000
Si Si5 0.344026 0.155179 0.627612
Si Si6 0.339281 0.437785 0.874935
O O1 0.842616 0.064090 0.500000
O O2 0.752064 0.107996 0.321436
O O3 0.000000 0.064990 0.327591
O O4 0.780777 0.000000 0.339521
O O5 0.699618 0.285699 0.500000
O O6 0.500000 0.285652 0.647435
O O7 0.762305 0.314458 0.696456
O O8 0.709959 0.214914 0.658781
O O9 0.780021 0.408782 0.394529
O O10 0.772907 0.401042 0.186638
O O11 0.000000 0.368064 0.286594
O O12 0.767506 0.500000 0.500000
O O13 0.000000 0.557107 0.500000
O O14 0.348257 0.150716 0.500000
O O15 0.500000 0.146270 0.674742
O O16 0.500000 0.424125 0.839928
O O17 0.305561 0.500000 0.849487
O O18 0.319328 0.425768 0.000000
#
# Coordination Sequence:
#
# PCOD8200221 Si02
#       6
#     8   8   8   4   8   8
#     4   8  13  20  29  43  64  90 122 163 208 247
#     4   9  17  29  42  56  80 111 142 175 209 249
#     4  11  20  30  46  67  90 114 140 172 211 254
#     4   9  18  30  41  59  89 115 132 161 206 249
#     4   8  14  23  34  48  66  94 131 169 206 240
#     4   9  19  36  54  69  86 109 138 172 210 254
#
# _framework density 15.061779
#
# number of rings (size 3 to 8) (size 9 to 14) (size 15 to 20)
#    0.000    3.000    0.909    3.273    0.000    2.545 
#    0.000    4.545    0.000    2.182    0.000    0.000 
#    0.000    0.000    0.000    0.000    0.000    0.909 
#
# Total GULP energy -545359.228735 kJ/mol
# GULP energy per Si atom -12394.527926 kJ/mol
# Density = 1.502750 g / cm^3
# Si number density = 15.061779 Si / 1000 Ang^3
#
#
#
# Elastic Constant Matrix: (Units=GPa)
#
#
# Indices 1 2 3 4 5 6 
#
# 1 77.4760 67.9896 27.8119 0.0000 0.0000 0.0000
# 2 67.9896 139.4211 33.2363 0.0000 0.0000 0.0000
# 3 27.8119 33.2363 36.5801 0.0000 0.0000 0.0000
# 4 0.0000 0.0000 0.0000 9.9137 0.0000 0.0000
# 5 0.0000 0.0000 0.0000 0.0000 16.8423 0.0000
# 6 0.0000 0.0000 0.0000 0.0000 0.0000 28.9962
#
#
#
# Elastic Compliance Matrix: (Units=1/GPa)
#
#
# Indices 1 2 3 4 5 6 
#
# 1 0.025239 -0.009872 -0.010220 0.000000 0.000000 0.000000
# 2 -0.009872 0.013017 -0.004321 0.000000 0.000000 0.000000
# 3 -0.010220 -0.004321 0.039034 0.000000 0.000000 0.000000
# 4 0.000000 0.000000 0.000000 0.100871 0.000000 0.000000
# 5 0.000000 0.000000 0.000000 0.000000 0.059374 0.000000
# 6 0.000000 0.000000 0.000000 0.000000 0.000000 0.034487
#
#
# Mechanical properties :
#
#
# Convention : Reuss Voigt Hill
#
# Bulk Modulus (GPa) = 35.13268 56.83922 45.98595
# Shear Modulus (GPa) = 15.13615 19.44639 17.29127
#
# Velocity S-wave (km/s) = 3.17351 3.59710 3.39192
# Velocity P-wave (km/s) = 6.06668 7.42101 6.77776
#
# Compressibility (1/GPa) = 0.02846353
#
# Stress axis : x y z
#
# Youngs Moduli (GPa) = 39.62168 76.82493 25.61881
#
# Poissons Ratio (x) = 0.75838 0.26182
# Poissons Ratio (y) = 0.39113 0.11071
# Poissons Ratio (z) = 0.40493 0.33199
#
# Static dielectric constant tensor:
#      x y z
#    x 2.953250 0.000000 0.000000 
#    y 0.000000 3.138020 0.000000 
#    z 0.000000 0.000000 2.396350 
# 
# 
# High freq. dielectric constant tensor:
#      x y z
#    x 1.575350 0.000000 0.000000 
#    y 0.000000 1.588260 0.000000 
#    z 0.000000 0.000000 1.511080 
# 
# From -- ./inp_files/15393.got.cif
#   From: 2010.03.12/outbox.cif.g09.slc.cpg/sg47_8_cif.got.tgz:15393.got - 2010.04.14 03:12:58.
