data_PCOD8200103
_publ_section_title
;
Structure prediction by ZEFSAII (Michael W. Deem and Ramdas Pophale) SiO2 
 PCOD8200103
Probable space group: P M M M
;
_chemical_formula_sum "Si O2"
_cell_formula_units_Z 56
_cell_length_a 9.456570
_cell_length_b 14.215809
_cell_length_c 20.875835
_cell_angle_alpha 90.000000
_cell_angle_beta 90.000000
_cell_angle_gamma 90.000000
_cell_volume 2806.396803
_symmetry_space_group_name_H-M "P M M M"
_symmetry_group_IT_number 47
_symmetry_cell_setting 'orthorhombic'
loop_
_space_group_symop_operation_xyz
x,y,z
-x,-y,z
x,-y,-z
-x,y,-z
-x,-y,-z
x,y,-z
-x,y,z
x,-y,z
loop_
_atom_site_type_symbol
_atom_site_label
_atom_site_fract_x
_atom_site_fract_y
_atom_site_fract_z
Si Si1 0.166945 0.393150 0.388710
Si Si2 0.662439 0.205412 0.072086
Si Si3 0.835980 0.111043 0.816221
Si Si4 0.845420 0.388839 0.246327
Si Si5 0.335718 0.890150 0.693004
Si Si6 0.338568 0.395372 0.869678
Si Si7 0.661898 0.225938 0.429805
O O1 0.213682 0.500000 0.404068
O O2 0.211100 0.362935 0.316595
O O3 0.248810 0.321957 0.434219
O O4 0.000000 0.383098 0.398657
O O5 0.500000 0.179589 0.089182
O O6 0.766688 0.153553 0.120214
O O7 0.682888 0.319162 0.074341
O O8 0.699259 0.173214 0.000000
O O9 0.757618 0.149548 0.752232
O O10 0.000000 0.140120 0.813013
O O11 0.816305 0.000000 0.820568
O O12 0.858083 0.500000 0.242079
O O13 0.740956 0.351862 0.191861
O O14 0.000000 0.343686 0.234310
O O15 0.500000 0.869516 0.707868
O O16 0.284409 0.842499 0.626671
O O17 0.307807 0.000000 0.683748
O O18 0.500000 0.403843 0.848833
O O19 0.283197 0.500000 0.890514
O O20 0.678425 0.176856 0.500000
O O21 0.500000 0.253232 0.416943
#
# Coordination Sequence:
#
# PCOD8200103 Si02
#       7
#     8   8   8   8   8   8   8
#     4   9  19  35  53  75 107 149 193 232 274 328
#     4  10  22  38  56  82 116 153 190 227 273 330
#     4  10  22  40  62  87 113 142 180 230 284 334
#     4   8  15  29  48  71  99 133 177 227 275 319
#     4   9  19  38  63  87 112 144 181 223 275 338
#     4   9  18  32  51  77 109 145 185 227 270 318
#     4  10  22  37  54  82 116 148 185 230 279 328
#
# _framework density 19.954412999999999
#
# number of rings (size 3 to 8) (size 9 to 14) (size 15 to 20)
#    0.000    2.714    0.000    1.286    2.000    4.571 
#    0.000    7.143    0.000    0.000    0.000    6.000 
#    0.000    0.000    0.000    0.000    0.000    0.000 
#
# Total GULP energy -694150.313440 kJ/mol
# GULP energy per Si atom -12395.541311 kJ/mol
# Density = 1.990900 g / cm^3
# Si number density = 19.954413 Si / 1000 Ang^3
#
#
#
# Elastic Constant Matrix: (Units=GPa)
#
#
# Indices 1 2 3 4 5 6 
#
# 1 79.6609 36.3222 62.8046 0.0000 0.0000 0.0000
# 2 36.3222 53.5508 48.6897 0.0000 0.0000 0.0000
# 3 62.8046 48.6897 140.6368 0.0000 0.0000 0.0000
# 4 0.0000 0.0000 0.0000 26.1094 0.0000 0.0000
# 5 0.0000 0.0000 0.0000 0.0000 7.1684 0.0000
# 6 0.0000 0.0000 0.0000 0.0000 0.0000 22.8841
#
#
#
# Elastic Compliance Matrix: (Units=1/GPa)
#
#
# Indices 1 2 3 4 5 6 
#
# 1 0.021824 -0.008671 -0.006744 0.000000 0.000000 0.000000
# 2 -0.008671 0.030697 -0.006756 0.000000 0.000000 0.000000
# 3 -0.006744 -0.006756 0.012461 0.000000 0.000000 0.000000
# 4 0.000000 0.000000 0.000000 0.038300 0.000000 0.000000
# 5 0.000000 0.000000 0.000000 0.000000 0.139501 0.000000
# 6 0.000000 0.000000 0.000000 0.000000 0.000000 0.043698
#
#
# Mechanical properties :
#
#
# Convention : Reuss Voigt Hill
#
# Bulk Modulus (GPa) = 48.44607 63.27574 55.86091
# Shear Modulus (GPa) = 14.80593 19.63450 17.22022
#
# Velocity S-wave (km/s) = 2.72690 3.14023 2.94084
# Velocity P-wave (km/s) = 5.85198 6.70276 6.29177
#
# Compressibility (1/GPa) = 0.02064151
#
# Stress axis : x y z
#
# Youngs Moduli (GPa) = 45.82183 32.57613 80.24996
#
# Poissons Ratio (x) = 0.28246 0.54121
# Poissons Ratio (y) = 0.39731 0.54214
# Poissons Ratio (z) = 0.30902 0.22007
#
# Static dielectric constant tensor:
#      x y z
#    x 3.703280 0.000000 0.000000 
#    y 0.000000 3.550360 0.000000 
#    z 0.000000 0.000000 3.723480 
# 
# 
# High freq. dielectric constant tensor:
#      x y z
#    x 1.768160 0.000000 0.000000 
#    y 0.000000 1.774660 0.000000 
#    z 0.000000 0.000000 1.776420 
# 
# From -- ./inp_files/7256.got.cif
#   From: 2010.03.12/outbox.cif.g09.slc.cpg/sg47_4_cif.got.tgz:7256.got - 2010.04.14 03:12:58.
