data_PCOD8200904
_publ_section_title
;
Structure prediction by ZEFSAII (Michael W. Deem and Ramdas Pophale) SiO2 
 PCOD8200904
Probable space group: P M M M
;
_chemical_formula_sum "Si O2"
_cell_formula_units_Z 44
_cell_length_a 29.892004
_cell_length_b 7.966688
_cell_length_c 10.140387
_cell_angle_alpha 90.000000
_cell_angle_beta 90.000000
_cell_angle_gamma 90.000000
_cell_volume 2414.834494
_symmetry_space_group_name_H-M "P M M M"
_symmetry_group_IT_number 47
_symmetry_cell_setting 'orthorhombic'
loop_
_space_group_symop_operation_xyz
x,y,z
-x,-y,z
x,-y,-z
-x,y,-z
-x,-y,-z
x,y,-z
-x,y,z
x,-y,z
loop_
_atom_site_type_symbol
_atom_site_label
_atom_site_fract_x
_atom_site_fract_y
_atom_site_fract_z
Si Si1 0.878735 0.800545 0.148321
Si Si2 0.392420 0.312658 0.656731
Si Si3 0.550692 0.000000 0.342646
Si Si4 0.950100 0.800197 0.352538
Si Si5 0.779847 0.196351 0.855630
Si Si6 0.292372 0.696541 0.354137
O O1 0.914483 0.721232 0.250062
O O2 0.828870 0.733113 0.184703
O O3 0.880230 0.000000 0.158985
O O4 0.891227 0.743589 0.000000
O O5 0.395017 0.319836 0.500000
O O6 0.404885 0.500000 0.711633
O O7 0.425652 0.169348 0.712554
O O8 0.342129 0.260489 0.698462
O O9 0.500000 0.000000 0.290806
O O10 0.552735 0.000000 0.500000
O O11 0.937671 0.738927 0.500000
O O12 0.000000 0.737591 0.314978
O O13 0.948818 0.000000 0.347222
O O14 0.743417 0.234914 0.746807
O O15 0.784694 0.000000 0.869949
O O16 0.765891 0.270040 0.000000
O O17 0.284733 0.776503 0.500000
O O18 0.286871 0.500000 0.365836
#
# Coordination Sequence:
#
# PCOD8200904 Si02
#       6
#     8   8   4   8   8   8
#     4   8  14  24  35  49  74 105 136 173 216 263
#     4   8  15  27  40  58  88 120 152 196 239 277
#     4   9  16  24  38  62  89 123 163 193 230 287
#     4   8  13  20  30  46  70 101 137 176 215 257
#     4   9  18  30  43  63  90 117 147 186 230 275
#     4   9  18  31  46  65  88 117 154 190 226 273
#
# _framework density 18.220711000000001
#
# number of rings (size 3 to 8) (size 9 to 14) (size 15 to 20)
#    0.000    3.545    0.000    2.727    1.273    2.182 
#    0.000    5.455    0.000    0.000    0.000    0.000 
#    0.000    2.182    0.000   12.000    0.000   17.091 
#
# Total GULP energy -545115.281733 kJ/mol
# GULP energy per Si atom -12388.983676 kJ/mol
# Density = 1.817924 g / cm^3
# Si number density = 18.220711 Si / 1000 Ang^3
#
#
#
# Elastic Constant Matrix: (Units=GPa)
#
#
# Indices 1 2 3 4 5 6 
#
# 1 151.0239 51.7473 73.3815 0.0000 0.0000 0.0000
# 2 51.7473 46.4287 27.8199 0.0000 0.0000 0.0000
# 3 73.3815 27.8199 78.7038 0.0000 0.0000 0.0000
# 4 0.0000 0.0000 0.0000 5.8149 0.0000 0.0000
# 5 0.0000 0.0000 0.0000 0.0000 1.9428 0.0000
# 6 0.0000 0.0000 0.0000 0.0000 0.0000 -7.5082
#
#
#
# Elastic Compliance Matrix: (Units=1/GPa)
#
#
# Indices 1 2 3 4 5 6 
#
# 1 0.015527 -0.010951 -0.010606 0.000000 0.000000 0.000000
# 2 -0.010951 0.035049 -0.002179 0.000000 0.000000 0.000000
# 3 -0.010606 -0.002179 0.023365 0.000000 0.000000 0.000000
# 4 0.000000 0.000000 0.000000 0.171972 0.000000 0.000000
# 5 0.000000 0.000000 0.000000 0.000000 0.514733 0.000000
# 6 0.000000 0.000000 0.000000 0.000000 0.000000 -0.133188
#
#
# Mechanical properties :
#
#
# Convention : Reuss Voigt Hill
#
# Bulk Modulus (GPa) = 37.77923 64.67265 51.22594
# Shear Modulus (GPa) = 7.31258 8.26374 7.78816
#
# Velocity S-wave (km/s) = 2.00550 2.13195 2.06969
# Velocity P-wave (km/s) = 5.11292 6.45224 5.82122
#
# Compressibility (1/GPa) = 0.02646957
#
# Stress axis : x y z
#
# Youngs Moduli (GPa) = 64.40321 28.53147 42.79865
#
# Poissons Ratio (x) = 0.31244 0.45394
# Poissons Ratio (y) = 0.70525 0.09326
# Poissons Ratio (z) = 0.68309 0.06217
#
# Static dielectric constant tensor:
#      x y z
#    x 4.180890 0.000000 0.000000 
#    y 0.000000 3.193500 0.000000 
#    z 0.000000 0.000000 3.028020 
# 
# 
# High freq. dielectric constant tensor:
#      x y z
#    x 1.708700 0.000000 0.000000 
#    y 0.000000 1.679940 0.000000 
#    z 0.000000 0.000000 1.669460 
# 
# From -- ./inp_files/13544.got.cif
#   From: 2010.03.12/outbox.cif.g09.slc.cpg/sg47_7_cif.got.tgz:13544.got - 2010.04.14 03:12:58.
