data_PCOD8200593
_publ_section_title
;
Structure prediction by ZEFSAII (Michael W. Deem and Ramdas Pophale) SiO2 
 PCOD8200593
Probable space group: P M M M
;
_chemical_formula_sum "Si O2"
_cell_formula_units_Z 36
_cell_length_a 23.182625
_cell_length_b 8.995090
_cell_length_c 9.514320
_cell_angle_alpha 90.000000
_cell_angle_beta 90.000000
_cell_angle_gamma 90.000000
_cell_volume 1984.019231
_symmetry_space_group_name_H-M "P M M M"
_symmetry_group_IT_number 47
_symmetry_cell_setting 'orthorhombic'
loop_
_space_group_symop_operation_xyz
x,y,z
-x,-y,z
x,-y,-z
-x,y,-z
-x,-y,-z
x,y,-z
-x,y,z
x,-y,z
loop_
_atom_site_type_symbol
_atom_site_label
_atom_site_fract_x
_atom_site_fract_y
_atom_site_fract_z
Si Si1 0.000000 0.324431 0.339092
Si Si2 0.331483 0.177701 0.657968
Si Si3 0.772448 0.176474 0.155634
Si Si4 0.097883 0.826560 0.837067
Si Si5 0.436087 0.823230 0.842354
O O1 0.056800 0.266127 0.262760
O O2 0.000000 0.500000 0.330460
O O3 0.000000 0.268792 0.500000
O O4 0.331752 0.239949 0.500000
O O5 0.274282 0.240137 0.734935
O O6 0.388132 0.241191 0.736612
O O7 0.331625 0.000000 0.658927
O O8 0.836913 0.223055 0.200930
O O9 0.768888 0.000000 0.150227
O O10 0.758409 0.239238 0.000000
O O11 0.088254 0.000000 0.806924
O O12 0.084340 0.791719 0.000000
O O13 0.500000 0.769831 0.794684
O O14 0.433700 0.000000 0.841355
O O15 0.422884 0.765852 0.000000
#
# Coordination Sequence:
#
# PCOD8200593 Si02
#       5
#     4   8   8   8   8
#     4  11  24  37  48  68  98 127 152 179 218 270
#     4   9  15  20  28  45  68  93 123 162 207 252
#     4   8  14  25  40  57  77 100 128 167 213 257
#     4   9  18  33  53  74  92 114 150 192 229 267
#     4   8  13  20  28  37  53  84 126 167 206 248
#
# _framework density 18.144984999999998
#
# number of rings (size 3 to 8) (size 9 to 14) (size 15 to 20)
#    0.000    3.222    0.000    3.333    0.000    6.667 
#    0.000    4.444    0.000    0.000    0.000    0.000 
#    0.000    0.000    0.000    0.000    0.000    1.111 
#
# Total GULP energy -446194.611125 kJ/mol
# GULP energy per Si atom -12394.294753 kJ/mol
# Density = 1.810369 g / cm^3
# Si number density = 18.144985 Si / 1000 Ang^3
#
#
#
# Elastic Constant Matrix: (Units=GPa)
#
#
# Indices 1 2 3 4 5 6 
#
# 1 180.3949 21.3780 116.2305 0.0000 0.0000 0.0000
# 2 21.3780 17.5863 23.6013 0.0000 0.0000 0.0000
# 3 116.2305 23.6013 155.3024 0.0000 0.0000 0.0000
# 4 0.0000 0.0000 0.0000 11.3578 0.0000 0.0000
# 5 0.0000 0.0000 0.0000 0.0000 18.4142 0.0000
# 6 0.0000 0.0000 0.0000 0.0000 0.0000 -1.9677
#
#
#
# Elastic Compliance Matrix: (Units=1/GPa)
#
#
# Indices 1 2 3 4 5 6 
#
# 1 0.010820 -0.002871 -0.007662 0.000000 0.000000 0.000000
# 2 -0.002871 0.072192 -0.008822 0.000000 0.000000 0.000000
# 3 -0.007662 -0.008822 0.013514 0.000000 0.000000 0.000000
# 4 0.000000 0.000000 0.000000 0.088045 0.000000 0.000000
# 5 0.000000 0.000000 0.000000 0.000000 0.054306 0.000000
# 6 0.000000 0.000000 0.000000 0.000000 0.000000 -0.508205
#
#
# Mechanical properties :
#
#
# Convention : Reuss Voigt Hill
#
# Bulk Modulus (GPa) = 17.29611 75.07814 46.18712
# Shear Modulus (GPa) = -23.65794 18.36579 -2.64607
#
# Velocity S-wave (km/s) = -3.61477 3.18491 -1.20891
# Velocity P-wave (km/s) = 2.80522 7.41563 4.85398
#
# Compressibility (1/GPa) = 0.05781648
#
# Stress axis : x y z
#
# Youngs Moduli (GPa) = 92.42084 13.85186 73.99821
#
# Poissons Ratio (x) = 0.03977 0.56694
# Poissons Ratio (y) = 0.26533 0.65284
# Poissons Ratio (z) = 0.70809 0.12221
#
# Static dielectric constant tensor:
#      x y z
#    x 3.729370 0.000000 0.000000 
#    y 0.000000 2.565630 0.000000 
#    z 0.000000 0.000000 3.568890 
# 
# 
# High freq. dielectric constant tensor:
#      x y z
#    x 1.723090 0.000000 0.000000 
#    y 0.000000 1.619460 0.000000 
#    z 0.000000 0.000000 1.704480 
# 
# From -- ./inp_files/12055.got.cif
#   From: 2010.03.12/outbox.cif.g09.slc.cpg/sg47_7_cif.got.tgz:12055.got - 2010.04.14 03:12:58.
