data_PCOD8200658
_publ_section_title
;
Structure prediction by ZEFSAII (Michael W. Deem and Ramdas Pophale) SiO2 
 PCOD8200658
Probable space group: P M M M
;
_chemical_formula_sum "Si O2"
_cell_formula_units_Z 32
_cell_length_a 22.318341
_cell_length_b 7.665968
_cell_length_c 9.493924
_cell_angle_alpha 90.000000
_cell_angle_beta 90.000000
_cell_angle_gamma 90.000000
_cell_volume 1624.331482
_symmetry_space_group_name_H-M "P M M M"
_symmetry_group_IT_number 47
_symmetry_cell_setting 'orthorhombic'
loop_
_space_group_symop_operation_xyz
x,y,z
-x,-y,z
x,-y,-z
-x,y,-z
-x,-y,-z
x,y,-z
-x,y,z
x,-y,z
loop_
_atom_site_type_symbol
_atom_site_label
_atom_site_fract_x
_atom_site_fract_y
_atom_site_fract_z
Si Si1 0.365911 0.202358 0.334045
Si Si2 0.000000 0.704448 0.841675
Si Si3 0.873409 0.798140 0.155893
Si Si4 0.231005 0.206218 0.654687
Si Si5 0.570852 0.500000 0.162046
O O1 0.376065 0.237666 0.500000
O O2 0.297657 0.249421 0.290716
O O3 0.407737 0.325473 0.241151
O O4 0.380369 0.000000 0.299496
O O5 0.061593 0.770657 0.768613
O O6 0.000000 0.500000 0.839445
O O7 0.000000 0.782039 0.000000
O O8 0.819795 0.709695 0.244799
O O9 0.858999 0.000000 0.142681
O O10 0.874265 0.711191 0.000000
O O11 0.221936 0.288097 0.500000
O O12 0.223086 0.000000 0.644802
O O13 0.500000 0.500000 0.167120
O O14 0.593641 0.500000 0.000000
#
# Coordination Sequence:
#
# PCOD8200658 Si02
#       5
#     8   4   8   8   4
#     4   9  19  38  63  87 113 150 194 236 278 330
#     4   9  17  29  42  59  90 128 164 207 254 302
#     4   9  16  27  46  69  91 122 166 210 254 310
#     4   8  15  30  52  77 103 129 163 213 270 320
#     4  11  25  41  57  85 123 156 187 228 279 333
#
# _framework density 19.700413000000001
#
# number of rings (size 3 to 8) (size 9 to 14) (size 15 to 20)
#    0.000    3.000    0.000    2.250    0.000    4.500 
#    2.250    5.625    0.000    3.750    0.000    0.000 
#    0.000    0.000    0.000    0.000    0.000    0.000 
#
# Total GULP energy -396528.364882 kJ/mol
# GULP energy per Si atom -12391.511403 kJ/mol
# Density = 1.965557 g / cm^3
# Si number density = 19.700413 Si / 1000 Ang^3
#
#
#
# Elastic Constant Matrix: (Units=GPa)
#
#
# Indices 1 2 3 4 5 6 
#
# 1 132.1030 38.2582 67.7554 0.0000 0.0000 0.0000
# 2 38.2582 67.6756 40.4127 0.0000 0.0000 0.0000
# 3 67.7554 40.4127 90.5152 0.0000 0.0000 0.0000
# 4 0.0000 0.0000 0.0000 16.2356 0.0000 0.0000
# 5 0.0000 0.0000 0.0000 0.0000 23.1739 0.0000
# 6 0.0000 0.0000 0.0000 0.0000 0.0000 -16.4378
#
#
#
# Elastic Compliance Matrix: (Units=1/GPa)
#
#
# Indices 1 2 3 4 5 6 
#
# 1 0.012486 -0.002014 -0.008447 0.000000 0.000000 0.000000
# 2 -0.002014 0.020473 -0.007633 0.000000 0.000000 0.000000
# 3 -0.008447 -0.007633 0.020779 0.000000 0.000000 0.000000
# 4 0.000000 0.000000 0.000000 0.061593 0.000000 0.000000
# 5 0.000000 0.000000 0.000000 0.000000 0.043152 0.000000
# 6 0.000000 0.000000 0.000000 0.000000 0.000000 -0.060835
#
#
# Mechanical properties :
#
#
# Convention : Reuss Voigt Hill
#
# Bulk Modulus (GPa) = 56.98223 64.79405 60.88814
# Shear Modulus (GPa) = 35.79496 14.18551 24.99023
#
# Velocity S-wave (km/s) = 4.26721 2.68631 3.56548
# Velocity P-wave (km/s) = 7.29835 6.52555 6.92274
#
# Compressibility (1/GPa) = 0.01754933
#
# Stress axis : x y z
#
# Youngs Moduli (GPa) = 80.09269 48.84457 48.12636
#
# Poissons Ratio (x) = 0.09839 0.40651
# Poissons Ratio (y) = 0.16133 0.36735
# Poissons Ratio (z) = 0.67652 0.37283
#
# Static dielectric constant tensor:
#      x y z
#    x 3.793220 0.000000 0.000000 
#    y 0.000000 3.253430 0.000000 
#    z 0.000000 0.000000 3.823010 
# 
# 
# High freq. dielectric constant tensor:
#      x y z
#    x 1.777120 0.000000 0.000000 
#    y 0.000000 1.753130 0.000000 
#    z 0.000000 0.000000 1.738250 
# 
# From -- ./inp_files/12017.got.cif
#   From: 2010.03.12/outbox.cif.g09.slc.cpg/sg47_7_cif.got.tgz:12017.got - 2010.04.14 03:12:58.
