data_PCOD8200571
_publ_section_title
;
Structure prediction by ZEFSAII (Michael W. Deem and Ramdas Pophale) SiO2 
 PCOD8200571
Probable space group: P M M M
;
_chemical_formula_sum "Si O2"
_cell_formula_units_Z 44
_cell_length_a 9.005336
_cell_length_b 7.863971
_cell_length_c 29.903943
_cell_angle_alpha 90.000000
_cell_angle_beta 90.000000
_cell_angle_gamma 90.000000
_cell_volume 2117.728499
_symmetry_space_group_name_H-M "P M M M"
_symmetry_group_IT_number 47
_symmetry_cell_setting 'orthorhombic'
loop_
_space_group_symop_operation_xyz
x,y,z
-x,-y,z
x,-y,-z
-x,y,-z
-x,-y,-z
x,y,-z
-x,y,z
x,-y,z
loop_
_atom_site_type_symbol
_atom_site_label
_atom_site_fract_x
_atom_site_fract_y
_atom_site_fract_z
Si Si1 0.672404 0.699802 0.452853
Si Si2 0.667833 0.693474 0.185557
Si Si3 0.832893 0.806033 0.269562
Si Si4 0.329188 0.500000 0.052746
Si Si5 0.327221 0.299153 0.356249
Si Si6 0.172504 0.191978 0.898717
O O1 0.742406 0.774108 0.500000
O O2 0.500000 0.743882 0.453319
O O3 0.696893 0.500000 0.453113
O O4 0.734247 0.767124 0.405068
O O5 0.500000 0.764101 0.186651
O O6 0.670187 0.500000 0.168303
O O7 0.734156 0.698652 0.235275
O O8 0.765350 0.804136 0.151679
O O9 0.767453 0.795682 0.319120
O O10 0.000000 0.733258 0.269557
O O11 0.830963 0.000000 0.253622
O O12 0.500000 0.500000 0.068144
O O13 0.255191 0.672792 0.070261
O O14 0.311902 0.500000 0.000000
O O15 0.500000 0.252036 0.350491
O O16 0.304564 0.500000 0.351402
O O17 0.000000 0.240142 0.897496
O O18 0.196204 0.000000 0.917415
#
# Coordination Sequence:
#
# PCOD8200571 Si02
#       6
#     8   8   8   4   8   8
#     4   7  10  19  39  68  98 124 154 202 265 328
#     4  11  23  39  62  91 120 152 194 244 300 362
#     4  11  24  38  51  72 105 146 190 232 279 339
#     4  11  25  45  69  99 135 177 225 273 320 369
#     4   9  17  30  50  76 102 129 168 218 273 335
#     4  11  24  42  67  99 134 173 216 263 318 378
#
# _framework density 20.776979000000001
#
# number of rings (size 3 to 8) (size 9 to 14) (size 15 to 20)
#    0.000    2.091    0.909    4.636    0.000    9.818 
#    0.000    1.818    0.000    1.091    0.000    6.364 
#    0.000    0.000    0.000    0.000    0.000    0.000 
#
# Total GULP energy -545286.530096 kJ/mol
# GULP energy per Si atom -12392.875684 kJ/mol
# Density = 2.072969 g / cm^3
# Si number density = 20.776979 Si / 1000 Ang^3
#
#
#
# Elastic Constant Matrix: (Units=GPa)
#
#
# Indices 1 2 3 4 5 6 
#
# 1 136.4389 45.4668 63.5711 0.0000 0.0000 0.0000
# 2 45.4668 74.6214 34.1437 0.0000 0.0000 0.0000
# 3 63.5711 34.1437 127.2865 0.0000 0.0000 0.0000
# 4 0.0000 0.0000 0.0000 12.0185 0.0000 0.0000
# 5 0.0000 0.0000 0.0000 0.0000 4.9997 0.0000
# 6 0.0000 0.0000 0.0000 0.0000 0.0000 -5.0298
#
#
#
# Elastic Compliance Matrix: (Units=1/GPa)
#
#
# Indices 1 2 3 4 5 6 
#
# 1 0.010828 -0.004700 -0.004147 0.000000 0.000000 0.000000
# 2 -0.004700 0.017316 -0.002298 0.000000 0.000000 0.000000
# 3 -0.004147 -0.002298 0.010544 0.000000 0.000000 0.000000
# 4 0.000000 0.000000 0.000000 0.083205 0.000000 0.000000
# 5 0.000000 0.000000 0.000000 0.000000 0.200013 0.000000
# 6 0.000000 0.000000 0.000000 0.000000 0.000000 -0.198814
#
#
# Mechanical properties :
#
#
# Convention : Reuss Voigt Hill
#
# Bulk Modulus (GPa) = 60.98138 69.41222 65.19680
# Shear Modulus (GPa) = 33.14650 15.40869 24.27760
#
# Velocity S-wave (km/s) = 3.99851 2.72623 3.42202
# Velocity P-wave (km/s) = 7.12262 6.58715 6.86011
#
# Compressibility (1/GPa) = 0.01639845
#
# Stress axis : x y z
#
# Youngs Moduli (GPa) = 92.35601 57.75047 94.84275
#
# Poissons Ratio (x) = 0.27142 0.39331
# Poissons Ratio (y) = 0.43405 0.21791
# Poissons Ratio (z) = 0.38300 0.13269
#
# Static dielectric constant tensor:
#      x y z
#    x 3.599320 0.000000 0.000000 
#    y 0.000000 3.492850 0.000000 
#    z 0.000000 0.000000 4.049270 
# 
# 
# High freq. dielectric constant tensor:
#      x y z
#    x 1.789020 0.000000 0.000000 
#    y 0.000000 1.796900 0.000000 
#    z 0.000000 0.000000 1.831490 
# 
# From -- ./inp_files/33887.got.cif
#   From: 2010.03.12/outbox.cif.g09.slc.cpg/sg47_17_cif.got.tgz:33887.got - 2010.04.14 03:12:58.
