data_PCOD8200455
_publ_section_title
;
Structure prediction by ZEFSAII (Michael W. Deem and Ramdas Pophale) SiO2 
 PCOD8200455
Probable space group: P M M M
;
_chemical_formula_sum "Si O2"
_cell_formula_units_Z 44
_cell_length_a 18.580156
_cell_length_b 8.977417
_cell_length_c 13.425108
_cell_angle_alpha 90.000000
_cell_angle_beta 90.000000
_cell_angle_gamma 90.000000
_cell_volume 2239.332292
_symmetry_space_group_name_H-M "P M M M"
_symmetry_group_IT_number 47
_symmetry_cell_setting 'orthorhombic'
loop_
_space_group_symop_operation_xyz
x,y,z
-x,-y,z
x,-y,-z
-x,y,-z
-x,-y,-z
x,y,-z
-x,y,z
x,-y,z
loop_
_atom_site_type_symbol
_atom_site_label
_atom_site_fract_x
_atom_site_fract_y
_atom_site_fract_z
Si Si1 0.310153 0.673926 0.726763
Si Si2 0.420292 0.323037 0.889362
Si Si3 0.842515 0.176453 0.704060
Si Si4 0.578379 0.836652 0.384299
Si Si5 0.085097 0.668639 0.888337
Si Si6 0.082040 0.177073 0.500000
O O1 0.292630 0.500000 0.733892
O O2 0.355755 0.737496 0.820707
O O3 0.237211 0.762315 0.713292
O O4 0.362172 0.710121 0.634823
O O5 0.500000 0.266038 0.856478
O O6 0.420043 0.500000 0.884908
O O7 0.403411 0.265654 0.000000
O O8 0.885349 0.225286 0.802359
O O9 0.878694 0.236151 0.600892
O O10 0.840723 0.000000 0.701629
O O11 0.571430 0.853651 0.500000
O O12 0.500000 0.788093 0.341047
O O13 0.600257 0.000000 0.340169
O O14 0.112262 0.500000 0.869021
O O15 0.000000 0.675278 0.883301
O O16 0.110394 0.719085 0.000000
O O17 0.000000 0.237249 0.500000
O O18 0.082400 0.000000 0.500000
#
# Coordination Sequence:
#
# PCOD8200455 Si02
#       6
#     8   8   8   8   8   4
#     4  11  22  34  52  81 114 146 183 233 287 339
#     4   8  15  30  52  76 103 140 186 231 276 328
#     4  11  23  38  58  85 116 154 196 240 291 351
#     4   9  19  36  56  76 102 141 186 230 281 340
#     4   9  19  38  63  89 118 150 184 230 291 354
#     4   9  20  40  63  83 106 143 192 243 291 342
#
# _framework density 19.648713999999998
#
# number of rings (size 3 to 8) (size 9 to 14) (size 15 to 20)
#    0.000    2.455    0.000    3.818    1.273    3.636 
#    0.000    5.000    0.000    4.909    0.000    6.364 
#    0.000    0.000    0.000    0.000    0.000    0.000 
#
# Total GULP energy -545180.608175 kJ/mol
# GULP energy per Si atom -12390.468368 kJ/mol
# Density = 1.960399 g / cm^3
# Si number density = 19.648714 Si / 1000 Ang^3
#
#
#
# Elastic Constant Matrix: (Units=GPa)
#
#
# Indices 1 2 3 4 5 6 
#
# 1 134.7075 36.4328 73.5670 0.0000 0.0000 0.0000
# 2 36.4328 54.7634 41.6593 0.0000 0.0000 0.0000
# 3 73.5670 41.6593 139.4137 0.0000 0.0000 0.0000
# 4 0.0000 0.0000 0.0000 28.3806 0.0000 0.0000
# 5 0.0000 0.0000 0.0000 0.0000 35.4673 0.0000
# 6 0.0000 0.0000 0.0000 0.0000 0.0000 34.8942
#
#
#
# Elastic Compliance Matrix: (Units=1/GPa)
#
#
# Indices 1 2 3 4 5 6 
#
# 1 0.010995 -0.003754 -0.004680 0.000000 0.000000 0.000000
# 2 -0.003754 0.024914 -0.005464 0.000000 0.000000 0.000000
# 3 -0.004680 -0.005464 0.011275 0.000000 0.000000 0.000000
# 4 0.000000 0.000000 0.000000 0.035235 0.000000 0.000000
# 5 0.000000 0.000000 0.000000 0.000000 0.028195 0.000000
# 6 0.000000 0.000000 0.000000 0.000000 0.000000 0.028658
#
#
# Mechanical properties :
#
#
# Convention : Reuss Voigt Hill
#
# Bulk Modulus (GPa) = 51.57791 70.24475 60.91133
# Shear Modulus (GPa) = 28.81324 31.56347 30.18835
#
# Velocity S-wave (km/s) = 3.83354 4.01233 3.92395
# Velocity P-wave (km/s) = 6.77508 7.56921 7.18313
#
# Compressibility (1/GPa) = 0.01938815
#
# Stress axis : x y z
#
# Youngs Moduli (GPa) = 90.95278 40.13734 88.69127
#
# Poissons Ratio (x) = 0.15069 0.41506
# Poissons Ratio (y) = 0.34148 0.48458
# Poissons Ratio (z) = 0.42565 0.21930
#
# Static dielectric constant tensor:
#      x y z
#    x 3.560850 0.000000 0.000000 
#    y 0.000000 3.438790 0.000000 
#    z 0.000000 0.000000 3.972570 
# 
# 
# High freq. dielectric constant tensor:
#      x y z
#    x 1.770310 0.000000 0.000000 
#    y 0.000000 1.737490 0.000000 
#    z 0.000000 0.000000 1.776000 
# 
# From -- ./inp_files/24305.got.cif
#   From: 2010.03.12/outbox.cif.g09.slc.cpg/sg47_13_cif.got.tgz:24305.got - 2010.04.14 03:12:58.
