data_PCOD8200227
_publ_section_title
;
Structure prediction by ZEFSAII (Michael W. Deem and Ramdas Pophale) SiO2 
 PCOD8200227
Probable space group: P M M M
;
_chemical_formula_sum "Si O2"
_cell_formula_units_Z 40
_cell_length_a 9.149526
_cell_length_b 20.909609
_cell_length_c 14.135712
_cell_angle_alpha 90.000000
_cell_angle_beta 90.000000
_cell_angle_gamma 90.000000
_cell_volume 2704.345628
_symmetry_space_group_name_H-M "P M M M"
_symmetry_group_IT_number 47
_symmetry_cell_setting 'orthorhombic'
loop_
_space_group_symop_operation_xyz
x,y,z
-x,-y,z
x,-y,-z
-x,y,-z
-x,-y,-z
x,y,-z
-x,y,z
x,-y,z
loop_
_atom_site_type_symbol
_atom_site_label
_atom_site_fract_x
_atom_site_fract_y
_atom_site_fract_z
Si Si1 0.326575 0.115474 0.715210
Si Si2 0.167171 0.074811 0.107394
Si Si3 0.836678 0.500000 0.612980
Si Si4 0.662595 0.621068 0.612663
Si Si5 0.673550 0.239551 0.395029
Si Si6 0.829721 0.000000 0.388247
O O1 0.500000 0.105162 0.708436
O O2 0.275232 0.113104 0.823886
O O3 0.275866 0.184271 0.676043
O O4 0.246525 0.062363 0.653386
O O5 0.000000 0.095390 0.125695
O O6 0.185551 0.000000 0.128277
O O7 0.212692 0.090709 0.000000
O O8 0.831398 0.500000 0.500000
O O9 0.760596 0.563798 0.653811
O O10 0.000000 0.500000 0.651933
O O11 0.657067 0.617983 0.500000
O O12 0.500000 0.611807 0.654170
O O13 0.728286 0.690735 0.641934
O O14 0.736861 0.224908 0.500000
O O15 0.500000 0.242662 0.401563
O O16 0.807997 0.000000 0.500000
O O17 0.000000 0.000000 0.359335
#
# Coordination Sequence:
#
# PCOD8200227 Si02
#       6
#     8   8   4   8   8   4
#     4  11  20  30  47  68  85 104 134 178 221 251
#     4   9  18  33  50  64  82 108 134 165 209 261
#     4   9  15  21  31  51  77  99 126 171 212 231
#     4   8  13  23  38  52  69 101 140 167 191 234
#     4   8  15  27  41  58  82 110 139 170 204 243
#     4  11  23  35  44  57  82 115 147 174 202 245
#
# _framework density 14.791009000000001
#
# number of rings (size 3 to 8) (size 9 to 14) (size 15 to 20)
#    0.000    2.800    1.000    3.600    0.000    3.200 
#    0.000    3.000    0.000    4.800    0.000    0.000 
#    0.000    0.000    0.000    0.900    0.000   18.900 
#
# Total GULP energy -495794.377358 kJ/mol
# GULP energy per Si atom -12394.859434 kJ/mol
# Density = 1.475734 g / cm^3
# Si number density = 14.791009 Si / 1000 Ang^3
#
#
#
# Elastic Constant Matrix: (Units=GPa)
#
#
# Indices 1 2 3 4 5 6 
#
# 1 76.9969 55.6803 34.2062 0.0000 0.0000 0.0000
# 2 55.6803 138.3873 47.7331 0.0000 0.0000 0.0000
# 3 34.2062 47.7331 66.3832 0.0000 0.0000 0.0000
# 4 0.0000 0.0000 0.0000 5.1732 0.0000 0.0000
# 5 0.0000 0.0000 0.0000 0.0000 19.1676 0.0000
# 6 0.0000 0.0000 0.0000 0.0000 0.0000 3.7295
#
#
#
# Elastic Compliance Matrix: (Units=1/GPa)
#
#
# Indices 1 2 3 4 5 6 
#
# 1 0.019966 -0.005964 -0.006000 0.000000 0.000000 0.000000
# 2 -0.005964 0.011391 -0.005118 0.000000 0.000000 0.000000
# 3 -0.006000 -0.005118 0.021835 0.000000 0.000000 0.000000
# 4 0.000000 0.000000 0.000000 0.193302 0.000000 0.000000
# 5 0.000000 0.000000 0.000000 0.000000 0.052171 0.000000
# 6 0.000000 0.000000 0.000000 0.000000 0.000000 0.268131
#
#
# Mechanical properties :
#
#
# Convention : Reuss Voigt Hill
#
# Bulk Modulus (GPa) = 52.54925 61.88961 57.21943
# Shear Modulus (GPa) = 8.23315 15.22392 11.72854
#
# Velocity S-wave (km/s) = 2.36186 3.21170 2.81899
# Velocity P-wave (km/s) = 6.56070 7.46237 7.02601
#
# Compressibility (1/GPa) = 0.01902977
#
# Stress axis : x y z
#
# Youngs Moduli (GPa) = 50.08608 87.79030 45.79717
#
# Poissons Ratio (x) = 0.52356 0.27477
# Poissons Ratio (y) = 0.29870 0.23437
# Poissons Ratio (z) = 0.30050 0.44927
#
# Static dielectric constant tensor:
#      x y z
#    x 2.830380 0.000000 0.000000 
#    y 0.000000 3.146160 0.000000 
#    z 0.000000 0.000000 2.627710 
# 
# 
# High freq. dielectric constant tensor:
#      x y z
#    x 1.558950 0.000000 0.000000 
#    y 0.000000 1.565780 0.000000 
#    z 0.000000 0.000000 1.521050 
# 
# From -- ./inp_files/6637.got.cif
#   From: 2010.03.12/outbox.cif.g09.slc.cpg/sg47_4_cif.got.tgz:6637.got - 2010.04.14 03:12:58.
