data_PCOD8200636
_publ_section_title
;
Structure prediction by ZEFSAII (Michael W. Deem and Ramdas Pophale) SiO2 
 PCOD8200636
Probable space group: P M M M
;
_chemical_formula_sum "Si O2"
_cell_formula_units_Z 52
_cell_length_a 8.921298
_cell_length_b 23.265752
_cell_length_c 14.252231
_cell_angle_alpha 90.000000
_cell_angle_beta 90.000000
_cell_angle_gamma 90.000000
_cell_volume 2958.203140
_symmetry_space_group_name_H-M "P M M M"
_symmetry_group_IT_number 47
_symmetry_cell_setting 'orthorhombic'
loop_
_space_group_symop_operation_xyz
x,y,z
-x,-y,z
x,-y,-z
-x,y,-z
-x,-y,-z
x,y,-z
-x,y,z
x,-y,z
loop_
_atom_site_type_symbol
_atom_site_label
_atom_site_fract_x
_atom_site_fract_y
_atom_site_fract_z
Si Si1 0.328616 0.065160 0.714730
Si Si2 0.824348 0.166056 0.608926
Si Si3 0.171717 0.101538 0.105804
Si Si4 0.323579 0.727988 0.285775
Si Si5 0.171630 0.236185 0.105977
Si Si6 0.836693 0.500000 0.389259
Si Si7 0.821643 0.624381 0.392041
O O1 0.500000 0.085965 0.708668
O O2 0.227657 0.105068 0.649219
O O3 0.276610 0.067438 0.822784
O O4 0.311793 0.000000 0.678393
O O5 0.783004 0.168678 0.500000
O O6 0.743778 0.217912 0.660499
O O7 0.000000 0.172578 0.626807
O O8 0.189982 0.168852 0.125245
O O9 0.000000 0.082910 0.121439
O O10 0.222043 0.086320 0.000000
O O11 0.500000 0.729742 0.296257
O O12 0.278236 0.729420 0.176538
O O13 0.262037 0.669276 0.327518
O O14 0.000000 0.254566 0.122944
O O15 0.220723 0.251306 0.000000
O O16 0.859468 0.500000 0.500000
O O17 0.757867 0.560652 0.362331
O O18 0.000000 0.500000 0.341142
O O19 0.782555 0.638056 0.500000
O O20 0.000000 0.627751 0.376742
#
# Coordination Sequence:
#
# PCOD8200636 Si02
#       7
#     8   8   8   8   8   4   8
#     4  11  24  39  55  78 106 134 165 206 260 319
#     4  11  24  41  59  76  97 131 176 221 260 301
#     4   9  18  34  57  81 103 131 168 209 253 304
#     4  12  23  33  51  81 113 141 170 209 260 315
#     4   9  18  34  56  79 103 133 170 212 257 306
#     4   7  12  26  49  75 102 137 184 229 259 288
#     4   9  17  31  52  77 107 145 186 223 257 297
#
# _framework density 17.578237999999999
#
# number of rings (size 3 to 8) (size 9 to 14) (size 15 to 20)
#    0.000    2.077    1.538    4.615    0.000    5.846 
#    0.000    5.000    0.000    1.385    0.000    0.538 
#    0.000    4.308    0.000    0.000    0.000    0.000 
#
# Total GULP energy -644689.283610 kJ/mol
# GULP energy per Si atom -12397.870839 kJ/mol
# Density = 1.753823 g / cm^3
# Si number density = 17.578238 Si / 1000 Ang^3
#
#
#
# Elastic Constant Matrix: (Units=GPa)
#
#
# Indices 1 2 3 4 5 6 
#
# 1 70.8648 42.6014 47.4089 0.0000 0.0000 0.0000
# 2 42.6014 109.6630 53.9404 0.0000 0.0000 0.0000
# 3 47.4089 53.9404 96.6835 0.0000 0.0000 0.0000
# 4 0.0000 0.0000 0.0000 23.0786 0.0000 0.0000
# 5 0.0000 0.0000 0.0000 0.0000 4.1298 0.0000
# 6 0.0000 0.0000 0.0000 0.0000 0.0000 3.0803
#
#
#
# Elastic Compliance Matrix: (Units=1/GPa)
#
#
# Indices 1 2 3 4 5 6 
#
# 1 0.022553 -0.004578 -0.008505 0.000000 0.000000 0.000000
# 2 -0.004578 0.013497 -0.005285 0.000000 0.000000 0.000000
# 3 -0.008505 -0.005285 0.017462 0.000000 0.000000 0.000000
# 4 0.000000 0.000000 0.000000 0.043330 0.000000 0.000000
# 5 0.000000 0.000000 0.000000 0.000000 0.242145 0.000000
# 6 0.000000 0.000000 0.000000 0.000000 0.000000 0.324649
#
#
# Mechanical properties :
#
#
# Convention : Reuss Voigt Hill
#
# Bulk Modulus (GPa) = 59.60888 62.79030 61.19959
# Shear Modulus (GPa) = 7.08251 14.94175 11.01213
#
# Velocity S-wave (km/s) = 2.00945 2.91866 2.50564
# Velocity P-wave (km/s) = 6.27440 6.86703 6.57739
#
# Compressibility (1/GPa) = 0.01677602
#
# Stress axis : x y z
#
# Youngs Moduli (GPa) = 44.33912 74.09079 57.26690
#
# Poissons Ratio (x) = 0.33919 0.48705
# Poissons Ratio (y) = 0.20299 0.30267
# Poissons Ratio (z) = 0.37710 0.39158
#
# Static dielectric constant tensor:
#      x y z
#    x 3.170420 0.000000 0.000000 
#    y 0.000000 3.373910 0.000000 
#    z 0.000000 0.000000 3.304990 
# 
# 
# High freq. dielectric constant tensor:
#      x y z
#    x 1.670670 0.000000 0.000000 
#    y 0.000000 1.672270 0.000000 
#    z 0.000000 0.000000 1.672550 
# 
# From -- ./inp_files/21438.got.cif
#   From: 2010.03.12/outbox.cif.g09.slc.cpg/sg47_11_cif.got.tgz:21438.got - 2010.04.14 03:12:58.
