data_PCOD8200002
_publ_section_title
;
Structure prediction by ZEFSAII (Michael W. Deem and Ramdas Pophale) SiO2 
 PCOD8200002
Probable space group: P M M M
;
_chemical_formula_sum "Si O2"
_cell_formula_units_Z 44
_cell_length_a 8.873750
_cell_length_b 27.885178
_cell_length_c 9.098501
_cell_angle_alpha 90.000000
_cell_angle_beta 90.000000
_cell_angle_gamma 90.000000
_cell_volume 2251.388573
_symmetry_space_group_name_H-M "P M M M"
_symmetry_group_IT_number 47
_symmetry_cell_setting 'orthorhombic'
loop_
_space_group_symop_operation_xyz
x,y,z
-x,-y,z
x,-y,-z
-x,y,-z
-x,-y,-z
x,y,-z
-x,y,z
x,-y,z
loop_
_atom_site_type_symbol
_atom_site_label
_atom_site_fract_x
_atom_site_fract_y
_atom_site_fract_z
Si Si1 0.675923 0.313275 0.331332
Si Si2 0.671958 0.500000 0.173419
Si Si3 0.673999 0.861101 0.672026
Si Si4 0.826178 0.773697 0.828055
Si Si5 0.176973 0.412094 0.330962
Si Si6 0.826539 0.055265 0.169498
O O1 0.716146 0.301070 0.500000
O O2 0.500000 0.322207 0.310351
O O3 0.726387 0.269618 0.231036
O O4 0.761116 0.360902 0.278242
O O5 0.500000 0.500000 0.226421
O O6 0.751206 0.547177 0.232616
O O7 0.686335 0.500000 0.000000
O O8 0.705304 0.857796 0.500000
O O9 0.500000 0.850758 0.708528
O O10 0.777988 0.822802 0.752576
O O11 0.717926 0.913759 0.727957
O O12 0.000000 0.763368 0.791522
O O13 0.797564 0.779101 0.000000
O O14 0.220917 0.421606 0.500000
O O15 0.000000 0.412757 0.306843
O O16 0.000000 0.066603 0.207292
O O17 0.789674 0.000000 0.201775
O O18 0.794120 0.067674 0.000000
#
# Coordination Sequence:
#
# PCOD8200002 Si02
#       6
#     8   4   8   8   8   8
#     4  10  21  38  61  88 116 147 185 229 278 333
#     4  11  24  39  56  82 116 153 192 235 284 334
#     4  11  24  39  56  82 115 149 187 232 280 331
#     4  11  24  40  59  84 113 147 188 232 279 333
#     4  10  21  38  61  87 114 148 190 233 280 335
#     4   9  19  37  60  85 113 146 186 231 278 331
#
# _framework density 19.543493999999999
#
# number of rings (size 3 to 8) (size 9 to 14) (size 15 to 20)
#    0.000    1.727    0.000    4.364    0.000   13.091 
#    0.000    2.727    0.000    0.000    0.000    0.000 
#    0.000    0.000    0.000    0.000    0.000    0.000 
#
# Total GULP energy -545871.896687 kJ/mol
# GULP energy per Si atom -12406.179470 kJ/mol
# Density = 1.949901 g / cm^3
# Si number density = 19.543494 Si / 1000 Ang^3
#
#
#
# Elastic Constant Matrix: (Units=GPa)
#
#
# Indices 1 2 3 4 5 6 
#
# 1 73.3045 37.9063 45.1152 0.0000 0.0000 0.0000
# 2 37.9063 113.8981 47.6974 0.0000 0.0000 0.0000
# 3 45.1152 47.6974 77.4125 0.0000 0.0000 0.0000
# 4 0.0000 0.0000 0.0000 18.2803 0.0000 0.0000
# 5 0.0000 0.0000 0.0000 0.0000 33.7690 0.0000
# 6 0.0000 0.0000 0.0000 0.0000 0.0000 42.1264
#
#
#
# Elastic Compliance Matrix: (Units=1/GPa)
#
#
# Indices 1 2 3 4 5 6 
#
# 1 0.021833 -0.002612 -0.011115 0.000000 0.000000 0.000000
# 2 -0.002612 0.012145 -0.005961 0.000000 0.000000 0.000000
# 3 -0.011115 -0.005961 0.023068 0.000000 0.000000 0.000000
# 4 0.000000 0.000000 0.000000 0.054704 0.000000 0.000000
# 5 0.000000 0.000000 0.000000 0.000000 0.029613 0.000000
# 6 0.000000 0.000000 0.000000 0.000000 0.000000 0.023738
#
#
# Mechanical properties :
#
#
# Convention : Reuss Voigt Hill
#
# Bulk Modulus (GPa) = 56.58927 58.45033 57.51980
# Shear Modulus (GPa) = 23.76795 27.76154 25.76475
#
# Velocity S-wave (km/s) = 3.49113 3.77304 3.63482
# Velocity P-wave (km/s) = 6.72823 6.99670 6.86378
#
# Compressibility (1/GPa) = 0.01767119
#
# Stress axis : x y z
#
# Youngs Moduli (GPa) = 45.80266 82.33592 43.34925
#
# Poissons Ratio (x) = 0.21503 0.48182
# Poissons Ratio (y) = 0.11962 0.25842
# Poissons Ratio (z) = 0.50909 0.49083
#
# Static dielectric constant tensor:
#      x y z
#    x 3.663200 0.000000 0.000000 
#    y 0.000000 3.633030 0.000000 
#    z 0.000000 0.000000 3.546450 
# 
# 
# High freq. dielectric constant tensor:
#      x y z
#    x 1.772820 0.000000 0.000000 
#    y 0.000000 1.775870 0.000000 
#    z 0.000000 0.000000 1.759710 
# 
# From -- ./inp_files/1970.got.cif
#   From: 2010.03.12/outbox.cif.g09.slc.cpg/sg47_1_cif.got.tgz:1970.got - 2010.04.14 03:12:58.
