data_PCOD8200222
_publ_section_title
;
Structure prediction by ZEFSAII (Michael W. Deem and Ramdas Pophale) SiO2 
 PCOD8200222
Probable space group: P M M M
;
_chemical_formula_sum "Si O2"
_cell_formula_units_Z 40
_cell_length_a 12.527929
_cell_length_b 9.322469
_cell_length_c 22.092674
_cell_angle_alpha 90.000000
_cell_angle_beta 90.000000
_cell_angle_gamma 90.000000
_cell_volume 2580.230565
_symmetry_space_group_name_H-M "P M M M"
_symmetry_group_IT_number 47
_symmetry_cell_setting 'orthorhombic'
loop_
_space_group_symop_operation_xyz
x,y,z
-x,-y,z
x,-y,-z
-x,y,-z
-x,-y,-z
x,y,-z
-x,y,z
x,-y,z
loop_
_atom_site_type_symbol
_atom_site_label
_atom_site_fract_x
_atom_site_fract_y
_atom_site_fract_z
Si Si1 0.500000 0.829871 0.932249
Si Si2 0.704890 0.829410 0.857846
Si Si3 0.372456 0.160308 0.500000
Si Si4 0.626896 0.341136 0.611725
Si Si5 0.876029 0.663702 0.930303
Si Si6 0.623390 0.331633 0.253186
O O1 0.604830 0.774994 0.897633
O O2 0.500000 0.000000 0.935022
O O3 0.500000 0.764991 0.000000
O O4 0.812343 0.773615 0.888546
O O5 0.695953 0.761705 0.791347
O O6 0.709085 0.000000 0.852425
O O7 0.500000 0.163637 0.500000
O O8 0.327009 0.236205 0.439662
O O9 0.327798 0.000000 0.500000
O O10 0.500000 0.345970 0.608932
O O11 0.672107 0.500000 0.598671
O O12 0.660993 0.290457 0.678841
O O13 0.842303 0.500000 0.916158
O O14 0.000000 0.685984 0.915962
O O15 0.851772 0.700340 0.000000
O O16 0.500000 0.289664 0.243516
O O17 0.640512 0.500000 0.241209
#
# Coordination Sequence:
#
# PCOD8200222 Si02
#       6
#     4   8   4   8   8   8
#     4   9  18  30  41  59  89 118 141 170 213 261
#     4  11  20  30  46  67  92 119 145 179 222 268
#     4   9  15  21  31  51  75 101 136 181 222 253
#     4   8  14  24  37  51  71 105 145 181 214 250
#     4   9  19  36  54  69  86 110 143 184 227 269
#     4   9  17  29  43  59  83 116 152 185 216 258
#
# _framework density 15.502490999999999
#
# number of rings (size 3 to 8) (size 9 to 14) (size 15 to 20)
#    0.000    2.800    1.000    3.300    0.000    3.600 
#    0.000    3.000    0.000    2.400    0.000    0.000 
#    0.000    0.000    0.000    0.900    0.000   17.500 
#
# Total GULP energy -495914.492729 kJ/mol
# GULP energy per Si atom -12397.862318 kJ/mol
# Density = 1.546721 g / cm^3
# Si number density = 15.502491 Si / 1000 Ang^3
#
#
#
# Elastic Constant Matrix: (Units=GPa)
#
#
# Indices 1 2 3 4 5 6 
#
# 1 44.0191 31.2995 37.5043 0.0000 0.0000 0.0000
# 2 31.2995 86.7006 70.7163 0.0000 0.0000 0.0000
# 3 37.5043 70.7163 138.0963 0.0000 0.0000 0.0000
# 4 0.0000 0.0000 0.0000 23.2890 0.0000 0.0000
# 5 0.0000 0.0000 0.0000 0.0000 12.5792 0.0000
# 6 0.0000 0.0000 0.0000 0.0000 0.0000 18.6612
#
#
#
# Elastic Compliance Matrix: (Units=1/GPa)
#
#
# Indices 1 2 3 4 5 6 
#
# 1 0.032324 -0.007743 -0.004814 0.000000 0.000000 0.000000
# 2 -0.007743 0.021661 -0.008989 0.000000 0.000000 0.000000
# 3 -0.004814 -0.008989 0.013152 0.000000 0.000000 0.000000
# 4 0.000000 0.000000 0.000000 0.042939 0.000000 0.000000
# 5 0.000000 0.000000 0.000000 0.000000 0.079496 0.000000
# 6 0.000000 0.000000 0.000000 0.000000 0.000000 0.053587
#
#
# Mechanical properties :
#
#
# Convention : Reuss Voigt Hill
#
# Bulk Modulus (GPa) = 41.58825 60.87292 51.23058
# Shear Modulus (GPa) = 16.99135 19.52560 18.25847
#
# Velocity S-wave (km/s) = 3.31424 3.55281 3.43560
# Velocity P-wave (km/s) = 6.44443 7.49545 6.98972
#
# Compressibility (1/GPa) = 0.02404525
#
# Stress axis : x y z
#
# Youngs Moduli (GPa) = 30.93650 46.16495 76.03449
#
# Poissons Ratio (x) = 0.35746 0.36599
# Poissons Ratio (y) = 0.23955 0.68351
# Poissons Ratio (z) = 0.14891 0.41500
#
# Static dielectric constant tensor:
#      x y z
#    x 2.506720 0.000000 0.000000 
#    y 0.000000 2.943610 0.000000 
#    z 0.000000 0.000000 3.139680 
# 
# 
# High freq. dielectric constant tensor:
#      x y z
#    x 1.535510 0.000000 0.000000 
#    y 0.000000 1.593560 0.000000 
#    z 0.000000 0.000000 1.604490 
# 
# From -- ./inp_files/30340.got.cif
#   From: 2010.03.12/outbox.cif.g09.slc.cpg/sg47_16_cif.got.tgz:30340.got - 2010.04.14 03:12:58.
