data_PCOD8200096
_publ_section_title
;
Structure prediction by ZEFSAII (Michael W. Deem and Ramdas Pophale) SiO2 
 PCOD8200096
Probable space group: P M M M
;
_chemical_formula_sum "Si O2"
_cell_formula_units_Z 44
_cell_length_a 10.245076
_cell_length_b 24.170619
_cell_length_c 9.606593
_cell_angle_alpha 90.000000
_cell_angle_beta 90.000000
_cell_angle_gamma 90.000000
_cell_volume 2378.878978
_symmetry_space_group_name_H-M "P M M M"
_symmetry_group_IT_number 47
_symmetry_cell_setting 'orthorhombic'
loop_
_space_group_symop_operation_xyz
x,y,z
-x,-y,z
x,-y,-z
-x,y,-z
-x,-y,-z
x,y,-z
-x,y,z
x,-y,z
loop_
_atom_site_type_symbol
_atom_site_label
_atom_site_fract_x
_atom_site_fract_y
_atom_site_fract_z
Si Si1 0.648136 0.366565 0.661941
Si Si2 0.144217 0.174006 0.158984
Si Si3 0.648184 0.238664 0.338733
Si Si4 0.500000 0.065303 0.654675
Si Si5 0.851633 0.564319 0.161064
Si Si6 0.262421 0.937902 0.842482
O O1 0.675682 0.376830 0.500000
O O2 0.500000 0.384742 0.698666
O O3 0.667539 0.302589 0.700285
O O4 0.750258 0.401650 0.748644
O O5 0.252481 0.202584 0.251430
O O6 0.147810 0.107000 0.172328
O O7 0.000000 0.192790 0.207299
O O8 0.169373 0.191814 0.000000
O O9 0.678531 0.228945 0.500000
O O10 0.500000 0.220103 0.304231
O O11 0.500000 0.092350 0.500000
O O12 0.626619 0.084184 0.738689
O O13 0.500000 0.000000 0.642569
O O14 0.829237 0.500000 0.191910
O O15 0.000000 0.581004 0.200819
O O16 0.825760 0.577579 0.000000
O O17 0.212901 0.000000 0.803175
O O18 0.318227 0.938393 0.000000
#
# Coordination Sequence:
#
# PCOD8200096 Si02
#       6
#     8   8   8   4   8   8
#     4   9  19  36  56  79 107 138 177 224 269 314
#     4  10  22  37  53  78 108 136 172 217 263 315
#     4   9  20  39  59  78 103 138 178 219 266 318
#     4   9  17  29  47  73 101 127 161 205 248 295
#     4   9  19  35  53  77 112 150 184 218 259 309
#     4   9  18  33  52  73 101 136 170 207 256 313
#
# _framework density 18.496106999999999
#
# number of rings (size 3 to 8) (size 9 to 14) (size 15 to 20)
#    0.000    2.818    0.000    1.909    1.273    5.818 
#    0.000   10.000    0.000    0.000    0.000    3.818 
#    0.000    0.000    0.000    0.000    0.000    0.000 
#
# Total GULP energy -545413.206024 kJ/mol
# GULP energy per Si atom -12395.754682 kJ/mol
# Density = 1.845401 g / cm^3
# Si number density = 18.496107 Si / 1000 Ang^3
#
#
#
# Elastic Constant Matrix: (Units=GPa)
#
#
# Indices 1 2 3 4 5 6 
#
# 1 139.4946 76.3962 75.0599 0.0000 0.0000 0.0000
# 2 76.3962 84.6746 55.6493 0.0000 0.0000 0.0000
# 3 75.0599 55.6493 89.8881 0.0000 0.0000 0.0000
# 4 0.0000 0.0000 0.0000 55.5887 0.0000 0.0000
# 5 0.0000 0.0000 0.0000 0.0000 28.5070 0.0000
# 6 0.0000 0.0000 0.0000 0.0000 0.0000 23.9658
#
#
#
# Elastic Compliance Matrix: (Units=1/GPa)
#
#
# Indices 1 2 3 4 5 6 
#
# 1 0.016954 -0.010103 -0.007903 0.000000 0.000000 0.000000
# 2 -0.010103 0.025931 -0.007618 0.000000 0.000000 0.000000
# 3 -0.007903 -0.007618 0.022440 0.000000 0.000000 0.000000
# 4 0.000000 0.000000 0.000000 0.017989 0.000000 0.000000
# 5 0.000000 0.000000 0.000000 0.000000 0.035079 0.000000
# 6 0.000000 0.000000 0.000000 0.000000 0.000000 0.041726
#
#
# Mechanical properties :
#
#
# Convention : Reuss Voigt Hill
#
# Bulk Modulus (GPa) = 71.02748 80.91869 75.97308
# Shear Modulus (GPa) = 23.14177 28.74244 25.94211
#
# Velocity S-wave (km/s) = 3.54103 3.94632 3.74915
# Velocity P-wave (km/s) = 7.42988 8.03795 7.73989
#
# Compressibility (1/GPa) = 0.01407906
#
# Stress axis : x y z
#
# Youngs Moduli (GPa) = 58.98361 38.56317 44.56286
#
# Poissons Ratio (x) = 0.38959 0.35216
# Poissons Ratio (y) = 0.59589 0.33948
# Poissons Ratio (z) = 0.46613 0.29377
#
# Static dielectric constant tensor:
#      x y z
#    x 3.323860 0.000000 0.000000 
#    y 0.000000 3.345300 0.000000 
#    z 0.000000 0.000000 3.425170 
# 
# 
# High freq. dielectric constant tensor:
#      x y z
#    x 1.713120 0.000000 0.000000 
#    y 0.000000 1.717040 0.000000 
#    z 0.000000 0.000000 1.714370 
# 
# From -- ./inp_files/15288.got.cif
#   From: 2010.03.12/outbox.cif.g09.slc.cpg/sg47_8_cif.got.tgz:15288.got - 2010.04.14 03:12:58.
