data_PCOD8200495
_publ_section_title
;
Structure prediction by ZEFSAII (Michael W. Deem and Ramdas Pophale) SiO2 
 PCOD8200495
Probable space group: P M M M
;
_chemical_formula_sum "Si O2"
_cell_formula_units_Z 52
_cell_length_a 9.144482
_cell_length_b 10.203886
_cell_length_c 30.450054
_cell_angle_alpha 90.000000
_cell_angle_beta 90.000000
_cell_angle_gamma 90.000000
_cell_volume 2841.271758
_symmetry_space_group_name_H-M "P M M M"
_symmetry_group_IT_number 47
_symmetry_cell_setting 'orthorhombic'
loop_
_space_group_symop_operation_xyz
x,y,z
-x,-y,z
x,-y,-z
-x,y,-z
-x,-y,-z
x,y,-z
-x,y,z
x,-y,z
loop_
_atom_site_type_symbol
_atom_site_label
_atom_site_fract_x
_atom_site_fract_y
_atom_site_fract_z
Si Si1 0.669598 0.000000 0.447849
Si Si2 0.174574 0.745998 0.580593
Si Si3 0.827501 0.149066 0.925060
Si Si4 0.670775 0.851018 0.165551
Si Si5 0.173561 0.652014 0.000000
Si Si6 0.161882 0.345619 0.675067
Si Si7 0.342430 0.643619 0.500000
Si Si8 0.672258 0.350061 0.760533
O O1 0.754812 0.885087 0.425062
O O2 0.500000 0.000000 0.435118
O O3 0.694798 0.000000 0.500000
O O4 0.226356 0.696354 0.628171
O O5 0.243503 0.658450 0.542703
O O6 0.000000 0.746582 0.575781
O O7 0.753966 0.181566 0.879011
O O8 0.771693 0.262236 0.958349
O O9 0.000000 0.158914 0.919224
O O10 0.786176 0.000000 0.940822
O O11 0.500000 0.831125 0.156645
O O12 0.728504 0.747479 0.201527
O O13 0.703652 0.000000 0.181273
O O14 0.234491 0.500000 0.000000
O O15 0.000000 0.645384 0.000000
O O16 0.154230 0.500000 0.675837
O O17 0.262561 0.296328 0.714853
O O18 0.000000 0.285321 0.681432
O O19 0.402438 0.500000 0.500000
O O20 0.500000 0.727889 0.500000
O O21 0.500000 0.342235 0.755769
O O22 0.722136 0.500000 0.770925
#
# Coordination Sequence:
#
# PCOD8200495 Si02
#       8
#     4   8   8   8   4   8   4   8
#     4  11  23  39  57  77 106 138 172 210 252 303
#     4  11  22  37  58  79 104 136 172 210 254 306
#     4   9  17  30  49  71  96 130 171 209 250 300
#     4   9  18  33  51  72 101 133 168 211 256 303
#     4   9  17  29  46  71 102 132 166 211 256 298
#     4   9  19  36  56  79 106 133 164 206 253 301
#     4  11  23  36  53  80 109 135 169 213 256 301
#     4   9  18  33  53  75 100 133 170 206 251 307
#
# _framework density 18.301663999999999
#
# number of rings (size 3 to 8) (size 9 to 14) (size 15 to 20)
#    0.000    2.385    0.769    1.615    0.000    4.923 
#    1.385    1.923    0.000    2.308    0.000    0.000 
#    0.000    0.000    0.000    0.000    0.000    0.000 
#
# Total GULP energy -644386.859666 kJ/mol
# GULP energy per Si atom -12392.054994 kJ/mol
# Density = 1.826001 g / cm^3
# Si number density = 18.301664 Si / 1000 Ang^3
#
#
#
# Elastic Constant Matrix: (Units=GPa)
#
#
# Indices 1 2 3 4 5 6 
#
# 1 57.5664 34.1191 53.0370 0.0000 0.0000 0.0000
# 2 34.1191 101.5782 79.4467 0.0000 0.0000 0.0000
# 3 53.0370 79.4467 168.0802 0.0000 0.0000 0.0000
# 4 0.0000 0.0000 0.0000 40.4634 0.0000 0.0000
# 5 0.0000 0.0000 0.0000 0.0000 27.5679 0.0000
# 6 0.0000 0.0000 0.0000 0.0000 0.0000 18.9365
#
#
#
# Elastic Compliance Matrix: (Units=1/GPa)
#
#
# Indices 1 2 3 4 5 6 
#
# 1 0.025283 -0.003574 -0.006289 0.000000 0.000000 0.000000
# 2 -0.003574 0.016124 -0.006494 0.000000 0.000000 0.000000
# 3 -0.006289 -0.006494 0.011003 0.000000 0.000000 0.000000
# 4 0.000000 0.000000 0.000000 0.024714 0.000000 0.000000
# 5 0.000000 0.000000 0.000000 0.000000 0.036274 0.000000
# 6 0.000000 0.000000 0.000000 0.000000 0.000000 0.052808
#
#
# Mechanical properties :
#
#
# Convention : Reuss Voigt Hill
#
# Bulk Modulus (GPa) = 50.76629 73.38115 62.07372
# Shear Modulus (GPa) = 24.33270 28.10170 26.21720
#
# Velocity S-wave (km/s) = 3.65023 3.92276 3.78895
# Velocity P-wave (km/s) = 6.75014 7.79101 7.28918
#
# Compressibility (1/GPa) = 0.01969811
#
# Stress axis : x y z
#
# Youngs Moduli (GPa) = 39.55160 62.02009 90.88195
#
# Poissons Ratio (x) = 0.22165 0.57154
# Poissons Ratio (y) = 0.14135 0.59015
# Poissons Ratio (z) = 0.24873 0.40273
#
# Static dielectric constant tensor:
#      x y z
#    x 3.367360 0.000000 0.000000 
#    y 0.000000 3.557140 0.000000 
#    z 0.000000 0.000000 3.345200 
# 
# 
# High freq. dielectric constant tensor:
#      x y z
#    x 1.702960 0.000000 0.000000 
#    y 0.000000 1.711080 0.000000 
#    z 0.000000 0.000000 1.710320 
# 
# From -- ./inp_files/33283.got.cif
#   From: 2010.03.12/outbox.cif.g09.slc.cpg/sg47_17_cif.got.tgz:33283.got - 2010.04.14 03:12:58.
