data_PCOD8200087
_publ_section_title
;
Structure prediction by ZEFSAII (Michael W. Deem and Ramdas Pophale) SiO2 
 PCOD8200087
Probable space group: P M M M
;
_chemical_formula_sum "Si O2"
_cell_formula_units_Z 64
_cell_length_a 9.297994
_cell_length_b 14.280242
_cell_length_c 25.622095
_cell_angle_alpha 90.000000
_cell_angle_beta 90.000000
_cell_angle_gamma 90.000000
_cell_volume 3402.040395
_symmetry_space_group_name_H-M "P M M M"
_symmetry_group_IT_number 47
_symmetry_cell_setting 'orthorhombic'
loop_
_space_group_symop_operation_xyz
x,y,z
-x,-y,z
x,-y,-z
-x,y,-z
-x,-y,-z
x,y,-z
-x,y,z
x,-y,z
loop_
_atom_site_type_symbol
_atom_site_label
_atom_site_fract_x
_atom_site_fract_y
_atom_site_fract_z
Si Si1 0.667811 0.713600 0.942482
Si Si2 0.167123 0.609686 0.264741
Si Si3 0.671423 0.281988 0.354681
Si Si4 0.169592 0.107385 0.674330
Si Si5 0.837148 0.389908 0.853172
Si Si6 0.843094 0.889243 0.791168
Si Si7 0.666125 0.896038 0.887764
Si Si8 0.162882 0.609514 0.559998
O O1 0.500000 0.691891 0.939751
O O2 0.738357 0.654727 0.896944
O O3 0.697013 0.824780 0.934866
O O4 0.728031 0.686733 0.000000
O O5 0.201445 0.500000 0.270940
O O6 0.267464 0.667342 0.303432
O O7 0.201360 0.644138 0.205597
O O8 0.000000 0.628659 0.278108
O O9 0.500000 0.278132 0.351773
O O10 0.736062 0.177051 0.360865
O O11 0.719808 0.336979 0.406024
O O12 0.210575 0.136900 0.733519
O O13 0.000000 0.121252 0.664396
O O14 0.213209 0.000000 0.662280
O O15 0.814651 0.500000 0.855521
O O16 0.000000 0.362572 0.866504
O O17 0.737984 0.852074 0.835926
O O18 0.000000 0.844301 0.801218
O O19 0.854527 0.000000 0.794432
O O20 0.500000 0.902647 0.874268
O O21 0.725408 0.000000 0.902397
O O22 0.189260 0.636376 0.500000
O O23 0.185795 0.500000 0.569045
O O24 0.000000 0.637155 0.576572
#
# Coordination Sequence:
#
# PCOD8200087 Si02
#       8
#     8   8   8   8   8   8   8   8
#     4  10  22  37  52  74 103 134 171 214 263 325
#     4   9  19  37  58  79 107 143 182 223 268 325
#     4  12  24  33  51  86 123 155 184 224 279 333
#     4   9  19  36  55  75 105 149 196 235 272 319
#     4   9  20  39  60  79  99 129 172 222 272 319
#     4   8  15  29  49  72  96 126 168 216 263 309
#     4   9  18  32  50  72 100 134 169 207 254 312
#     4   9  19  38  63  87 113 151 198 241 277 320
#
# _framework density 18.812239999999999
#
# number of rings (size 3 to 8) (size 9 to 14) (size 15 to 20)
#    0.000    2.625    0.000    3.375    1.750    5.000 
#    0.000    5.625    0.000    0.375    0.000    5.250 
#    0.000    0.000    0.000    0.000    0.000    0.000 
#
# Total GULP energy -793331.502453 kJ/mol
# GULP energy per Si atom -12395.804726 kJ/mol
# Density = 1.876942 g / cm^3
# Si number density = 18.812240 Si / 1000 Ang^3
#
#
#
# Elastic Constant Matrix: (Units=GPa)
#
#
# Indices 1 2 3 4 5 6 
#
# 1 79.5682 40.4457 51.1364 0.0000 0.0000 0.0000
# 2 40.4457 51.2425 46.2983 0.0000 0.0000 0.0000
# 3 51.1364 46.2983 105.5738 0.0000 0.0000 0.0000
# 4 0.0000 0.0000 0.0000 21.7393 0.0000 0.0000
# 5 0.0000 0.0000 0.0000 0.0000 49.9069 0.0000
# 6 0.0000 0.0000 0.0000 0.0000 0.0000 25.0799
#
#
#
# Elastic Compliance Matrix: (Units=1/GPa)
#
#
# Indices 1 2 3 4 5 6 
#
# 1 0.022572 -0.013147 -0.005168 0.000000 0.000000 0.000000
# 2 -0.013147 0.039979 -0.011165 0.000000 0.000000 0.000000
# 3 -0.005168 -0.011165 0.016871 0.000000 0.000000 0.000000
# 4 0.000000 0.000000 0.000000 0.046000 0.000000 0.000000
# 5 0.000000 0.000000 0.000000 0.000000 0.020037 0.000000
# 6 0.000000 0.000000 0.000000 0.000000 0.000000 0.039873
#
#
# Mechanical properties :
#
#
# Convention : Reuss Voigt Hill
#
# Bulk Modulus (GPa) = 48.86612 56.90501 52.88556
# Shear Modulus (GPa) = 19.91153 25.91215 22.91184
#
# Velocity S-wave (km/s) = 3.25689 3.71537 3.49366
# Velocity P-wave (km/s) = 6.33839 6.97997 6.66690
#
# Compressibility (1/GPa) = 0.02046407
#
# Stress axis : x y z
#
# Youngs Moduli (GPa) = 44.30346 25.01298 59.27287
#
# Poissons Ratio (x) = 0.32884 0.30629
# Poissons Ratio (y) = 0.58245 0.66176
# Poissons Ratio (z) = 0.22894 0.27926
#
# Static dielectric constant tensor:
#      x y z
#    x 3.434460 0.000000 0.000000 
#    y 0.000000 3.528140 0.000000 
#    z 0.000000 0.000000 3.482540 
# 
# 
# High freq. dielectric constant tensor:
#      x y z
#    x 1.714610 0.000000 0.000000 
#    y 0.000000 1.736930 0.000000 
#    z 0.000000 0.000000 1.718260 
# 
# From -- ./inp_files/32123.got.cif
#   From: 2010.03.12/outbox.cif.g09.slc.cpg/sg47_17_cif.got.tgz:32123.got - 2010.04.14 03:12:58.
