data_PCOD8200117
_publ_section_title
;
Structure prediction by ZEFSAII (Michael W. Deem and Ramdas Pophale) SiO2 
 PCOD8200117
Probable space group: P M M M
;
_chemical_formula_sum "Si O2"
_cell_formula_units_Z 48
_cell_length_a 8.042810
_cell_length_b 16.345738
_cell_length_c 18.134363
_cell_angle_alpha 90.000000
_cell_angle_beta 90.000000
_cell_angle_gamma 90.000000
_cell_volume 2384.046092
_symmetry_space_group_name_H-M "P M M M"
_symmetry_group_IT_number 47
_symmetry_cell_setting 'orthorhombic'
loop_
_space_group_symop_operation_xyz
x,y,z
-x,-y,z
x,-y,-z
-x,y,-z
-x,-y,-z
x,y,-z
-x,y,z
x,-y,z
loop_
_atom_site_type_symbol
_atom_site_label
_atom_site_fract_x
_atom_site_fract_y
_atom_site_fract_z
Si Si1 0.695718 0.500000 0.417077
Si Si2 0.820109 0.816851 0.915793
Si Si3 0.500000 0.407279 0.920202
Si Si4 0.304927 0.000000 0.583727
Si Si5 0.804221 0.825828 0.583225
Si Si6 0.500000 0.911541 0.912536
Si Si7 0.186727 0.347975 0.830854
Si Si8 0.804968 0.335374 0.663527
O O1 0.500000 0.500000 0.416285
O O2 0.766721 0.500000 0.500000
O O3 0.756350 0.582429 0.378536
O O4 0.668748 0.869954 0.884706
O O5 0.831024 0.741792 0.861801
O O6 0.000000 0.863277 0.912226
O O7 0.784935 0.788845 0.000000
O O8 0.500000 0.500000 0.940675
O O9 0.329582 0.392589 0.876462
O O10 0.500000 0.359493 0.000000
O O11 0.240917 0.085559 0.620274
O O12 0.500000 0.000000 0.588909
O O13 0.237618 0.000000 0.500000
O O14 0.730677 0.821957 0.500000
O O15 0.727254 0.747974 0.627930
O O16 0.000000 0.816928 0.581498
O O17 0.500000 0.000000 0.875698
O O18 0.500000 0.917147 0.000000
O O19 0.254136 0.344298 0.747584
O O20 0.000000 0.389428 0.835881
O O21 0.000000 0.325473 0.661256
#
# Coordination Sequence:
#
# PCOD8200117 Si02
#       8
#     4   8   4   4   8   4   8   8
#     4  11  25  41  59  87 121 158 199 244 294 348
#     4   9  17  31  53  78 106 143 187 235 285 340
#     4  11  25  41  61  89 119 155 192 237 297 352
#     4   9  17  29  49  79 113 147 187 240 297 346
#     4   9  17  32  55  81 109 147 197 246 291 346
#     4   9  17  29  49  79 111 141 181 232 282 339
#     4  10  22  39  61  87 117 153 197 243 294 355
#     4  10  22  38  60  86 115 155 199 245 298 350
#
# _framework density 20.133839999999999
#
# number of rings (size 3 to 8) (size 9 to 14) (size 15 to 20)
#    0.000    2.333    0.000    2.000    2.333    5.333 
#    0.000    4.167    1.833    0.000    0.000    0.000 
#    0.000    0.000    0.000    0.000    0.000    0.000 
#
# Total GULP energy -594644.384592 kJ/mol
# GULP energy per Si atom -12388.424679 kJ/mol
# Density = 2.008801 g / cm^3
# Si number density = 20.133840 Si / 1000 Ang^3
#
#
#
# Elastic Constant Matrix: (Units=GPa)
#
#
# Indices 1 2 3 4 5 6 
#
# 1 78.0008 19.3769 33.7618 0.0000 0.0000 0.0000
# 2 19.3769 130.4228 51.8042 0.0000 0.0000 0.0000
# 3 33.7618 51.8042 121.7227 0.0000 0.0000 0.0000
# 4 0.0000 0.0000 0.0000 27.9653 0.0000 0.0000
# 5 0.0000 0.0000 0.0000 0.0000 20.2773 0.0000
# 6 0.0000 0.0000 0.0000 0.0000 0.0000 -29.0283
#
#
#
# Elastic Compliance Matrix: (Units=1/GPa)
#
#
# Indices 1 2 3 4 5 6 
#
# 1 0.014619 -0.000676 -0.003767 0.000000 0.000000 0.000000
# 2 -0.000676 0.009258 -0.003753 0.000000 0.000000 0.000000
# 3 -0.003767 -0.003753 0.010858 0.000000 0.000000 0.000000
# 4 0.000000 0.000000 0.000000 0.035759 0.000000 0.000000
# 5 0.000000 0.000000 0.000000 0.000000 0.049316 0.000000
# 6 0.000000 0.000000 0.000000 0.000000 0.000000 -0.034449
#
#
# Mechanical properties :
#
#
# Convention : Reuss Voigt Hill
#
# Bulk Modulus (GPa) = 54.51591 60.00356 57.25973
# Shear Modulus (GPa) = 46.35370 18.85643 32.60506
#
# Velocity S-wave (km/s) = 4.80341 3.06364 4.02856
# Velocity P-wave (km/s) = 7.60915 6.51011 7.08099
#
# Compressibility (1/GPa) = 0.01834327
#
# Stress axis : x y z
#
# Youngs Moduli (GPa) = 68.40498 108.00991 92.10202
#
# Poissons Ratio (x) = 0.07297 0.34697
# Poissons Ratio (y) = 0.04621 0.34565
# Poissons Ratio (z) = 0.25770 0.40535
#
# Static dielectric constant tensor:
#      x y z
#    x 4.224640 0.000000 0.000000 
#    y 0.000000 3.801610 0.000000 
#    z 0.000000 0.000000 3.759720 
# 
# 
# High freq. dielectric constant tensor:
#      x y z
#    x 1.793870 0.000000 0.000000 
#    y 0.000000 1.784440 0.000000 
#    z 0.000000 0.000000 1.764940 
# 
# From -- ./inp_files/26612.got.cif
#   From: 2010.03.12/outbox.cif.g09.slc.cpg/sg47_14_cif.got.tgz:26612.got - 2010.04.14 03:12:58.
