data_PCOD8200490
_publ_section_title
;
Structure prediction by ZEFSAII (Michael W. Deem and Ramdas Pophale) SiO2 
 PCOD8200490
Probable space group: P M M M
;
_chemical_formula_sum "Si O2"
_cell_formula_units_Z 40
_cell_length_a 10.469286
_cell_length_b 8.986909
_cell_length_c 23.002419
_cell_angle_alpha 90.000000
_cell_angle_beta 90.000000
_cell_angle_gamma 90.000000
_cell_volume 2164.217569
_symmetry_space_group_name_H-M "P M M M"
_symmetry_group_IT_number 47
_symmetry_cell_setting 'orthorhombic'
loop_
_space_group_symop_operation_xyz
x,y,z
-x,-y,z
x,-y,-z
-x,y,-z
-x,-y,-z
x,y,-z
-x,y,z
x,-y,z
loop_
_atom_site_type_symbol
_atom_site_label
_atom_site_fract_x
_atom_site_fract_y
_atom_site_fract_z
Si Si1 0.500000 0.175318 0.068377
Si Si2 0.142636 0.161342 0.000000
Si Si3 0.751656 0.676422 0.892444
Si Si4 0.143401 0.676376 0.768137
Si Si5 0.354376 0.323967 0.321633
Si Si6 0.651319 0.833364 0.563448
O O1 0.616257 0.245585 0.102917
O O2 0.500000 0.000000 0.075899
O O3 0.500000 0.221380 0.000000
O O4 0.164133 0.262648 0.944460
O O5 0.000000 0.109533 0.000000
O O6 0.220977 0.000000 0.000000
O O7 0.735856 0.500000 0.897102
O O8 0.819259 0.725351 0.832940
O O9 0.142269 0.500000 0.763171
O O10 0.252383 0.740976 0.724832
O O11 0.000000 0.737305 0.753670
O O12 0.500000 0.265215 0.309047
O O13 0.355572 0.500000 0.319688
O O14 0.302961 0.274043 0.384909
O O15 0.702454 0.778095 0.500000
O O16 0.500000 0.834077 0.561592
O O17 0.702122 0.000000 0.575649
#
# Coordination Sequence:
#
# PCOD8200490 Si02
#       6
#     4   4   8   8   8   8
#     4  11  23  39  57  79 112 140 163 206 273 334
#     4  11  23  38  55  76 107 141 171 215 274 325
#     4  11  22  36  59  82 102 133 179 223 260 311
#     4   9  19  35  54  77 106 138 172 215 265 310
#     4   9  17  29  49  76 104 133 168 213 258 304
#     4   8  14  26  45  70 102 136 168 207 255 304
#
# _framework density 18.482430000000001
#
# number of rings (size 3 to 8) (size 9 to 14) (size 15 to 20)
#    0.000    2.400    1.000    2.400    1.400    2.400 
#    0.000    4.000    0.000    3.600    0.000    4.200 
#    0.000    0.000    0.000    0.000    0.000    0.000 
#
# Total GULP energy -495643.655238 kJ/mol
# GULP energy per Si atom -12391.091381 kJ/mol
# Density = 1.844036 g / cm^3
# Si number density = 18.482430 Si / 1000 Ang^3
#
#
#
# Elastic Constant Matrix: (Units=GPa)
#
#
# Indices 1 2 3 4 5 6 
#
# 1 116.7316 27.1315 67.6512 0.0000 0.0000 0.0000
# 2 27.1315 48.3906 33.0271 0.0000 0.0000 0.0000
# 3 67.6512 33.0271 155.6599 0.0000 0.0000 0.0000
# 4 0.0000 0.0000 0.0000 21.5998 0.0000 0.0000
# 5 0.0000 0.0000 0.0000 0.0000 4.8197 0.0000
# 6 0.0000 0.0000 0.0000 0.0000 0.0000 12.8354
#
#
#
# Elastic Compliance Matrix: (Units=1/GPa)
#
#
# Indices 1 2 3 4 5 6 
#
# 1 0.011993 -0.003703 -0.004426 0.000000 0.000000 0.000000
# 2 -0.003703 0.025308 -0.003760 0.000000 0.000000 0.000000
# 3 -0.004426 -0.003760 0.009146 0.000000 0.000000 0.000000
# 4 0.000000 0.000000 0.000000 0.046297 0.000000 0.000000
# 5 0.000000 0.000000 0.000000 0.000000 0.207480 0.000000
# 6 0.000000 0.000000 0.000000 0.000000 0.000000 0.077910
#
#
# Mechanical properties :
#
#
# Convention : Reuss Voigt Hill
#
# Bulk Modulus (GPa) = 44.11716 64.04462 54.08089
# Shear Modulus (GPa) = 12.21096 20.71580 16.46338
#
# Velocity S-wave (km/s) = 2.57316 3.35152 2.98780
# Velocity P-wave (km/s) = 5.72274 7.05009 6.42081
#
# Compressibility (1/GPa) = 0.02266692
#
# Stress axis : x y z
#
# Youngs Moduli (GPa) = 83.38454 39.51347 109.33870
#
# Poissons Ratio (x) = 0.14631 0.48398
# Poissons Ratio (y) = 0.30876 0.41115
# Poissons Ratio (z) = 0.36910 0.14859
#
# Static dielectric constant tensor:
#      x y z
#    x 3.613780 0.000000 0.000000 
#    y 0.000000 3.246640 0.000000 
#    z 0.000000 0.000000 3.772260 
# 
# 
# High freq. dielectric constant tensor:
#      x y z
#    x 1.702040 0.000000 0.000000 
#    y 0.000000 1.699150 0.000000 
#    z 0.000000 0.000000 1.722520 
# 
# From -- ./inp_files/30363.got.cif
#   From: 2010.03.12/outbox.cif.g09.slc.cpg/sg47_16_cif.got.tgz:30363.got - 2010.04.14 03:12:58.
