data_PCOD8200742
_publ_section_title
;
Structure prediction by ZEFSAII (Michael W. Deem and Ramdas Pophale) SiO2 
 PCOD8200742
Probable space group: P M M M
;
_chemical_formula_sum "Si O2"
_cell_formula_units_Z 56
_cell_length_a 9.561057
_cell_length_b 13.676478
_cell_length_c 29.518214
_cell_angle_alpha 90.000000
_cell_angle_beta 90.000000
_cell_angle_gamma 90.000000
_cell_volume 3859.848470
_symmetry_space_group_name_H-M "P M M M"
_symmetry_group_IT_number 47
_symmetry_cell_setting 'orthorhombic'
loop_
_space_group_symop_operation_xyz
x,y,z
-x,-y,z
x,-y,-z
-x,y,-z
-x,-y,-z
x,y,-z
-x,y,z
x,-y,z
loop_
_atom_site_type_symbol
_atom_site_label
_atom_site_fract_x
_atom_site_fract_y
_atom_site_fract_z
Si Si1 0.662824 0.230004 0.769504
Si Si2 0.161653 0.387679 0.724189
Si Si3 0.656707 0.116147 0.952054
Si Si4 0.338401 0.112264 0.320244
Si Si5 0.667480 0.109993 0.145019
Si Si6 0.837072 0.730370 0.365583
Si Si7 0.834075 0.609175 0.550238
O O1 0.500000 0.256777 0.772935
O O2 0.747491 0.329383 0.760993
O O3 0.691383 0.152149 0.729923
O O4 0.720620 0.182221 0.815802
O O5 0.208479 0.500000 0.725395
O O6 0.191208 0.347612 0.674009
O O7 0.000000 0.375102 0.737187
O O8 0.500000 0.158281 0.954032
O O9 0.725985 0.149732 0.904115
O O10 0.650837 0.000000 0.949830
O O11 0.732535 0.148495 0.000000
O O12 0.500000 0.125208 0.333256
O O13 0.246984 0.170117 0.356986
O O14 0.291894 0.000000 0.321472
O O15 0.500000 0.108082 0.143883
O O16 0.722534 0.000000 0.154863
O O17 0.776789 0.683586 0.411946
O O18 0.000000 0.757007 0.369297
O O19 0.789462 0.645624 0.500000
O O20 0.774146 0.500000 0.558782
O O21 0.000000 0.604454 0.554326
#
# Coordination Sequence:
#
# PCOD8200742 Si02
#       7
#     8   8   8   8   8   8   8
#     4   9  16  25  38  56  75  96 125 157 184 211
#     4   9  17  28  40  54  75 101 123 145 179 222
#     4   7   9  13  22  39  65  95 122 145 172 210
#     4   9  17  28  40  54  75 103 131 156 182 213
#     4   8  12  18  30  48  71  99 126 150 178 213
#     4   9  16  26  42  62  79  96 122 153 181 213
#     4   8  13  22  39  63  85 100 116 144 184 226
#
# _framework density 14.508341
#
# number of rings (size 3 to 8) (size 9 to 14) (size 15 to 20)
#    0.000    3.571    0.000    2.571    0.000    4.000 
#    0.000    0.000    0.000    3.429    0.000    4.000 
#    0.000    1.143    0.000   10.714    0.000    4.286 
#
# Total GULP energy -693771.293355 kJ/mol
# GULP energy per Si atom -12388.773096 kJ/mol
# Density = 1.447532 g / cm^3
# Si number density = 14.508341 Si / 1000 Ang^3
#
#
#
# Elastic Constant Matrix: (Units=GPa)
#
#
# Indices 1 2 3 4 5 6 
#
# 1 25.7536 33.6538 30.1169 0.0000 0.0000 0.0000
# 2 33.6538 100.6867 60.1060 0.0000 0.0000 0.0000
# 3 30.1169 60.1060 127.7283 0.0000 0.0000 0.0000
# 4 0.0000 0.0000 0.0000 19.9843 0.0000 0.0000
# 5 0.0000 0.0000 0.0000 0.0000 10.8710 0.0000
# 6 0.0000 0.0000 0.0000 0.0000 0.0000 19.8029
#
#
#
# Elastic Compliance Matrix: (Units=1/GPa)
#
#
# Indices 1 2 3 4 5 6 
#
# 1 0.074569 -0.020064 -0.008141 0.000000 0.000000 0.000000
# 2 -0.020064 0.019211 -0.004309 0.000000 0.000000 0.000000
# 3 -0.008141 -0.004309 0.011776 0.000000 0.000000 0.000000
# 4 0.000000 0.000000 0.000000 0.050039 0.000000 0.000000
# 5 0.000000 0.000000 0.000000 0.000000 0.091988 0.000000
# 6 0.000000 0.000000 0.000000 0.000000 0.000000 0.050498
#
#
# Mechanical properties :
#
#
# Convention : Reuss Voigt Hill
#
# Bulk Modulus (GPa) = 24.67470 55.76912 40.22191
# Shear Modulus (GPa) = 13.27605 18.81775 16.04690
#
# Velocity S-wave (km/s) = 3.02828 3.60534 3.32934
# Velocity P-wave (km/s) = 5.41031 7.47356 6.52402
#
# Compressibility (1/GPa) = 0.04052735
#
# Stress axis : x y z
#
# Youngs Moduli (GPa) = 13.41045 52.05478 84.91598
#
# Poissons Ratio (x) = 1.04445 0.69127
# Poissons Ratio (y) = 0.26907 0.36591
# Poissons Ratio (z) = 0.10917 0.22431
#
# Static dielectric constant tensor:
#      x y z
#    x 2.474590 0.000000 0.000000 
#    y 0.000000 2.687450 0.000000 
#    z 0.000000 0.000000 3.215520 
# 
# 
# High freq. dielectric constant tensor:
#      x y z
#    x 1.511060 0.000000 0.000000 
#    y 0.000000 1.527570 0.000000 
#    z 0.000000 0.000000 1.561310 
# 
# From -- ./inp_files/8124.got.cif
#   From: 2010.03.12/outbox.cif.g09.slc.cpg/sg47_5_cif.got.tgz:8124.got - 2010.04.14 03:12:58.
