data_PCOD8200589
_publ_section_title
;
Structure prediction by ZEFSAII (Michael W. Deem and Ramdas Pophale) SiO2 
 PCOD8200589
Probable space group: P M M M
;
_chemical_formula_sum "Si O2"
_cell_formula_units_Z 52
_cell_length_a 14.527200
_cell_length_b 9.274686
_cell_length_c 20.806771
_cell_angle_alpha 90.000000
_cell_angle_beta 90.000000
_cell_angle_gamma 90.000000
_cell_volume 2803.404836
_symmetry_space_group_name_H-M "P M M M"
_symmetry_group_IT_number 47
_symmetry_cell_setting 'orthorhombic'
loop_
_space_group_symop_operation_xyz
x,y,z
-x,-y,z
x,-y,-z
-x,y,-z
-x,-y,-z
x,y,-z
-x,y,z
x,-y,z
loop_
_atom_site_type_symbol
_atom_site_label
_atom_site_fract_x
_atom_site_fract_y
_atom_site_fract_z
Si Si1 0.106062 0.332201 0.385483
Si Si2 0.392266 0.663913 0.673604
Si Si3 0.100841 0.669650 0.758796
Si Si4 0.215469 0.328243 0.123568
Si Si5 0.399101 0.328451 0.181845
Si Si6 0.726992 0.165456 0.428071
Si Si7 0.893929 0.327905 0.000000
O O1 0.118414 0.500000 0.401879
O O2 0.138076 0.298469 0.312384
O O3 0.172115 0.238208 0.429860
O O4 0.000000 0.287013 0.396383
O O5 0.500000 0.672030 0.658718
O O6 0.356108 0.500000 0.666752
O O7 0.372791 0.722267 0.745912
O O8 0.340805 0.760356 0.621914
O O9 0.092823 0.500000 0.768944
O O10 0.166994 0.735475 0.812845
O O11 0.000000 0.739165 0.767716
O O12 0.211053 0.500000 0.121582
O O13 0.322408 0.277380 0.129683
O O14 0.162489 0.266877 0.061307
O O15 0.500000 0.267414 0.161618
O O16 0.403751 0.500000 0.184027
O O17 0.685818 0.179884 0.500000
O O18 0.738222 0.000000 0.407934
O O19 0.895131 0.500000 0.000000
O O20 0.000000 0.271483 0.000000
#
# Coordination Sequence:
#
# PCOD8200589 Si02
#       7
#     8   8   8   8   8   8   4
#     4   9  18  33  53  74  92 116 160 213 252 282
#     4   9  18  34  56  77  93 114 152 202 247 285
#     4   8  13  22  39  62  82 102 138 191 242 277
#     4   9  14  20  32  50  78 116 150 182 222 266
#     4   8  14  25  42  63  82 102 138 189 238 278
#     4  11  24  37  48  67  98 133 160 184 228 294
#     4   9  16  22  27  43  77 121 163 190 212 258
#
# _framework density 18.548871999999999
#
# number of rings (size 3 to 8) (size 9 to 14) (size 15 to 20)
#    0.000    3.000    0.000    3.692    0.000    6.769 
#    0.000    3.462    0.000    2.308    0.000    0.000 
#    0.000    0.000    0.000   11.077    0.000   80.000 
#
# Total GULP energy -644372.022362 kJ/mol
# GULP energy per Si atom -12391.769661 kJ/mol
# Density = 1.850665 g / cm^3
# Si number density = 18.548872 Si / 1000 Ang^3
#
#
#
# Elastic Constant Matrix: (Units=GPa)
#
#
# Indices 1 2 3 4 5 6 
#
# 1 115.0258 28.2270 64.4551 0.0000 0.0000 0.0000
# 2 28.2270 39.6254 22.7989 0.0000 0.0000 0.0000
# 3 64.4551 22.7989 92.1569 0.0000 0.0000 0.0000
# 4 0.0000 0.0000 0.0000 -1.2559 0.0000 0.0000
# 5 0.0000 0.0000 0.0000 0.0000 26.2082 0.0000
# 6 0.0000 0.0000 0.0000 0.0000 0.0000 7.4193
#
#
#
# Elastic Compliance Matrix: (Units=1/GPa)
#
#
# Indices 1 2 3 4 5 6 
#
# 1 0.015265 -0.005517 -0.009312 0.000000 0.000000 0.000000
# 2 -0.005517 0.031418 -0.003914 0.000000 0.000000 0.000000
# 3 -0.009312 -0.003914 0.018332 0.000000 0.000000 0.000000
# 4 0.000000 0.000000 0.000000 -0.796226 0.000000 0.000000
# 5 0.000000 0.000000 0.000000 0.000000 0.038156 0.000000
# 6 0.000000 0.000000 0.000000 0.000000 0.000000 0.134784
#
#
# Mechanical properties :
#
#
# Convention : Reuss Voigt Hill
#
# Bulk Modulus (GPa) = 36.32372 53.08556 44.70464
# Shear Modulus (GPa) = -9.77312 15.22945 2.72817
#
# Velocity S-wave (km/s) = -2.29789 2.86850 1.21408
# Velocity P-wave (km/s) = 3.54751 6.29702 5.11064
#
# Compressibility (1/GPa) = 0.02753022
#
# Stress axis : x y z
#
# Youngs Moduli (GPa) = 65.50743 31.82875 54.54853
#
# Poissons Ratio (x) = 0.17558 0.50796
# Poissons Ratio (y) = 0.36137 0.21352
# Poissons Ratio (z) = 0.61001 0.12459
#
# Static dielectric constant tensor:
#      x y z
#    x 3.745540 0.000000 0.000000 
#    y 0.000000 2.746920 0.000000 
#    z 0.000000 0.000000 3.470350 
# 
# 
# High freq. dielectric constant tensor:
#      x y z
#    x 1.736020 0.000000 0.000000 
#    y 0.000000 1.642800 0.000000 
#    z 0.000000 0.000000 1.715030 
# 
# From -- ./inp_files/30869.got.cif
#   From: 2010.03.12/outbox.cif.g09.slc.cpg/sg47_16_cif.got.tgz:30869.got - 2010.04.14 03:12:58.
