data_PCOD8200446
_publ_section_title
;
Structure prediction by ZEFSAII (Michael W. Deem and Ramdas Pophale) SiO2 
 PCOD8200446
Probable space group: P M M M
;
_chemical_formula_sum "Si O2"
_cell_formula_units_Z 52
_cell_length_a 8.929446
_cell_length_b 13.616659
_cell_length_c 26.709231
_cell_angle_alpha 90.000000
_cell_angle_beta 90.000000
_cell_angle_gamma 90.000000
_cell_volume 3247.554597
_symmetry_space_group_name_H-M "P M M M"
_symmetry_group_IT_number 47
_symmetry_cell_setting 'orthorhombic'
loop_
_space_group_symop_operation_xyz
x,y,z
-x,-y,z
x,-y,-z
-x,y,-z
-x,-y,-z
x,y,-z
-x,y,z
x,-y,z
loop_
_atom_site_type_symbol
_atom_site_label
_atom_site_fract_x
_atom_site_fract_y
_atom_site_fract_z
Si Si1 0.323928 0.886927 0.847408
Si Si2 0.676818 0.112108 0.355662
Si Si3 0.674319 0.202845 0.253058
Si Si4 0.177516 0.292219 0.597085
Si Si5 0.676547 0.385040 0.500000
Si Si6 0.673068 0.610506 0.310521
Si Si7 0.830257 0.883351 0.054399
O O1 0.500000 0.874720 0.849732
O O2 0.252206 0.829642 0.799656
O O3 0.262032 0.839637 0.898927
O O4 0.275755 0.000000 0.841790
O O5 0.500000 0.132429 0.360085
O O6 0.734183 0.137835 0.299579
O O7 0.762554 0.181472 0.394835
O O8 0.717159 0.000000 0.368255
O O9 0.500000 0.181082 0.247900
O O10 0.708089 0.317684 0.263790
O O11 0.251085 0.335296 0.547882
O O12 0.223225 0.362261 0.642907
O O13 0.000000 0.290629 0.591397
O O14 0.714525 0.500000 0.500000
O O15 0.500000 0.366142 0.500000
O O16 0.500000 0.623110 0.327348
O O17 0.707714 0.500000 0.292953
O O18 0.000000 0.848021 0.060498
O O19 0.819302 0.000000 0.055670
O O20 0.768197 0.846672 0.000000
#
# Coordination Sequence:
#
# PCOD8200446 Si02
#       7
#     8   8   8   8   4   8   8
#     4   9  15  22  35  56  81 108 138 173 211 250
#     4   9  17  32  53  71  91 124 160 186 210 251
#     4   8  14  25  42  65  89 112 143 181 217 253
#     4  11  22  34  50  74 101 122 143 179 225 267
#     4  11  23  39  58  75  92 117 151 188 222 263
#     4   9  17  31  50  68  88 118 153 182 211 257
#     4   8  14  24  35  47  69 104 141 173 207 249
#
# _framework density 16.012048
#
# number of rings (size 3 to 8) (size 9 to 14) (size 15 to 20)
#    0.000    2.846    0.000    3.923    0.000    5.231 
#    0.000    5.000    0.000    6.000    0.000    0.000 
#    0.000    0.615    0.000    7.692    0.000    1.538 
#
# Total GULP energy -644481.781602 kJ/mol
# GULP energy per Si atom -12393.880415 kJ/mol
# Density = 1.597560 g / cm^3
# Si number density = 16.012048 Si / 1000 Ang^3
#
#
#
# Elastic Constant Matrix: (Units=GPa)
#
#
# Indices 1 2 3 4 5 6 
#
# 1 55.6564 41.2981 51.6724 0.0000 0.0000 0.0000
# 2 41.2981 106.8745 62.3872 0.0000 0.0000 0.0000
# 3 51.6724 62.3872 147.6296 0.0000 0.0000 0.0000
# 4 0.0000 0.0000 0.0000 15.2389 0.0000 0.0000
# 5 0.0000 0.0000 0.0000 0.0000 -51.5591 0.0000
# 6 0.0000 0.0000 0.0000 0.0000 0.0000 10.8356
#
#
#
# Elastic Compliance Matrix: (Units=1/GPa)
#
#
# Indices 1 2 3 4 5 6 
#
# 1 0.030427 -0.007355 -0.007542 0.000000 0.000000 0.000000
# 2 -0.007355 0.014199 -0.003426 0.000000 0.000000 0.000000
# 3 -0.007542 -0.003426 0.010861 0.000000 0.000000 0.000000
# 4 0.000000 0.000000 0.000000 0.065622 0.000000 0.000000
# 5 0.000000 0.000000 0.000000 0.000000 -0.019395 0.000000
# 6 0.000000 0.000000 0.000000 0.000000 0.000000 0.092288
#
#
# Mechanical properties :
#
#
# Convention : Reuss Voigt Hill
#
# Bulk Modulus (GPa) = 53.07431 68.98619 61.03025
# Shear Modulus (GPa) = 21.10353 5.22325 13.16339
#
# Velocity S-wave (km/s) = 3.63434 1.80808 2.87033
# Velocity P-wave (km/s) = 7.12949 6.89466 7.01306
#
# Compressibility (1/GPa) = 0.01884151
#
# Stress axis : x y z
#
# Youngs Moduli (GPa) = 32.86580 70.42879 92.07133
#
# Poissons Ratio (x) = 0.51801 0.69437
# Poissons Ratio (y) = 0.24173 0.31543
# Poissons Ratio (z) = 0.24786 0.24128
#
# Static dielectric constant tensor:
#      x y z
#    x 2.892190 0.000000 0.000000 
#    y 0.000000 2.979620 0.000000 
#    z 0.000000 0.000000 3.474030 
# 
# 
# High freq. dielectric constant tensor:
#      x y z
#    x 1.597910 0.000000 0.000000 
#    y 0.000000 1.589910 0.000000 
#    z 0.000000 0.000000 1.615420 
# 
# From -- ./inp_files/33416.got.cif
#   From: 2010.03.12/outbox.cif.g09.slc.cpg/sg47_17_cif.got.tgz:33416.got - 2010.04.14 03:12:58.
