data_PCOD8200582
_publ_section_title
;
Structure prediction by ZEFSAII (Michael W. Deem and Ramdas Pophale) SiO2 
 PCOD8200582
Probable space group: P M M M
;
_chemical_formula_sum "Si O2"
_cell_formula_units_Z 48
_cell_length_a 8.009362
_cell_length_b 9.556710
_cell_length_c 34.107265
_cell_angle_alpha 90.000000
_cell_angle_beta 90.000000
_cell_angle_gamma 90.000000
_cell_volume 2610.677498
_symmetry_space_group_name_H-M "P M M M"
_symmetry_group_IT_number 47
_symmetry_cell_setting 'orthorhombic'
loop_
_space_group_symop_operation_xyz
x,y,z
-x,-y,z
x,-y,-z
-x,y,-z
-x,-y,-z
x,y,-z
-x,y,z
x,-y,z
loop_
_atom_site_type_symbol
_atom_site_label
_atom_site_fract_x
_atom_site_fract_y
_atom_site_fract_z
Si Si1 0.000000 0.332951 0.092837
Si Si2 0.314867 0.333686 0.769698
Si Si3 0.685377 0.666298 0.044264
Si Si4 0.191561 0.845431 0.387865
Si Si5 0.000000 0.332986 0.181688
Si Si6 0.694026 0.342244 0.318947
Si Si7 0.695105 0.346509 0.542972
O O1 0.167398 0.273446 0.071850
O O2 0.000000 0.500000 0.091391
O O3 0.000000 0.277942 0.137258
O O4 0.500000 0.277865 0.782525
O O5 0.318554 0.500000 0.771682
O O6 0.168032 0.273971 0.797518
O O7 0.275746 0.287608 0.725232
O O8 0.500000 0.715778 0.058571
O O9 0.691653 0.500000 0.045018
O O10 0.717030 0.719651 0.000000
O O11 0.211416 0.761156 0.347693
O O12 0.269655 0.768068 0.424628
O O13 0.000000 0.861838 0.397298
O O14 0.273442 0.000000 0.383561
O O15 0.000000 0.500000 0.183463
O O16 0.500000 0.340907 0.329643
O O17 0.764421 0.500000 0.323832
O O18 0.767354 0.302425 0.500000
O O19 0.500000 0.361484 0.539250
O O20 0.768693 0.500000 0.554914
#
# Coordination Sequence:
#
# PCOD8200582 Si02
#       7
#     4   8   8   8   4   8   8
#     4   9  15  20  27  42  62  85 117 158 209 270
#     4   8  15  27  41  59  81 103 134 177 220 270
#     4   8  13  20  28  37  52  80 120 164 209 258
#     4  11  24  36  47  72 106 132 155 188 232 278
#     4   9  16  23  34  53  75 101 128 162 222 284
#     4   9  18  33  53  73  90 115 155 196 231 274
#     4   9  19  37  59  79  98 124 161 199 230 269
#
# _framework density 18.386033000000001
#
# number of rings (size 3 to 8) (size 9 to 14) (size 15 to 20)
#    0.000    3.000    0.000    3.250    1.167    6.333 
#    0.000    5.833    0.000    0.000    0.000    0.000 
#    0.000    0.000    0.000    0.000    0.000    0.000 
#
# Total GULP energy -594790.892614 kJ/mol
# GULP energy per Si atom -12391.476929 kJ/mol
# Density = 1.834419 g / cm^3
# Si number density = 18.386033 Si / 1000 Ang^3
#
#
#
# Elastic Constant Matrix: (Units=GPa)
#
#
# Indices 1 2 3 4 5 6 
#
# 1 111.5576 21.4908 71.4354 0.0000 0.0000 0.0000
# 2 21.4908 51.9290 35.3842 0.0000 0.0000 0.0000
# 3 71.4354 35.3842 134.6684 0.0000 0.0000 0.0000
# 4 0.0000 0.0000 0.0000 -0.8380 0.0000 0.0000
# 5 0.0000 0.0000 0.0000 0.0000 36.8611 0.0000
# 6 0.0000 0.0000 0.0000 0.0000 0.0000 11.7475
#
#
#
# Elastic Compliance Matrix: (Units=1/GPa)
#
#
# Indices 1 2 3 4 5 6 
#
# 1 0.013607 -0.000869 -0.006990 0.000000 0.000000 0.000000
# 2 -0.000869 0.023512 -0.005717 0.000000 0.000000 0.000000
# 3 -0.006990 -0.005717 0.012636 0.000000 0.000000 0.000000
# 4 0.000000 0.000000 0.000000 -1.193304 0.000000 0.000000
# 5 0.000000 0.000000 0.000000 0.000000 0.027129 0.000000
# 6 0.000000 0.000000 0.000000 0.000000 0.000000 0.085124
#
#
# Mechanical properties :
#
#
# Convention : Reuss Voigt Hill
#
# Bulk Modulus (GPa) = 44.23985 61.64176 52.94080
# Shear Modulus (GPa) = -5.01701 20.87709 7.93004
#
# Velocity S-wave (km/s) = -1.65367 3.37335 2.07905
# Velocity P-wave (km/s) = 4.52413 6.98369 5.88386
#
# Compressibility (1/GPa) = 0.02260405
#
# Stress axis : x y z
#
# Youngs Moduli (GPa) = 73.49067 42.53123 79.14160
#
# Poissons Ratio (x) = 0.03694 0.55318
# Poissons Ratio (y) = 0.06383 0.45246
# Poissons Ratio (z) = 0.51368 0.24316
#
# Static dielectric constant tensor:
#      x y z
#    x 3.632050 0.000000 0.000000 
#    y 0.000000 3.387380 0.000000 
#    z 0.000000 0.000000 3.537830 
# 
# 
# High freq. dielectric constant tensor:
#      x y z
#    x 1.720910 0.000000 0.000000 
#    y 0.000000 1.643160 0.000000 
#    z 0.000000 0.000000 1.715180 
# 
# From -- ./inp_files/34048.got.cif
#   From: 2010.03.12/outbox.cif.g09.slc.cpg/sg47_18_cif.got.tgz:34048.got - 2010.04.14 03:12:58.
