data_PCOD8200193
_publ_section_title
;
Structure prediction by ZEFSAII (Michael W. Deem and Ramdas Pophale) SiO2 
 PCOD8200193
Probable space group: P M M M
;
_chemical_formula_sum "Si O2"
_cell_formula_units_Z 64
_cell_length_a 9.014825
_cell_length_b 26.924393
_cell_length_c 18.355376
_cell_angle_alpha 90.000000
_cell_angle_beta 90.000000
_cell_angle_gamma 90.000000
_cell_volume 4455.192838
_symmetry_space_group_name_H-M "P M M M"
_symmetry_group_IT_number 47
_symmetry_cell_setting 'orthorhombic'
loop_
_space_group_symop_operation_xyz
x,y,z
-x,-y,z
x,-y,-z
-x,y,-z
-x,-y,-z
x,y,-z
-x,y,z
x,-y,z
loop_
_atom_site_type_symbol
_atom_site_label
_atom_site_fract_x
_atom_site_fract_y
_atom_site_fract_z
Si Si1 0.324531 0.347583 0.916657
Si Si2 0.824246 0.052459 0.581355
Si Si3 0.325383 0.554423 0.837689
Si Si4 0.826777 0.661101 0.582904
Si Si5 0.827581 0.839766 0.586661
Si Si6 0.163626 0.600313 0.713261
Si Si7 0.324329 0.249988 0.662885
Si Si8 0.166637 0.295069 0.793459
O O1 0.500000 0.344017 0.905670
O O2 0.265866 0.402135 0.890833
O O3 0.248866 0.303537 0.870622
O O4 0.277322 0.340548 0.000000
O O5 0.759001 0.050794 0.500000
O O6 0.776395 0.105260 0.616308
O O7 0.000000 0.053852 0.576914
O O8 0.773929 0.000000 0.621041
O O9 0.500000 0.555031 0.837429
O O10 0.268140 0.500000 0.863969
O O11 0.274157 0.563315 0.754353
O O12 0.788896 0.648237 0.500000
O O13 0.787409 0.611560 0.629904
O O14 0.730068 0.707687 0.607671
O O15 0.000000 0.675061 0.593919
O O16 0.801487 0.835241 0.500000
O O17 0.723614 0.802400 0.629990
O O18 0.000000 0.828922 0.604552
O O19 0.164040 0.653432 0.751485
O O20 0.000000 0.576369 0.716210
O O21 0.500000 0.252836 0.670120
O O22 0.254571 0.255670 0.743670
O O23 0.000000 0.275485 0.807942
#
# Coordination Sequence:
#
# PCOD8200193 Si02
#       8
#     8   8   8   8   8   8   8   8
#     4   9  17  29  45  65  87 106 124 150 182 215
#     4   7  10  18  33  51  68  90 127 172 209 239
#     4   9  17  28  42  60  81 105 129 150 176 213
#     4   9  17  29  43  57  74  96 123 157 197 238
#     4   9  16  25  37  53  75 103 134 170 210 245
#     4   8  15  27  42  58  73  93 122 155 189 224
#     4  11  20  27  37  55  79 103 129 161 197 237
#     4   9  17  30  45  58  75 101 131 158 185 222
#
# _framework density 14.365259
#
# number of rings (size 3 to 8) (size 9 to 14) (size 15 to 20)
#    0.000    3.125    0.000    3.750    0.000    5.750 
#    0.000    1.250    0.000    0.750    0.000    7.875 
#    0.000    0.000    0.000    0.000    0.000    0.625 
#
# Total GULP energy -792835.678257 kJ/mol
# GULP energy per Si atom -12388.057473 kJ/mol
# Density = 1.433256 g / cm^3
# Si number density = 14.365259 Si / 1000 Ang^3
#
#
#
# Elastic Constant Matrix: (Units=GPa)
#
#
# Indices 1 2 3 4 5 6 
#
# 1 50.0257 24.5679 30.0864 0.0000 0.0000 0.0000
# 2 24.5679 53.0554 33.3339 0.0000 0.0000 0.0000
# 3 30.0864 33.3339 91.9844 0.0000 0.0000 0.0000
# 4 0.0000 0.0000 0.0000 10.6500 0.0000 0.0000
# 5 0.0000 0.0000 0.0000 0.0000 19.7838 0.0000
# 6 0.0000 0.0000 0.0000 0.0000 0.0000 11.4416
#
#
#
# Elastic Compliance Matrix: (Units=1/GPa)
#
#
# Indices 1 2 3 4 5 6 
#
# 1 0.028068 -0.009360 -0.005788 0.000000 0.000000 0.000000
# 2 -0.009360 0.027526 -0.006914 0.000000 0.000000 0.000000
# 3 -0.005788 -0.006914 0.015270 0.000000 0.000000 0.000000
# 4 0.000000 0.000000 0.000000 0.093896 0.000000 0.000000
# 5 0.000000 0.000000 0.000000 0.000000 0.050546 0.000000
# 6 0.000000 0.000000 0.000000 0.000000 0.000000 0.087400
#
#
# Mechanical properties :
#
#
# Convention : Reuss Voigt Hill
#
# Bulk Modulus (GPa) = 37.39773 41.22688 39.31231
# Shear Modulus (GPa) = 14.05500 15.51358 14.78429
#
# Velocity S-wave (km/s) = 3.13134 3.28981 3.21155
# Velocity P-wave (km/s) = 6.25809 6.57204 6.41699
#
# Compressibility (1/GPa) = 0.02673959
#
# Stress axis : x y z
#
# Youngs Moduli (GPa) = 35.62791 36.32889 65.48751
#
# Poissons Ratio (x) = 0.34005 0.37907
# Poissons Ratio (y) = 0.33349 0.45275
# Poissons Ratio (z) = 0.20623 0.25116
#
# Static dielectric constant tensor:
#      x y z
#    x 2.732180 0.000000 0.000000 
#    y 0.000000 2.975650 0.000000 
#    z 0.000000 0.000000 2.801420 
# 
# 
# High freq. dielectric constant tensor:
#      x y z
#    x 1.539760 0.000000 0.000000 
#    y 0.000000 1.527810 0.000000 
#    z 0.000000 0.000000 1.520300 
# 
# From -- ./inp_files/13503.got.cif
#   From: 2010.03.12/outbox.cif.g09.slc.cpg/sg47_7_cif.got.tgz:13503.got - 2010.04.14 03:12:58.
