data_PCOD8200992
_publ_section_title
;
Structure prediction by ZEFSAII (Michael W. Deem and Ramdas Pophale) SiO2 
 PCOD8200992
Probable space group: P M M M
;
_chemical_formula_sum "Si O2"
_cell_formula_units_Z 44
_cell_length_a 15.521693
_cell_length_b 9.366231
_cell_length_c 22.925293
_cell_angle_alpha 90.000000
_cell_angle_beta 90.000000
_cell_angle_gamma 90.000000
_cell_volume 3332.873644
_symmetry_space_group_name_H-M "P M M M"
_symmetry_group_IT_number 47
_symmetry_cell_setting 'orthorhombic'
loop_
_space_group_symop_operation_xyz
x,y,z
-x,-y,z
x,-y,-z
-x,y,-z
-x,-y,-z
x,y,-z
-x,y,z
x,-y,z
loop_
_atom_site_type_symbol
_atom_site_label
_atom_site_fract_x
_atom_site_fract_y
_atom_site_fract_z
Si Si1 0.397755 0.158973 0.718873
Si Si2 0.257058 0.832016 0.067130
Si Si3 0.094566 0.660511 0.930727
Si Si4 0.602761 0.338703 0.389086
Si Si5 0.397392 0.162117 0.500000
Si Si6 0.404353 0.169877 0.847924
O O1 0.500000 0.149718 0.714322
O O2 0.361191 0.267042 0.670242
O O3 0.372822 0.216813 0.783296
O O4 0.359511 0.000000 0.708091
O O5 0.169716 0.763080 0.092909
O O6 0.337674 0.771662 0.104025
O O7 0.246997 0.000000 0.074550
O O8 0.273188 0.789006 0.000000
O O9 0.112937 0.500000 0.908886
O O10 0.000000 0.711160 0.908031
O O11 0.094320 0.665449 0.000000
O O12 0.500000 0.340796 0.389080
O O13 0.638650 0.500000 0.393683
O O14 0.637227 0.245763 0.443315
O O15 0.500000 0.159223 0.500000
O O16 0.361541 0.000000 0.500000
O O17 0.500000 0.231655 0.861573
O O18 0.408745 0.000000 0.849867
#
# Coordination Sequence:
#
# PCOD8200992 Si02
#       6
#     8   8   8   8   4   8
#     4   8  13  22  34  43  53  76 109 137 160 192
#     4   9  16  24  36  55  73  87 108 141 177 208
#     4   8  14  25  39  52  67  88 109 128 159 207
#     4   9  15  21  29  42  59  75  94 127 168 199
#     4   9  15  21  29  41  57  77  99 121 152 199
#     4   8  14  24  36  49  66  89 116 144 173 206
#
# _framework density 13.20182
#
# number of rings (size 3 to 8) (size 9 to 14) (size 15 to 20)
#    0.000    3.545    0.000    2.455    0.000    4.000 
#    0.000    4.545    0.000    1.636    0.000    2.545 
#    0.000    0.000    0.000    0.000    0.000    0.000 
#
# Total GULP energy -545219.361058 kJ/mol
# GULP energy per Si atom -12391.349115 kJ/mol
# Density = 1.317177 g / cm^3
# Si number density = 13.201820 Si / 1000 Ang^3
#
#
#
# Elastic Constant Matrix: (Units=GPa)
#
#
# Indices 1 2 3 4 5 6 
#
# 1 60.7374 28.0039 41.1654 0.0000 0.0000 0.0000
# 2 28.0039 65.6755 41.5791 0.0000 0.0000 0.0000
# 3 41.1654 41.5791 85.8510 0.0000 0.0000 0.0000
# 4 0.0000 0.0000 0.0000 11.4901 0.0000 0.0000
# 5 0.0000 0.0000 0.0000 0.0000 0.8463 0.0000
# 6 0.0000 0.0000 0.0000 0.0000 0.0000 9.6359
#
#
#
# Elastic Compliance Matrix: (Units=1/GPa)
#
#
# Indices 1 2 3 4 5 6 
#
# 1 0.025272 -0.004477 -0.009950 0.000000 0.000000 0.000000
# 2 -0.004477 0.022753 -0.008873 0.000000 0.000000 0.000000
# 3 -0.009950 -0.008873 0.020716 0.000000 0.000000 0.000000
# 4 0.000000 0.000000 0.000000 0.087031 0.000000 0.000000
# 5 0.000000 0.000000 0.000000 0.000000 1.181678 0.000000
# 6 0.000000 0.000000 0.000000 0.000000 0.000000 0.103778
#
#
# Mechanical properties :
#
#
# Convention : Reuss Voigt Hill
#
# Bulk Modulus (GPa) = 45.16273 48.19563 46.67918
# Shear Modulus (GPa) = 3.34402 11.16217 7.25309
#
# Velocity S-wave (km/s) = 1.59327 2.91091 2.34647
# Velocity P-wave (km/s) = 6.13746 6.91982 6.54035
#
# Compressibility (1/GPa) = 0.02214215
#
# Stress axis : x y z
#
# Youngs Moduli (GPa) = 39.56971 43.95084 48.27140
#
# Poissons Ratio (x) = 0.19676 0.48028
# Poissons Ratio (y) = 0.17714 0.42831
# Poissons Ratio (z) = 0.39370 0.38997
#
# Static dielectric constant tensor:
#      x y z
#    x 2.502630 0.000000 0.000000 
#    y 0.000000 2.684630 0.000000 
#    z 0.000000 0.000000 2.738930 
# 
# 
# High freq. dielectric constant tensor:
#      x y z
#    x 1.444100 0.000000 0.000000 
#    y 0.000000 1.496530 0.000000 
#    z 0.000000 0.000000 1.490990 
# 
# From -- ./inp_files/25376.got.cif
#   From: 2010.03.12/outbox.cif.g09.slc.cpg/sg47_13_cif.got.tgz:25376.got - 2010.04.14 03:12:58.
