data_PCOD8200092
_publ_section_title
;
Structure prediction by ZEFSAII (Michael W. Deem and Ramdas Pophale) SiO2 
 PCOD8200092
Probable space group: P M M M
;
_chemical_formula_sum "Si O2"
_cell_formula_units_Z 48
_cell_length_a 9.215370
_cell_length_b 15.368541
_cell_length_c 17.341522
_cell_angle_alpha 90.000000
_cell_angle_beta 90.000000
_cell_angle_gamma 90.000000
_cell_volume 2456.024124
_symmetry_space_group_name_H-M "P M M M"
_symmetry_group_IT_number 47
_symmetry_cell_setting 'orthorhombic'
loop_
_space_group_symop_operation_xyz
x,y,z
-x,-y,z
x,-y,-z
-x,y,-z
-x,-y,-z
x,y,-z
-x,y,z
x,-y,z
loop_
_atom_site_type_symbol
_atom_site_label
_atom_site_fract_x
_atom_site_fract_y
_atom_site_fract_z
Si Si1 0.671948 0.500000 0.083909
Si Si2 0.340688 0.682747 0.909789
Si Si3 0.173021 0.000000 0.911163
Si Si4 0.172083 0.757008 0.668439
Si Si5 0.670050 0.399836 0.410957
Si Si6 0.170855 0.824579 0.166246
Si Si7 0.660929 0.904141 0.590623
O O1 0.500000 0.500000 0.073770
O O2 0.712978 0.590221 0.128145
O O3 0.748724 0.500000 0.000000
O O4 0.500000 0.710089 0.877098
O O5 0.221538 0.755310 0.896266
O O6 0.354602 0.665847 0.000000
O O7 0.232417 0.917475 0.862511
O O8 0.000000 0.000000 0.914253
O O9 0.232022 0.000000 0.000000
O O10 0.242799 0.664735 0.645437
O O11 0.229426 0.791503 0.751267
O O12 0.219380 0.832659 0.610545
O O13 0.000000 0.745356 0.666269
O O14 0.711501 0.380384 0.500000
O O15 0.500000 0.383556 0.398513
O O16 0.709732 0.500000 0.390683
O O17 0.000000 0.829186 0.167794
O O18 0.654180 0.910099 0.500000
O O19 0.500000 0.878043 0.621765
O O20 0.704610 0.000000 0.623565
#
# Coordination Sequence:
#
# PCOD8200092 Si02
#       7
#     4   8   4   8   8   8   8
#     4   7  12  26  49  75 101 129 160 199 254 315
#     4   9  17  32  55  80 105 134 173 222 270 319
#     4   9  18  36  61  79  96 137 192 232 267 321
#     4  11  23  35  52  81 117 151 182 226 282 336
#     4   9  19  38  63  86 109 145 194 240 278 326
#     4  10  22  37  53  77 108 145 182 222 272 329
#     4   9  19  36  57  80 107 143 186 228 270 323
#
# _framework density 19.543782
#
# number of rings (size 3 to 8) (size 9 to 14) (size 15 to 20)
#    0.000    2.667    0.000    3.500    1.167    5.667 
#    1.500    2.500    0.000    3.000    0.000    0.000 
#    0.000    0.000    0.000    0.000    0.000    0.000 
#
# Total GULP energy -594684.398921 kJ/mol
# GULP energy per Si atom -12389.258311 kJ/mol
# Density = 1.949930 g / cm^3
# Si number density = 19.543782 Si / 1000 Ang^3
#
#
#
# Elastic Constant Matrix: (Units=GPa)
#
#
# Indices 1 2 3 4 5 6 
#
# 1 34.4039 41.7518 32.0812 0.0000 0.0000 0.0000
# 2 41.7518 182.9806 63.0762 0.0000 0.0000 0.0000
# 3 32.0812 63.0762 76.0739 0.0000 0.0000 0.0000
# 4 0.0000 0.0000 0.0000 30.3345 0.0000 0.0000
# 5 0.0000 0.0000 0.0000 0.0000 20.7488 0.0000
# 6 0.0000 0.0000 0.0000 0.0000 0.0000 28.9431
#
#
#
# Elastic Compliance Matrix: (Units=1/GPa)
#
#
# Indices 1 2 3 4 5 6 
#
# 1 0.052306 -0.006065 -0.017030 0.000000 0.000000 0.000000
# 2 -0.006065 0.008355 -0.004370 0.000000 0.000000 0.000000
# 3 -0.017030 -0.004370 0.023950 0.000000 0.000000 0.000000
# 4 0.000000 0.000000 0.000000 0.032966 0.000000 0.000000
# 5 0.000000 0.000000 0.000000 0.000000 0.048196 0.000000
# 6 0.000000 0.000000 0.000000 0.000000 0.000000 0.034551
#
#
# Mechanical properties :
#
#
# Convention : Reuss Voigt Hill
#
# Bulk Modulus (GPa) = 33.68953 63.03075 48.36014
# Shear Modulus (GPa) = 18.85741 26.44189 22.64965
#
# Velocity S-wave (km/s) = 3.10962 3.68225 3.40798
# Velocity P-wave (km/s) = 5.49258 7.09927 6.34697
#
# Compressibility (1/GPa) = 0.02968281
#
# Stress axis : x y z
#
# Youngs Moduli (GPa) = 19.11809 119.68352 41.75308
#
# Poissons Ratio (x) = 0.72584 0.71104
# Poissons Ratio (y) = 0.11594 0.18247
# Poissons Ratio (z) = 0.32558 0.52305
#
# Static dielectric constant tensor:
#      x y z
#    x 3.233870 0.000000 0.000000 
#    y 0.000000 4.055680 0.000000 
#    z 0.000000 0.000000 3.458520 
# 
# 
# High freq. dielectric constant tensor:
#      x y z
#    x 1.731520 0.000000 0.000000 
#    y 0.000000 1.784790 0.000000 
#    z 0.000000 0.000000 1.739960 
# 
# From -- ./inp_files/26521.got.cif
#   From: 2010.03.12/outbox.cif.g09.slc.cpg/sg47_14_cif.got.tgz:26521.got - 2010.04.14 03:12:58.
