data_PCOD8200100
_publ_section_title
;
Structure prediction by ZEFSAII (Michael W. Deem and Ramdas Pophale) SiO2 
 PCOD8200100
Probable space group: P M M M
;
_chemical_formula_sum "Si O2"
_cell_formula_units_Z 48
_cell_length_a 15.048425
_cell_length_b 18.177634
_cell_length_c 8.305162
_cell_angle_alpha 90.000000
_cell_angle_beta 90.000000
_cell_angle_gamma 90.000000
_cell_volume 2271.833562
_symmetry_space_group_name_H-M "P M M M"
_symmetry_group_IT_number 47
_symmetry_cell_setting 'orthorhombic'
loop_
_space_group_symop_operation_xyz
x,y,z
-x,-y,z
x,-y,-z
-x,y,-z
-x,-y,-z
x,y,-z
-x,y,z
x,-y,z
loop_
_atom_site_type_symbol
_atom_site_label
_atom_site_fract_x
_atom_site_fract_y
_atom_site_fract_z
Si Si1 0.105262 0.834169 0.179924
Si Si2 0.400863 0.696914 0.311637
Si Si3 0.605837 0.000000 0.681819
Si Si4 0.261517 0.581528 0.311596
Si Si5 0.894124 0.916070 0.500000
Si Si6 0.099982 0.666512 0.186010
Si Si7 0.605064 0.150779 0.180031
O O1 0.143526 0.880051 0.333035
O O2 0.132822 0.749971 0.210915
O O3 0.000000 0.841531 0.174920
O O4 0.140803 0.859316 0.000000
O O5 0.406627 0.684651 0.500000
O O6 0.500000 0.688798 0.235213
O O7 0.335677 0.635834 0.233601
O O8 0.361688 0.778664 0.280205
O O9 0.647017 0.926098 0.759700
O O10 0.500000 0.000000 0.700623
O O11 0.637063 0.000000 0.500000
O O12 0.277798 0.576924 0.500000
O O13 0.271421 0.500000 0.235176
O O14 0.163156 0.611881 0.282518
O O15 0.000000 0.908804 0.500000
O O16 0.862313 0.000000 0.500000
O O17 0.000000 0.656919 0.253497
O O18 0.103173 0.644715 0.000000
O O19 0.500000 0.144047 0.195651
O O20 0.637526 0.163972 0.000000
#
# Coordination Sequence:
#
# PCOD8200100 Si02
#       7
#     8   8   4   8   4   8   8
#     4   8  15  28  45  69 102 139 182 226 269 326
#     4   9  18  34  54  75 105 146 186 223 267 322
#     4   9  15  23  39  67 103 139 174 215 264 319
#     4  10  22  37  54  82 112 138 177 225 274 329
#     4   9  16  24  40  72 107 141 182 225 275 329
#     4   9  19  36  57  80 106 141 182 222 272 331
#     4   9  16  26  43  70 102 135 176 223 268 315
#
# _framework density 21.128309000000002
#
# number of rings (size 3 to 8) (size 9 to 14) (size 15 to 20)
#    0.000    3.000    0.000    1.750    1.167    5.333 
#    0.000    5.000    0.000    0.000    2.167    3.500 
#    0.000    0.000    0.000    0.000    0.000    0.000 
#
# Total GULP energy -594828.108570 kJ/mol
# GULP energy per Si atom -12392.252262 kJ/mol
# Density = 2.108022 g / cm^3
# Si number density = 21.128309 Si / 1000 Ang^3
#
#
#
# Elastic Constant Matrix: (Units=GPa)
#
#
# Indices 1 2 3 4 5 6 
#
# 1 61.7338 56.6693 14.2872 0.0000 0.0000 0.0000
# 2 56.6693 178.6362 56.1363 0.0000 0.0000 0.0000
# 3 14.2872 56.1363 80.5564 0.0000 0.0000 0.0000
# 4 0.0000 0.0000 0.0000 14.0097 0.0000 0.0000
# 5 0.0000 0.0000 0.0000 0.0000 8.1263 0.0000
# 6 0.0000 0.0000 0.0000 0.0000 0.0000 6.6018
#
#
#
# Elastic Compliance Matrix: (Units=1/GPa)
#
#
# Indices 1 2 3 4 5 6 
#
# 1 0.022957 -0.007687 0.001285 0.000000 0.000000 0.000000
# 2 -0.007687 0.009741 -0.005425 0.000000 0.000000 0.000000
# 3 0.001285 -0.005425 0.015966 0.000000 0.000000 0.000000
# 4 0.000000 0.000000 0.000000 0.071379 0.000000 0.000000
# 5 0.000000 0.000000 0.000000 0.000000 0.123057 0.000000
# 6 0.000000 0.000000 0.000000 0.000000 0.000000 0.151473
#
#
# Mechanical properties :
#
#
# Convention : Reuss Voigt Hill
#
# Bulk Modulus (GPa) = 39.98204 63.90133 51.94169
# Shear Modulus (GPa) = 11.72157 18.66981 15.19569
#
# Velocity S-wave (km/s) = 2.35793 2.97583 2.68472
# Velocity P-wave (km/s) = 5.13592 6.48980 5.85214
#
# Compressibility (1/GPa) = 0.02501123
#
# Stress axis : x y z
#
# Youngs Moduli (GPa) = 43.55934 102.65700 62.63223
#
# Poissons Ratio (x) = 0.78908 -0.08047
# Poissons Ratio (y) = 0.33482 0.33978
# Poissons Ratio (z) = -0.05597 0.55691
#
# Static dielectric constant tensor:
#      x y z
#    x 3.526630 0.000000 0.000000 
#    y 0.000000 4.085820 0.000000 
#    z 0.000000 0.000000 3.832060 
# 
# 
# High freq. dielectric constant tensor:
#      x y z
#    x 1.796650 0.000000 0.000000 
#    y 0.000000 1.828990 0.000000 
#    z 0.000000 0.000000 1.817210 
# 
# From -- ./inp_files/6405.got.cif
#   From: 2010.03.12/outbox.cif.g09.slc.cpg/sg47_4_cif.got.tgz:6405.got - 2010.04.14 03:12:58.
