data_PCOD8200027
_publ_section_title
;
Structure prediction by ZEFSAII (Michael W. Deem and Ramdas Pophale) SiO2 
 PCOD8200027
Probable space group: P M M M
;
_chemical_formula_sum "Si O2"
_cell_formula_units_Z 34
_cell_length_a 7.706370
_cell_length_b 7.909842
_cell_length_c 26.585659
_cell_angle_alpha 90.000000
_cell_angle_beta 90.000000
_cell_angle_gamma 90.000000
_cell_volume 1620.559925
_symmetry_space_group_name_H-M "P M M M"
_symmetry_group_IT_number 47
_symmetry_cell_setting 'orthorhombic'
loop_
_space_group_symop_operation_xyz
x,y,z
-x,-y,z
x,-y,-z
-x,y,-z
-x,-y,-z
x,y,-z
-x,y,z
x,-y,z
loop_
_atom_site_type_symbol
_atom_site_label
_atom_site_fract_x
_atom_site_fract_y
_atom_site_fract_z
Si Si1 0.797928 0.696830 0.055451
Si Si2 0.000000 0.000000 0.705007
Si Si3 0.000000 0.685042 0.221685
Si Si4 0.707959 0.000000 0.623955
Si Si5 0.692368 0.808849 0.159229
Si Si6 0.705334 0.312425 0.556115
O O1 0.759590 0.500000 0.062465
O O2 0.697815 0.796811 0.098742
O O3 0.000000 0.736175 0.060928
O O4 0.733604 0.755485 0.000000
O O5 0.000000 0.170111 0.737087
O O6 0.819846 0.000000 0.674442
O O7 0.831406 0.690652 0.186145
O O8 0.000000 0.500000 0.247877
O O9 0.769297 0.166431 0.593503
O O10 0.500000 0.000000 0.635346
O O11 0.500000 0.756685 0.177406
O O12 0.733898 0.000000 0.175374
O O13 0.779191 0.277940 0.500000
O O14 0.500000 0.306492 0.553676
O O15 0.766268 0.500000 0.574515
#
# Coordination Sequence:
#
# PCOD8200027 Si02
#       6
#     8   2   4   4   8   8
#     4   9  18  33  55  87 127 166 200 236 287 358
#     4  12  28  46  63  92 121 152 210 264 328 382
#     4  12  26  48  71  88 117 156 204 268 327 380
#     4  10  21  38  62  88 124 167 204 253 309 365
#     4  11  23  40  65  94 124 156 199 255 310 373
#     4   8  14  28  55  91 129 170 212 248 290 352
#
# _framework density 20.980402999999999
#
# number of rings (size 3 to 8) (size 9 to 14) (size 15 to 20)
#    0.000    2.118    2.353    2.471    0.000    6.118 
#    0.000    4.706    0.000    1.412    0.000    0.000 
#    0.000    0.000    0.000    0.000    0.000    0.000 
#
# Total GULP energy -421453.071389 kJ/mol
# GULP energy per Si atom -12395.678570 kJ/mol
# Density = 2.093265 g / cm^3
# Si number density = 20.980403 Si / 1000 Ang^3
#
#
#
# Elastic Constant Matrix: (Units=GPa)
#
#
# Indices 1 2 3 4 5 6 
#
# 1 88.3027 44.4574 39.0263 0.0000 0.0000 0.0000
# 2 44.4574 137.9766 65.0473 0.0000 0.0000 0.0000
# 3 39.0263 65.0473 112.2519 0.0000 0.0000 0.0000
# 4 0.0000 0.0000 0.0000 21.8457 0.0000 0.0000
# 5 0.0000 0.0000 0.0000 0.0000 1.0442 0.0000
# 6 0.0000 0.0000 0.0000 0.0000 0.0000 -21.6722
#
#
#
# Elastic Compliance Matrix: (Units=1/GPa)
#
#
# Indices 1 2 3 4 5 6 
#
# 1 0.014290 -0.003113 -0.003165 0.000000 0.000000 0.000000
# 2 -0.003113 0.010650 -0.005089 0.000000 0.000000 0.000000
# 3 -0.003165 -0.005089 0.012958 0.000000 0.000000 0.000000
# 4 0.000000 0.000000 0.000000 0.045776 0.000000 0.000000
# 5 0.000000 0.000000 0.000000 0.000000 0.957695 0.000000
# 6 0.000000 0.000000 0.000000 0.000000 0.000000 -0.046142
#
#
# Mechanical properties :
#
#
# Convention : Reuss Voigt Hill
#
# Bulk Modulus (GPa) = 65.94024 70.62148 68.28086
# Shear Modulus (GPa) = 4.88752 12.91022 8.89887
#
# Velocity S-wave (km/s) = 1.52795 2.48331 2.06173
# Velocity P-wave (km/s) = 5.88307 6.47736 6.18735
#
# Compressibility (1/GPa) = 0.01516525
#
# Stress axis : x y z
#
# Youngs Moduli (GPa) = 69.97704 93.89931 77.17367
#
# Poissons Ratio (x) = 0.29227 0.24423
# Poissons Ratio (y) = 0.21781 0.39274
# Poissons Ratio (z) = 0.22145 0.47786
#
# Static dielectric constant tensor:
#      x y z
#    x 3.562710 0.000000 0.000000 
#    y 0.000000 3.954870 0.000000 
#    z 0.000000 0.000000 3.695590 
# 
# 
# High freq. dielectric constant tensor:
#      x y z
#    x 1.810460 0.000000 0.000000 
#    y 0.000000 1.826380 0.000000 
#    z 0.000000 0.000000 1.801380 
# 
# From -- ./inp_files/29163.got.cif
#   From: 2010.03.12/outbox.cif.g09.slc.cpg/sg47_15_cif.got.tgz:29163.got - 2010.04.14 03:12:58.
