data_PCOD8200989
_publ_section_title
;
Structure prediction by ZEFSAII (Michael W. Deem and Ramdas Pophale) SiO2 
 PCOD8200989
Probable space group: P M M M
;
_chemical_formula_sum "Si O2"
_cell_formula_units_Z 40
_cell_length_a 9.543798
_cell_length_b 13.682744
_cell_length_c 19.016177
_cell_angle_alpha 90.000000
_cell_angle_beta 90.000000
_cell_angle_gamma 90.000000
_cell_volume 2483.234031
_symmetry_space_group_name_H-M "P M M M"
_symmetry_group_IT_number 47
_symmetry_cell_setting 'orthorhombic'
loop_
_space_group_symop_operation_xyz
x,y,z
-x,-y,z
x,-y,-z
-x,y,-z
-x,-y,-z
x,y,-z
-x,y,z
x,-y,z
loop_
_atom_site_type_symbol
_atom_site_label
_atom_site_fract_x
_atom_site_fract_y
_atom_site_fract_z
Si Si1 0.835432 0.295069 0.717124
Si Si2 0.336933 0.795447 0.920151
Si Si3 0.833777 0.390087 0.422957
Si Si4 0.838427 0.109771 0.197536
Si Si5 0.340151 0.390504 0.833888
O O1 0.781683 0.315296 0.637551
O O2 0.797359 0.183909 0.739364
O O3 0.759064 0.371146 0.767825
O O4 0.000000 0.315432 0.723694
O O5 0.500000 0.821101 0.912643
O O6 0.251931 0.870450 0.871901
O O7 0.305821 0.684007 0.897017
O O8 0.285684 0.807862 0.000000
O O9 0.777108 0.356364 0.500000
O O10 0.780010 0.500000 0.406400
O O11 0.000000 0.390592 0.424798
O O12 0.000000 0.123938 0.176407
O O13 0.808567 0.000000 0.224445
O O14 0.500000 0.376911 0.808543
O O15 0.313298 0.500000 0.862122
#
# Coordination Sequence:
#
# PCOD8200989 Si02
#       5
#     8   8   8   8   8
#     4   9  16  27  44  62  81 108 141 173 201 236
#     4   9  18  31  45  62  83 106 135 170 205 244
#     4   8  13  21  36  61  88 109 132 164 199 234
#     4   9  18  31  45  61  81 106 136 171 212 251
#     4   9  17  28  42  61  85 111 136 164 201 243
#
# _framework density 16.108027
#
# number of rings (size 3 to 8) (size 9 to 14) (size 15 to 20)
#    0.000    3.200    0.000    1.200    0.000    2.800 
#    0.000    4.000    0.000    1.200    0.000   12.600 
#    0.000    0.000    0.000   10.000    0.000   10.800 
#
# Total GULP energy -495780.318607 kJ/mol
# GULP energy per Si atom -12394.507965 kJ/mol
# Density = 1.607136 g / cm^3
# Si number density = 16.108027 Si / 1000 Ang^3
#
#
#
# Elastic Constant Matrix: (Units=GPa)
#
#
# Indices 1 2 3 4 5 6 
#
# 1 27.6306 23.6172 29.0280 0.0000 0.0000 0.0000
# 2 23.6172 98.3429 55.3536 0.0000 0.0000 0.0000
# 3 29.0280 55.3536 134.8606 0.0000 0.0000 0.0000
# 4 0.0000 0.0000 0.0000 17.6507 0.0000 0.0000
# 5 0.0000 0.0000 0.0000 0.0000 11.8467 0.0000
# 6 0.0000 0.0000 0.0000 0.0000 0.0000 18.7319
#
#
#
# Elastic Compliance Matrix: (Units=1/GPa)
#
#
# Indices 1 2 3 4 5 6 
#
# 1 0.051095 -0.007907 -0.007752 0.000000 0.000000 0.000000
# 2 -0.007907 0.014447 -0.004228 0.000000 0.000000 0.000000
# 3 -0.007752 -0.004228 0.010819 0.000000 0.000000 0.000000
# 4 0.000000 0.000000 0.000000 0.056655 0.000000 0.000000
# 5 0.000000 0.000000 0.000000 0.000000 0.084412 0.000000
# 6 0.000000 0.000000 0.000000 0.000000 0.000000 0.053385
#
#
# Mechanical properties :
#
#
# Convention : Reuss Voigt Hill
#
# Bulk Modulus (GPa) = 27.33261 52.98130 40.15696
# Shear Modulus (GPa) = 15.49032 19.83489 17.66260
#
# Velocity S-wave (km/s) = 3.10442 3.51289 3.31495
# Velocity P-wave (km/s) = 5.46397 7.02969 6.29569
#
# Compressibility (1/GPa) = 0.03658633
#
# Stress axis : x y z
#
# Youngs Moduli (GPa) = 19.57152 69.21816 92.42936
#
# Poissons Ratio (x) = 0.54730 0.71655
# Poissons Ratio (y) = 0.15475 0.39078
# Poissons Ratio (z) = 0.15173 0.29265
#
# Static dielectric constant tensor:
#      x y z
#    x 2.894760 0.000000 0.000000 
#    y 0.000000 3.098140 0.000000 
#    z 0.000000 0.000000 3.253590 
# 
# 
# High freq. dielectric constant tensor:
#      x y z
#    x 1.598280 0.000000 0.000000 
#    y 0.000000 1.613690 0.000000 
#    z 0.000000 0.000000 1.610290 
# 
# From -- ./inp_files/5931.got.cif
#   From: 2010.03.12/outbox.cif.g09.slc.cpg/sg47_3_cif.got.tgz:5931.got - 2010.04.14 03:12:58.
