data_PCOD8200802
_publ_section_title
;
Structure prediction by ZEFSAII (Michael W. Deem and Ramdas Pophale) SiO2 
 PCOD8200802
Probable space group: P M M M
;
_chemical_formula_sum "Si O2"
_cell_formula_units_Z 52
_cell_length_a 9.918534
_cell_length_b 9.291921
_cell_length_c 33.314756
_cell_angle_alpha 90.000000
_cell_angle_beta 90.000000
_cell_angle_gamma 90.000000
_cell_volume 3070.362350
_symmetry_space_group_name_H-M "P M M M"
_symmetry_group_IT_number 47
_symmetry_cell_setting 'orthorhombic'
loop_
_space_group_symop_operation_xyz
x,y,z
-x,-y,z
x,-y,-z
-x,y,-z
-x,-y,-z
x,y,-z
-x,y,z
x,-y,z
loop_
_atom_site_type_symbol
_atom_site_label
_atom_site_fract_x
_atom_site_fract_y
_atom_site_fract_z
Si Si1 0.344026 0.832197 0.422252
Si Si2 0.348905 0.671038 0.799410
Si Si3 0.340033 0.661970 0.500000
Si Si4 0.154498 0.331244 0.730425
Si Si5 0.150994 0.328715 0.044557
Si Si6 0.154496 0.832598 0.349469
Si Si7 0.348965 0.328672 0.111478
O O1 0.500000 0.796512 0.412475
O O2 0.289276 0.744711 0.460513
O O3 0.252632 0.782786 0.385065
O O4 0.325241 0.000000 0.431861
O O5 0.500000 0.724999 0.789115
O O6 0.345152 0.500000 0.798852
O O7 0.244857 0.732234 0.766607
O O8 0.306535 0.724879 0.843953
O O9 0.281820 0.500000 0.500000
O O10 0.500000 0.661247 0.500000
O O11 0.178075 0.500000 0.724320
O O12 0.199518 0.254062 0.689730
O O13 0.000000 0.296084 0.741048
O O14 0.154294 0.500000 0.046640
O O15 0.249568 0.261170 0.078121
O O16 0.000000 0.273348 0.053421
O O17 0.196897 0.278529 0.000000
O O18 0.000000 0.797251 0.361380
O O19 0.173202 0.000000 0.339998
O O20 0.500000 0.275898 0.101643
O O21 0.342916 0.500000 0.110093
#
# Coordination Sequence:
#
# PCOD8200802 Si02
#       7
#     8   8   4   8   8   8   8
#     4   9  17  30  48  67  86 111 143 174 202 237
#     4   8  14  24  36  51  72  96 123 158 200 243
#     4   9  17  29  46  69  94 116 140 173 210 244
#     4   9  17  28  42  60  80 103 133 167 201 239
#     4   8  13  19  25  35  53  78 111 152 194 232
#     4   9  18  32  47  63  86 114 140 168 205 246
#     4   8  13  20  29  41  58  82 113 149 189 233
#
# _framework density 16.936112000000001
#
# number of rings (size 3 to 8) (size 9 to 14) (size 15 to 20)
#    0.000    3.462    0.000    1.615    0.000    3.077 
#    0.000    5.000    0.000    2.308    0.000    0.000 
#    0.000    0.000    0.000    0.000    0.000    0.769 
#
# Total GULP energy -644530.041574 kJ/mol
# GULP energy per Si atom -12394.808492 kJ/mol
# Density = 1.689756 g / cm^3
# Si number density = 16.936112 Si / 1000 Ang^3
#
#
#
# Elastic Constant Matrix: (Units=GPa)
#
#
# Indices 1 2 3 4 5 6 
#
# 1 98.0092 24.1583 104.1929 0.0000 0.0000 0.0000
# 2 24.1583 25.2514 39.1081 0.0000 0.0000 0.0000
# 3 104.1929 39.1081 185.5868 0.0000 0.0000 0.0000
# 4 0.0000 0.0000 0.0000 1.0623 0.0000 0.0000
# 5 0.0000 0.0000 0.0000 0.0000 34.8243 0.0000
# 6 0.0000 0.0000 0.0000 0.0000 0.0000 9.8912
#
#
#
# Elastic Compliance Matrix: (Units=1/GPa)
#
#
# Indices 1 2 3 4 5 6 
#
# 1 0.025492 -0.003300 -0.013617 0.000000 0.000000 0.000000
# 2 -0.003300 0.059215 -0.010625 0.000000 0.000000 0.000000
# 3 -0.013617 -0.010625 0.015272 0.000000 0.000000 0.000000
# 4 0.000000 0.000000 0.000000 0.941336 0.000000 0.000000
# 5 0.000000 0.000000 0.000000 0.000000 0.028716 0.000000
# 6 0.000000 0.000000 0.000000 0.000000 0.000000 0.101100
#
#
# Mechanical properties :
#
#
# Convention : Reuss Voigt Hill
#
# Bulk Modulus (GPa) = 22.27410 71.52953 46.90181
# Shear Modulus (GPa) = 4.02842 18.58143 11.30493
#
# Velocity S-wave (km/s) = 1.54394 3.31592 2.58641
# Velocity P-wave (km/s) = 4.04459 7.54897 6.05581
#
# Compressibility (1/GPa) = 0.04489520
#
# Stress axis : x y z
#
# Youngs Moduli (GPa) = 39.22771 16.88759 65.47923
#
# Poissons Ratio (x) = 0.05573 0.89160
# Poissons Ratio (y) = 0.12945 0.69575
# Poissons Ratio (z) = 0.53414 0.17944
#
# Static dielectric constant tensor:
#      x y z
#    x 3.286160 0.000000 0.000000 
#    y 0.000000 2.701350 0.000000 
#    z 0.000000 0.000000 3.463170 
# 
# 
# High freq. dielectric constant tensor:
#      x y z
#    x 1.647010 0.000000 0.000000 
#    y 0.000000 1.597220 0.000000 
#    z 0.000000 0.000000 1.663690 
# 
# From -- ./inp_files/33575.got.cif
#   From: 2010.03.12/outbox.cif.g09.slc.cpg/sg47_17_cif.got.tgz:33575.got - 2010.04.14 03:12:58.
