data_PCOD8200296
_publ_section_title
;
Structure prediction by ZEFSAII (Michael W. Deem and Ramdas Pophale) SiO2 
 PCOD8200296
Probable space group: P M M M
;
_chemical_formula_sum "Si O2"
_cell_formula_units_Z 56
_cell_length_a 9.263547
_cell_length_b 14.550276
_cell_length_c 23.486070
_cell_angle_alpha 90.000000
_cell_angle_beta 90.000000
_cell_angle_gamma 90.000000
_cell_volume 3165.620806
_symmetry_space_group_name_H-M "P M M M"
_symmetry_group_IT_number 47
_symmetry_cell_setting 'orthorhombic'
loop_
_space_group_symop_operation_xyz
x,y,z
-x,-y,z
x,-y,-z
-x,y,-z
-x,-y,-z
x,y,-z
-x,y,z
x,-y,z
loop_
_atom_site_type_symbol
_atom_site_label
_atom_site_fract_x
_atom_site_fract_y
_atom_site_fract_z
Si Si1 0.827856 0.720567 0.062577
Si Si2 0.165271 0.607106 0.831481
Si Si3 0.163767 0.892349 0.248496
Si Si4 0.171082 0.900134 0.879570
Si Si5 0.331211 0.215499 0.342350
Si Si6 0.167558 0.895819 0.566103
Si Si7 0.332277 0.396254 0.718857
O O1 0.768066 0.653968 0.111924
O O2 0.773489 0.823994 0.076120
O O3 0.000000 0.716072 0.062183
O O4 0.768224 0.692339 0.000000
O O5 0.180709 0.500000 0.842020
O O6 0.249665 0.637853 0.775192
O O7 0.000000 0.637670 0.822537
O O8 0.214840 0.870812 0.184306
O O9 0.273907 0.840801 0.288941
O O10 0.000000 0.857560 0.259120
O O11 0.172341 0.000000 0.261399
O O12 0.000000 0.908040 0.881359
O O13 0.237905 0.000000 0.895471
O O14 0.500000 0.197192 0.348645
O O15 0.255631 0.180827 0.399724
O O16 0.298899 0.324420 0.332156
O O17 0.196586 0.877402 0.500000
O O18 0.000000 0.884034 0.581077
O O19 0.216022 0.000000 0.582111
O O20 0.500000 0.394980 0.734411
O O21 0.283840 0.500000 0.700780
#
# Coordination Sequence:
#
# PCOD8200296 Si02
#       7
#     8   8   8   8   8   8   8
#     4   9  16  24  36  57  84 112 142 181 230 277
#     4   9  17  29  46  67  88 112 146 187 231 281
#     4   9  17  29  45  65  92 126 157 186 229 285
#     4   8  14  24  37  54  78 111 150 185 217 263
#     4  11  21  30  47  75 100 123 155 197 240 275
#     4   9  19  36  55  74 100 136 170 192 217 262
#     4   9  19  35  51  68  94 126 157 191 235 286
#
# _framework density 17.690052999999999
#
# number of rings (size 3 to 8) (size 9 to 14) (size 15 to 20)
#    0.000    2.857    0.000    3.000    0.000    5.429 
#    0.000    3.571    0.000    0.857    0.000    5.000 
#    0.000    0.000    0.000   12.286    0.000   10.000 
#
# Total GULP energy -694104.833706 kJ/mol
# GULP energy per Si atom -12394.729173 kJ/mol
# Density = 1.764979 g / cm^3
# Si number density = 17.690053 Si / 1000 Ang^3
#
#
#
# Elastic Constant Matrix: (Units=GPa)
#
#
# Indices 1 2 3 4 5 6 
#
# 1 47.7224 39.2449 41.4737 0.0000 0.0000 0.0000
# 2 39.2449 86.4184 65.7199 0.0000 0.0000 0.0000
# 3 41.4737 65.7199 101.1631 0.0000 0.0000 0.0000
# 4 0.0000 0.0000 0.0000 29.0019 0.0000 0.0000
# 5 0.0000 0.0000 0.0000 0.0000 2.4293 0.0000
# 6 0.0000 0.0000 0.0000 0.0000 0.0000 19.5368
#
#
#
# Elastic Compliance Matrix: (Units=1/GPa)
#
#
# Indices 1 2 3 4 5 6 
#
# 1 0.036686 -0.010322 -0.008335 0.000000 0.000000 0.000000
# 2 -0.010322 0.025775 -0.012513 0.000000 0.000000 0.000000
# 3 -0.008335 -0.012513 0.021431 0.000000 0.000000 0.000000
# 4 0.000000 0.000000 0.000000 0.034481 0.000000 0.000000
# 5 0.000000 0.000000 0.000000 0.000000 0.411636 0.000000
# 6 0.000000 0.000000 0.000000 0.000000 0.000000 0.051186
#
#
# Mechanical properties :
#
#
# Convention : Reuss Voigt Hill
#
# Bulk Modulus (GPa) = 46.39680 58.68676 52.54178
# Shear Modulus (GPa) = 7.68383 16.11796 11.90089
#
# Velocity S-wave (km/s) = 2.08639 3.02177 2.59655
# Velocity P-wave (km/s) = 5.66468 6.73957 6.22537
#
# Compressibility (1/GPa) = 0.02155321
#
# Stress axis : x y z
#
# Youngs Moduli (GPa) = 27.25839 38.79755 46.66158
#
# Poissons Ratio (x) = 0.40046 0.38891
# Poissons Ratio (y) = 0.28135 0.58387
# Poissons Ratio (z) = 0.22719 0.48547
#
# Static dielectric constant tensor:
#      x y z
#    x 2.990880 0.000000 0.000000 
#    y 0.000000 3.599720 0.000000 
#    z 0.000000 0.000000 3.298100 
# 
# 
# High freq. dielectric constant tensor:
#      x y z
#    x 1.644930 0.000000 0.000000 
#    y 0.000000 1.691020 0.000000 
#    z 0.000000 0.000000 1.675300 
# 
# From -- ./inp_files/21581.got.cif
#   From: 2010.03.12/outbox.cif.g09.slc.cpg/sg47_11_cif.got.tgz:21581.got - 2010.04.14 03:12:58.
