data_PCOD8200135
_publ_section_title
;
Structure prediction by ZEFSAII (Michael W. Deem and Ramdas Pophale) SiO2 
 PCOD8200135
Probable space group: P M M M
;
_chemical_formula_sum "Si O2"
_cell_formula_units_Z 40
_cell_length_a 8.813019
_cell_length_b 11.791493
_cell_length_c 20.083735
_cell_angle_alpha 90.000000
_cell_angle_beta 90.000000
_cell_angle_gamma 90.000000
_cell_volume 2087.074665
_symmetry_space_group_name_H-M "P M M M"
_symmetry_group_IT_number 47
_symmetry_cell_setting 'orthorhombic'
loop_
_space_group_symop_operation_xyz
x,y,z
-x,-y,z
x,-y,-z
-x,y,-z
-x,-y,-z
x,y,-z
-x,y,z
x,-y,z
loop_
_atom_site_type_symbol
_atom_site_label
_atom_site_fract_x
_atom_site_fract_y
_atom_site_fract_z
Si Si1 0.821429 0.000000 0.726735
Si Si2 0.825817 0.222707 0.076026
Si Si3 0.322881 0.369644 0.184557
Si Si4 0.322824 0.226131 0.687024
Si Si5 0.173866 0.369181 0.576519
Si Si6 0.678806 0.000000 0.871759
O O1 0.769823 0.890249 0.685772
O O2 0.747437 0.000000 0.798816
O O3 0.000000 0.000000 0.734886
O O4 0.769506 0.326032 0.121158
O O5 0.000000 0.194936 0.092787
O O6 0.728631 0.110407 0.088160
O O7 0.805244 0.261453 0.000000
O O8 0.500000 0.353586 0.169855
O O9 0.280702 0.500000 0.197312
O O10 0.272351 0.299643 0.249274
O O11 0.500000 0.198496 0.689390
O O12 0.285879 0.294083 0.620273
O O13 0.198989 0.334995 0.500000
O O14 0.216444 0.500000 0.587633
O O15 0.000000 0.347152 0.597475
O O16 0.500000 0.000000 0.864059
#
# Coordination Sequence:
#
# PCOD8200135 Si02
#       6
#     4   8   8   8   8   4
#     4  12  24  39  62  89 118 154 194 240 294 349
#     4  11  24  40  59  85 116 152 196 245 296 351
#     4  10  22  39  59  84 116 155 196 240 294 354
#     4  11  22  38  61  90 121 155 196 244 295 348
#     4   9  19  37  61  90 125 164 203 242 287 341
#     4  12  23  39  62  88 115 149 192 241 297 354
#
# _framework density 19.165582000000001
#
# number of rings (size 3 to 8) (size 9 to 14) (size 15 to 20)
#    0.000    1.400    2.000    4.500    0.000    6.000 
#    0.000    3.500    0.000    3.000    0.000    0.000 
#    0.000    0.000    0.000    0.000    0.000    0.000 
#
# Total GULP energy -496259.048650 kJ/mol
# GULP energy per Si atom -12406.476216 kJ/mol
# Density = 1.912196 g / cm^3
# Si number density = 19.165582 Si / 1000 Ang^3
#
#
#
# Elastic Constant Matrix: (Units=GPa)
#
#
# Indices 1 2 3 4 5 6 
#
# 1 110.7837 54.8719 47.9371 0.0000 0.0000 0.0000
# 2 54.8719 121.3181 50.1065 0.0000 0.0000 0.0000
# 3 47.9371 50.1065 102.2833 0.0000 0.0000 0.0000
# 4 0.0000 0.0000 0.0000 35.1626 0.0000 0.0000
# 5 0.0000 0.0000 0.0000 0.0000 32.7335 0.0000
# 6 0.0000 0.0000 0.0000 0.0000 0.0000 33.4085
#
#
#
# Elastic Compliance Matrix: (Units=1/GPa)
#
#
# Indices 1 2 3 4 5 6 
#
# 1 0.012798 -0.004151 -0.003965 0.000000 0.000000 0.000000
# 2 -0.004151 0.011680 -0.003776 0.000000 0.000000 0.000000
# 3 -0.003965 -0.003776 0.013485 0.000000 0.000000 0.000000
# 4 0.000000 0.000000 0.000000 0.028439 0.000000 0.000000
# 5 0.000000 0.000000 0.000000 0.000000 0.030550 0.000000
# 6 0.000000 0.000000 0.000000 0.000000 0.000000 0.029933
#
#
# Mechanical properties :
#
#
# Convention : Reuss Voigt Hill
#
# Bulk Modulus (GPa) = 70.52698 71.13514 70.83106
# Shear Modulus (GPa) = 32.17610 32.35890 32.26750
#
# Velocity S-wave (km/s) = 4.10182 4.11346 4.10764
# Velocity P-wave (km/s) = 7.70142 7.73029 7.71587
#
# Compressibility (1/GPa) = 0.01417897
#
# Stress axis : x y z
#
# Youngs Moduli (GPa) = 78.13597 85.61623 74.15781
#
# Poissons Ratio (x) = 0.35541 0.29400
# Poissons Ratio (y) = 0.32436 0.28004
# Poissons Ratio (z) = 0.30977 0.32331
#
# Static dielectric constant tensor:
#      x y z
#    x 3.590680 0.000000 0.000000 
#    y 0.000000 3.607380 0.000000 
#    z 0.000000 0.000000 3.466430 
# 
# 
# High freq. dielectric constant tensor:
#      x y z
#    x 1.752090 0.000000 0.000000 
#    y 0.000000 1.749450 0.000000 
#    z 0.000000 0.000000 1.746060 
# 
# From -- ./inp_files/29346.got.cif
#   From: 2010.03.12/outbox.cif.g09.slc.cpg/sg47_15_cif.got.tgz:29346.got - 2010.04.14 03:12:58.
