data_PCOD8200908
_publ_section_title
;
Structure prediction by ZEFSAII (Michael W. Deem and Ramdas Pophale) SiO2 
 PCOD8200908
Probable space group: P M M M
;
_chemical_formula_sum "Si O2"
_cell_formula_units_Z 36
_cell_length_a 7.455046
_cell_length_b 10.077349
_cell_length_c 27.181608
_cell_angle_alpha 90.000000
_cell_angle_beta 90.000000
_cell_angle_gamma 90.000000
_cell_volume 2042.075392
_symmetry_space_group_name_H-M "P M M M"
_symmetry_group_IT_number 47
_symmetry_cell_setting 'orthorhombic'
loop_
_space_group_symop_operation_xyz
x,y,z
-x,-y,z
x,-y,-z
-x,y,-z
-x,-y,-z
x,y,-z
-x,y,z
x,-y,z
loop_
_atom_site_type_symbol
_atom_site_label
_atom_site_fract_x
_atom_site_fract_y
_atom_site_fract_z
Si Si1 0.000000 0.842126 0.075227
Si Si2 0.000000 0.841380 0.185471
Si Si3 0.703784 0.842362 0.000000
Si Si4 0.697719 0.157829 0.742935
Si Si5 0.286778 0.351756 0.445108
Si Si6 0.713637 0.147847 0.365674
O O1 0.000000 0.783071 0.130299
O O2 0.182082 0.794144 0.047658
O O3 0.000000 0.000000 0.076172
O O4 0.826427 0.786863 0.214409
O O5 0.000000 0.000000 0.184491
O O6 0.500000 0.782629 0.000000
O O7 0.689994 0.000000 0.000000
O O8 0.500000 0.218161 0.752288
O O9 0.771194 0.197771 0.688777
O O10 0.688192 0.000000 0.744852
O O11 0.222132 0.312317 0.500000
O O12 0.500000 0.348111 0.442796
O O13 0.218715 0.500000 0.432218
O O14 0.204195 0.248085 0.406060
O O15 0.500000 0.144343 0.368129
O O16 0.789437 0.000000 0.376133
#
# Coordination Sequence:
#
# PCOD8200908 Si02
#       6
#     4   4   4   8   8   8
#     4   8  14  21  28  42  60  80 114 153 187 228
#     4   9  15  22  33  48  66  88 115 152 197 236
#     4   8  13  21  30  39  57  86 117 151 188 221
#     4   8  14  23  33  47  67  89 115 149 189 232
#     4   8  13  20  30  47  71  95 120 154 194 234
#     4   8  13  21  32  46  67  94 121 152 192 237
#
# _framework density 17.629124999999998
#
# number of rings (size 3 to 8) (size 9 to 14) (size 15 to 20)
#    0.000    3.889    0.000    2.667    0.000    1.333 
#    0.000    6.667    0.000    0.000    0.000    1.556 
#    0.000    6.222    0.000    0.667    0.000    0.000 
#
# Total GULP energy -445982.327477 kJ/mol
# GULP energy per Si atom -12388.397985 kJ/mol
# Density = 1.758900 g / cm^3
# Si number density = 17.629125 Si / 1000 Ang^3
#
#
#
# Elastic Constant Matrix: (Units=GPa)
#
#
# Indices 1 2 3 4 5 6 
#
# 1 90.8153 16.5973 61.4705 0.0000 0.0000 0.0000
# 2 16.5973 39.1540 50.1888 0.0000 0.0000 0.0000
# 3 61.4705 50.1888 185.8851 0.0000 0.0000 0.0000
# 4 0.0000 0.0000 0.0000 2.6021 0.0000 0.0000
# 5 0.0000 0.0000 0.0000 0.0000 688.3035 0.0000
# 6 0.0000 0.0000 0.0000 0.0000 0.0000 -0.9289
#
#
#
# Elastic Compliance Matrix: (Units=1/GPa)
#
#
# Indices 1 2 3 4 5 6 
#
# 1 0.014187 0.000000 -0.004691 0.000000 0.000000 0.000000
# 2 0.000000 0.039058 -0.010546 0.000000 0.000000 0.000000
# 3 -0.004691 -0.010546 0.009778 0.000000 0.000000 0.000000
# 4 0.000000 0.000000 0.000000 0.384305 0.000000 0.000000
# 5 0.000000 0.000000 0.000000 0.000000 0.001453 0.000000
# 6 0.000000 0.000000 0.000000 0.000000 0.000000 -1.076491
#
#
# Mechanical properties :
#
#
# Convention : Reuss Voigt Hill
#
# Bulk Modulus (GPa) = 30.72307 63.59640 47.15973
# Shear Modulus (GPa) = -8.52681 150.50184 70.98752
#
# Velocity S-wave (km/s) = -2.20165 9.24967 6.35253
# Velocity P-wave (km/s) = 3.31696 12.25676 8.97860
#
# Compressibility (1/GPa) = 0.03254884
#
# Stress axis : x y z
#
# Youngs Moduli (GPa) = 70.48756 25.60305 102.26664
#
# Poissons Ratio (x) = 0.00000 0.47978
# Poissons Ratio (y) = 0.00001 1.07845
# Poissons Ratio (z) = 0.33069 0.27000
#
# Static dielectric constant tensor:
#      x y z
#    x 3.323910 0.000000 0.000000 
#    y 0.000000 2.847630 0.000000 
#    z 0.000000 0.000000 3.633190 
# 
# 
# High freq. dielectric constant tensor:
#      x y z
#    x 1.674150 0.000000 0.000000 
#    y 0.000000 1.601740 0.000000 
#    z 0.000000 0.000000 1.684900 
# 
# From -- ./inp_files/31784.got.cif
#   From: 2010.03.12/outbox.cif.g09.slc.cpg/sg47_16_cif.got.tgz:31784.got - 2010.04.14 03:12:58.
