data_PCOD8200776
_publ_section_title
;
Structure prediction by ZEFSAII (Michael W. Deem and Ramdas Pophale) SiO2 
 PCOD8200776
Probable space group: P M M M
;
_chemical_formula_sum "Si O2"
_cell_formula_units_Z 60
_cell_length_a 19.027755
_cell_length_b 9.611882
_cell_length_c 21.068270
_cell_angle_alpha 90.000000
_cell_angle_beta 90.000000
_cell_angle_gamma 90.000000
_cell_volume 3853.229325
_symmetry_space_group_name_H-M "P M M M"
_symmetry_group_IT_number 47
_symmetry_cell_setting 'orthorhombic'
loop_
_space_group_symop_operation_xyz
x,y,z
-x,-y,z
x,-y,-z
-x,y,-z
-x,-y,-z
x,y,-z
-x,y,z
x,-y,z
loop_
_atom_site_type_symbol
_atom_site_label
_atom_site_fract_x
_atom_site_fract_y
_atom_site_fract_z
Si Si1 0.076632 0.165182 0.132919
Si Si2 0.693457 0.160680 0.187053
Si Si3 0.224556 0.161000 0.684127
Si Si4 0.580419 0.660331 0.752705
Si Si5 0.660220 0.661579 0.624273
Si Si6 0.076585 0.165095 0.724752
Si Si7 0.215448 0.165638 0.070209
Si Si8 0.579187 0.665311 0.500000
O O1 0.084820 0.225263 0.204158
O O2 0.138362 0.225457 0.088499
O O3 0.000000 0.208621 0.105387
O O4 0.082913 0.000000 0.135891
O O5 0.747868 0.184183 0.244386
O O6 0.622939 0.248368 0.196927
O O7 0.728090 0.216579 0.121972
O O8 0.672018 0.000000 0.181690
O O9 0.268099 0.252405 0.634060
O O10 0.143076 0.213447 0.682105
O O11 0.231696 0.000000 0.664239
O O12 0.500000 0.706988 0.755998
O O13 0.590257 0.500000 0.771204
O O14 0.607070 0.688814 0.681771
O O15 0.680574 0.500000 0.618174
O O16 0.621224 0.717670 0.561675
O O17 0.000000 0.212391 0.696549
O O18 0.079349 0.000000 0.728919
O O19 0.212972 0.000000 0.070894
O O20 0.235733 0.221063 0.000000
O O21 0.574187 0.500000 0.500000
O O22 0.500000 0.727431 0.500000
#
# Coordination Sequence:
#
# PCOD8200776 Si02
#       8
#     8   8   8   8   8   8   8   4
#     4   8  12  18  29  48  76 108 139 168 200 240
#     4   9  16  26  40  59  82 107 134 165 204 247
#     4   9  15  25  41  60  84 112 141 172 205 240
#     4   9  17  29  45  64  83 102 128 164 202 237
#     4   9  17  28  44  66  88 110 135 163 194 234
#     4   8  12  19  34  55  79 108 140 172 205 241
#     4   9  15  22  33  51  78 110 139 167 203 246
#     4   9  16  28  47  67  88 115 142 162 187 235
#
# _framework density 15.571355000000001
#
# number of rings (size 3 to 8) (size 9 to 14) (size 15 to 20)
#    0.000    3.267    1.333    1.200    0.000    2.133 
#    0.000    1.667    0.000    2.800    0.000    3.267 
#    0.000    4.267    0.000    1.200    0.000    1.333 
#
# Total GULP energy -743537.806047 kJ/mol
# GULP energy per Si atom -12392.296767 kJ/mol
# Density = 1.553591 g / cm^3
# Si number density = 15.571355 Si / 1000 Ang^3
#
#
#
# Elastic Constant Matrix: (Units=GPa)
#
#
# Indices 1 2 3 4 5 6 
#
# 1 150.7943 40.6514 67.5188 0.0000 0.0000 0.0000
# 2 40.6514 28.2689 25.4128 0.0000 0.0000 0.0000
# 3 67.5188 25.4128 91.6523 0.0000 0.0000 0.0000
# 4 0.0000 0.0000 0.0000 13.0973 0.0000 0.0000
# 5 0.0000 0.0000 0.0000 0.0000 25.2385 0.0000
# 6 0.0000 0.0000 0.0000 0.0000 0.0000 12.1456
#
#
#
# Elastic Compliance Matrix: (Units=1/GPa)
#
#
# Indices 1 2 3 4 5 6 
#
# 1 0.012756 -0.013182 -0.005742 0.000000 0.000000 0.000000
# 2 -0.013182 0.060741 -0.007131 0.000000 0.000000 0.000000
# 3 -0.005742 -0.007131 0.017118 0.000000 0.000000 0.000000
# 4 0.000000 0.000000 0.000000 0.076352 0.000000 0.000000
# 5 0.000000 0.000000 0.000000 0.000000 0.039622 0.000000
# 6 0.000000 0.000000 0.000000 0.000000 0.000000 0.082334
#
#
# Mechanical properties :
#
#
# Convention : Reuss Voigt Hill
#
# Bulk Modulus (GPa) = 25.97058 59.76460 42.86759
# Shear Modulus (GPa) = 14.12953 19.23844 16.68398
#
# Velocity S-wave (km/s) = 3.01558 3.51878 3.27686
# Velocity P-wave (km/s) = 5.37026 7.41442 6.47353
#
# Compressibility (1/GPa) = 0.03850510
#
# Stress axis : x y z
#
# Youngs Moduli (GPa) = 78.39284 16.46339 58.41653
#
# Poissons Ratio (x) = 0.21701 0.33545
# Poissons Ratio (y) = 1.03334 0.41658
# Poissons Ratio (z) = 0.45016 0.11740
#
# Static dielectric constant tensor:
#      x y z
#    x 3.246900 0.000000 0.000000 
#    y 0.000000 2.559940 0.000000 
#    z 0.000000 0.000000 2.902140 
# 
# 
# High freq. dielectric constant tensor:
#      x y z
#    x 1.606730 0.000000 0.000000 
#    y 0.000000 1.545940 0.000000 
#    z 0.000000 0.000000 1.571170 
# 
# From -- ./inp_files/31186.got.cif
#   From: 2010.03.12/outbox.cif.g09.slc.cpg/sg47_16_cif.got.tgz:31186.got - 2010.04.14 03:12:58.
