data_PCOD8200259
_publ_section_title
;
Structure prediction by ZEFSAII (Michael W. Deem and Ramdas Pophale) SiO2 
 PCOD8200259
Probable space group: P M M M
;
_chemical_formula_sum "Si O2"
_cell_formula_units_Z 52
_cell_length_a 11.702849
_cell_length_b 8.757273
_cell_length_c 28.068200
_cell_angle_alpha 90.000000
_cell_angle_beta 90.000000
_cell_angle_gamma 90.000000
_cell_volume 2876.570700
_symmetry_space_group_name_H-M "P M M M"
_symmetry_group_IT_number 47
_symmetry_cell_setting 'orthorhombic'
loop_
_space_group_symop_operation_xyz
x,y,z
-x,-y,z
x,-y,-z
-x,y,-z
-x,-y,-z
x,y,-z
-x,y,z
x,-y,z
loop_
_atom_site_type_symbol
_atom_site_label
_atom_site_fract_x
_atom_site_fract_y
_atom_site_fract_z
Si Si1 0.500000 0.328092 0.305364
Si Si2 0.500000 0.673148 0.192763
Si Si3 0.371618 0.181243 0.947880
Si Si4 0.263570 0.178349 0.313233
Si Si5 0.722136 0.819211 0.850422
Si Si6 0.136338 0.326396 0.397331
Si Si7 0.875523 0.319644 0.500000
Si Si8 0.869477 0.679898 0.774314
O O1 0.500000 0.500000 0.325676
O O2 0.500000 0.329519 0.249005
O O3 0.388720 0.241979 0.324740
O O4 0.500000 0.500000 0.172530
O O5 0.390091 0.765319 0.176612
O O6 0.500000 0.243937 0.938019
O O7 0.286663 0.235749 0.905793
O O8 0.376974 0.000000 0.947826
O O9 0.328642 0.239464 0.000000
O O10 0.184564 0.211078 0.358537
O O11 0.211114 0.254983 0.266491
O O12 0.270054 0.000000 0.303464
O O13 0.832611 0.744036 0.825969
O O14 0.732365 0.000000 0.846475
O O15 0.173391 0.500000 0.384673
O O16 0.186064 0.276271 0.449841
O O17 0.000000 0.314977 0.397864
O O18 0.892728 0.500000 0.500000
O O19 0.000000 0.240581 0.500000
O O20 0.854113 0.500000 0.774830
O O21 0.000000 0.727942 0.764525
#
# Coordination Sequence:
#
# PCOD8200259 Si02
#       8
#     4   4   8   8   8   8   4   8
#     4  11  23  39  57  75 102 142 181 212 255 314
#     4  11  21  33  52  76 105 140 175 208 255 315
#     4   8  14  26  46  75 108 136 164 203 255 310
#     4  12  24  36  54  80 110 139 173 218 265 310
#     4  11  20  32  55  81 105 134 172 217 262 304
#     4   9  17  32  55  81 110 144 181 219 260 308
#     4   7  12  26  51  80 105 136 181 223 255 299
#     4  11  24  40  55  73 102 141 179 213 257 312
#
# _framework density 18.077081
#
# number of rings (size 3 to 8) (size 9 to 14) (size 15 to 20)
#    0.000    1.923    2.308    4.615    0.000    4.000 
#    0.000    0.385    0.000    4.615    0.000    6.462 
#    0.000    0.000    0.000    0.000    0.000    0.000 
#
# Total GULP energy -644528.523084 kJ/mol
# GULP energy per Si atom -12394.779290 kJ/mol
# Density = 1.803594 g / cm^3
# Si number density = 18.077081 Si / 1000 Ang^3
#
#
#
# Elastic Constant Matrix: (Units=GPa)
#
#
# Indices 1 2 3 4 5 6 
#
# 1 71.8555 34.0431 32.0127 0.0000 0.0000 0.0000
# 2 34.0431 68.8455 24.4563 0.0000 0.0000 0.0000
# 3 32.0127 24.4563 117.3392 0.0000 0.0000 0.0000
# 4 0.0000 0.0000 0.0000 20.3340 0.0000 0.0000
# 5 0.0000 0.0000 0.0000 0.0000 21.2055 0.0000
# 6 0.0000 0.0000 0.0000 0.0000 0.0000 29.4047
#
#
#
# Elastic Compliance Matrix: (Units=1/GPa)
#
#
# Indices 1 2 3 4 5 6 
#
# 1 0.019467 -0.008358 -0.003569 0.000000 0.000000 0.000000
# 2 -0.008358 0.019275 -0.001737 0.000000 0.000000 0.000000
# 3 -0.003569 -0.001737 0.009858 0.000000 0.000000 0.000000
# 4 0.000000 0.000000 0.000000 0.049179 0.000000 0.000000
# 5 0.000000 0.000000 0.000000 0.000000 0.047158 0.000000
# 6 0.000000 0.000000 0.000000 0.000000 0.000000 0.034008
#
#
# Mechanical properties :
#
#
# Convention : Reuss Voigt Hill
#
# Bulk Modulus (GPa) = 47.01100 48.78494 47.89797
# Shear Modulus (GPa) = 23.43415 25.35737 24.39576
#
# Velocity S-wave (km/s) = 3.60439 3.74937 3.67760
# Velocity P-wave (km/s) = 6.58669 6.76679 6.67735
#
# Compressibility (1/GPa) = 0.02127162
#
# Stress axis : x y z
#
# Youngs Moduli (GPa) = 51.36974 51.87964 101.44011
#
# Poissons Ratio (x) = 0.43362 0.36203
# Poissons Ratio (y) = 0.42936 0.17622
# Poissons Ratio (z) = 0.18333 0.09012
#
# Static dielectric constant tensor:
#      x y z
#    x 3.234890 0.000000 0.000000 
#    y 0.000000 3.243490 0.000000 
#    z 0.000000 0.000000 3.798890 
# 
# 
# High freq. dielectric constant tensor:
#      x y z
#    x 1.671380 0.000000 0.000000 
#    y 0.000000 1.687030 0.000000 
#    z 0.000000 0.000000 1.710680 
# 
# From -- ./inp_files/33648.got.cif
#   From: 2010.03.12/outbox.cif.g09.slc.cpg/sg47_17_cif.got.tgz:33648.got - 2010.04.14 03:12:58.
