data_PCOD8200150
_publ_section_title
;
Structure prediction by ZEFSAII (Michael W. Deem and Ramdas Pophale) SiO2 
 PCOD8200150
Probable space group: P M M M
;
_chemical_formula_sum "Si O2"
_cell_formula_units_Z 56
_cell_length_a 15.245352
_cell_length_b 8.718912
_cell_length_c 21.321165
_cell_angle_alpha 90.000000
_cell_angle_beta 90.000000
_cell_angle_gamma 90.000000
_cell_volume 2834.070710
_symmetry_space_group_name_H-M "P M M M"
_symmetry_group_IT_number 47
_symmetry_cell_setting 'orthorhombic'
loop_
_space_group_symop_operation_xyz
x,y,z
-x,-y,z
x,-y,-z
-x,y,-z
-x,-y,-z
x,y,-z
-x,y,z
x,-y,z
loop_
_atom_site_type_symbol
_atom_site_label
_atom_site_fract_x
_atom_site_fract_y
_atom_site_fract_z
Si Si1 0.096400 0.173800 0.256815
Si Si2 0.660703 0.179789 0.369651
Si Si3 0.158973 0.320738 0.630723
Si Si4 0.098754 0.682362 0.070820
Si Si5 0.233022 0.677789 0.173820
Si Si6 0.602100 0.329197 0.500000
Si Si7 0.903931 0.318769 0.500000
Si Si8 0.597063 0.821620 0.234039
O O1 0.089394 0.221807 0.329482
O O2 0.166396 0.293751 0.230513
O O3 0.000000 0.191206 0.226175
O O4 0.130826 0.000000 0.248797
O O5 0.744101 0.277142 0.348408
O O6 0.624731 0.238824 0.436277
O O7 0.599326 0.211563 0.309171
O O8 0.681284 0.000000 0.376808
O O9 0.139299 0.500000 0.638967
O O10 0.150383 0.263489 0.559584
O O11 0.099577 0.500000 0.075551
O O12 0.178445 0.748922 0.114092
O O13 0.000000 0.739381 0.090842
O O14 0.117969 0.736999 0.000000
O O15 0.249175 0.500000 0.163253
O O16 0.328232 0.747034 0.189675
O O17 0.647225 0.500000 0.500000
O O18 0.500000 0.353075 0.500000
O O19 0.913926 0.500000 0.500000
O O20 0.000000 0.243163 0.500000
O O21 0.500000 0.766362 0.211597
O O22 0.609122 0.000000 0.222379
#
# Coordination Sequence:
#
# PCOD8200150 Si02
#       8
#     8   8   8   8   8   4   4   8
#     4  11  23  37  53  77 113 154 191 229 277 334
#     4  11  22  38  59  80 106 142 185 233 295 363
#     4  11  21  35  56  79 103 136 182 235 289 340
#     4   8  15  30  54  87 126 161 192 230 278 334
#     4  11  21  34  58  89 117 149 191 238 289 338
#     4  11  24  39  56  80 108 137 178 238 301 356
#     4   9  19  34  50  70  98 133 174 222 275 329
#     4  10  22  40  60  81 111 153 196 239 292 353
#
# _framework density 19.759563
#
# number of rings (size 3 to 8) (size 9 to 14) (size 15 to 20)
#    0.000    1.714    1.429    4.071    0.000    4.857 
#    0.000    1.071    0.000    4.714    0.000    8.000 
#    0.000    0.000    0.000    0.000    0.000    0.000 
#
# Total GULP energy -693773.416721 kJ/mol
# GULP energy per Si atom -12388.811013 kJ/mol
# Density = 1.971459 g / cm^3
# Si number density = 19.759563 Si / 1000 Ang^3
#
#
#
# Elastic Constant Matrix: (Units=GPa)
#
#
# Indices 1 2 3 4 5 6 
#
# 1 141.2615 34.6866 58.8922 0.0000 0.0000 0.0000
# 2 34.6866 45.4314 26.3661 0.0000 0.0000 0.0000
# 3 58.8922 26.3661 113.2272 0.0000 0.0000 0.0000
# 4 0.0000 0.0000 0.0000 16.0500 0.0000 0.0000
# 5 0.0000 0.0000 0.0000 0.0000 30.3708 0.0000
# 6 0.0000 0.0000 0.0000 0.0000 0.0000 22.7489
#
#
#
# Elastic Compliance Matrix: (Units=1/GPa)
#
#
# Indices 1 2 3 4 5 6 
#
# 1 0.010057 -0.005368 -0.003981 0.000000 0.000000 0.000000
# 2 -0.005368 0.028316 -0.003802 0.000000 0.000000 0.000000
# 3 -0.003981 -0.003802 0.011788 0.000000 0.000000 0.000000
# 4 0.000000 0.000000 0.000000 0.062305 0.000000 0.000000
# 5 0.000000 0.000000 0.000000 0.000000 0.032926 0.000000
# 6 0.000000 0.000000 0.000000 0.000000 0.000000 0.043958
#
#
# Mechanical properties :
#
#
# Convention : Reuss Voigt Hill
#
# Bulk Modulus (GPa) = 41.91215 59.97886 50.94551
# Shear Modulus (GPa) = 22.36095 25.83227 24.09661
#
# Velocity S-wave (km/s) = 3.36765 3.61962 3.49591
# Velocity P-wave (km/s) = 6.03146 6.92020 6.49106
#
# Compressibility (1/GPa) = 0.02385943
#
# Stress axis : x y z
#
# Youngs Moduli (GPa) = 99.43542 35.31577 84.83542
#
# Poissons Ratio (x) = 0.18958 0.33771
# Poissons Ratio (y) = 0.53377 0.32251
# Poissons Ratio (z) = 0.39583 0.13426
#
# Static dielectric constant tensor:
#      x y z
#    x 3.761370 0.000000 0.000000 
#    y 0.000000 3.396250 0.000000 
#    z 0.000000 0.000000 3.790020 
# 
# 
# High freq. dielectric constant tensor:
#      x y z
#    x 1.773600 0.000000 0.000000 
#    y 0.000000 1.751550 0.000000 
#    z 0.000000 0.000000 1.760940 
# 
# From -- ./inp_files/31012.got.cif
#   From: 2010.03.12/outbox.cif.g09.slc.cpg/sg47_16_cif.got.tgz:31012.got - 2010.04.14 03:12:58.
