data_PCOD8200190
_publ_section_title
;
Structure prediction by ZEFSAII (Michael W. Deem and Ramdas Pophale) SiO2 
 PCOD8200190
Probable space group: P M M M
;
_chemical_formula_sum "Si O2"
_cell_formula_units_Z 52
_cell_length_a 10.830672
_cell_length_b 13.700476
_cell_length_c 21.760745
_cell_angle_alpha 90.000000
_cell_angle_beta 90.000000
_cell_angle_gamma 90.000000
_cell_volume 3228.976020
_symmetry_space_group_name_H-M "P M M M"
_symmetry_group_IT_number 47
_symmetry_cell_setting 'orthorhombic'
loop_
_space_group_symop_operation_xyz
x,y,z
-x,-y,z
x,-y,-z
-x,y,-z
-x,-y,-z
x,y,-z
-x,y,z
x,-y,z
loop_
_atom_site_type_symbol
_atom_site_label
_atom_site_fract_x
_atom_site_fract_y
_atom_site_fract_z
Si Si1 0.642384 0.393242 0.933833
Si Si2 0.142203 0.390803 0.721001
Si Si3 0.000000 0.615250 0.927412
Si Si4 0.856741 0.203403 0.649550
Si Si5 0.788236 0.703776 0.843914
Si Si6 0.639400 0.112567 0.427662
Si Si7 0.144198 0.891858 0.779627
O O1 0.500000 0.406474 0.942541
O O2 0.700522 0.500000 0.917008
O O3 0.660908 0.314930 0.879312
O O4 0.699138 0.359614 0.000000
O O5 0.181651 0.500000 0.700917
O O6 0.164328 0.318150 0.663821
O O7 0.215377 0.357203 0.780945
O O8 0.000000 0.385477 0.741062
O O9 0.884303 0.664541 0.894050
O O10 0.000000 0.500000 0.915434
O O11 0.000000 0.639745 0.000000
O O12 0.752351 0.174554 0.600519
O O13 0.829630 0.141037 0.710278
O O14 0.000000 0.185677 0.626984
O O15 0.797867 0.818394 0.829137
O O16 0.648242 0.127453 0.500000
O O17 0.500000 0.144899 0.405806
O O18 0.659726 0.000000 0.409765
O O19 0.000000 0.891267 0.792007
O O20 0.200185 0.000000 0.789430
#
# Coordination Sequence:
#
# PCOD8200190 Si02
#       7
#     8   8   4   8   8   8   8
#     4   9  18  31  45  61  83 113 145 178 223 276
#     4   9  16  27  44  67  97 125 148 181 228 279
#     4  11  20  26  39  67  93 109 135 184 234 270
#     4   9  17  29  48  74  95 121 161 194 226 268
#     4  11  17  28  45  66  87 115 148 181 223 273
#     4   9  18  32  49  70  98 129 155 187 239 288
#     4   9  17  30  46  65  93 123 149 182 224 270
#
# _framework density 16.104175999999999
#
# number of rings (size 3 to 8) (size 9 to 14) (size 15 to 20)
#    0.000    2.538    1.538    4.154    0.000    2.462 
#    0.000    3.846    0.000    5.538    0.000    4.308 
#    0.000    0.000    0.000    0.000    0.000    0.000 
#
# Total GULP energy -644181.245257 kJ/mol
# GULP energy per Si atom -12388.100870 kJ/mol
# Density = 1.606752 g / cm^3
# Si number density = 16.104176 Si / 1000 Ang^3
#
#
#
# Elastic Constant Matrix: (Units=GPa)
#
#
# Indices 1 2 3 4 5 6 
#
# 1 65.3974 34.6505 38.3533 0.0000 0.0000 0.0000
# 2 34.6505 128.5799 44.1663 0.0000 0.0000 0.0000
# 3 38.3533 44.1663 63.2315 0.0000 0.0000 0.0000
# 4 0.0000 0.0000 0.0000 24.7951 0.0000 0.0000
# 5 0.0000 0.0000 0.0000 0.0000 24.4323 0.0000
# 6 0.0000 0.0000 0.0000 0.0000 0.0000 19.4894
#
#
#
# Elastic Compliance Matrix: (Units=1/GPa)
#
#
# Indices 1 2 3 4 5 6 
#
# 1 0.024095 -0.001938 -0.013261 0.000000 0.000000 0.000000
# 2 -0.001938 0.010388 -0.006080 0.000000 0.000000 0.000000
# 3 -0.013261 -0.006080 0.028106 0.000000 0.000000 0.000000
# 4 0.000000 0.000000 0.000000 0.040331 0.000000 0.000000
# 5 0.000000 0.000000 0.000000 0.000000 0.040929 0.000000
# 6 0.000000 0.000000 0.000000 0.000000 0.000000 0.051310
#
#
# Mechanical properties :
#
#
# Convention : Reuss Voigt Hill
#
# Bulk Modulus (GPa) = 49.92658 54.61655 52.27156
# Shear Modulus (GPa) = 20.45864 23.07927 21.76895
#
# Velocity S-wave (km/s) = 3.56812 3.78977 3.68062
# Velocity P-wave (km/s) = 6.93144 7.28958 7.11277
#
# Compressibility (1/GPa) = 0.02002941
#
# Stress axis : x y z
#
# Youngs Moduli (GPa) = 41.50171 96.26357 35.57996
#
# Poissons Ratio (x) = 0.18658 0.47184
# Poissons Ratio (y) = 0.08044 0.21634
# Poissons Ratio (z) = 0.55037 0.58532
#
# Static dielectric constant tensor:
#      x y z
#    x 3.148840 0.000000 0.000000 
#    y 0.000000 3.244420 0.000000 
#    z 0.000000 0.000000 2.902840 
# 
# 
# High freq. dielectric constant tensor:
#      x y z
#    x 1.604820 0.000000 0.000000 
#    y 0.000000 1.609410 0.000000 
#    z 0.000000 0.000000 1.606140 
# 
# From -- ./inp_files/27553.got.cif
#   From: 2010.03.12/outbox.cif.g09.slc.cpg/sg47_14_cif.got.tgz:27553.got - 2010.04.14 03:12:58.
