data_PCOD8200293
_publ_section_title
;
Structure prediction by ZEFSAII (Michael W. Deem and Ramdas Pophale) SiO2 
 PCOD8200293
Probable space group: P M M M
;
_chemical_formula_sum "Si O2"
_cell_formula_units_Z 48
_cell_length_a 13.747578
_cell_length_b 23.386602
_cell_length_c 9.130349
_cell_angle_alpha 90.000000
_cell_angle_beta 90.000000
_cell_angle_gamma 90.000000
_cell_volume 2935.490611
_symmetry_space_group_name_H-M "P M M M"
_symmetry_group_IT_number 47
_symmetry_cell_setting 'orthorhombic'
loop_
_space_group_symop_operation_xyz
x,y,z
-x,-y,z
x,-y,-z
-x,y,-z
-x,-y,-z
x,y,-z
-x,y,z
x,-y,z
loop_
_atom_site_type_symbol
_atom_site_label
_atom_site_fract_x
_atom_site_fract_y
_atom_site_fract_z
Si Si1 0.784682 0.164193 0.326391
Si Si2 0.890044 0.735973 0.831223
Si Si3 0.611247 0.219282 0.171263
Si Si4 0.290581 0.663704 0.832040
Si Si5 0.609286 0.435773 0.672740
Si Si6 0.887968 0.066090 0.831705
O O1 0.780634 0.166528 0.500000
O O2 0.861685 0.210597 0.268747
O O3 0.677241 0.175773 0.263013
O O4 0.818739 0.101947 0.274568
O O5 0.820604 0.681989 0.798624
O O6 0.000000 0.717162 0.796293
O O7 0.877260 0.755295 0.000000
O O8 0.500000 0.207751 0.213880
O O9 0.638331 0.284338 0.212795
O O10 0.631197 0.208957 0.000000
O O11 0.313648 0.607897 0.739026
O O12 0.305818 0.647221 0.000000
O O13 0.613862 0.430385 0.500000
O O14 0.500000 0.421485 0.727767
O O15 0.637601 0.500000 0.721700
O O16 0.000000 0.079007 0.793328
O O17 0.863795 0.000000 0.804144
O O18 0.867260 0.082642 0.000000
#
# Coordination Sequence:
#
# PCOD8200293 Si02
#       6
#     8   8   8   8   8   8
#     4  11  21  30  45  72 102 126 150 187 234 278
#     4   9  18  33  50  66  90 125 159 190 226 271
#     4   9  18  33  51  69  92 124 159 192 227 272
#     4   9  17  29  47  71  92 112 147 193 234 267
#     4   9  18  31  45  63  90 123 153 180 219 275
#     4   9  18  33  52  71  92 123 161 195 228 271
#
# _framework density 16.351611999999999
#
# number of rings (size 3 to 8) (size 9 to 14) (size 15 to 20)
#    0.000    2.667    0.000    4.500    0.000    7.333 
#    0.000    1.667    0.000    1.000    0.000    7.000 
#    0.000    0.000    0.000    0.000    0.000    0.000 
#
# Total GULP energy -595208.112295 kJ/mol
# GULP energy per Si atom -12400.169006 kJ/mol
# Density = 1.631440 g / cm^3
# Si number density = 16.351612 Si / 1000 Ang^3
#
#
#
# Elastic Constant Matrix: (Units=GPa)
#
#
# Indices 1 2 3 4 5 6 
#
# 1 129.0889 63.9716 53.6541 0.0000 0.0000 0.0000
# 2 63.9716 101.4699 53.1066 0.0000 0.0000 0.0000
# 3 53.6541 53.1066 78.3388 0.0000 0.0000 0.0000
# 4 0.0000 0.0000 0.0000 18.7848 0.0000 0.0000
# 5 0.0000 0.0000 0.0000 0.0000 16.1476 0.0000
# 6 0.0000 0.0000 0.0000 0.0000 0.0000 26.1818
#
#
#
# Elastic Compliance Matrix: (Units=1/GPa)
#
#
# Indices 1 2 3 4 5 6 
#
# 1 0.012391 -0.005223 -0.004945 0.000000 0.000000 0.000000
# 2 -0.005223 0.017477 -0.008270 0.000000 0.000000 0.000000
# 3 -0.004945 -0.008270 0.021758 0.000000 0.000000 0.000000
# 4 0.000000 0.000000 0.000000 0.053235 0.000000 0.000000
# 5 0.000000 0.000000 0.000000 0.000000 0.061929 0.000000
# 6 0.000000 0.000000 0.000000 0.000000 0.000000 0.038194
#
#
# Mechanical properties :
#
#
# Convention : Reuss Voigt Hill
#
# Bulk Modulus (GPa) = 67.80530 72.26248 70.03389
# Shear Modulus (GPa) = 20.26124 21.43386 20.84755
#
# Velocity S-wave (km/s) = 3.52390 3.62444 3.57452
# Velocity P-wave (km/s) = 7.62327 7.86157 7.74333
#
# Compressibility (1/GPa) = 0.01474811
#
# Stress axis : x y z
#
# Youngs Moduli (GPa) = 80.70672 57.21966 45.95929
#
# Poissons Ratio (x) = 0.29888 0.22728
# Poissons Ratio (y) = 0.42156 0.38008
# Poissons Ratio (z) = 0.39912 0.47321
#
# Static dielectric constant tensor:
#      x y z
#    x 3.165580 0.000000 0.000000 
#    y 0.000000 2.953360 0.000000 
#    z 0.000000 0.000000 2.958580 
# 
# 
# High freq. dielectric constant tensor:
#      x y z
#    x 1.624270 0.000000 0.000000 
#    y 0.000000 1.616510 0.000000 
#    z 0.000000 0.000000 1.622760 
# 
# From -- ./inp_files/6728.got.cif
#   From: 2010.03.12/outbox.cif.g09.slc.cpg/sg47_4_cif.got.tgz:6728.got - 2010.04.14 03:12:58.
