data_PCOD8200569
_publ_section_title
;
Structure prediction by ZEFSAII (Michael W. Deem and Ramdas Pophale) SiO2 
 PCOD8200569
Probable space group: P M M M
;
_chemical_formula_sum "Si O2"
_cell_formula_units_Z 48
_cell_length_a 8.839884
_cell_length_b 28.800069
_cell_length_c 9.855498
_cell_angle_alpha 90.000000
_cell_angle_beta 90.000000
_cell_angle_gamma 90.000000
_cell_volume 2509.104033
_symmetry_space_group_name_H-M "P M M M"
_symmetry_group_IT_number 47
_symmetry_cell_setting 'orthorhombic'
loop_
_space_group_symop_operation_xyz
x,y,z
-x,-y,z
x,-y,-z
-x,y,-z
-x,-y,-z
x,y,-z
-x,y,z
x,-y,z
loop_
_atom_site_type_symbol
_atom_site_label
_atom_site_fract_x
_atom_site_fract_y
_atom_site_fract_z
Si Si1 0.327357 0.944979 0.000000
Si Si2 0.321168 0.052349 0.500000
Si Si3 0.671946 0.808821 0.157867
Si Si4 0.822283 0.102553 0.749049
Si Si5 0.821292 0.372390 0.344045
Si Si6 0.324660 0.554017 0.846190
Si Si7 0.678544 0.703224 0.153706
O O1 0.234998 0.926686 0.874307
O O2 0.500000 0.925866 0.000000
O O3 0.328574 0.000000 0.000000
O O4 0.500000 0.050519 0.500000
O O5 0.264384 0.080688 0.374026
O O6 0.255313 0.000000 0.500000
O O7 0.500000 0.815377 0.208154
O O8 0.781130 0.843008 0.240143
O O9 0.725677 0.756209 0.183430
O O10 0.683886 0.821439 0.000000
O O11 0.000000 0.097327 0.730694
O O12 0.761621 0.373147 0.500000
O O13 0.769956 0.418499 0.265507
O O14 0.759270 0.327699 0.265869
O O15 0.000000 0.370275 0.342643
O O16 0.500000 0.566794 0.828170
O O17 0.296056 0.500000 0.819453
O O18 0.274051 0.567046 0.000000
O O19 0.500000 0.696786 0.167293
O O20 0.728144 0.689353 0.000000
#
# Coordination Sequence:
#
# PCOD8200569 Si02
#       7
#     4   4   8   8   8   8   8
#     4  11  23  39  61  87 117 157 199 237 282 343
#     4  11  25  45  65  83 111 157 203 237 282 351
#     4   9  18  36  62  88 116 150 190 236 286 347
#     4  12  24  38  60  91 122 151 188 241 298 347
#     4  11  24  38  52  79 120 160 194 235 288 344
#     4   9  19  37  61  87 113 145 191 245 294 344
#     4   9  19  37  62  88 110 143 193 243 286 336
#
# _framework density 19.130333
#
# number of rings (size 3 to 8) (size 9 to 14) (size 15 to 20)
#    0.000    1.833    0.833    5.000    0.000    8.667 
#    1.500    4.167    0.000    0.000    0.000    0.000 
#    0.000    0.000    0.000    0.000    0.000    0.000 
#
# Total GULP energy -595201.425766 kJ/mol
# GULP energy per Si atom -12400.029703 kJ/mol
# Density = 1.908679 g / cm^3
# Si number density = 19.130333 Si / 1000 Ang^3
#
#
#
# Elastic Constant Matrix: (Units=GPa)
#
#
# Indices 1 2 3 4 5 6 
#
# 1 63.2038 36.3638 37.2227 0.0000 0.0000 0.0000
# 2 36.3638 118.6711 67.3630 0.0000 0.0000 0.0000
# 3 37.2227 67.3630 145.1846 0.0000 0.0000 0.0000
# 4 0.0000 0.0000 0.0000 30.4999 0.0000 0.0000
# 5 0.0000 0.0000 0.0000 0.0000 344.2550 0.0000
# 6 0.0000 0.0000 0.0000 0.0000 0.0000 -0.2041
#
#
#
# Elastic Compliance Matrix: (Units=1/GPa)
#
#
# Indices 1 2 3 4 5 6 
#
# 1 0.020206 -0.004413 -0.003133 0.000000 0.000000 0.000000
# 2 -0.004413 0.012404 -0.004624 0.000000 0.000000 0.000000
# 3 -0.003133 -0.004624 0.009836 0.000000 0.000000 0.000000
# 4 0.000000 0.000000 0.000000 0.032787 0.000000 0.000000
# 5 0.000000 0.000000 0.000000 0.000000 0.002905 0.000000
# 6 0.000000 0.000000 0.000000 0.000000 0.000000 -4.899976
#
#
# Mechanical properties :
#
#
# Convention : Reuss Voigt Hill
#
# Bulk Modulus (GPa) = 55.22876 67.66207 61.44542
# Shear Modulus (GPa) = -1.04352 87.31750 43.13699
#
# Velocity S-wave (km/s) = -0.73937 6.76333 4.75373
# Velocity P-wave (km/s) = 5.31070 9.82018 7.89428
#
# Compressibility (1/GPa) = 0.01810651
#
# Stress axis : x y z
#
# Youngs Moduli (GPa) = 49.49032 80.62231 101.66545
#
# Poissons Ratio (x) = 0.35581 0.31849
# Poissons Ratio (y) = 0.21842 0.47005
# Poissons Ratio (z) = 0.15504 0.37276
#
# Static dielectric constant tensor:
#      x y z
#    x 3.436300 0.000000 0.000000 
#    y 0.000000 3.708350 0.000000 
#    z 0.000000 0.000000 3.514810 
# 
# 
# High freq. dielectric constant tensor:
#      x y z
#    x 1.738720 0.000000 0.000000 
#    y 0.000000 1.761600 0.000000 
#    z 0.000000 0.000000 1.740950 
# 
# From -- ./inp_files/2694.got.cif
#   From: 2010.03.12/outbox.cif.g09.slc.cpg/sg47_2_cif.got.tgz:2694.got - 2010.04.14 03:12:58.
