data_PCOD8200910
_publ_section_title
;
Structure prediction by ZEFSAII (Michael W. Deem and Ramdas Pophale) SiO2 
 PCOD8200910
Probable space group: P M M M
;
_chemical_formula_sum "Si O2"
_cell_formula_units_Z 32
_cell_length_a 14.270936
_cell_length_b 9.071088
_cell_length_c 13.200498
_cell_angle_alpha 90.000000
_cell_angle_beta 90.000000
_cell_angle_gamma 90.000000
_cell_volume 1708.842963
_symmetry_space_group_name_H-M "P M M M"
_symmetry_group_IT_number 47
_symmetry_cell_setting 'orthorhombic'
loop_
_space_group_symop_operation_xyz
x,y,z
-x,-y,z
x,-y,-z
-x,y,-z
-x,-y,-z
x,y,-z
-x,y,z
x,-y,z
loop_
_atom_site_type_symbol
_atom_site_label
_atom_site_fract_x
_atom_site_fract_y
_atom_site_fract_z
Si Si1 0.611275 0.334478 0.000000
Si Si2 0.894041 0.175359 0.889750
Si Si3 0.107859 0.823869 0.500000
Si Si4 0.605089 0.827566 0.201385
Si Si5 0.212522 0.826548 0.302958
O O1 0.645045 0.251322 0.101106
O O2 0.651674 0.500000 0.000000
O O3 0.500000 0.334587 0.000000
O O4 0.834097 0.242865 0.797833
O O5 0.000000 0.229779 0.875022
O O6 0.889672 0.000000 0.886796
O O7 0.856161 0.230421 0.000000
O O8 0.163868 0.758865 0.402859
O O9 0.000000 0.768028 0.500000
O O10 0.109547 0.000000 0.500000
O O11 0.500000 0.774661 0.231205
O O12 0.675698 0.792076 0.295050
O O13 0.605776 0.000000 0.176358
O O14 0.194512 0.000000 0.305773
#
# Coordination Sequence:
#
# PCOD8200910 Si02
#       5
#     4   8   4   8   8
#     4   9  17  29  45  65  90 121 154 188 225 261
#     4   8  13  20  30  47  73 103 135 174 219 263
#     4   9  16  26  39  57  86 121 153 189 232 272
#     4   9  17  28  42  63  92 123 153 182 217 267
#     4   9  16  24  37  56  82 117 153 183 221 266
#
# _framework density 18.726120999999999
#
# number of rings (size 3 to 8) (size 9 to 14) (size 15 to 20)
#    0.000    3.250    0.000    1.875    1.750    4.500 
#    0.000    0.625    0.000    3.750    0.000    0.875 
#    0.000   13.000    0.000    0.000    0.000    0.000 
#
# Total GULP energy -396459.168290 kJ/mol
# GULP energy per Si atom -12389.349009 kJ/mol
# Density = 1.868350 g / cm^3
# Si number density = 18.726121 Si / 1000 Ang^3
#
#
#
# Elastic Constant Matrix: (Units=GPa)
#
#
# Indices 1 2 3 4 5 6 
#
# 1 121.9880 10.9480 93.3866 0.0000 0.0000 0.0000
# 2 10.9480 20.2623 11.2698 0.0000 0.0000 0.0000
# 3 93.3866 11.2698 160.6721 0.0000 0.0000 0.0000
# 4 0.0000 0.0000 0.0000 2.8608 0.0000 0.0000
# 5 0.0000 0.0000 0.0000 0.0000 36.5905 0.0000
# 6 0.0000 0.0000 0.0000 0.0000 0.0000 3.7285
#
#
#
# Elastic Compliance Matrix: (Units=1/GPa)
#
#
# Indices 1 2 3 4 5 6 
#
# 1 0.014989 -0.003385 -0.008474 0.000000 0.000000 0.000000
# 2 -0.003385 0.052121 -0.001688 0.000000 0.000000 0.000000
# 3 -0.008474 -0.001688 0.011268 0.000000 0.000000 0.000000
# 4 0.000000 0.000000 0.000000 0.349553 0.000000 0.000000
# 5 0.000000 0.000000 0.000000 0.000000 0.027329 0.000000
# 6 0.000000 0.000000 0.000000 0.000000 0.000000 0.268203
#
#
# Mechanical properties :
#
#
# Convention : Reuss Voigt Hill
#
# Bulk Modulus (GPa) = 19.50019 59.34790 39.42405
# Shear Modulus (GPa) = 6.51336 21.12384 13.81860
#
# Velocity S-wave (km/s) = 1.86702 3.36228 2.71944
# Velocity P-wave (km/s) = 3.88377 6.84358 5.56409
#
# Compressibility (1/GPa) = 0.05128154
#
# Stress axis : x y z
#
# Youngs Moduli (GPa) = 66.71622 19.18623 88.74827
#
# Poissons Ratio (x) = 0.06495 0.75209
# Poissons Ratio (y) = 0.22585 0.14983
# Poissons Ratio (z) = 0.56538 0.03239
#
# Static dielectric constant tensor:
#      x y z
#    x 3.642680 0.000000 0.000000 
#    y 0.000000 2.754030 0.000000 
#    z 0.000000 0.000000 3.723580 
# 
# 
# High freq. dielectric constant tensor:
#      x y z
#    x 1.738470 0.000000 0.000000 
#    y 0.000000 1.642790 0.000000 
#    z 0.000000 0.000000 1.718140 
# 
# From -- ./inp_files/5431.got.cif
#   From: 2010.03.12/outbox.cif.g09.slc.cpg/sg47_3_cif.got.tgz:5431.got - 2010.04.14 03:12:58.
