data_PCOD8200724
_publ_section_title
;
Structure prediction by ZEFSAII (Michael W. Deem and Ramdas Pophale) SiO2 
 PCOD8200724
Probable space group: P M M M
;
_chemical_formula_sum "Si O2"
_cell_formula_units_Z 40
_cell_length_a 9.347566
_cell_length_b 9.709232
_cell_length_c 25.922824
_cell_angle_alpha 90.000000
_cell_angle_beta 90.000000
_cell_angle_gamma 90.000000
_cell_volume 2352.695545
_symmetry_space_group_name_H-M "P M M M"
_symmetry_group_IT_number 47
_symmetry_cell_setting 'orthorhombic'
loop_
_space_group_symop_operation_xyz
x,y,z
-x,-y,z
x,-y,-z
-x,y,-z
-x,-y,-z
x,y,-z
-x,y,z
x,-y,z
loop_
_atom_site_type_symbol
_atom_site_label
_atom_site_fract_x
_atom_site_fract_y
_atom_site_fract_z
Si Si1 0.833693 0.340147 0.900932
Si Si2 0.671146 0.654730 0.610593
Si Si3 0.343486 0.663378 0.500000
Si Si4 0.833740 0.158398 0.195614
Si Si5 0.338558 0.663590 0.000000
Si Si6 0.333059 0.841145 0.703294
O O1 0.801585 0.500000 0.889451
O O2 0.783867 0.252404 0.851829
O O3 0.000000 0.316549 0.913613
O O4 0.743658 0.283597 0.949321
O O5 0.500000 0.659120 0.607388
O O6 0.723157 0.500000 0.623529
O O7 0.733902 0.704160 0.554285
O O8 0.728572 0.755352 0.655027
O O9 0.361579 0.500000 0.500000
O O10 0.500000 0.733357 0.500000
O O11 0.747189 0.208568 0.245469
O O12 0.000000 0.179559 0.207628
O O13 0.798580 0.000000 0.182114
O O14 0.337727 0.500000 0.000000
O O15 0.500000 0.721899 0.000000
O O16 0.500000 0.812855 0.711768
O O17 0.300786 0.000000 0.691584
#
# Coordination Sequence:
#
# PCOD8200724 Si02
#       6
#     8   8   4   8   4   8
#     4   9  17  30  48  67  86 110 141 175 207 240
#     4   8  13  22  37  57  81 109 139 169 204 249
#     4   7  10  18  33  53  78 107 136 166 202 245
#     4   9  18  32  47  62  83 113 145 173 205 248
#     4   9  17  29  46  69  94 116 138 167 206 250
#     4   9  17  28  41  59  84 110 135 169 213 252
#
# _framework density 17.001774999999999
#
# number of rings (size 3 to 8) (size 9 to 14) (size 15 to 20)
#    0.000    3.400    0.000    1.500    0.000    2.800 
#    0.000    1.000    0.000    6.000    0.000    0.700 
#    0.000    5.600    0.000    0.000    0.000    0.000 
#
# Total GULP energy -495736.159058 kJ/mol
# GULP energy per Si atom -12393.403976 kJ/mol
# Density = 1.696308 g / cm^3
# Si number density = 17.001775 Si / 1000 Ang^3
#
#
#
# Elastic Constant Matrix: (Units=GPa)
#
#
# Indices 1 2 3 4 5 6 
#
# 1 41.7117 26.2290 58.5481 0.0000 0.0000 0.0000
# 2 26.2290 60.7008 78.7000 0.0000 0.0000 0.0000
# 3 58.5481 78.7000 204.3232 0.0000 0.0000 0.0000
# 4 0.0000 0.0000 0.0000 14.4261 0.0000 0.0000
# 5 0.0000 0.0000 0.0000 0.0000 7.6514 0.0000
# 6 0.0000 0.0000 0.0000 0.0000 0.0000 12.7434
#
#
#
# Elastic Compliance Matrix: (Units=1/GPa)
#
#
# Indices 1 2 3 4 5 6 
#
# 1 0.040833 -0.004942 -0.009797 0.000000 0.000000 0.000000
# 2 -0.004942 0.033506 -0.011490 0.000000 0.000000 0.000000
# 3 -0.009797 -0.011490 0.012127 0.000000 0.000000 0.000000
# 4 0.000000 0.000000 0.000000 0.069319 0.000000 0.000000
# 5 0.000000 0.000000 0.000000 0.000000 0.130696 0.000000
# 6 0.000000 0.000000 0.000000 0.000000 0.000000 0.078472
#
#
# Mechanical properties :
#
#
# Convention : Reuss Voigt Hill
#
# Bulk Modulus (GPa) = 29.40387 70.41000 49.90693
# Shear Modulus (GPa) = 11.66189 16.51475 14.08832
#
# Velocity S-wave (km/s) = 2.62185 3.12004 2.88173
# Velocity P-wave (km/s) = 5.14758 7.38124 6.36319
#
# Compressibility (1/GPa) = 0.03400913
#
# Stress axis : x y z
#
# Youngs Moduli (GPa) = 24.48980 29.84517 82.46032
#
# Poissons Ratio (x) = 0.14749 0.80787
# Poissons Ratio (y) = 0.12103 0.94744
# Poissons Ratio (z) = 0.23993 0.34291
#
# Static dielectric constant tensor:
#      x y z
#    x 2.878680 0.000000 0.000000 
#    y 0.000000 3.025660 0.000000 
#    z 0.000000 0.000000 3.545100 
# 
# 
# High freq. dielectric constant tensor:
#      x y z
#    x 1.616640 0.000000 0.000000 
#    y 0.000000 1.631380 0.000000 
#    z 0.000000 0.000000 1.672950 
# 
# From -- ./inp_files/29336.got.cif
#   From: 2010.03.12/outbox.cif.g09.slc.cpg/sg47_15_cif.got.tgz:29336.got - 2010.04.14 03:12:58.
