data_PCOD8200097
_publ_section_title
;
Structure prediction by ZEFSAII (Michael W. Deem and Ramdas Pophale) SiO2 
 PCOD8200097
Probable space group: P M M M
;
_chemical_formula_sum "Si O2"
_cell_formula_units_Z 56
_cell_length_a 14.189044
_cell_length_b 20.694802
_cell_length_c 9.591190
_cell_angle_alpha 90.000000
_cell_angle_beta 90.000000
_cell_angle_gamma 90.000000
_cell_volume 2816.351815
_symmetry_space_group_name_H-M "P M M M"
_symmetry_group_IT_number 47
_symmetry_cell_setting 'orthorhombic'
loop_
_space_group_symop_operation_xyz
x,y,z
-x,-y,z
x,-y,-z
-x,y,-z
-x,-y,-z
x,y,-z
-x,y,z
x,-y,z
loop_
_atom_site_type_symbol
_atom_site_label
_atom_site_fract_x
_atom_site_fract_y
_atom_site_fract_z
Si Si1 0.388210 0.673457 0.158989
Si Si2 0.275091 0.571955 0.660480
Si Si3 0.111837 0.752933 0.151679
Si Si4 0.707926 0.928302 0.660668
Si Si5 0.608842 0.819017 0.838909
Si Si6 0.104435 0.132988 0.658825
Si Si7 0.108874 0.608369 0.161841
O O1 0.500000 0.671279 0.177249
O O2 0.343436 0.622342 0.263954
O O3 0.351877 0.746600 0.192221
O O4 0.360589 0.655288 0.000000
O O5 0.261196 0.593483 0.500000
O O6 0.319973 0.500000 0.667416
O O7 0.173808 0.566236 0.737188
O O8 0.147377 0.805011 0.262089
O O9 0.147550 0.681220 0.186438
O O10 0.000000 0.749324 0.149298
O O11 0.150066 0.774555 0.000000
O O12 0.679894 0.917366 0.500000
O O13 0.660112 0.873116 0.749712
O O14 0.821789 0.925064 0.678456
O O15 0.676549 0.000000 0.709794
O O16 0.500000 0.821436 0.797967
O O17 0.623732 0.836201 0.000000
O O18 0.096639 0.154757 0.500000
O O19 0.000000 0.112515 0.714458
O O20 0.000000 0.599635 0.205943
O O21 0.121316 0.588460 0.000000
#
# Coordination Sequence:
#
# PCOD8200097 Si02
#       7
#     8   8   8   8   8   8   8
#     4   9  20  41  67  91 113 142 186 238 289 344
#     4  11  25  40  55  83 122 159 192 231 284 343
#     4   8  15  29  49  74 102 133 175 229 283 326
#     4  10  22  37  53  80 117 154 192 232 277 332
#     4   9  20  40  64  88 112 140 180 232 287 341
#     4   9  18  32  50  74 107 148 191 231 272 322
#     4   9  19  36  57  81 111 151 198 243 286 334
#
# _framework density 19.883880000000001
#
# number of rings (size 3 to 8) (size 9 to 14) (size 15 to 20)
#    0.000    2.714    0.000    2.143    2.000    5.143 
#    0.000    8.571    0.000    0.000    0.000    3.000 
#    0.000    0.000    0.000    0.000    0.000    0.000 
#
# Total GULP energy -694103.160275 kJ/mol
# GULP energy per Si atom -12394.699291 kJ/mol
# Density = 1.983862 g / cm^3
# Si number density = 19.883880 Si / 1000 Ang^3
#
#
#
# Elastic Constant Matrix: (Units=GPa)
#
#
# Indices 1 2 3 4 5 6 
#
# 1 53.0764 46.4412 45.9224 0.0000 0.0000 0.0000
# 2 46.4412 121.1621 65.9140 0.0000 0.0000 0.0000
# 3 45.9224 65.9140 98.1365 0.0000 0.0000 0.0000
# 4 0.0000 0.0000 0.0000 41.1600 0.0000 0.0000
# 5 0.0000 0.0000 0.0000 0.0000 28.4143 0.0000
# 6 0.0000 0.0000 0.0000 0.0000 0.0000 22.3700
#
#
#
# Elastic Compliance Matrix: (Units=1/GPa)
#
#
# Indices 1 2 3 4 5 6 
#
# 1 0.035182 -0.007137 -0.011670 0.000000 0.000000 0.000000
# 2 -0.007137 0.014453 -0.006368 0.000000 0.000000 0.000000
# 3 -0.011670 -0.006368 0.019928 0.000000 0.000000 0.000000
# 4 0.000000 0.000000 0.000000 0.024295 0.000000 0.000000
# 5 0.000000 0.000000 0.000000 0.000000 0.035194 0.000000
# 6 0.000000 0.000000 0.000000 0.000000 0.000000 0.044703
#
#
# Mechanical properties :
#
#
# Convention : Reuss Voigt Hill
#
# Bulk Modulus (GPa) = 52.04514 65.43667 58.74090
# Shear Modulus (GPa) = 21.69114 25.99535 23.84324
#
# Velocity S-wave (km/s) = 3.30645 3.61966 3.46659
# Velocity P-wave (km/s) = 6.38813 7.10283 6.75493
#
# Compressibility (1/GPa) = 0.01921409
#
# Stress axis : x y z
#
# Youngs Moduli (GPa) = 28.42341 69.18901 50.18094
#
# Poissons Ratio (x) = 0.49378 0.58561
# Poissons Ratio (y) = 0.20285 0.31955
# Poissons Ratio (z) = 0.33170 0.44060
#
# Static dielectric constant tensor:
#      x y z
#    x 3.609040 0.000000 0.000000 
#    y 0.000000 3.650830 0.000000 
#    z 0.000000 0.000000 3.619230 
# 
# 
# High freq. dielectric constant tensor:
#      x y z
#    x 1.778590 0.000000 0.000000 
#    y 0.000000 1.770610 0.000000 
#    z 0.000000 0.000000 1.765320 
# 
# From -- ./inp_files/7238.got.cif
#   From: 2010.03.12/outbox.cif.g09.slc.cpg/sg47_4_cif.got.tgz:7238.got - 2010.04.14 03:12:58.
