data_PCOD8200913
_publ_section_title
;
Structure prediction by ZEFSAII (Michael W. Deem and Ramdas Pophale) SiO2 
 PCOD8200913
Probable space group: P M M M
;
_chemical_formula_sum "Si O2"
_cell_formula_units_Z 48
_cell_length_a 29.928594
_cell_length_b 9.670847
_cell_length_c 9.949516
_cell_angle_alpha 90.000000
_cell_angle_beta 90.000000
_cell_angle_gamma 90.000000
_cell_volume 2879.736706
_symmetry_space_group_name_H-M "P M M M"
_symmetry_group_IT_number 47
_symmetry_cell_setting 'orthorhombic'
loop_
_space_group_symop_operation_xyz
x,y,z
-x,-y,z
x,-y,-z
-x,y,-z
-x,-y,-z
x,y,-z
-x,y,z
x,-y,z
loop_
_atom_site_type_symbol
_atom_site_label
_atom_site_fract_x
_atom_site_fract_y
_atom_site_fract_z
Si Si1 0.111549 0.659373 0.846491
Si Si2 0.051318 0.160218 0.346058
Si Si3 0.723659 0.839486 0.656444
Si Si4 0.376825 0.164371 0.648791
Si Si5 0.549675 0.835487 0.150268
Si Si6 0.214975 0.659851 0.846503
O O1 0.101111 0.500000 0.815896
O O2 0.082305 0.751474 0.749415
O O3 0.163247 0.691871 0.819548
O O4 0.099193 0.694932 0.000000
O O5 0.062729 0.196447 0.500000
O O6 0.000000 0.196398 0.314972
O O7 0.060686 0.000000 0.317617
O O8 0.733394 0.810784 0.500000
O O9 0.673127 0.793460 0.692940
O O10 0.756855 0.751850 0.745936
O O11 0.730966 0.000000 0.690058
O O12 0.387229 0.222498 0.500000
O O13 0.413153 0.229109 0.750737
O O14 0.380231 0.000000 0.646114
O O15 0.500000 0.788823 0.196535
O O16 0.552561 0.000000 0.151819
O O17 0.559350 0.780778 0.000000
O O18 0.225489 0.500000 0.817911
O O19 0.227400 0.697142 0.000000
#
# Coordination Sequence:
#
# PCOD8200913 Si02
#       6
#     8   8   8   8   8   8
#     4   9  19  35  52  71  96 124 155 193 234 274
#     4   9  19  35  52  72 100 130 158 190 228 270
#     4   9  18  31  46  67  94 121 152 191 232 275
#     4   8  14  24  36  52  78 110 142 178 219 263
#     4   8  13  20  30  47  73 105 141 179 217 259
#     4   9  19  35  51  68  93 123 155 192 232 275
#
# _framework density 16.668191
#
# number of rings (size 3 to 8) (size 9 to 14) (size 15 to 20)
#    0.000    3.333    0.000    3.000    0.000    4.333 
#    0.000   10.833    0.000    0.000    0.000    0.000 
#    0.000    0.667    0.000    7.333    0.000   12.000 
#
# Total GULP energy -594982.448008 kJ/mol
# GULP energy per Si atom -12395.467667 kJ/mol
# Density = 1.663025 g / cm^3
# Si number density = 16.668191 Si / 1000 Ang^3
#
#
#
# Elastic Constant Matrix: (Units=GPa)
#
#
# Indices 1 2 3 4 5 6 
#
# 1 127.4638 63.6898 102.0273 0.0000 0.0000 0.0000
# 2 63.6898 55.9470 63.9109 0.0000 0.0000 0.0000
# 3 102.0273 63.9109 126.3235 0.0000 0.0000 0.0000
# 4 0.0000 0.0000 0.0000 27.3026 0.0000 0.0000
# 5 0.0000 0.0000 0.0000 0.0000 43.3947 0.0000
# 6 0.0000 0.0000 0.0000 0.0000 0.0000 -27.3535
#
#
#
# Elastic Compliance Matrix: (Units=1/GPa)
#
#
# Indices 1 2 3 4 5 6 
#
# 1 0.025714 -0.013146 -0.014118 0.000000 0.000000 0.000000
# 2 -0.013146 0.049071 -0.014209 0.000000 0.000000 0.000000
# 3 -0.014118 -0.014209 0.026508 0.000000 0.000000 0.000000
# 4 0.000000 0.000000 0.000000 0.036627 0.000000 0.000000
# 5 0.000000 0.000000 0.000000 0.000000 0.023044 0.000000
# 6 0.000000 0.000000 0.000000 0.000000 0.000000 -0.036558
#
#
# Mechanical properties :
#
#
# Convention : Reuss Voigt Hill
#
# Bulk Modulus (GPa) = 54.50345 85.44337 69.97341
# Shear Modulus (GPa) = 23.42292 14.00919 18.71606
#
# Velocity S-wave (km/s) = 3.75273 2.90224 3.35455
# Velocity P-wave (km/s) = 7.17965 7.91222 7.55482
#
# Compressibility (1/GPa) = 0.01834746
#
# Stress axis : x y z
#
# Youngs Moduli (GPa) = 38.88871 20.37874 37.72514
#
# Poissons Ratio (x) = 0.26789 0.53260
# Poissons Ratio (y) = 0.51122 0.53604
# Poissons Ratio (z) = 0.54903 0.28956
#
# Static dielectric constant tensor:
#      x y z
#    x 3.229320 0.000000 0.000000 
#    y 0.000000 2.730380 0.000000 
#    z 0.000000 0.000000 3.269700 
# 
# 
# High freq. dielectric constant tensor:
#      x y z
#    x 1.649010 0.000000 0.000000 
#    y 0.000000 1.601780 0.000000 
#    z 0.000000 0.000000 1.648130 
# 
# From -- ./inp_files/2497.got.cif
#   From: 2010.03.12/outbox.cif.g09.slc.cpg/sg47_2_cif.got.tgz:2497.got - 2010.04.14 03:12:58.
