data_PCOD8200440
_publ_section_title
;
Structure prediction by ZEFSAII (Michael W. Deem and Ramdas Pophale) SiO2 
 PCOD8200440
Probable space group: P M M M
;
_chemical_formula_sum "Si O2"
_cell_formula_units_Z 56
_cell_length_a 9.410372
_cell_length_b 23.437201
_cell_length_c 14.298569
_cell_angle_alpha 90.000000
_cell_angle_beta 90.000000
_cell_angle_gamma 90.000000
_cell_volume 3153.589144
_symmetry_space_group_name_H-M "P M M M"
_symmetry_group_IT_number 47
_symmetry_cell_setting 'orthorhombic'
loop_
_space_group_symop_operation_xyz
x,y,z
-x,-y,z
x,-y,-z
-x,y,-z
-x,-y,-z
x,y,-z
-x,y,z
x,-y,z
loop_
_atom_site_type_symbol
_atom_site_label
_atom_site_fract_x
_atom_site_fract_y
_atom_site_fract_z
Si Si1 0.165903 0.844821 0.393002
Si Si2 0.334255 0.142978 0.107080
Si Si3 0.664981 0.233016 0.738018
Si Si4 0.667323 0.635805 0.249567
Si Si5 0.165362 0.065192 0.761536
Si Si6 0.162086 0.564467 0.608433
Si Si7 0.160111 0.434955 0.891713
O O1 0.213903 0.854871 0.500000
O O2 0.248593 0.791088 0.350161
O O3 0.204345 0.901341 0.333745
O O4 0.000000 0.830725 0.387091
O O5 0.500000 0.128485 0.113009
O O6 0.296797 0.199558 0.166460
O O7 0.250529 0.089429 0.149831
O O8 0.286488 0.153162 0.000000
O O9 0.500000 0.226713 0.713286
O O10 0.709273 0.298085 0.753101
O O11 0.500000 0.626443 0.250011
O O12 0.731999 0.607457 0.341595
O O13 0.731137 0.606916 0.157919
O O14 0.000000 0.071335 0.785280
O O15 0.210047 0.000000 0.745304
O O16 0.198292 0.567491 0.500000
O O17 0.186011 0.500000 0.645638
O O18 0.000000 0.582994 0.627510
O O19 0.206978 0.500000 0.873604
O O20 0.000000 0.425640 0.853295
O O21 0.165683 0.419997 0.000000
#
# Coordination Sequence:
#
# PCOD8200440 Si02
#       7
#     8   8   8   8   8   8   8
#     4   9  18  33  53  75  98 128 167 206 241 281
#     4   9  18  34  54  71  92 129 171 205 238 279
#     4   9  20  36  50  69  99 132 165 202 245 293
#     4  11  22  33  50  77 104 130 162 205 256 302
#     4   9  18  32  50  75 106 133 157 193 243 294
#     4   9  19  36  55  73  96 130 169 205 245 298
#     4   9  19  36  55  74  99 132 167 202 244 298
#
# _framework density 17.757545
#
# number of rings (size 3 to 8) (size 9 to 14) (size 15 to 20)
#    0.000    2.714    0.000    1.714    0.000    6.571 
#    0.000    8.571    0.000    0.000    0.000    4.000 
#    0.000    0.000    0.000    0.000    0.000    0.000 
#
# Total GULP energy -694458.638596 kJ/mol
# GULP energy per Si atom -12401.047118 kJ/mol
# Density = 1.771713 g / cm^3
# Si number density = 17.757545 Si / 1000 Ang^3
#
#
#
# Elastic Constant Matrix: (Units=GPa)
#
#
# Indices 1 2 3 4 5 6 
#
# 1 65.4826 63.3149 48.6966 0.0000 0.0000 0.0000
# 2 63.3149 136.5678 62.2812 0.0000 0.0000 0.0000
# 3 48.6966 62.2812 127.7892 0.0000 0.0000 0.0000
# 4 0.0000 0.0000 0.0000 24.9514 0.0000 0.0000
# 5 0.0000 0.0000 0.0000 0.0000 16.4379 0.0000
# 6 0.0000 0.0000 0.0000 0.0000 0.0000 31.4387
#
#
#
# Elastic Compliance Matrix: (Units=1/GPa)
#
#
# Indices 1 2 3 4 5 6 
#
# 1 0.031080 -0.011582 -0.006199 0.000000 0.000000 0.000000
# 2 -0.011582 0.013731 -0.002279 0.000000 0.000000 0.000000
# 3 -0.006199 -0.002279 0.011298 0.000000 0.000000 0.000000
# 4 0.000000 0.000000 0.000000 0.040078 0.000000 0.000000
# 5 0.000000 0.000000 0.000000 0.000000 0.060835 0.000000
# 6 0.000000 0.000000 0.000000 0.000000 0.000000 0.031808
#
#
# Mechanical properties :
#
#
# Convention : Reuss Voigt Hill
#
# Bulk Modulus (GPa) = 62.53901 75.38055 68.95978
# Shear Modulus (GPa) = 21.34212 24.93538 23.13875
#
# Velocity S-wave (km/s) = 3.47055 3.75135 3.61368
# Velocity P-wave (km/s) = 7.16619 7.82978 7.50533
#
# Compressibility (1/GPa) = 0.01599002
#
# Stress axis : x y z
#
# Youngs Moduli (GPa) = 32.17549 72.82711 88.51068
#
# Poissons Ratio (x) = 0.84349 0.54865
# Poissons Ratio (y) = 0.37266 0.20168
# Poissons Ratio (z) = 0.19945 0.16595
#
# Static dielectric constant tensor:
#      x y z
#    x 3.246460 0.000000 0.000000 
#    y 0.000000 3.303490 0.000000 
#    z 0.000000 0.000000 3.340440 
# 
# 
# High freq. dielectric constant tensor:
#      x y z
#    x 1.683170 0.000000 0.000000 
#    y 0.000000 1.683790 0.000000 
#    z 0.000000 0.000000 1.693880 
# 
# From -- ./inp_files/11190.got.cif
#   From: 2010.03.12/outbox.cif.g09.slc.cpg/sg47_6_cif.got.tgz:11190.got - 2010.04.14 03:12:58.
