data_PCOD8200064
_publ_section_title
;
Structure prediction by ZEFSAII (Michael W. Deem and Ramdas Pophale) SiO2 
 PCOD8200064
Probable space group: P M M M
;
_chemical_formula_sum "Si O2"
_cell_formula_units_Z 48
_cell_length_a 14.977134
_cell_length_b 18.878693
_cell_length_c 8.609545
_cell_angle_alpha 90.000000
_cell_angle_beta 90.000000
_cell_angle_gamma 90.000000
_cell_volume 2434.337784
_symmetry_space_group_name_H-M "P M M M"
_symmetry_group_IT_number 47
_symmetry_cell_setting 'orthorhombic'
loop_
_space_group_symop_operation_xyz
x,y,z
-x,-y,z
x,-y,-z
-x,y,-z
-x,-y,-z
x,y,-z
-x,y,z
x,-y,z
loop_
_atom_site_type_symbol
_atom_site_label
_atom_site_fract_x
_atom_site_fract_y
_atom_site_fract_z
Si Si1 0.898286 0.316051 0.177892
Si Si2 0.500000 0.920621 0.682820
Si Si3 0.842773 0.829286 0.318367
Si Si4 0.397032 0.668707 0.818601
Si Si5 0.000000 0.083837 0.178240
Si Si6 0.652068 0.174122 0.181927
Si Si7 0.242610 0.418213 0.319224
O O1 0.879290 0.248967 0.285566
O O2 0.835220 0.380809 0.222687
O O3 0.000000 0.340962 0.201300
O O4 0.879271 0.294170 0.000000
O O5 0.500000 0.922510 0.500000
O O6 0.588814 0.881929 0.737230
O O7 0.500000 0.000000 0.751664
O O8 0.824184 0.837255 0.500000
O O9 0.752866 0.844401 0.224716
O O10 0.913010 0.887614 0.264377
O O11 0.500000 0.652703 0.782937
O O12 0.372125 0.747143 0.759789
O O13 0.339201 0.612850 0.722885
O O14 0.375061 0.660842 0.000000
O O15 0.000000 0.000000 0.189437
O O16 0.000000 0.110277 0.000000
O O17 0.636196 0.168378 0.000000
O O18 0.223847 0.406763 0.500000
O O19 0.242022 0.500000 0.272341
#
# Coordination Sequence:
#
# PCOD8200064 Si02
#       7
#     8   4   8   8   4   8   8
#     4  11  23  40  65  93 124 163 211 261 309 374
#     4  11  25  43  63  93 132 169 210 263 319 374
#     4  12  24  39  65  97 128 165 209 260 316 374
#     4  10  21  39  64  92 121 159 208 259 309 370
#     4  11  25  45  67  93 128 169 212 259 313 373
#     4  11  22  40  66  94 126 165 212 261 312 377
#     4  11  25  42  61  91 130 167 206 257 317 376
#
# _framework density 19.717887000000001
#
# number of rings (size 3 to 8) (size 9 to 14) (size 15 to 20)
#    0.000    1.000    3.333    3.500    0.000    6.000 
#    0.000    3.333    0.000    0.000    0.000    0.000 
#    0.000    0.000    0.000    0.000    0.000    0.000 
#
# Total GULP energy -595547.152926 kJ/mol
# GULP energy per Si atom -12407.232353 kJ/mol
# Density = 1.967301 g / cm^3
# Si number density = 19.717887 Si / 1000 Ang^3
#
#
#
# Elastic Constant Matrix: (Units=GPa)
#
#
# Indices 1 2 3 4 5 6 
#
# 1 131.1740 47.7123 11.8990 0.0000 0.0000 0.0000
# 2 47.7123 115.5730 27.4384 0.0000 0.0000 0.0000
# 3 11.8990 27.4384 51.7157 0.0000 0.0000 0.0000
# 4 0.0000 0.0000 0.0000 31.5217 0.0000 0.0000
# 5 0.0000 0.0000 0.0000 0.0000 -181.9710 0.0000
# 6 0.0000 0.0000 0.0000 0.0000 0.0000 28.5894
#
#
#
# Elastic Compliance Matrix: (Units=1/GPa)
#
#
# Indices 1 2 3 4 5 6 
#
# 1 0.008971 -0.003677 -0.000113 0.000000 0.000000 0.000000
# 2 -0.003677 0.011406 -0.005206 0.000000 0.000000 0.000000
# 3 -0.000113 -0.005206 0.022125 0.000000 0.000000 0.000000
# 4 0.000000 0.000000 0.000000 0.031724 0.000000 0.000000
# 5 0.000000 0.000000 0.000000 0.000000 -0.005495 0.000000
# 6 0.000000 0.000000 0.000000 0.000000 0.000000 0.034978
#
#
# Mechanical properties :
#
#
# Convention : Reuss Voigt Hill
#
# Bulk Modulus (GPa) = 40.79929 52.50688 46.65308
# Shear Modulus (GPa) = 38.49986 -10.27779 14.11104
#
# Velocity S-wave (km/s) = 4.42354 -2.28555 2.67806
# Velocity P-wave (km/s) = 6.84301 4.44093 5.76839
#
# Compressibility (1/GPa) = 0.02451023
#
# Stress axis : x y z
#
# Youngs Moduli (GPa) = 111.46962 87.67103 45.19856
#
# Poissons Ratio (x) = 0.32233 0.00513
# Poissons Ratio (y) = 0.40983 0.23529
# Poissons Ratio (z) = 0.01264 0.45640
#
# Static dielectric constant tensor:
#      x y z
#    x 3.674140 0.000000 0.000000 
#    y 0.000000 3.621760 0.000000 
#    z 0.000000 0.000000 3.688820 
# 
# 
# High freq. dielectric constant tensor:
#      x y z
#    x 1.786730 0.000000 0.000000 
#    y 0.000000 1.765680 0.000000 
#    z 0.000000 0.000000 1.777390 
# 
# From -- ./inp_files/6468.got.cif
#   From: 2010.03.12/outbox.cif.g09.slc.cpg/sg47_4_cif.got.tgz:6468.got - 2010.04.14 03:12:58.
