data_PCOD8200272
_publ_section_title
;
Structure prediction by ZEFSAII (Michael W. Deem and Ramdas Pophale) SiO2 
 PCOD8200272
Probable space group: P M M M
;
_chemical_formula_sum "Si O2"
_cell_formula_units_Z 36
_cell_length_a 14.579210
_cell_length_b 9.196013
_cell_length_c 15.327280
_cell_angle_alpha 90.000000
_cell_angle_beta 90.000000
_cell_angle_gamma 90.000000
_cell_volume 2054.937698
_symmetry_space_group_name_H-M "P M M M"
_symmetry_group_IT_number 47
_symmetry_cell_setting 'orthorhombic'
loop_
_space_group_symop_operation_xyz
x,y,z
-x,-y,z
x,-y,-z
-x,y,-z
-x,-y,-z
x,y,-z
-x,y,z
x,-y,z
loop_
_atom_site_type_symbol
_atom_site_label
_atom_site_fract_x
_atom_site_fract_y
_atom_site_fract_z
Si Si1 0.790337 0.171255 0.247876
Si Si2 0.399106 0.827140 0.313818
Si Si3 0.107059 0.331914 0.599223
Si Si4 0.105300 0.332280 0.100116
Si Si5 0.607482 0.843203 0.500000
O O1 0.681771 0.213554 0.246724
O O2 0.837487 0.233261 0.334104
O O3 0.830837 0.234074 0.159385
O O4 0.805514 0.000000 0.248234
O O5 0.500000 0.768836 0.282850
O O6 0.369849 0.759458 0.409061
O O7 0.405129 0.000000 0.325742
O O8 0.136844 0.293938 0.500000
O O9 0.127544 0.500000 0.619734
O O10 0.000000 0.299300 0.611919
O O11 0.122068 0.500000 0.123504
O O12 0.000000 0.291082 0.118205
O O13 0.130769 0.301143 0.000000
O O14 0.500000 0.870872 0.500000
O O15 0.658806 0.000000 0.500000
#
# Coordination Sequence:
#
# PCOD8200272 Si02
#       5
#     8   8   8   8   4
#     4  11  21  29  48  80 105 125 156 206 259 296
#     4   8  15  27  42  64  97 134 167 198 237 289
#     4   9  19  35  50  64  92 138 179 201 228 286
#     4   9  19  37  58  75  94 127 167 200 237 297
#     4   7  10  20  38  56  80 121 166 198 223 261
#
# _framework density 17.51878
#
# number of rings (size 3 to 8) (size 9 to 14) (size 15 to 20)
#    0.000    3.000    0.000    4.000    1.556    4.444 
#    0.000    2.222    0.000    3.333    0.000    6.222 
#    0.000    0.000    0.000    0.000    0.000    0.000 
#
# Total GULP energy -446014.578738 kJ/mol
# GULP energy per Si atom -12389.293854 kJ/mol
# Density = 1.747891 g / cm^3
# Si number density = 17.518780 Si / 1000 Ang^3
#
#
#
# Elastic Constant Matrix: (Units=GPa)
#
#
# Indices 1 2 3 4 5 6 
#
# 1 110.9432 48.8958 71.6762 0.0000 0.0000 0.0000
# 2 48.8958 58.3382 47.1755 0.0000 0.0000 0.0000
# 3 71.6762 47.1755 101.2711 0.0000 0.0000 0.0000
# 4 0.0000 0.0000 0.0000 21.8644 0.0000 0.0000
# 5 0.0000 0.0000 0.0000 0.0000 24.3383 0.0000
# 6 0.0000 0.0000 0.0000 0.0000 0.0000 -9.3493
#
#
#
# Elastic Compliance Matrix: (Units=1/GPa)
#
#
# Indices 1 2 3 4 5 6 
#
# 1 0.018657 -0.007956 -0.009498 0.000000 0.000000 0.000000
# 2 -0.007956 0.030894 -0.008760 0.000000 0.000000 0.000000
# 3 -0.009498 -0.008760 0.020678 0.000000 0.000000 0.000000
# 4 0.000000 0.000000 0.000000 0.045736 0.000000 0.000000
# 5 0.000000 0.000000 0.000000 0.000000 0.041087 0.000000
# 6 0.000000 0.000000 0.000000 0.000000 0.000000 -0.106959
#
#
# Mechanical properties :
#
#
# Convention : Reuss Voigt Hill
#
# Bulk Modulus (GPa) = 56.18318 67.33861 61.76089
# Shear Modulus (GPa) = 46.10202 14.22435 30.16318
#
# Velocity S-wave (km/s) = 5.13546 2.85256 4.15391
# Velocity P-wave (km/s) = 8.20389 7.02644 7.63789
#
# Compressibility (1/GPa) = 0.01779892
#
# Stress axis : x y z
#
# Youngs Moduli (GPa) = 53.60042 32.36888 48.36077
#
# Poissons Ratio (x) = 0.25753 0.45934
# Poissons Ratio (y) = 0.42645 0.42366
# Poissons Ratio (z) = 0.50911 0.28356
#
# Static dielectric constant tensor:
#      x y z
#    x 3.378930 0.000000 0.000000 
#    y 0.000000 2.925140 0.000000 
#    z 0.000000 0.000000 3.285240 
# 
# 
# High freq. dielectric constant tensor:
#      x y z
#    x 1.676500 0.000000 0.000000 
#    y 0.000000 1.643770 0.000000 
#    z 0.000000 0.000000 1.667610 
# 
# From -- ./inp_files/5504.got.cif
#   From: 2010.03.12/outbox.cif.g09.slc.cpg/sg47_3_cif.got.tgz:5504.got - 2010.04.14 03:12:58.
