data_PCOD8200781
_publ_section_title
;
Structure prediction by ZEFSAII (Michael W. Deem and Ramdas Pophale) SiO2 
 PCOD8200781
Probable space group: P M M M
;
_chemical_formula_sum "Si O2"
_cell_formula_units_Z 36
_cell_length_a 10.461155
_cell_length_b 9.469760
_cell_length_c 22.231425
_cell_angle_alpha 90.000000
_cell_angle_beta 90.000000
_cell_angle_gamma 90.000000
_cell_volume 2202.347829
_symmetry_space_group_name_H-M "P M M M"
_symmetry_group_IT_number 47
_symmetry_cell_setting 'orthorhombic'
loop_
_space_group_symop_operation_xyz
x,y,z
-x,-y,z
x,-y,-z
-x,y,-z
-x,-y,-z
x,y,-z
-x,y,z
x,-y,z
loop_
_atom_site_type_symbol
_atom_site_label
_atom_site_fract_x
_atom_site_fract_y
_atom_site_fract_z
Si Si1 0.152410 0.841935 0.389617
Si Si2 0.000000 0.168337 0.932522
Si Si3 0.152627 0.340876 0.500000
Si Si4 0.857211 0.832111 0.258129
Si Si5 0.249225 0.168085 0.135259
Si Si6 0.500000 0.831381 0.931244
O O1 0.206229 0.738044 0.440826
O O2 0.195949 0.784486 0.323687
O O3 0.000000 0.846255 0.390961
O O4 0.205473 0.000000 0.401696
O O5 0.873828 0.227028 0.899960
O O6 0.000000 0.000000 0.931150
O O7 0.000000 0.226634 0.000000
O O8 0.205547 0.500000 0.500000
O O9 0.000000 0.339133 0.500000
O O10 0.762149 0.781000 0.204927
O O11 0.000000 0.770914 0.246536
O O12 0.867016 0.000000 0.258124
O O13 0.376508 0.229004 0.103988
O O14 0.252129 0.000000 0.131933
O O15 0.500000 0.000000 0.931115
O O16 0.500000 0.775962 0.000000
#
# Coordination Sequence:
#
# PCOD8200781 Si02
#       6
#     8   4   4   8   8   4
#     4   8  13  20  31  45  63  89 124 159 185 212
#     4   9  14  18  26  38  52  75 109 146 178 211
#     4   9  15  21  29  45  71 100 123 142 178 230
#     4   8  12  19  30  43  56  76 112 156 188 207
#     4   9  14  20  28  38  55  79 112 150 183 215
#     4   9  16  22  26  36  58  87 115 144 182 227
#
# _framework density 16.346191999999999
#
# number of rings (size 3 to 8) (size 9 to 14) (size 15 to 20)
#    0.000    3.444    1.111    2.333    0.000    4.000 
#    0.000    0.000    0.000    0.000    0.000    0.000 
#    0.000    0.889    0.000   12.333    0.000   12.444 
#
# Total GULP energy -446031.271680 kJ/mol
# GULP energy per Si atom -12389.757547 kJ/mol
# Density = 1.630899 g / cm^3
# Si number density = 16.346192 Si / 1000 Ang^3
#
#
#
# Elastic Constant Matrix: (Units=GPa)
#
#
# Indices 1 2 3 4 5 6 
#
# 1 83.0330 12.1476 60.6148 0.0000 0.0000 0.0000
# 2 12.1476 33.1266 37.7614 0.0000 0.0000 0.0000
# 3 60.6148 37.7614 192.7724 0.0000 0.0000 0.0000
# 4 0.0000 0.0000 0.0000 1.4097 0.0000 0.0000
# 5 0.0000 0.0000 0.0000 0.0000 17.3448 0.0000
# 6 0.0000 0.0000 0.0000 0.0000 0.0000 2.0202
#
#
#
# Elastic Compliance Matrix: (Units=1/GPa)
#
#
# Indices 1 2 3 4 5 6 
#
# 1 0.015632 -0.000166 -0.004883 0.000000 0.000000 0.000000
# 2 -0.000166 0.038867 -0.007561 0.000000 0.000000 0.000000
# 3 -0.004883 -0.007561 0.008204 0.000000 0.000000 0.000000
# 4 0.000000 0.000000 0.000000 0.709375 0.000000 0.000000
# 5 0.000000 0.000000 0.000000 0.000000 0.057654 0.000000
# 6 0.000000 0.000000 0.000000 0.000000 0.000000 0.494997
#
#
# Mechanical properties :
#
#
# Convention : Reuss Voigt Hill
#
# Bulk Modulus (GPa) = 26.67899 58.88662 42.78281
# Shear Modulus (GPa) = 3.66987 17.38216 10.52602
#
# Velocity S-wave (km/s) = 1.49999 3.26448 2.54036
# Velocity P-wave (km/s) = 4.39962 7.09310 5.90206
#
# Compressibility (1/GPa) = 0.03748267
#
# Stress axis : x y z
#
# Youngs Moduli (GPa) = 63.97057 25.72849 121.89293
#
# Poissons Ratio (x) = 0.00428 0.59517
# Poissons Ratio (y) = 0.01065 0.92166
# Poissons Ratio (z) = 0.31235 0.19454
#
# Static dielectric constant tensor:
#      x y z
#    x 2.812530 0.000000 0.000000 
#    y 0.000000 2.478880 0.000000 
#    z 0.000000 0.000000 3.640350 
# 
# 
# High freq. dielectric constant tensor:
#      x y z
#    x 1.577030 0.000000 0.000000 
#    y 0.000000 1.549420 0.000000 
#    z 0.000000 0.000000 1.656080 
# 
# From -- ./inp_files/32279.got.cif
#   From: 2010.03.12/outbox.cif.g09.slc.cpg/sg47_17_cif.got.tgz:32279.got - 2010.04.14 03:12:58.
