data_PCOD8200721
_publ_section_title
;
Structure prediction by ZEFSAII (Michael W. Deem and Ramdas Pophale) SiO2 
 PCOD8200721
Probable space group: P M M M
;
_chemical_formula_sum "Si O2"
_cell_formula_units_Z 44
_cell_length_a 9.158721
_cell_length_b 28.694643
_cell_length_c 9.803035
_cell_angle_alpha 90.000000
_cell_angle_beta 90.000000
_cell_angle_gamma 90.000000
_cell_volume 2576.298665
_symmetry_space_group_name_H-M "P M M M"
_symmetry_group_IT_number 47
_symmetry_cell_setting 'orthorhombic'
loop_
_space_group_symop_operation_xyz
x,y,z
-x,-y,z
x,-y,-z
-x,y,-z
-x,-y,-z
x,y,-z
-x,y,z
x,-y,z
loop_
_atom_site_type_symbol
_atom_site_label
_atom_site_fract_x
_atom_site_fract_y
_atom_site_fract_z
Si Si1 0.840536 0.000000 0.338445
Si Si2 0.171507 0.633886 0.842195
Si Si3 0.664658 0.274631 0.837901
Si Si4 0.171251 0.816877 0.157845
Si Si5 0.825404 0.900030 0.653272
Si Si6 0.826540 0.551624 0.652886
O O1 0.761117 0.049027 0.298850
O O2 0.860173 0.000000 0.500000
O O3 0.000000 0.000000 0.268265
O O4 0.252010 0.679607 0.784536
O O5 0.234041 0.589779 0.758557
O O6 0.000000 0.641392 0.819465
O O7 0.208201 0.624744 0.000000
O O8 0.500000 0.274716 0.781017
O O9 0.747264 0.228704 0.784893
O O10 0.667372 0.274711 0.000000
O O11 0.231444 0.860763 0.243247
O O12 0.000000 0.808916 0.180390
O O13 0.207926 0.826282 0.000000
O O14 0.772056 0.887762 0.500000
O O15 0.000000 0.903057 0.656059
O O16 0.773236 0.564051 0.500000
O O17 0.769168 0.500000 0.694151
O O18 0.000000 0.551592 0.657991
#
# Coordination Sequence:
#
# PCOD8200721 Si02
#       6
#     4   8   8   8   8   8
#     4   7  10  18  33  53  78 107 134 158 190 237
#     4   9  16  26  43  66  86 104 133 173 206 230
#     4   9  17  29  44  60  80 109 140 166 199 246
#     4   9  16  26  41  61  83 105 132 168 205 237
#     4   8  13  22  37  57  81 108 135 162 196 240
#     4   8  14  25  41  62  88 114 136 160 196 242
#
# _framework density 17.078765000000001
#
# number of rings (size 3 to 8) (size 9 to 14) (size 15 to 20)
#    0.000    3.545    0.000    2.182    0.000    2.545 
#    0.000    3.182    0.000    9.818    0.000    4.455 
#    0.000    5.091    0.000    0.000    0.000    0.000 
#
# Total GULP energy -545188.207146 kJ/mol
# GULP energy per Si atom -12390.641071 kJ/mol
# Density = 1.703989 g / cm^3
# Si number density = 17.078765 Si / 1000 Ang^3
#
#
#
# Elastic Constant Matrix: (Units=GPa)
#
#
# Indices 1 2 3 4 5 6 
#
# 1 35.5991 43.2351 21.4624 0.0000 0.0000 0.0000
# 2 43.2351 203.6864 78.0944 0.0000 0.0000 0.0000
# 3 21.4624 78.0944 64.1654 0.0000 0.0000 0.0000
# 4 0.0000 0.0000 0.0000 27.4806 0.0000 0.0000
# 5 0.0000 0.0000 0.0000 0.0000 6.4516 0.0000
# 6 0.0000 0.0000 0.0000 0.0000 0.0000 2.1406
#
#
#
# Elastic Compliance Matrix: (Units=1/GPa)
#
#
# Indices 1 2 3 4 5 6 
#
# 1 0.038874 -0.006124 -0.005550 0.000000 0.000000 0.000000
# 2 -0.006124 0.010169 -0.010329 0.000000 0.000000 0.000000
# 3 -0.005550 -0.010329 0.030012 0.000000 0.000000 0.000000
# 4 0.000000 0.000000 0.000000 0.036389 0.000000 0.000000
# 5 0.000000 0.000000 0.000000 0.000000 0.155001 0.000000
# 6 0.000000 0.000000 0.000000 0.000000 0.000000 0.467164
#
#
# Mechanical properties :
#
#
# Convention : Reuss Voigt Hill
#
# Bulk Modulus (GPa) = 28.52997 65.44829 46.98913
# Shear Modulus (GPa) = 6.30281 17.92515 12.11398
#
# Velocity S-wave (km/s) = 1.92313 3.24320 2.66616
# Velocity P-wave (km/s) = 4.65537 7.24080 6.08694
#
# Compressibility (1/GPa) = 0.03505086
#
# Stress axis : x y z
#
# Youngs Moduli (GPa) = 25.72438 98.33399 33.32014
#
# Poissons Ratio (x) = 0.60217 0.18491
# Poissons Ratio (y) = 0.15753 0.34415
# Poissons Ratio (z) = 0.14276 1.01566
#
# Static dielectric constant tensor:
#      x y z
#    x 2.753130 0.000000 0.000000 
#    y 0.000000 3.709140 0.000000 
#    z 0.000000 0.000000 3.016070 
# 
# 
# High freq. dielectric constant tensor:
#      x y z
#    x 1.604640 0.000000 0.000000 
#    y 0.000000 1.680140 0.000000 
#    z 0.000000 0.000000 1.626700 
# 
# From -- ./inp_files/2042.got.cif
#   From: 2010.03.12/outbox.cif.g09.slc.cpg/sg47_2_cif.got.tgz:2042.got - 2010.04.14 03:12:58.
