data_PCOD8200736
_publ_section_title
;
Structure prediction by ZEFSAII (Michael W. Deem and Ramdas Pophale) SiO2 
 PCOD8200736
Probable space group: P M M M
;
_chemical_formula_sum "Si O2"
_cell_formula_units_Z 52
_cell_length_a 9.433264
_cell_length_b 33.431900
_cell_length_c 9.813655
_cell_angle_alpha 90.000000
_cell_angle_beta 90.000000
_cell_angle_gamma 90.000000
_cell_volume 3094.951403
_symmetry_space_group_name_H-M "P M M M"
_symmetry_group_IT_number 47
_symmetry_cell_setting 'orthorhombic'
loop_
_space_group_symop_operation_xyz
x,y,z
-x,-y,z
x,-y,-z
-x,y,-z
-x,-y,-z
x,y,-z
-x,y,z
x,-y,z
loop_
_atom_site_type_symbol
_atom_site_label
_atom_site_fract_x
_atom_site_fract_y
_atom_site_fract_z
Si Si1 0.668330 0.262700 0.650801
Si Si2 0.334635 0.192735 0.842699
Si Si3 0.164209 0.413402 0.161497
Si Si4 0.165448 0.885339 0.157422
Si Si5 0.333749 0.647678 0.343437
Si Si6 0.831627 0.955733 0.652766
Si Si7 0.832505 0.500000 0.148788
O O1 0.724529 0.251345 0.500000
O O2 0.500000 0.262568 0.650503
O O3 0.726107 0.230384 0.758348
O O4 0.719199 0.307284 0.690082
O O5 0.500000 0.185158 0.813948
O O6 0.249736 0.153758 0.794769
O O7 0.305552 0.202369 0.000000
O O8 0.255278 0.381311 0.240763
O O9 0.209844 0.457781 0.219475
O O10 0.000000 0.405115 0.192488
O O11 0.193848 0.410538 0.000000
O O12 0.227175 0.922714 0.242757
O O13 0.000000 0.877919 0.186143
O O14 0.194392 0.895034 0.000000
O O15 0.297310 0.636987 0.500000
O O16 0.500000 0.643487 0.317079
O O17 0.780377 0.945045 0.500000
O O18 0.000000 0.956020 0.658702
O O19 0.775273 0.000000 0.693946
O O20 0.000000 0.500000 0.129745
O O21 0.761127 0.500000 0.000000
#
# Coordination Sequence:
#
# PCOD8200736 Si02
#       7
#     8   8   8   8   8   8   4
#     4   8  15  29  47  64  83 111 147 181 211 250
#     4   9  17  29  45  64  85 110 141 175 210 251
#     4   9  17  30  49  71  92 117 152 190 226 266
#     4   9  17  28  42  62  87 111 135 168 210 250
#     4   9  18  32  48  67  93 122 150 184 227 271
#     4   8  14  25  41  61  84 109 138 172 207 243
#     4   7  12  26  46  65  88 118 150 185 222 261
#
# _framework density 16.801556999999999
#
# number of rings (size 3 to 8) (size 9 to 14) (size 15 to 20)
#    0.000    3.462    0.000    2.308    0.000    2.154 
#    0.000    4.615    0.000    6.923    0.000    3.231 
#    0.000    0.000    0.000    0.000    0.000    0.000 
#
# Total GULP energy -644347.793060 kJ/mol
# GULP energy per Si atom -12391.303713 kJ/mol
# Density = 1.676332 g / cm^3
# Si number density = 16.801557 Si / 1000 Ang^3
#
#
#
# Elastic Constant Matrix: (Units=GPa)
#
#
# Indices 1 2 3 4 5 6 
#
# 1 30.7716 42.2878 31.1744 0.0000 0.0000 0.0000
# 2 42.2878 171.1082 89.8465 0.0000 0.0000 0.0000
# 3 31.1744 89.8465 83.2141 0.0000 0.0000 0.0000
# 4 0.0000 0.0000 0.0000 21.7710 0.0000 0.0000
# 5 0.0000 0.0000 0.0000 0.0000 18.6280 0.0000
# 6 0.0000 0.0000 0.0000 0.0000 0.0000 35.9632
#
#
#
# Elastic Compliance Matrix: (Units=1/GPa)
#
#
# Indices 1 2 3 4 5 6 
#
# 1 0.055285 -0.006438 -0.013761 0.000000 0.000000 0.000000
# 2 -0.006438 0.014245 -0.012968 0.000000 0.000000 0.000000
# 3 -0.013761 -0.012968 0.031174 0.000000 0.000000 0.000000
# 4 0.000000 0.000000 0.000000 0.045933 0.000000 0.000000
# 5 0.000000 0.000000 0.000000 0.000000 0.053683 0.000000
# 6 0.000000 0.000000 0.000000 0.000000 0.000000 0.027806
#
#
# Mechanical properties :
#
#
# Convention : Reuss Voigt Hill
#
# Bulk Modulus (GPa) = 29.09432 67.96792 48.53112
# Shear Modulus (GPa) = 16.34433 23.39143 19.86788
#
# Velocity S-wave (km/s) = 3.12234 3.73529 3.44248
# Velocity P-wave (km/s) = 5.50933 7.69054 6.68943
#
# Compressibility (1/GPa) = 0.03437096
#
# Stress axis : x y z
#
# Youngs Moduli (GPa) = 18.08798 70.20101 32.07769
#
# Poissons Ratio (x) = 0.45194 0.44141
# Poissons Ratio (y) = 0.11645 0.41600
# Poissons Ratio (z) = 0.24890 0.91039
#
# Static dielectric constant tensor:
#      x y z
#    x 2.742880 0.000000 0.000000 
#    y 0.000000 3.524920 0.000000 
#    z 0.000000 0.000000 3.161730 
# 
# 
# High freq. dielectric constant tensor:
#      x y z
#    x 1.603590 0.000000 0.000000 
#    y 0.000000 1.662050 0.000000 
#    z 0.000000 0.000000 1.638950 
# 
# From -- ./inp_files/4793.got.cif
#   From: 2010.03.12/outbox.cif.g09.slc.cpg/sg47_3_cif.got.tgz:4793.got - 2010.04.14 03:12:58.
