data_PCOD8200536
_publ_section_title
;
Structure prediction by ZEFSAII (Michael W. Deem and Ramdas Pophale) SiO2 
 PCOD8200536
Probable space group: P M M M
;
_chemical_formula_sum "Si O2"
_cell_formula_units_Z 40
_cell_length_a 8.246663
_cell_length_b 12.793809
_cell_length_c 23.599131
_cell_angle_alpha 90.000000
_cell_angle_beta 90.000000
_cell_angle_gamma 90.000000
_cell_volume 2489.855374
_symmetry_space_group_name_H-M "P M M M"
_symmetry_group_IT_number 47
_symmetry_cell_setting 'orthorhombic'
loop_
_space_group_symop_operation_xyz
x,y,z
-x,-y,z
x,-y,-z
-x,y,-z
-x,-y,-z
x,y,-z
-x,y,z
x,-y,z
loop_
_atom_site_type_symbol
_atom_site_label
_atom_site_fract_x
_atom_site_fract_y
_atom_site_fract_z
Si Si1 0.185526 0.500000 0.438304
Si Si2 0.500000 0.624394 0.064435
Si Si3 0.683533 0.308940 0.369758
Si Si4 0.190090 0.118572 0.564438
Si Si5 0.182009 0.624508 0.130523
Si Si6 0.188110 0.617506 0.742243
O O1 0.276718 0.500000 0.500000
O O2 0.216881 0.603801 0.402667
O O3 0.000000 0.500000 0.452569
O O4 0.500000 0.500000 0.068443
O O5 0.332285 0.667545 0.092680
O O6 0.500000 0.663715 0.000000
O O7 0.500000 0.339108 0.379781
O O8 0.716785 0.193513 0.392823
O O9 0.722424 0.308789 0.302801
O O10 0.237283 0.147291 0.500000
O O11 0.000000 0.132794 0.573501
O O12 0.242637 0.000000 0.577967
O O13 0.179211 0.500000 0.129185
O O14 0.216034 0.662675 0.194637
O O15 0.000000 0.663333 0.110655
O O16 0.259274 0.500000 0.737747
O O17 0.000000 0.615966 0.727177
#
# Coordination Sequence:
#
# PCOD8200536 Si02
#       6
#     4   4   8   8   8   8
#     4  11  23  37  49  61  87 123 151 182 225 278
#     4   9  16  24  36  56  80 110 147 190 227 263
#     4  12  23  31  46  72  94 115 143 186 238 282
#     4   9  19  37  57  70  83 112 152 187 223 277
#     4   8  15  26  39  55  77 111 148 188 229 265
#     4   9  17  30  46  61  84 117 153 187 221 269
#
# _framework density 16.065190000000001
#
# number of rings (size 3 to 8) (size 9 to 14) (size 15 to 20)
#    0.000    2.400    1.000    4.500    1.400    4.400 
#    0.000    3.000    0.000    0.000    0.000    0.000 
#    0.000    0.000    0.000    0.000    0.000    2.000 
#
# Total GULP energy -495772.150158 kJ/mol
# GULP energy per Si atom -12394.303754 kJ/mol
# Density = 1.602862 g / cm^3
# Si number density = 16.065190 Si / 1000 Ang^3
#
#
#
# Elastic Constant Matrix: (Units=GPa)
#
#
# Indices 1 2 3 4 5 6 
#
# 1 93.4777 21.2263 57.0913 0.0000 0.0000 0.0000
# 2 21.2263 45.1827 30.4455 0.0000 0.0000 0.0000
# 3 57.0913 30.4455 110.9741 0.0000 0.0000 0.0000
# 4 0.0000 0.0000 0.0000 7.9164 0.0000 0.0000
# 5 0.0000 0.0000 0.0000 0.0000 15.9275 0.0000
# 6 0.0000 0.0000 0.0000 0.0000 0.0000 1480.5454
#
#
#
# Elastic Compliance Matrix: (Units=1/GPa)
#
#
# Indices 1 2 3 4 5 6 
#
# 1 0.015806 -0.002388 -0.007477 0.000000 0.000000 0.000000
# 2 -0.002388 0.027512 -0.006320 0.000000 0.000000 0.000000
# 3 -0.007477 -0.006320 0.014591 0.000000 0.000000 0.000000
# 4 0.000000 0.000000 0.000000 0.126321 0.000000 0.000000
# 5 0.000000 0.000000 0.000000 0.000000 0.062785 0.000000
# 6 0.000000 0.000000 0.000000 0.000000 0.000000 0.000675
#
#
# Mechanical properties :
#
#
# Convention : Reuss Voigt Hill
#
# Bulk Modulus (GPa) = 39.15085 51.90675 45.52880
# Shear Modulus (GPa) = 17.32669 310.26928 163.79798
#
# Velocity S-wave (km/s) = 3.28765 13.91225 10.10840
# Velocity P-wave (km/s) = 6.23173 17.04253 12.83126
#
# Compressibility (1/GPa) = 0.02554223
#
# Stress axis : x y z
#
# Youngs Moduli (GPa) = 63.26634 36.34718 68.53421
#
# Poissons Ratio (x) = 0.08678 0.51240
# Poissons Ratio (y) = 0.15106 0.43311
# Poissons Ratio (z) = 0.47301 0.22970
#
# Static dielectric constant tensor:
#      x y z
#    x 3.194970 0.000000 0.000000 
#    y 0.000000 2.697870 0.000000 
#    z 0.000000 0.000000 3.131990 
# 
# 
# High freq. dielectric constant tensor:
#      x y z
#    x 1.628330 0.000000 0.000000 
#    y 0.000000 1.553370 0.000000 
#    z 0.000000 0.000000 1.615340 
# 
# From -- ./inp_files/4115.got.cif
#   From: 2010.03.12/outbox.cif.g09.slc.cpg/sg47_3_cif.got.tgz:4115.got - 2010.04.14 03:12:58.
