data_PCOD8200323
_publ_section_title
;
Structure prediction by ZEFSAII (Michael W. Deem and Ramdas Pophale) SiO2 
 PCOD8200323
Probable space group: P M M M
;
_chemical_formula_sum "Si O2"
_cell_formula_units_Z 36
_cell_length_a 13.987519
_cell_length_b 9.220771
_cell_length_c 18.213122
_cell_angle_alpha 90.000000
_cell_angle_beta 90.000000
_cell_angle_gamma 90.000000
_cell_volume 2349.050333
_symmetry_space_group_name_H-M "P M M M"
_symmetry_group_IT_number 47
_symmetry_cell_setting 'orthorhombic'
loop_
_space_group_symop_operation_xyz
x,y,z
-x,-y,z
x,-y,-z
-x,y,-z
-x,-y,-z
x,y,-z
-x,y,z
x,-y,z
loop_
_atom_site_type_symbol
_atom_site_label
_atom_site_fract_x
_atom_site_fract_y
_atom_site_fract_z
Si Si1 0.386400 0.663796 0.580182
Si Si2 0.386939 0.667595 0.000000
Si Si3 0.391301 0.169297 0.280282
Si Si4 0.108883 0.334082 0.085711
Si Si5 0.286136 0.171454 0.132085
O O1 0.350166 0.720074 0.500000
O O2 0.500000 0.672340 0.581337
O O3 0.351245 0.500000 0.592046
O O4 0.345191 0.758845 0.646973
O O5 0.347863 0.746043 0.928233
O O6 0.353407 0.500000 0.000000
O O7 0.500000 0.681028 0.000000
O O8 0.500000 0.222540 0.266377
O O9 0.328431 0.214248 0.210775
O O10 0.388741 0.000000 0.294086
O O11 0.126683 0.500000 0.109761
O O12 0.176897 0.226336 0.130835
O O13 0.000000 0.288842 0.102219
O O14 0.132370 0.316165 0.000000
O O15 0.290716 0.000000 0.117252
#
# Coordination Sequence:
#
# PCOD8200323 Si02
#       5
#     8   4   8   8   8
#     4   8  14  25  41  61  84 111 146 185 219 251
#     4  11  23  35  46  61  84 119 159 190 218 259
#     4   9  18  30  42  60  89 122 151 179 215 258
#     4   9  18  33  51  68  87 111 142 184 230 274
#     4  11  21  32  47  67  90 116 148 188 227 264
#
# _framework density 15.325341999999999
#
# number of rings (size 3 to 8) (size 9 to 14) (size 15 to 20)
#    0.000    2.556    1.111    3.000    0.000    4.444 
#    0.000    5.556    0.000    0.000    0.000    0.000 
#    0.000    0.889    0.000    9.778    0.000    7.556 
#
# Total GULP energy -446295.539847 kJ/mol
# GULP energy per Si atom -12397.098329 kJ/mol
# Density = 1.529046 g / cm^3
# Si number density = 15.325342 Si / 1000 Ang^3
#
#
#
# Elastic Constant Matrix: (Units=GPa)
#
#
# Indices 1 2 3 4 5 6 
#
# 1 69.4959 39.6859 49.9577 0.0000 0.0000 0.0000
# 2 39.6859 74.3790 66.6024 0.0000 0.0000 0.0000
# 3 49.9577 66.6024 139.6136 0.0000 0.0000 0.0000
# 4 0.0000 0.0000 0.0000 25.3662 0.0000 0.0000
# 5 0.0000 0.0000 0.0000 0.0000 6.0782 0.0000
# 6 0.0000 0.0000 0.0000 0.0000 0.0000 23.0148
#
#
#
# Elastic Compliance Matrix: (Units=1/GPa)
#
#
# Indices 1 2 3 4 5 6 
#
# 1 0.021872 -0.008138 -0.003944 0.000000 0.000000 0.000000
# 2 -0.008138 0.026499 -0.009729 0.000000 0.000000 0.000000
# 3 -0.003944 -0.009729 0.013215 0.000000 0.000000 0.000000
# 4 0.000000 0.000000 0.000000 0.039423 0.000000 0.000000
# 5 0.000000 0.000000 0.000000 0.000000 0.164523 0.000000
# 6 0.000000 0.000000 0.000000 0.000000 0.000000 0.043450
#
#
# Mechanical properties :
#
#
# Convention : Reuss Voigt Hill
#
# Bulk Modulus (GPa) = 55.67000 66.22003 60.94501
# Shear Modulus (GPa) = 13.94338 19.37466 16.65902
#
# Velocity S-wave (km/s) = 3.01960 3.55945 3.30058
# Velocity P-wave (km/s) = 6.96862 7.75862 7.37421
#
# Compressibility (1/GPa) = 0.01796300
#
# Stress axis : x y z
#
# Youngs Moduli (GPa) = 45.72053 37.73736 75.67077
#
# Poissons Ratio (x) = 0.30712 0.29844
# Poissons Ratio (y) = 0.37210 0.73621
# Poissons Ratio (z) = 0.18032 0.36715
#
# Static dielectric constant tensor:
#      x y z
#    x 2.780050 0.000000 0.000000 
#    y 0.000000 2.996930 0.000000 
#    z 0.000000 0.000000 3.151950 
# 
# 
# High freq. dielectric constant tensor:
#      x y z
#    x 1.554770 0.000000 0.000000 
#    y 0.000000 1.592980 0.000000 
#    z 0.000000 0.000000 1.582140 
# 
# From -- ./inp_files/5949.got.cif
#   From: 2010.03.12/outbox.cif.g09.slc.cpg/sg47_3_cif.got.tgz:5949.got - 2010.04.14 03:12:58.
