data_PCOD8200875
_publ_section_title
;
Structure prediction by ZEFSAII (Michael W. Deem and Ramdas Pophale) SiO2 
 PCOD8200875
Probable space group: P M M M
;
_chemical_formula_sum "Si O2"
_cell_formula_units_Z 52
_cell_length_a 9.962681
_cell_length_b 33.627299
_cell_length_c 9.584618
_cell_angle_alpha 90.000000
_cell_angle_beta 90.000000
_cell_angle_gamma 90.000000
_cell_volume 3211.020059
_symmetry_space_group_name_H-M "P M M M"
_symmetry_group_IT_number 47
_symmetry_cell_setting 'orthorhombic'
loop_
_space_group_symop_operation_xyz
x,y,z
-x,-y,z
x,-y,-z
-x,y,-z
-x,-y,-z
x,y,-z
-x,y,z
x,-y,z
loop_
_atom_site_type_symbol
_atom_site_label
_atom_site_fract_x
_atom_site_fract_y
_atom_site_fract_z
Si Si1 0.649786 0.798826 0.833299
Si Si2 0.343497 0.424799 0.162998
Si Si3 0.340437 0.956176 0.343810
Si Si4 0.659851 0.113743 0.154782
Si Si5 0.850243 0.355472 0.165507
Si Si6 0.341024 0.500000 0.658338
Si Si7 0.849535 0.732874 0.834087
O O1 0.500000 0.789952 0.777063
O O2 0.699235 0.842698 0.784699
O O3 0.748083 0.765334 0.769631
O O4 0.649053 0.798151 0.000000
O O5 0.500000 0.415592 0.187593
O O6 0.259319 0.387045 0.218311
O O7 0.292127 0.461552 0.255970
O O8 0.316128 0.434317 0.000000
O O9 0.285325 0.950318 0.500000
O O10 0.500000 0.952890 0.343804
O O11 0.277507 0.921319 0.249089
O O12 0.297865 0.000000 0.287624
O O13 0.500000 0.110950 0.149228
O O14 0.719500 0.108043 0.000000
O O15 0.810504 0.311365 0.219744
O O16 0.000000 0.366862 0.219259
O O17 0.850975 0.354925 0.000000
O O18 0.500000 0.500000 0.652549
O O19 0.282399 0.500000 0.500000
O O20 0.000000 0.743470 0.784933
O O21 0.840935 0.733964 0.000000
#
# Coordination Sequence:
#
# PCOD8200875 Si02
#       7
#     8   8   8   8   8   4   8
#     4   8  13  20  30  46  70  98 124 151 184 220
#     4   9  16  26  42  63  83 103 131 165 194 222
#     4   8  13  20  29  42  62  89 119 148 179 218
#     4   8  13  20  29  43  65  92 119 146 179 218
#     4   8  14  24  37  55  80 106 129 156 193 232
#     4   9  17  29  44  61  82 108 134 159 192 232
#     4   8  13  21  33  50  74 102 127 151 183 224
#
# _framework density 16.194232
#
# number of rings (size 3 to 8) (size 9 to 14) (size 15 to 20)
#    0.000    3.769    0.000    2.538    0.000    1.846 
#    0.000    5.000    0.000    2.769    0.000    1.077 
#    0.000    7.385    0.000    7.692    0.000    8.923 
#
# Total GULP energy -644255.777317 kJ/mol
# GULP energy per Si atom -12389.534179 kJ/mol
# Density = 1.615737 g / cm^3
# Si number density = 16.194232 Si / 1000 Ang^3
#
#
#
# Elastic Constant Matrix: (Units=GPa)
#
#
# Indices 1 2 3 4 5 6 
#
# 1 56.2645 69.4400 20.6314 0.0000 0.0000 0.0000
# 2 69.4400 177.8201 48.5014 0.0000 0.0000 0.0000
# 3 20.6314 48.5014 41.0137 0.0000 0.0000 0.0000
# 4 0.0000 0.0000 0.0000 3.5514 0.0000 0.0000
# 5 0.0000 0.0000 0.0000 0.0000 4.6439 0.0000
# 6 0.0000 0.0000 0.0000 0.0000 0.0000 6.1734
#
#
#
# Elastic Compliance Matrix: (Units=1/GPa)
#
#
# Indices 1 2 3 4 5 6 
#
# 1 0.034430 -0.012873 -0.002096 0.000000 0.000000 0.000000
# 2 -0.012873 0.013115 -0.009033 0.000000 0.000000 0.000000
# 3 -0.002096 -0.009033 0.036119 0.000000 0.000000 0.000000
# 4 0.000000 0.000000 0.000000 0.281576 0.000000 0.000000
# 5 0.000000 0.000000 0.000000 0.000000 0.215337 0.000000
# 6 0.000000 0.000000 0.000000 0.000000 0.000000 0.161986
#
#
# Mechanical properties :
#
#
# Convention : Reuss Voigt Hill
#
# Bulk Modulus (GPa) = 28.04386 61.36042 44.70214
# Shear Modulus (GPa) = 6.23089 11.97543 9.10316
#
# Velocity S-wave (km/s) = 1.96366 2.72230 2.37349
# Velocity P-wave (km/s) = 4.74300 6.91764 5.93084
#
# Compressibility (1/GPa) = 0.03565844
#
# Stress axis : x y z
#
# Youngs Moduli (GPa) = 29.04468 76.25038 27.68653
#
# Poissons Ratio (x) = 0.98161 0.05802
# Poissons Ratio (y) = 0.37391 0.25010
# Poissons Ratio (z) = 0.06087 0.68878
#
# Static dielectric constant tensor:
#      x y z
#    x 2.847490 0.000000 0.000000 
#    y 0.000000 3.522710 0.000000 
#    z 0.000000 0.000000 2.772610 
# 
# 
# High freq. dielectric constant tensor:
#      x y z
#    x 1.579000 0.000000 0.000000 
#    y 0.000000 1.639770 0.000000 
#    z 0.000000 0.000000 1.569980 
# 
# From -- ./inp_files/4772.got.cif
#   From: 2010.03.12/outbox.cif.g09.slc.cpg/sg47_3_cif.got.tgz:4772.got - 2010.04.14 03:12:58.
