data_PCOD8200337
_publ_section_title
;
Structure prediction by ZEFSAII (Michael W. Deem and Ramdas Pophale) SiO2 
 PCOD8200337
Probable space group: P M M M
;
_chemical_formula_sum "Si O2"
_cell_formula_units_Z 36
_cell_length_a 9.290777
_cell_length_b 19.523359
_cell_length_c 12.516466
_cell_angle_alpha 90.000000
_cell_angle_beta 90.000000
_cell_angle_gamma 90.000000
_cell_volume 2270.326406
_symmetry_space_group_name_H-M "P M M M"
_symmetry_group_IT_number 47
_symmetry_cell_setting 'orthorhombic'
loop_
_space_group_symop_operation_xyz
x,y,z
-x,-y,z
x,-y,-z
-x,y,-z
-x,-y,-z
x,y,-z
-x,y,z
x,-y,z
loop_
_atom_site_type_symbol
_atom_site_label
_atom_site_fract_x
_atom_site_fract_y
_atom_site_fract_z
Si Si1 0.666228 0.297221 0.621722
Si Si2 0.835844 0.920607 0.876513
Si Si3 0.162846 0.425206 0.627000
Si Si4 0.165896 0.918846 0.500000
Si Si5 0.669361 0.148624 0.694833
O O1 0.717005 0.283918 0.500000
O O2 0.500000 0.315533 0.625083
O O3 0.745765 0.362393 0.674982
O O4 0.702169 0.229403 0.688438
O O5 0.723885 0.875659 0.809873
O O6 0.000000 0.902912 0.844055
O O7 0.805265 0.000000 0.853339
O O8 0.809517 0.903409 0.000000
O O9 0.173522 0.423137 0.500000
O O10 0.219585 0.500000 0.666733
O O11 0.000000 0.415186 0.665486
O O12 0.244828 0.891611 0.604522
O O13 0.000000 0.894287 0.500000
O O14 0.175433 0.000000 0.500000
O O15 0.500000 0.133805 0.680858
#
# Coordination Sequence:
#
# PCOD8200337 Si02
#       5
#     8   8   8   4   8
#     4   9  17  29  41  58  89 123 152 182 221 268
#     4   9  19  36  54  70  90 117 152 195 239 283
#     4   8  14  24  38  58  83 112 150 190 220 253
#     4  11  23  35  47  65  90 123 160 191 227 280
#     4  11  21  33  48  69  96 122 153 194 234 275
#
# _framework density 15.85675
#
# number of rings (size 3 to 8) (size 9 to 14) (size 15 to 20)
#    0.000    2.556    1.111    3.000    0.000    6.667 
#    0.000    3.333    0.000    0.000    0.000    0.000 
#    0.000    0.889    0.000    9.778    0.000    7.556 
#
# Total GULP energy -446296.895287 kJ/mol
# GULP energy per Si atom -12397.135980 kJ/mol
# Density = 1.582066 g / cm^3
# Si number density = 15.856750 Si / 1000 Ang^3
#
#
#
# Elastic Constant Matrix: (Units=GPa)
#
#
# Indices 1 2 3 4 5 6 
#
# 1 93.1450 73.0197 40.2411 0.0000 0.0000 0.0000
# 2 73.0197 125.9999 45.1183 0.0000 0.0000 0.0000
# 3 40.2411 45.1183 57.2409 0.0000 0.0000 0.0000
# 4 0.0000 0.0000 0.0000 9.5677 0.0000 0.0000
# 5 0.0000 0.0000 0.0000 0.0000 23.1718 0.0000
# 6 0.0000 0.0000 0.0000 0.0000 0.0000 33.6017
#
#
#
# Elastic Compliance Matrix: (Units=1/GPa)
#
#
# Indices 1 2 3 4 5 6 
#
# 1 0.021742 -0.009929 -0.007459 0.000000 0.000000 0.000000
# 2 -0.009929 0.015592 -0.005309 0.000000 0.000000 0.000000
# 3 -0.007459 -0.005309 0.026899 0.000000 0.000000 0.000000
# 4 0.000000 0.000000 0.000000 0.104518 0.000000 0.000000
# 5 0.000000 0.000000 0.000000 0.000000 0.043156 0.000000
# 6 0.000000 0.000000 0.000000 0.000000 0.000000 0.029760
#
#
# Mechanical properties :
#
#
# Convention : Reuss Voigt Hill
#
# Bulk Modulus (GPa) = 53.08421 65.90490 59.49455
# Shear Modulus (GPa) = 17.04500 21.13535 19.09018
#
# Velocity S-wave (km/s) = 3.28218 3.65484 3.47351
# Velocity P-wave (km/s) = 6.92197 7.71125 7.32724
#
# Compressibility (1/GPa) = 0.01883800
#
# Stress axis : x y z
#
# Youngs Moduli (GPa) = 45.99357 64.13566 37.17673
#
# Poissons Ratio (x) = 0.63682 0.27729
# Poissons Ratio (y) = 0.45668 0.19739
# Poissons Ratio (z) = 0.34305 0.34053
#
# Static dielectric constant tensor:
#      x y z
#    x 3.112620 0.000000 0.000000 
#    y 0.000000 3.299740 0.000000 
#    z 0.000000 0.000000 2.678790 
# 
# 
# High freq. dielectric constant tensor:
#      x y z
#    x 1.615790 0.000000 0.000000 
#    y 0.000000 1.616660 0.000000 
#    z 0.000000 0.000000 1.560680 
# 
# From -- ./inp_files/3705.got.cif
#   From: 2010.03.12/outbox.cif.g09.slc.cpg/sg47_2_cif.got.tgz:3705.got - 2010.04.14 03:12:58.
