data_PCOD8200250
_publ_section_title
;
Structure prediction by ZEFSAII (Michael W. Deem and Ramdas Pophale) SiO2 
 PCOD8200250
Probable space group: P M M M
;
_chemical_formula_sum "Si O2"
_cell_formula_units_Z 64
_cell_length_a 20.722615
_cell_length_b 19.553132
_cell_length_c 9.040560
_cell_angle_alpha 90.000000
_cell_angle_beta 90.000000
_cell_angle_gamma 90.000000
_cell_volume 3663.162827
_symmetry_space_group_name_H-M "P M M M"
_symmetry_group_IT_number 47
_symmetry_cell_setting 'orthorhombic'
loop_
_space_group_symop_operation_xyz
x,y,z
-x,-y,z
x,-y,-z
-x,y,-z
-x,-y,-z
x,y,-z
-x,y,z
x,-y,z
loop_
_atom_site_type_symbol
_atom_site_label
_atom_site_fract_x
_atom_site_fract_y
_atom_site_fract_z
Si Si1 0.804702 0.792566 0.675405
Si Si2 0.870338 0.425200 0.674975
Si Si3 0.929403 0.712232 0.324223
Si Si4 0.573160 0.206283 0.330776
Si Si5 0.737834 0.575568 0.168682
Si Si6 0.765904 0.077376 0.169324
Si Si7 0.314652 0.282337 0.827848
Si Si8 0.614985 0.922753 0.830675
O O1 0.797454 0.786954 0.500000
O O2 0.872653 0.761658 0.732994
O O3 0.804860 0.871600 0.724729
O O4 0.746148 0.752229 0.749458
O O5 0.867693 0.424028 0.500000
O O6 0.894325 0.500000 0.731539
O O7 0.917184 0.365394 0.733090
O O8 0.798507 0.409833 0.728540
O O9 0.929435 0.713205 0.500000
O O10 0.000000 0.735637 0.264334
O O11 0.596384 0.207390 0.500000
O O12 0.500000 0.232782 0.315423
O O13 0.618193 0.255983 0.236465
O O14 0.576060 0.128546 0.273059
O O15 0.707835 0.500000 0.202521
O O16 0.685951 0.635535 0.197995
O O17 0.762130 0.579021 0.000000
O O18 0.690442 0.092785 0.186650
O O19 0.781720 0.000000 0.218968
O O20 0.787067 0.088752 0.000000
O O21 0.311415 0.262791 0.000000
O O22 0.599119 0.000000 0.780409
O O23 0.593649 0.911908 0.000000
#
# Coordination Sequence:
#
# PCOD8200250 Si02
#       8
#     8   8   8   8   8   8   8   8
#     4  11  20  31  52  79 104 133 172 216 258 301
#     4   9  16  27  46  72 101 135 175 212 247 295
#     4   9  18  31  46  70 106 142 174 212 257 302
#     4  11  24  38  52  75 107 139 172 212 255 300
#     4   9  18  32  51  76 104 132 165 210 260 304
#     4   9  18  33  53  77 104 132 165 209 259 307
#     4  11  21  34  55  78 102 135 173 212 255 306
#     4   9  18  33  53  77 105 139 175 207 245 299
#
# _framework density 17.471242
#
# number of rings (size 3 to 8) (size 9 to 14) (size 15 to 20)
#    0.000    2.250    2.500    1.875    0.000    2.500 
#    0.000    3.750    0.000    4.125    0.000    7.000 
#    0.000    0.000    0.000    0.000    0.000    0.000 
#
# Total GULP energy -793368.121605 kJ/mol
# GULP energy per Si atom -12396.376900 kJ/mol
# Density = 1.743148 g / cm^3
# Si number density = 17.471242 Si / 1000 Ang^3
#
#
#
# Elastic Constant Matrix: (Units=GPa)
#
#
# Indices 1 2 3 4 5 6 
#
# 1 94.8303 56.8177 35.3872 0.0000 0.0000 0.0000
# 2 56.8177 112.3496 39.3274 0.0000 0.0000 0.0000
# 3 35.3872 39.3274 59.7929 0.0000 0.0000 0.0000
# 4 0.0000 0.0000 0.0000 23.4038 0.0000 0.0000
# 5 0.0000 0.0000 0.0000 0.0000 4.1706 0.0000
# 6 0.0000 0.0000 0.0000 0.0000 0.0000 24.1966
#
#
#
# Elastic Compliance Matrix: (Units=1/GPa)
#
#
# Indices 1 2 3 4 5 6 
#
# 1 0.016426 -0.006371 -0.005531 0.000000 0.000000 0.000000
# 2 -0.006371 0.014034 -0.005460 0.000000 0.000000 0.000000
# 3 -0.005531 -0.005460 0.023589 0.000000 0.000000 0.000000
# 4 0.000000 0.000000 0.000000 0.042728 0.000000 0.000000
# 5 0.000000 0.000000 0.000000 0.000000 0.239776 0.000000
# 6 0.000000 0.000000 0.000000 0.000000 0.000000 0.041328
#
#
# Mechanical properties :
#
#
# Convention : Reuss Voigt Hill
#
# Bulk Modulus (GPa) = 51.74633 58.89303 55.31968
# Shear Modulus (GPa) = 11.93180 19.38355 15.65768
#
# Velocity S-wave (km/s) = 2.61615 3.33446 2.99690
# Velocity P-wave (km/s) = 6.22960 6.97184 6.61115
#
# Compressibility (1/GPa) = 0.01932504
#
# Stress axis : x y z
#
# Youngs Moduli (GPa) = 60.87756 71.25559 42.39249
#
# Poissons Ratio (x) = 0.45397 0.23448
# Poissons Ratio (y) = 0.38785 0.23146
# Poissons Ratio (z) = 0.33673 0.38905
#
# Static dielectric constant tensor:
#      x y z
#    x 3.139590 0.000000 0.000000 
#    y 0.000000 3.578340 0.000000 
#    z 0.000000 0.000000 3.168630 
# 
# 
# High freq. dielectric constant tensor:
#      x y z
#    x 1.646900 0.000000 0.000000 
#    y 0.000000 1.684850 0.000000 
#    z 0.000000 0.000000 1.666210 
# 
# From -- ./inp_files/9951.got.cif
#   From: 2010.03.12/outbox.cif.g09.slc.cpg/sg47_5_cif.got.tgz:9951.got - 2010.04.14 03:12:58.
