data_PCOD8200106
_publ_section_title
;
Structure prediction by ZEFSAII (Michael W. Deem and Ramdas Pophale) SiO2 
 PCOD8200106
Probable space group: P M M M
;
_chemical_formula_sum "Si O2"
_cell_formula_units_Z 52
_cell_length_a 28.282082
_cell_length_b 11.718072
_cell_length_c 8.848250
_cell_angle_alpha 90.000000
_cell_angle_beta 90.000000
_cell_angle_gamma 90.000000
_cell_volume 2932.411568
_symmetry_space_group_name_H-M "P M M M"
_symmetry_group_IT_number 47
_symmetry_cell_setting 'orthorhombic'
loop_
_space_group_symop_operation_xyz
x,y,z
-x,-y,z
x,-y,-z
-x,y,-z
-x,-y,-z
x,y,-z
-x,y,z
x,-y,z
loop_
_atom_site_type_symbol
_atom_site_label
_atom_site_fract_x
_atom_site_fract_y
_atom_site_fract_z
Si Si1 0.788343 0.000000 0.670916
Si Si2 0.448264 0.871862 0.320805
Si Si3 0.188457 0.750366 0.672526
Si Si4 0.351651 0.221630 0.320842
Si Si5 0.000000 0.375466 0.821235
Si Si6 0.307178 0.000000 0.176677
Si Si7 0.101946 0.363871 0.827936
Si Si8 0.276367 0.369198 0.822789
O O1 0.819474 0.886061 0.694522
O O2 0.766739 0.000000 0.500000
O O3 0.748661 0.000000 0.798803
O O4 0.448901 0.878097 0.500000
O O5 0.500000 0.830103 0.261767
O O6 0.406995 0.784267 0.269556
O O7 0.437792 0.000000 0.258522
O O8 0.199446 0.718941 0.500000
O O9 0.140481 0.689433 0.719355
O O10 0.233014 0.707858 0.768481
O O11 0.346412 0.224199 0.500000
O O12 0.326933 0.110431 0.257465
O O13 0.326000 0.332471 0.252990
O O14 0.049843 0.314878 0.777154
O O15 0.000000 0.500000 0.744143
O O16 0.000000 0.391723 0.000000
O O17 0.319423 0.000000 0.000000
O O18 0.102570 0.500000 0.812742
O O19 0.113510 0.328235 0.000000
O O20 0.266110 0.500000 0.779793
O O21 0.281851 0.351797 0.000000
#
# Coordination Sequence:
#
# PCOD8200106 Si02
#       8
#     4   8   8   8   4   4   8   8
#     4  10  22  38  52  70 100 138 175 213 253 299
#     4   8  14  26  47  76 106 133 163 203 253 303
#     4  11  22  35  53  75 103 135 171 212 256 306
#     4  11  20  33  55  79 105 135 171 214 257 301
#     4   7  12  26  49  74  99 132 170 207 252 305
#     4  12  22  32  51  77 105 138 174 208 254 309
#     4   9  17  31  52  77 105 135 169 210 257 307
#     4  11  24  39  53  73 103 137 173 212 257 311
#
# _framework density 17.732844
#
# number of rings (size 3 to 8) (size 9 to 14) (size 15 to 20)
#    0.000    2.077    2.308    3.923    0.000    4.000 
#    0.000    0.385    0.000    4.615    0.000    6.462 
#    0.000    0.000    0.000    0.000    0.000    0.000 
#
# Total GULP energy -644409.445991 kJ/mol
# GULP energy per Si atom -12392.489346 kJ/mol
# Density = 1.769248 g / cm^3
# Si number density = 17.732844 Si / 1000 Ang^3
#
#
#
# Elastic Constant Matrix: (Units=GPa)
#
#
# Indices 1 2 3 4 5 6 
#
# 1 133.2685 38.1271 31.0700 0.0000 0.0000 0.0000
# 2 38.1271 71.4893 33.4259 0.0000 0.0000 0.0000
# 3 31.0700 33.4259 64.1888 0.0000 0.0000 0.0000
# 4 0.0000 0.0000 0.0000 18.9859 0.0000 0.0000
# 5 0.0000 0.0000 0.0000 0.0000 10.1255 0.0000
# 6 0.0000 0.0000 0.0000 0.0000 0.0000 30.8000
#
#
#
# Elastic Compliance Matrix: (Units=1/GPa)
#
#
# Indices 1 2 3 4 5 6 
#
# 1 0.009147 -0.003712 -0.002495 0.000000 0.000000 0.000000
# 2 -0.003712 0.019997 -0.008616 0.000000 0.000000 0.000000
# 3 -0.002495 -0.008616 0.021273 0.000000 0.000000 0.000000
# 4 0.000000 0.000000 0.000000 0.052671 0.000000 0.000000
# 5 0.000000 0.000000 0.000000 0.000000 0.098761 0.000000
# 6 0.000000 0.000000 0.000000 0.000000 0.000000 0.032468
#
#
# Mechanical properties :
#
#
# Convention : Reuss Voigt Hill
#
# Bulk Modulus (GPa) = 48.14340 52.68807 50.41573
# Shear Modulus (GPa) = 18.45797 23.07051 20.76424
#
# Velocity S-wave (km/s) = 3.22979 3.61086 3.42562
# Velocity P-wave (km/s) = 6.41225 6.86739 6.64372
#
# Compressibility (1/GPa) = 0.02077128
#
# Stress axis : x y z
#
# Youngs Moduli (GPa) = 109.32272 50.00871 47.00704
#
# Poissons Ratio (x) = 0.18564 0.11726
# Poissons Ratio (y) = 0.40581 0.40503
# Poissons Ratio (z) = 0.27272 0.43089
#
# Static dielectric constant tensor:
#      x y z
#    x 3.726380 0.000000 0.000000 
#    y 0.000000 3.352170 0.000000 
#    z 0.000000 0.000000 3.161210 
# 
# 
# High freq. dielectric constant tensor:
#      x y z
#    x 1.694320 0.000000 0.000000 
#    y 0.000000 1.657390 0.000000 
#    z 0.000000 0.000000 1.672700 
# 
# From -- ./inp_files/13293.got.cif
#   From: 2010.03.12/outbox.cif.g09.slc.cpg/sg47_7_cif.got.tgz:13293.got - 2010.04.14 03:12:58.
