data_PCOD8200884
_publ_section_title
;
Structure prediction by ZEFSAII (Michael W. Deem and Ramdas Pophale) SiO2 
 PCOD8200884
Probable space group: P M M M
;
_chemical_formula_sum "Si O2"
_cell_formula_units_Z 52
_cell_length_a 9.273938
_cell_length_b 9.738151
_cell_length_c 33.992706
_cell_angle_alpha 90.000000
_cell_angle_beta 90.000000
_cell_angle_gamma 90.000000
_cell_volume 3069.915564
_symmetry_space_group_name_H-M "P M M M"
_symmetry_group_IT_number 47
_symmetry_cell_setting 'orthorhombic'
loop_
_space_group_symop_operation_xyz
x,y,z
-x,-y,z
x,-y,-z
-x,y,-z
-x,-y,-z
x,y,-z
-x,y,z
x,-y,z
loop_
_atom_site_type_symbol
_atom_site_label
_atom_site_fract_x
_atom_site_fract_y
_atom_site_fract_z
Si Si1 0.838576 0.336842 0.042977
Si Si2 0.328173 0.346901 0.799035
Si Si3 0.336042 0.836261 0.424050
Si Si4 0.331823 0.159590 0.728169
Si Si5 0.340455 0.663439 0.884906
Si Si6 0.836016 0.836422 0.500000
Si Si7 0.163323 0.836688 0.348671
O O1 0.839010 0.500000 0.046665
O O2 0.749413 0.271656 0.079041
O O3 0.000000 0.279589 0.046417
O O4 0.774080 0.294998 0.000000
O O5 0.500000 0.348970 0.800901
O O6 0.270863 0.500000 0.789026
O O7 0.273253 0.242081 0.765917
O O8 0.271799 0.298453 0.842195
O O9 0.500000 0.779746 0.424761
O O10 0.249128 0.781333 0.461890
O O11 0.253560 0.779161 0.385653
O O12 0.338595 0.000000 0.423811
O O13 0.500000 0.188281 0.719908
O O14 0.242077 0.213395 0.690864
O O15 0.303530 0.000000 0.736388
O O16 0.500000 0.726152 0.888550
O O17 0.346982 0.500000 0.888136
O O18 0.000000 0.779549 0.500000
O O19 0.839231 0.000000 0.500000
O O20 0.000000 0.779054 0.349950
O O21 0.161480 0.000000 0.350291
#
# Coordination Sequence:
#
# PCOD8200884 Si02
#       7
#     8   8   8   8   8   4   8
#     4   8  13  20  29  43  66  94 119 144 178 218
#     4   8  14  25  40  57  78 103 128 156 193 233
#     4   9  15  22  32  46  65  91 125 161 193 229
#     4   9  16  26  41  59  76  97 129 164 193 226
#     4   8  13  21  33  48  66  91 122 150 177 216
#     4   9  15  21  29  43  65  93 124 157 194 235
#     4   9  16  25  36  50  70  96 124 156 196 236
#
# _framework density 16.938576000000001
#
# number of rings (size 3 to 8) (size 9 to 14) (size 15 to 20)
#    0.000    3.462    0.000    2.538    0.000    4.923 
#    0.000    2.308    0.000    1.385    0.000    0.000 
#    0.000    0.615    0.000    8.385    0.000   24.000 
#
# Total GULP energy -644374.887367 kJ/mol
# GULP energy per Si atom -12391.824757 kJ/mol
# Density = 1.690002 g / cm^3
# Si number density = 16.938576 Si / 1000 Ang^3
#
#
#
# Elastic Constant Matrix: (Units=GPa)
#
#
# Indices 1 2 3 4 5 6 
#
# 1 103.6825 14.7765 82.6494 0.0000 0.0000 0.0000
# 2 14.7765 17.1004 30.6158 0.0000 0.0000 0.0000
# 3 82.6494 30.6158 198.7737 0.0000 0.0000 0.0000
# 4 0.0000 0.0000 0.0000 11.9104 0.0000 0.0000
# 5 0.0000 0.0000 0.0000 0.0000 20.3060 0.0000
# 6 0.0000 0.0000 0.0000 0.0000 0.0000 5.0028
#
#
#
# Elastic Compliance Matrix: (Units=1/GPa)
#
#
# Indices 1 2 3 4 5 6 
#
# 1 0.014497 -0.002396 -0.005659 0.000000 0.000000 0.000000
# 2 -0.002396 0.081140 -0.011501 0.000000 0.000000 0.000000
# 3 -0.005659 -0.011501 0.009155 0.000000 0.000000 0.000000
# 4 0.000000 0.000000 0.000000 0.083960 0.000000 0.000000
# 5 0.000000 0.000000 0.000000 0.000000 0.049247 0.000000
# 6 0.000000 0.000000 0.000000 0.000000 0.000000 0.199890
#
#
# Mechanical properties :
#
#
# Convention : Reuss Voigt Hill
#
# Bulk Modulus (GPa) = 15.22518 63.95999 39.59259
# Shear Modulus (GPa) = 10.02217 20.21149 15.11683
#
# Velocity S-wave (km/s) = 2.43508 3.45805 2.99063
# Velocity P-wave (km/s) = 4.11268 7.33390 5.94560
#
# Compressibility (1/GPa) = 0.06568065
#
# Stress axis : x y z
#
# Youngs Moduli (GPa) = 68.97903 12.32438 109.22667
#
# Poissons Ratio (x) = 0.02952 0.61810
# Poissons Ratio (y) = 0.16525 1.25626
# Poissons Ratio (z) = 0.39034 0.14175
#
# Static dielectric constant tensor:
#      x y z
#    x 3.238770 0.000000 0.000000 
#    y 0.000000 2.469180 0.000000 
#    z 0.000000 0.000000 3.596670 
# 
# 
# High freq. dielectric constant tensor:
#      x y z
#    x 1.642700 0.000000 0.000000 
#    y 0.000000 1.562380 0.000000 
#    z 0.000000 0.000000 1.676270 
# 
# From -- ./inp_files/34273.got.cif
#   From: 2010.03.12/outbox.cif.g09.slc.cpg/sg47_18_cif.got.tgz:34273.got - 2010.04.14 03:12:58.
