data_PCOD8200748
_publ_section_title
;
Structure prediction by ZEFSAII (Michael W. Deem and Ramdas Pophale) SiO2 
 PCOD8200748
Probable space group: P M M M
;
_chemical_formula_sum "Si O2"
_cell_formula_units_Z 52
_cell_length_a 12.311243
_cell_length_b 9.409041
_cell_length_c 28.452705
_cell_angle_alpha 90.000000
_cell_angle_beta 90.000000
_cell_angle_gamma 90.000000
_cell_volume 3295.875709
_symmetry_space_group_name_H-M "P M M M"
_symmetry_group_IT_number 47
_symmetry_cell_setting 'orthorhombic'
loop_
_space_group_symop_operation_xyz
x,y,z
-x,-y,z
x,-y,-z
-x,y,-z
-x,-y,-z
x,y,-z
-x,y,z
x,-y,z
loop_
_atom_site_type_symbol
_atom_site_label
_atom_site_fract_x
_atom_site_fract_y
_atom_site_fract_z
Si Si1 0.000000 0.339078 0.924644
Si Si2 0.376712 0.834878 0.737926
Si Si3 0.000000 0.340034 0.813136
Si Si4 0.794323 0.835533 0.184761
Si Si5 0.620805 0.832411 0.000000
Si Si6 0.629943 0.339978 0.650182
Si Si7 0.378196 0.668970 0.549775
Si Si8 0.209045 0.166239 0.923478
O O1 0.000000 0.340360 0.868908
O O2 0.106399 0.255676 0.942385
O O3 0.000000 0.500000 0.944704
O O4 0.500000 0.785492 0.747418
O O5 0.310408 0.795685 0.784576
O O6 0.325974 0.756067 0.692667
O O7 0.370307 0.000000 0.726370
O O8 0.106497 0.257695 0.795475
O O9 0.000000 0.500000 0.792849
O O10 0.765598 0.799708 0.130856
O O11 0.827245 0.000000 0.190037
O O12 0.686180 0.785110 0.953364
O O13 0.500000 0.762590 0.000000
O O14 0.607881 0.000000 0.000000
O O15 0.500000 0.334496 0.647856
O O16 0.670576 0.500000 0.659562
O O17 0.676047 0.281035 0.599402
O O18 0.319316 0.715453 0.500000
O O19 0.500000 0.729851 0.547515
O O20 0.382743 0.500000 0.552523
O O21 0.182675 0.000000 0.931070
#
# Coordination Sequence:
#
# PCOD8200748 Si02
#       8
#     4   8   4   8   4   8   8   8
#     4   9  17  30  48  69  90 108 130 163 203 245
#     4   9  17  27  38  55  80 109 139 168 198 234
#     4   9  17  29  46  66  85 104 129 167 210 245
#     4   9  17  29  45  63  83 109 138 166 200 245
#     4   9  18  31  47  68  90 111 138 173 208 237
#     4   8  13  21  33  49  70  98 132 168 203 236
#     4   7   9  14  26  44  64  88 123 165 202 234
#     4   9  17  30  48  67  86 108 135 168 205 245
#
# _framework density 15.777295000000001
#
# number of rings (size 3 to 8) (size 9 to 14) (size 15 to 20)
#    0.000    3.462    0.000    1.846    0.000    3.385 
#    0.000    5.000    0.000    1.385    0.000    7.538 
#    0.000    0.000    0.000    0.692    0.000   14.308 
#
# Total GULP energy -644180.560417 kJ/mol
# GULP energy per Si atom -12388.087700 kJ/mol
# Density = 1.574139 g / cm^3
# Si number density = 15.777295 Si / 1000 Ang^3
#
#
#
# Elastic Constant Matrix: (Units=GPa)
#
#
# Indices 1 2 3 4 5 6 
#
# 1 86.3429 38.3101 53.5193 0.0000 0.0000 0.0000
# 2 38.3101 52.1851 39.3867 0.0000 0.0000 0.0000
# 3 53.5193 39.3867 117.7087 0.0000 0.0000 0.0000
# 4 0.0000 0.0000 0.0000 16.6564 0.0000 0.0000
# 5 0.0000 0.0000 0.0000 0.0000 1.4327 0.0000
# 6 0.0000 0.0000 0.0000 0.0000 0.0000 10.7916
#
#
#
# Elastic Compliance Matrix: (Units=1/GPa)
#
#
# Indices 1 2 3 4 5 6 
#
# 1 0.019479 -0.010188 -0.005447 0.000000 0.000000 0.000000
# 2 -0.010188 0.030966 -0.005729 0.000000 0.000000 0.000000
# 3 -0.005447 -0.005729 0.012889 0.000000 0.000000 0.000000
# 4 0.000000 0.000000 0.000000 0.060037 0.000000 0.000000
# 5 0.000000 0.000000 0.000000 0.000000 0.697984 0.000000
# 6 0.000000 0.000000 0.000000 0.000000 0.000000 0.092665
#
#
# Mechanical properties :
#
#
# Convention : Reuss Voigt Hill
#
# Bulk Modulus (GPa) = 48.53330 57.62989 53.08159
# Shear Modulus (GPa) = 5.18877 14.11083 9.64980
#
# Velocity S-wave (km/s) = 1.81546 2.99386 2.47579
# Velocity P-wave (km/s) = 5.93488 6.96831 6.47225
#
# Compressibility (1/GPa) = 0.02060441
#
# Stress axis : x y z
#
# Youngs Moduli (GPa) = 51.33774 32.29328 77.58292
#
# Poissons Ratio (x) = 0.32902 0.42263
# Poissons Ratio (y) = 0.52305 0.44449
# Poissons Ratio (z) = 0.27966 0.18502
#
# Static dielectric constant tensor:
#      x y z
#    x 2.781820 0.000000 0.000000 
#    y 0.000000 2.900330 0.000000 
#    z 0.000000 0.000000 3.314100 
# 
# 
# High freq. dielectric constant tensor:
#      x y z
#    x 1.558570 0.000000 0.000000 
#    y 0.000000 1.583030 0.000000 
#    z 0.000000 0.000000 1.612740 
# 
# From -- ./inp_files/15703.got.cif
#   From: 2010.03.12/outbox.cif.g09.slc.cpg/sg47_8_cif.got.tgz:15703.got - 2010.04.14 03:12:58.
