data_PCOD8200023
_publ_section_title
;
Structure prediction by ZEFSAII (Michael W. Deem and Ramdas Pophale) SiO2 
 PCOD8200023
Probable space group: P M M M
;
_chemical_formula_sum "Si O2"
_cell_formula_units_Z 48
_cell_length_a 17.633275
_cell_length_b 8.820540
_cell_length_c 15.434143
_cell_angle_alpha 90.000000
_cell_angle_beta 90.000000
_cell_angle_gamma 90.000000
_cell_volume 2400.549547
_symmetry_space_group_name_H-M "P M M M"
_symmetry_group_IT_number 47
_symmetry_cell_setting 'orthorhombic'
loop_
_space_group_symop_operation_xyz
x,y,z
-x,-y,z
x,-y,-z
-x,y,-z
-x,-y,-z
x,y,-z
-x,y,z
x,-y,z
loop_
_atom_site_type_symbol
_atom_site_label
_atom_site_fract_x
_atom_site_fract_y
_atom_site_fract_z
Si Si1 0.703273 0.675464 0.597322
Si Si2 0.157762 0.820959 0.676074
Si Si3 0.340494 0.174313 0.903332
Si Si4 0.910664 0.829465 0.000000
Si Si5 0.413884 0.675708 0.256301
Si Si6 0.000000 0.179973 0.596760
Si Si7 0.814670 0.321294 0.859514
O O1 0.671341 0.698294 0.500000
O O2 0.723276 0.500000 0.614468
O O3 0.779381 0.775185 0.605442
O O4 0.640064 0.732419 0.665734
O O5 0.075077 0.763159 0.646124
O O6 0.180760 0.735605 0.762396
O O7 0.158041 0.000000 0.691090
O O8 0.399421 0.232750 0.831918
O O9 0.263971 0.270613 0.901077
O O10 0.320953 0.000000 0.883470
O O11 0.375851 0.192239 0.000000
O O12 0.883981 0.745627 0.913706
O O13 0.000000 0.829741 0.000000
O O14 0.878004 0.000000 0.000000
O O15 0.500000 0.704549 0.285961
O O16 0.398667 0.500000 0.236384
O O17 0.000000 0.248492 0.500000
O O18 0.000000 0.000000 0.591517
O O19 0.819999 0.500000 0.861723
#
# Coordination Sequence:
#
# PCOD8200023 Si02
#       7
#     8   8   8   4   8   4   8
#     4  10  21  38  61  90 124 162 207 258 311 371
#     4  11  22  38  62  89 120 161 208 254 306 367
#     4  11  23  40  64  91 121 160 205 253 307 367
#     4  11  25  43  63  89 124 163 208 255 305 365
#     4  10  22  40  62  90 126 167 208 253 309 373
#     4   9  20  38  59  86 119 156 199 247 300 359
#     4  12  24  39  61  89 122 160 204 253 306 364
#
# _framework density 19.995421
#
# number of rings (size 3 to 8) (size 9 to 14) (size 15 to 20)
#    0.000    1.333    2.500    3.250    1.167    3.667 
#    0.000    4.583    0.000    3.000    0.000    2.333 
#    0.000    0.000    0.000    0.000    0.000    0.000 
#
# Total GULP energy -595381.939865 kJ/mol
# GULP energy per Si atom -12403.790414 kJ/mol
# Density = 1.994991 g / cm^3
# Si number density = 19.995421 Si / 1000 Ang^3
#
#
#
# Elastic Constant Matrix: (Units=GPa)
#
#
# Indices 1 2 3 4 5 6 
#
# 1 114.9279 37.0645 45.6350 0.0000 0.0000 0.0000
# 2 37.0645 105.0785 41.1099 0.0000 0.0000 0.0000
# 3 45.6350 41.1099 127.5416 0.0000 0.0000 0.0000
# 4 0.0000 0.0000 0.0000 23.4751 0.0000 0.0000
# 5 0.0000 0.0000 0.0000 0.0000 29.0146 0.0000
# 6 0.0000 0.0000 0.0000 0.0000 0.0000 27.6357
#
#
#
# Elastic Compliance Matrix: (Units=1/GPa)
#
#
# Indices 1 2 3 4 5 6 
#
# 1 0.010735 -0.002613 -0.002999 0.000000 0.000000 0.000000
# 2 -0.002613 0.011526 -0.002780 0.000000 0.000000 0.000000
# 3 -0.002999 -0.002780 0.009810 0.000000 0.000000 0.000000
# 4 0.000000 0.000000 0.000000 0.042598 0.000000 0.000000
# 5 0.000000 0.000000 0.000000 0.000000 0.034465 0.000000
# 6 0.000000 0.000000 0.000000 0.000000 0.000000 0.036185
#
#
# Mechanical properties :
#
#
# Convention : Reuss Voigt Hill
#
# Bulk Modulus (GPa) = 65.41777 66.12962 65.77370
# Shear Modulus (GPa) = 29.90458 30.94098 30.42278
#
# Velocity S-wave (km/s) = 3.87146 3.93797 3.90486
# Velocity P-wave (km/s) = 7.26441 7.33628 7.30043
#
# Compressibility (1/GPa) = 0.01528637
#
# Stress axis : x y z
#
# Youngs Moduli (GPa) = 93.15717 86.75921 101.94118
#
# Poissons Ratio (x) = 0.22673 0.30567
# Poissons Ratio (y) = 0.24345 0.28341
# Poissons Ratio (z) = 0.27934 0.24120
#
# Static dielectric constant tensor:
#      x y z
#    x 3.626860 0.000000 0.000000 
#    y 0.000000 3.649680 0.000000 
#    z 0.000000 0.000000 3.707490 
# 
# 
# High freq. dielectric constant tensor:
#      x y z
#    x 1.777660 0.000000 0.000000 
#    y 0.000000 1.775690 0.000000 
#    z 0.000000 0.000000 1.794080 
# 
# From -- ./inp_files/9199.got.cif
#   From: 2010.03.12/outbox.cif.g09.slc.cpg/sg47_5_cif.got.tgz:9199.got - 2010.04.14 03:12:58.
