data_PCOD8200043
_publ_section_title
;
Structure prediction by ZEFSAII (Michael W. Deem and Ramdas Pophale) SiO2 
 PCOD8200043
Probable space group: P M M M
;
_chemical_formula_sum "Si O2"
_cell_formula_units_Z 40
_cell_length_a 8.283346
_cell_length_b 7.470836
_cell_length_c 30.988703
_cell_angle_alpha 90.000000
_cell_angle_beta 90.000000
_cell_angle_gamma 90.000000
_cell_volume 1917.690006
_symmetry_space_group_name_H-M "P M M M"
_symmetry_group_IT_number 47
_symmetry_cell_setting 'orthorhombic'
loop_
_space_group_symop_operation_xyz
x,y,z
-x,-y,z
x,-y,-z
-x,y,-z
-x,-y,-z
x,y,-z
-x,y,z
x,-y,z
loop_
_atom_site_type_symbol
_atom_site_label
_atom_site_fract_x
_atom_site_fract_y
_atom_site_fract_z
Si Si1 0.688120 0.801521 0.322761
Si Si2 0.689097 0.797782 0.500000
Si Si3 0.315090 0.791125 0.102063
Si Si4 0.318926 0.500000 0.826952
Si Si5 0.816742 0.500000 0.264455
Si Si6 0.000000 0.211080 0.951980
Si Si7 0.187046 0.792586 0.588173
O O1 0.500000 0.823102 0.321370
O O2 0.738449 0.679299 0.282986
O O3 0.736359 0.709310 0.368450
O O4 0.768494 0.000000 0.318045
O O5 0.500000 0.795289 0.500000
O O6 0.749624 0.700372 0.456135
O O7 0.759701 0.000000 0.500000
O O8 0.500000 0.755677 0.083706
O O9 0.289526 0.678675 0.145337
O O10 0.169281 0.727682 0.070379
O O11 0.295486 0.000000 0.113308
O O12 0.500000 0.500000 0.808372
O O13 0.197345 0.500000 0.787131
O O14 0.000000 0.500000 0.278606
O O15 0.000000 0.000000 0.954387
O O16 0.000000 0.294271 0.000000
O O17 0.000000 0.758236 0.591019
O O18 0.237520 0.000000 0.587024
#
# Coordination Sequence:
#
# PCOD8200043 Si02
#       7
#     8   4   8   4   4   4   8
#     4  10  21  39  61  83 112 150 189 233 287 347
#     4   9  15  23  39  68 103 140 184 223 264 328
#     4   9  19  36  58  84 118 159 198 242 295 344
#     4  10  22  40  60  83 111 146 193 241 288 347
#     4  12  26  40  60  89 116 147 189 241 299 355
#     4   9  18  33  57  89 122 159 203 244 287 345
#     4   9  16  27  46  73 106 141 179 227 279 331
#
# _framework density 20.858429000000001
#
# number of rings (size 3 to 8) (size 9 to 14) (size 15 to 20)
#    0.000    2.400    0.000    2.400    1.400    6.000 
#    0.000    5.000    0.000    2.400    0.000    4.200 
#    0.000    0.000    0.000    0.000    0.000    0.000 
#
# Total GULP energy -495705.411134 kJ/mol
# GULP energy per Si atom -12392.635278 kJ/mol
# Density = 2.081095 g / cm^3
# Si number density = 20.858429 Si / 1000 Ang^3
#
#
#
# Elastic Constant Matrix: (Units=GPa)
#
#
# Indices 1 2 3 4 5 6 
#
# 1 110.1256 22.8835 62.4368 0.0000 0.0000 0.0000
# 2 22.8835 71.5472 43.4599 0.0000 0.0000 0.0000
# 3 62.4368 43.4599 149.5208 0.0000 0.0000 0.0000
# 4 0.0000 0.0000 0.0000 49.4537 0.0000 0.0000
# 5 0.0000 0.0000 0.0000 0.0000 39.5912 0.0000
# 6 0.0000 0.0000 0.0000 0.0000 0.0000 15.0813
#
#
#
# Elastic Compliance Matrix: (Units=1/GPa)
#
#
# Indices 1 2 3 4 5 6 
#
# 1 0.011951 -0.000961 -0.004711 0.000000 0.000000 0.000000
# 2 -0.000961 0.017051 -0.004555 0.000000 0.000000 0.000000
# 3 -0.004711 -0.004555 0.009979 0.000000 0.000000 0.000000
# 4 0.000000 0.000000 0.000000 0.020221 0.000000 0.000000
# 5 0.000000 0.000000 0.000000 0.000000 0.025258 0.000000
# 6 0.000000 0.000000 0.000000 0.000000 0.000000 0.066307
#
#
# Mechanical properties :
#
#
# Convention : Reuss Voigt Hill
#
# Bulk Modulus (GPa) = 53.97338 65.41711 59.69524
# Shear Modulus (GPa) = 28.18529 34.31948 31.25238
#
# Velocity S-wave (km/s) = 3.67995 4.06070 3.87500
# Velocity P-wave (km/s) = 6.63236 7.30864 6.97870
#
# Compressibility (1/GPa) = 0.01852765
#
# Stress axis : x y z
#
# Youngs Moduli (GPa) = 83.67265 58.64829 100.20704
#
# Poissons Ratio (x) = 0.05634 0.47212
# Poissons Ratio (y) = 0.08038 0.45643
# Poissons Ratio (z) = 0.39422 0.26713
#
# Static dielectric constant tensor:
#      x y z
#    x 3.890420 0.000000 0.000000 
#    y 0.000000 3.596090 0.000000 
#    z 0.000000 0.000000 3.763710 
# 
# 
# High freq. dielectric constant tensor:
#      x y z
#    x 1.826860 0.000000 0.000000 
#    y 0.000000 1.797830 0.000000 
#    z 0.000000 0.000000 1.809270 
# 
# From -- ./inp_files/33153.got.cif
#   From: 2010.03.12/outbox.cif.g09.slc.cpg/sg47_17_cif.got.tgz:33153.got - 2010.04.14 03:12:58.
