data_PCOD8200988
_publ_section_title
;
Structure prediction by ZEFSAII (Michael W. Deem and Ramdas Pophale) SiO2 
 PCOD8200988
Probable space group: P M M M
;
_chemical_formula_sum "Si O2"
_cell_formula_units_Z 52
_cell_length_a 19.058493
_cell_length_b 19.070720
_cell_length_c 9.386858
_cell_angle_alpha 90.000000
_cell_angle_beta 90.000000
_cell_angle_gamma 90.000000
_cell_volume 3411.739745
_symmetry_space_group_name_H-M "P M M M"
_symmetry_group_IT_number 47
_symmetry_cell_setting 'orthorhombic'
loop_
_space_group_symop_operation_xyz
x,y,z
-x,-y,z
x,-y,-z
-x,y,-z
-x,-y,-z
x,y,-z
-x,y,z
x,-y,z
loop_
_atom_site_type_symbol
_atom_site_label
_atom_site_fract_x
_atom_site_fract_y
_atom_site_fract_z
Si Si1 0.000000 0.082552 0.840682
Si Si2 0.864609 0.078702 0.664675
Si Si3 0.827257 0.579065 0.837872
Si Si4 0.711460 0.342408 0.331836
Si Si5 0.195916 0.781184 0.664102
Si Si6 0.577497 0.578918 0.330802
Si Si7 0.078974 0.705142 0.835788
O O1 0.930475 0.105988 0.756701
O O2 0.000000 0.000000 0.852384
O O3 0.000000 0.116058 0.000000
O O4 0.888112 0.078671 0.500000
O O5 0.800076 0.134117 0.688602
O O6 0.840252 0.000000 0.709891
O O7 0.848076 0.500000 0.799956
O O8 0.765764 0.603485 0.734597
O O9 0.896960 0.624901 0.814008
O O10 0.800065 0.586415 0.000000
O O11 0.713856 0.352814 0.500000
O O12 0.733640 0.261912 0.288766
O O13 0.633973 0.363614 0.274275
O O14 0.181685 0.763958 0.500000
O O15 0.128507 0.756305 0.749120
O O16 0.575867 0.579713 0.500000
O O17 0.500000 0.599372 0.272248
O O18 0.597406 0.500000 0.278979
O O19 0.000000 0.713048 0.778250
O O20 0.083838 0.727206 0.000000
#
# Coordination Sequence:
#
# PCOD8200988 Si02
#       7
#     4   8   8   8   8   8   8
#     4   9  17  27  39  57  77  95 120 157 198 235
#     4   9  17  29  42  55  74 100 128 157 193 237
#     4   9  17  28  41  56  74  98 128 160 193 228
#     4   9  16  27  42  59  79 101 127 158 190 226
#     4   9  18  29  41  57  75  98 127 159 194 231
#     4   8  13  21  36  60  85 105 125 151 185 224
#     4   9  18  30  41  54  72  96 127 161 197 233
#
# _framework density 15.241491
#
# number of rings (size 3 to 8) (size 9 to 14) (size 15 to 20)
#    0.000    3.154    0.000    1.154    1.077    3.077 
#    0.000    1.538    0.000    0.462    0.000    6.462 
#    0.000    0.615    0.000    8.615    0.000    0.000 
#
# Total GULP energy -644196.742912 kJ/mol
# GULP energy per Si atom -12388.398902 kJ/mol
# Density = 1.520680 g / cm^3
# Si number density = 15.241491 Si / 1000 Ang^3
#
#
#
# Elastic Constant Matrix: (Units=GPa)
#
#
# Indices 1 2 3 4 5 6 
#
# 1 102.3925 55.1348 18.2133 0.0000 0.0000 0.0000
# 2 55.1348 109.6172 18.5722 0.0000 0.0000 0.0000
# 3 18.2133 18.5722 25.7326 0.0000 0.0000 0.0000
# 4 0.0000 0.0000 0.0000 13.1001 0.0000 0.0000
# 5 0.0000 0.0000 0.0000 0.0000 8.2096 0.0000
# 6 0.0000 0.0000 0.0000 0.0000 0.0000 21.5178
#
#
#
# Elastic Compliance Matrix: (Units=1/GPa)
#
#
# Indices 1 2 3 4 5 6 
#
# 1 0.014050 -0.006132 -0.005519 0.000000 0.000000 0.000000
# 2 -0.006132 0.013070 -0.005093 0.000000 0.000000 0.000000
# 3 -0.005519 -0.005093 0.046443 0.000000 0.000000 0.000000
# 4 0.000000 0.000000 0.000000 0.076335 0.000000 0.000000
# 5 0.000000 0.000000 0.000000 0.000000 0.121808 0.000000
# 6 0.000000 0.000000 0.000000 0.000000 0.000000 0.046473
#
#
# Mechanical properties :
#
#
# Convention : Reuss Voigt Hill
#
# Bulk Modulus (GPa) = 24.95275 46.84254 35.89765
# Shear Modulus (GPa) = 13.69773 18.28698 15.99236
#
# Velocity S-wave (km/s) = 3.00111 3.46759 3.24275
# Velocity P-wave (km/s) = 5.33067 6.84343 6.13386
#
# Compressibility (1/GPa) = 0.04007574
#
# Stress axis : x y z
#
# Youngs Moduli (GPa) = 71.17606 76.51351 21.53169
#
# Poissons Ratio (x) = 0.46915 0.11883
# Poissons Ratio (y) = 0.43642 0.10966
# Poissons Ratio (z) = 0.39281 0.38968
#
# Static dielectric constant tensor:
#      x y z
#    x 2.991370 0.000000 0.000000 
#    y 0.000000 3.163030 0.000000 
#    z 0.000000 0.000000 2.878150 
# 
# 
# High freq. dielectric constant tensor:
#      x y z
#    x 1.550440 0.000000 0.000000 
#    y 0.000000 1.585540 0.000000 
#    z 0.000000 0.000000 1.571820 
# 
# From -- ./inp_files/9835.got.cif
#   From: 2010.03.12/outbox.cif.g09.slc.cpg/sg47_5_cif.got.tgz:9835.got - 2010.04.14 03:12:58.
