data_PCOD8200162
_publ_section_title
;
Structure prediction by ZEFSAII (Michael W. Deem and Ramdas Pophale) SiO2 
 PCOD8200162
Probable space group: P M M M
;
_chemical_formula_sum "Si O2"
_cell_formula_units_Z 64
_cell_length_a 25.853507
_cell_length_b 9.128112
_cell_length_c 14.084749
_cell_angle_alpha 90.000000
_cell_angle_beta 90.000000
_cell_angle_gamma 90.000000
_cell_volume 3323.912136
_symmetry_space_group_name_H-M "P M M M"
_symmetry_group_IT_number 47
_symmetry_cell_setting 'orthorhombic'
loop_
_space_group_symop_operation_xyz
x,y,z
-x,-y,z
x,-y,-z
-x,y,-z
-x,-y,-z
x,y,-z
-x,y,z
x,-y,z
loop_
_atom_site_type_symbol
_atom_site_label
_atom_site_fract_x
_atom_site_fract_y
_atom_site_fract_z
Si Si1 0.851734 0.331823 0.612597
Si Si2 0.558704 0.333876 0.388910
Si Si3 0.795135 0.669789 0.891071
Si Si4 0.316466 0.673310 0.890401
Si Si5 0.057807 0.831816 0.282198
Si Si6 0.250880 0.170806 0.610599
Si Si7 0.646070 0.172279 0.281402
Si Si8 0.093087 0.326367 0.890368
O O1 0.853110 0.316159 0.500000
O O2 0.851871 0.500000 0.646045
O O3 0.902927 0.254366 0.650930
O O4 0.798746 0.258458 0.651789
O O5 0.563536 0.305176 0.500000
O O6 0.500000 0.305931 0.355277
O O7 0.575310 0.500000 0.364351
O O8 0.595279 0.219748 0.336943
O O9 0.786477 0.500000 0.876688
O O10 0.740453 0.739325 0.858631
O O11 0.849882 0.717358 0.845126
O O12 0.804199 0.706789 0.000000
O O13 0.320675 0.500000 0.875447
O O14 0.356943 0.754458 0.822758
O O15 0.327709 0.712960 0.000000
O O16 0.054357 0.762292 0.176365
O O17 0.000000 0.819284 0.325501
O O18 0.075421 0.000000 0.275342
O O19 0.258990 0.205628 0.500000
O O20 0.302598 0.225542 0.663143
O O21 0.240479 0.000000 0.628085
O O22 0.645325 0.000000 0.269926
O O23 0.084105 0.500000 0.882031
O O24 0.085664 0.278192 0.000000
#
# Coordination Sequence:
#
# PCOD8200162 Si02
#       8
#     8   8   8   8   8   8   8   8
#     4  10  22  40  62  85 106 133 175 229 282 328
#     4   9  19  37  60  85 114 150 194 241 282 324
#     4   7  12  26  48  73  99 129 169 216 264 313
#     4   9  18  33  52  75 108 151 195 235 275 322
#     4  11  25  41  56  77 107 143 180 219 269 334
#     4   9  19  36  55  79 116 153 179 210 263 335
#     4  11  22  33  52  85 121 155 188 227 277 331
#     4   9  18  34  57  83 109 138 176 224 273 320
#
# _framework density 19.254418999999999
#
# number of rings (size 3 to 8) (size 9 to 14) (size 15 to 20)
#    0.000    2.625    0.000    3.375    1.750    4.750 
#    0.000    4.375    0.000    2.625    0.000    2.625 
#    0.000    0.000    0.000    0.000    0.000    0.000 
#
# Total GULP energy -793162.181184 kJ/mol
# GULP energy per Si atom -12393.159081 kJ/mol
# Density = 1.921060 g / cm^3
# Si number density = 19.254419 Si / 1000 Ang^3
#
#
#
# Elastic Constant Matrix: (Units=GPa)
#
#
# Indices 1 2 3 4 5 6 
#
# 1 104.2551 50.8299 44.4574 0.0000 0.0000 0.0000
# 2 50.8299 83.9976 40.3457 0.0000 0.0000 0.0000
# 3 44.4574 40.3457 52.1962 0.0000 0.0000 0.0000
# 4 0.0000 0.0000 0.0000 24.1541 0.0000 0.0000
# 5 0.0000 0.0000 0.0000 0.0000 28.4352 0.0000
# 6 0.0000 0.0000 0.0000 0.0000 0.0000 30.8533
#
#
#
# Elastic Compliance Matrix: (Units=1/GPa)
#
#
# Indices 1 2 3 4 5 6 
#
# 1 0.016325 -0.005090 -0.009970 0.000000 0.000000 0.000000
# 2 -0.005090 0.020522 -0.011528 0.000000 0.000000 0.000000
# 3 -0.009970 -0.011528 0.036561 0.000000 0.000000 0.000000
# 4 0.000000 0.000000 0.000000 0.041401 0.000000 0.000000
# 5 0.000000 0.000000 0.000000 0.000000 0.035168 0.000000
# 6 0.000000 0.000000 0.000000 0.000000 0.000000 0.032411
#
#
# Mechanical properties :
#
#
# Convention : Reuss Voigt Hill
#
# Bulk Modulus (GPa) = 49.42545 56.85723 53.14134
# Shear Modulus (GPa) = 20.63489 23.67624 22.15557
#
# Velocity S-wave (km/s) = 3.27723 3.51044 3.39584
# Velocity P-wave (km/s) = 6.32817 6.78414 6.56011
#
# Compressibility (1/GPa) = 0.02023249
#
# Stress axis : x y z
#
# Youngs Moduli (GPa) = 61.25521 48.72790 27.35161
#
# Poissons Ratio (x) = 0.24802 0.27271
# Poissons Ratio (y) = 0.31179 0.31530
# Poissons Ratio (z) = 0.61074 0.56171
#
# Static dielectric constant tensor:
#      x y z
#    x 3.543180 0.000000 0.000000 
#    y 0.000000 3.306350 0.000000 
#    z 0.000000 0.000000 3.423010 
# 
# 
# High freq. dielectric constant tensor:
#      x y z
#    x 1.743970 0.000000 0.000000 
#    y 0.000000 1.732090 0.000000 
#    z 0.000000 0.000000 1.747280 
# 
# From -- ./inp_files/25538.got.cif
#   From: 2010.03.12/outbox.cif.g09.slc.cpg/sg47_13_cif.got.tgz:25538.got - 2010.04.14 03:12:58.
