data_PCOD8200616
_publ_section_title
;
Structure prediction by ZEFSAII (Michael W. Deem and Ramdas Pophale) SiO2 
 PCOD8200616
Probable space group: P M M M
;
_chemical_formula_sum "Si O2"
_cell_formula_units_Z 44
_cell_length_a 28.092499
_cell_length_b 9.450430
_cell_length_c 9.176416
_cell_angle_alpha 90.000000
_cell_angle_beta 90.000000
_cell_angle_gamma 90.000000
_cell_volume 2436.211771
_symmetry_space_group_name_H-M "P M M M"
_symmetry_group_IT_number 47
_symmetry_cell_setting 'orthorhombic'
loop_
_space_group_symop_operation_xyz
x,y,z
-x,-y,z
x,-y,-z
-x,y,-z
-x,-y,-z
x,y,-z
-x,y,z
x,-y,z
loop_
_atom_site_type_symbol
_atom_site_label
_atom_site_fract_x
_atom_site_fract_y
_atom_site_fract_z
Si Si1 0.907421 0.835376 0.330143
Si Si2 0.000000 0.831508 0.835145
Si Si3 0.444782 0.338226 0.667862
Si Si4 0.286719 0.665617 0.330885
Si Si5 0.367334 0.836533 0.171880
Si Si6 0.819550 0.656372 0.326935
O O1 0.915223 0.803387 0.500000
O O2 0.953094 0.773462 0.245785
O O3 0.860001 0.761360 0.267153
O O4 0.900753 0.000000 0.299544
O O5 0.000000 0.000000 0.827988
O O6 0.000000 0.775320 0.000000
O O7 0.430849 0.312996 0.500000
O O8 0.500000 0.305330 0.693806
O O9 0.433087 0.500000 0.710973
O O10 0.415382 0.232416 0.767723
O O11 0.294570 0.702674 0.500000
O O12 0.296627 0.500000 0.304019
O O13 0.321528 0.758860 0.235237
O O14 0.233185 0.705768 0.279453
O O15 0.365984 0.000000 0.218832
O O16 0.367012 0.818330 0.000000
O O17 0.820754 0.652088 0.500000
O O18 0.830100 0.500000 0.264579
#
# Coordination Sequence:
#
# PCOD8200616 Si02
#       6
#     8   4   8   8   8   8
#     4   9  16  27  46  70  92 117 154 196 233 276
#     4   9  17  29  44  63  90 124 158 191 232 280
#     4   9  19  37  60  83 104 129 167 212 253 297
#     4   9  18  34  56  78  99 128 168 210 250 297
#     4  11  24  37  49  73 109 142 171 206 248 294
#     4   8  15  29  49  73  98 121 150 194 245 291
#
# _framework density 18.060827
#
# number of rings (size 3 to 8) (size 9 to 14) (size 15 to 20)
#    0.000    2.818    0.000    3.000    0.000    6.909 
#    0.000    5.909    0.000    6.545    0.000    0.000 
#    0.000    0.000    0.000    0.000    0.000    0.000 
#
# Total GULP energy -545534.246948 kJ/mol
# GULP energy per Si atom -12398.505612 kJ/mol
# Density = 1.801972 g / cm^3
# Si number density = 18.060827 Si / 1000 Ang^3
#
#
#
# Elastic Constant Matrix: (Units=GPa)
#
#
# Indices 1 2 3 4 5 6 
#
# 1 152.6909 76.9351 57.2677 0.0000 0.0000 0.0000
# 2 76.9351 90.0560 50.9409 0.0000 0.0000 0.0000
# 3 57.2677 50.9409 65.6341 0.0000 0.0000 0.0000
# 4 0.0000 0.0000 0.0000 22.4833 0.0000 0.0000
# 5 0.0000 0.0000 0.0000 0.0000 1.1334 0.0000
# 6 0.0000 0.0000 0.0000 0.0000 0.0000 33.7210
#
#
#
# Elastic Compliance Matrix: (Units=1/GPa)
#
#
# Indices 1 2 3 4 5 6 
#
# 1 0.012220 -0.007859 -0.004563 0.000000 0.000000 0.000000
# 2 -0.007859 0.024848 -0.012429 0.000000 0.000000 0.000000
# 3 -0.004563 -0.012429 0.028864 0.000000 0.000000 0.000000
# 4 0.000000 0.000000 0.000000 0.044478 0.000000 0.000000
# 5 0.000000 0.000000 0.000000 0.000000 0.882320 0.000000
# 6 0.000000 0.000000 0.000000 0.000000 0.000000 0.029655
#
#
# Mechanical properties :
#
#
# Convention : Reuss Voigt Hill
#
# Bulk Modulus (GPa) = 61.60929 75.40760 68.50845
# Shear Modulus (GPa) = 4.64039 19.68335 12.16187
#
# Velocity S-wave (km/s) = 1.60465 3.30485 2.59778
# Velocity P-wave (km/s) = 6.13346 7.51035 6.85656
#
# Compressibility (1/GPa) = 0.01623132
#
# Stress axis : x y z
#
# Youngs Moduli (GPa) = 81.83106 40.24435 34.64541
#
# Poissons Ratio (x) = 0.31626 0.15809
# Poissons Ratio (y) = 0.64308 0.43060
# Poissons Ratio (z) = 0.37341 0.50018
#
# Static dielectric constant tensor:
#      x y z
#    x 3.605020 0.000000 0.000000 
#    y 0.000000 3.321290 0.000000 
#    z 0.000000 0.000000 3.112630 
# 
# 
# High freq. dielectric constant tensor:
#      x y z
#    x 1.717250 0.000000 0.000000 
#    y 0.000000 1.685600 0.000000 
#    z 0.000000 0.000000 1.674820 
# 
# From -- ./inp_files/2221.got.cif
#   From: 2010.03.12/outbox.cif.g09.slc.cpg/sg47_2_cif.got.tgz:2221.got - 2010.04.14 03:12:58.
