data_PCOD8200584
_publ_section_title
;
Structure prediction by ZEFSAII (Michael W. Deem and Ramdas Pophale) SiO2 
 PCOD8200584
Probable space group: P M M M
;
_chemical_formula_sum "Si O2"
_cell_formula_units_Z 48
_cell_length_a 32.084975
_cell_length_b 8.268162
_cell_length_c 9.546425
_cell_angle_alpha 90.000000
_cell_angle_beta 90.000000
_cell_angle_gamma 90.000000
_cell_volume 2532.511624
_symmetry_space_group_name_H-M "P M M M"
_symmetry_group_IT_number 47
_symmetry_cell_setting 'orthorhombic'
loop_
_space_group_symop_operation_xyz
x,y,z
-x,-y,z
x,-y,-z
-x,y,-z
-x,-y,-z
x,y,-z
-x,y,z
x,-y,z
loop_
_atom_site_type_symbol
_atom_site_label
_atom_site_fract_x
_atom_site_fract_y
_atom_site_fract_z
Si Si1 0.405420 0.180276 0.833799
Si Si2 0.547543 0.500000 0.833274
Si Si3 0.166000 0.810229 0.846443
Si Si4 0.689557 0.813670 0.841240
Si Si5 0.926449 0.190080 0.159302
Si Si6 0.000000 0.687363 0.653594
Si Si7 0.761488 0.686928 0.343323
O O1 0.431775 0.333174 0.773728
O O2 0.357732 0.208426 0.788646
O O3 0.420307 0.000000 0.779326
O O4 0.408909 0.177405 0.000000
O O5 0.500000 0.500000 0.782696
O O6 0.551348 0.500000 0.000000
O O7 0.120149 0.744901 0.804308
O O8 0.199767 0.770234 0.730624
O O9 0.162274 0.000000 0.860841
O O10 0.179117 0.739974 0.000000
O O11 0.718647 0.712341 0.739361
O O12 0.703184 0.000000 0.835076
O O13 0.694323 0.748610 0.000000
O O14 0.958477 0.269581 0.263948
O O15 0.929506 0.000000 0.179542
O O16 0.937792 0.237940 0.000000
O O17 0.000000 0.500000 0.629640
O O18 0.000000 0.772557 0.500000
O O19 0.756809 0.758711 0.500000
O O20 0.771584 0.500000 0.349659
#
# Coordination Sequence:
#
# PCOD8200584 Si02
#       7
#     8   4   8   8   8   4   8
#     4   8  15  27  42  64  94 127 168 216 260 308
#     4   9  16  24  38  64  97 135 173 207 257 320
#     4   9  19  37  59  80 101 129 169 213 255 303
#     4   9  18  33  53  74  95 127 174 220 258 302
#     4   9  19  37  60  82 102 128 168 216 257 298
#     4  11  24  37  50  76 112 143 170 205 252 304
#     4  11  24  36  47  72 108 139 168 206 254 308
#
# _framework density 18.953517000000002
#
# number of rings (size 3 to 8) (size 9 to 14) (size 15 to 20)
#    0.000    2.667    0.000    3.500    1.167    7.667 
#    0.000    6.667    0.000    0.000    0.000    0.000 
#    0.000    1.333    0.000    3.667    0.000    3.667 
#
# Total GULP energy -594897.155749 kJ/mol
# GULP energy per Si atom -12393.690745 kJ/mol
# Density = 1.891038 g / cm^3
# Si number density = 18.953517 Si / 1000 Ang^3
#
#
#
# Elastic Constant Matrix: (Units=GPa)
#
#
# Indices 1 2 3 4 5 6 
#
# 1 124.6102 47.7514 52.4295 0.0000 0.0000 0.0000
# 2 47.7514 75.4310 25.1826 0.0000 0.0000 0.0000
# 3 52.4295 25.1826 82.3888 0.0000 0.0000 0.0000
# 4 0.0000 0.0000 0.0000 20.0226 0.0000 0.0000
# 5 0.0000 0.0000 0.0000 0.0000 -4.0741 0.0000
# 6 0.0000 0.0000 0.0000 0.0000 0.0000 53.5868
#
#
#
# Elastic Compliance Matrix: (Units=1/GPa)
#
#
# Indices 1 2 3 4 5 6 
#
# 1 0.013091 -0.006132 -0.006457 0.000000 0.000000 0.000000
# 2 -0.006132 0.017636 -0.001488 0.000000 0.000000 0.000000
# 3 -0.006457 -0.001488 0.016701 0.000000 0.000000 0.000000
# 4 0.000000 0.000000 0.000000 0.049944 0.000000 0.000000
# 5 0.000000 0.000000 0.000000 0.000000 -0.245454 0.000000
# 6 0.000000 0.000000 0.000000 0.000000 0.000000 0.018661
#
#
# Mechanical properties :
#
#
# Convention : Reuss Voigt Hill
#
# Bulk Modulus (GPa) = 51.88159 59.23966 55.56063
# Shear Modulus (GPa) = -52.71961 24.37816 -14.17073
#
# Velocity S-wave (km/s) = -5.27973 3.59026 -2.73730
# Velocity P-wave (km/s) = 3.12009 6.96489 4.40311
#
# Compressibility (1/GPa) = 0.01927466
#
# Stress axis : x y z
#
# Youngs Moduli (GPa) = 76.38563 56.70264 59.87551
#
# Poissons Ratio (x) = 0.34770 0.38660
# Poissons Ratio (y) = 0.46839 0.08912
# Poissons Ratio (z) = 0.49320 0.08439
#
# Static dielectric constant tensor:
#      x y z
#    x 3.317840 0.000000 0.000000 
#    y 0.000000 3.548300 0.000000 
#    z 0.000000 0.000000 3.505150 
# 
# 
# High freq. dielectric constant tensor:
#      x y z
#    x 1.742180 0.000000 0.000000 
#    y 0.000000 1.734890 0.000000 
#    z 0.000000 0.000000 1.701820 
# 
# From -- ./inp_files/13822.got.cif
#   From: 2010.03.12/outbox.cif.g09.slc.cpg/sg47_7_cif.got.tgz:13822.got - 2010.04.14 03:12:58.
