data_PCOD8200243
_publ_section_title
;
Structure prediction by ZEFSAII (Michael W. Deem and Ramdas Pophale) SiO2 
 PCOD8200243
Probable space group: P M M M
;
_chemical_formula_sum "Si O2"
_cell_formula_units_Z 52
_cell_length_a 9.174101
_cell_length_b 14.698633
_cell_length_c 22.944872
_cell_angle_alpha 90.000000
_cell_angle_beta 90.000000
_cell_angle_gamma 90.000000
_cell_volume 3094.041274
_symmetry_space_group_name_H-M "P M M M"
_symmetry_group_IT_number 47
_symmetry_cell_setting 'orthorhombic'
loop_
_space_group_symop_operation_xyz
x,y,z
-x,-y,z
x,-y,-z
-x,y,-z
-x,-y,-z
x,y,-z
-x,y,z
x,-y,z
loop_
_atom_site_type_symbol
_atom_site_label
_atom_site_fract_x
_atom_site_fract_y
_atom_site_fract_z
Si Si1 0.672357 0.599456 0.336324
Si Si2 0.330129 0.606408 0.794597
Si Si3 0.327836 0.729871 0.565542
Si Si4 0.670140 0.103501 0.932216
Si Si5 0.826447 0.721107 0.890529
Si Si6 0.172747 0.602999 0.000000
Si Si7 0.838857 0.098571 0.431015
O O1 0.500000 0.594393 0.343652
O O2 0.741361 0.500000 0.344311
O O3 0.708139 0.635509 0.271656
O O4 0.740105 0.659857 0.388053
O O5 0.500000 0.623215 0.808448
O O6 0.291932 0.500000 0.805088
O O7 0.230781 0.672097 0.832883
O O8 0.268479 0.709162 0.500000
O O9 0.500000 0.727029 0.565370
O O10 0.278873 0.828067 0.589117
O O11 0.500000 0.121164 0.920993
O O12 0.762089 0.176948 0.895520
O O13 0.710968 0.000000 0.912928
O O14 0.708345 0.116075 0.000000
O O15 0.771776 0.658191 0.943857
O O16 0.000000 0.728827 0.888398
O O17 0.237858 0.500000 0.000000
O O18 0.000000 0.597224 0.000000
O O19 0.840500 0.092258 0.500000
O O20 0.000000 0.126092 0.408581
O O21 0.794385 0.000000 0.405068
#
# Coordination Sequence:
#
# PCOD8200243 Si02
#       7
#     8   8   8   8   8   4   8
#     4   8  15  29  47  66  91 123 157 192 230 275
#     4   9  18  33  51  68  89 124 167 202 232 276
#     4   9  16  25  42  70  96 116 145 189 237 280
#     4   9  18  33  52  73  99 130 162 196 232 276
#     4  11  20  31  49  73 100 128 156 194 242 284
#     4   9  18  30  42  63  98 130 149 175 226 283
#     4   8  14  25  40  58  84 119 151 176 213 270
#
# _framework density 16.806498000000001
#
# number of rings (size 3 to 8) (size 9 to 14) (size 15 to 20)
#    0.000    3.000    0.769    2.769    0.000    1.846 
#    0.000    4.615    0.000    4.154    0.000    4.308 
#    0.000    0.000    0.000    0.000    0.000    0.000 
#
# Total GULP energy -644396.780717 kJ/mol
# GULP energy per Si atom -12392.245783 kJ/mol
# Density = 1.676825 g / cm^3
# Si number density = 16.806498 Si / 1000 Ang^3
#
#
#
# Elastic Constant Matrix: (Units=GPa)
#
#
# Indices 1 2 3 4 5 6 
#
# 1 40.4623 42.3394 33.6187 0.0000 0.0000 0.0000
# 2 42.3394 129.0766 69.8254 0.0000 0.0000 0.0000
# 3 33.6187 69.8254 95.8965 0.0000 0.0000 0.0000
# 4 0.0000 0.0000 0.0000 13.3075 0.0000 0.0000
# 5 0.0000 0.0000 0.0000 0.0000 13.4638 0.0000
# 6 0.0000 0.0000 0.0000 0.0000 0.0000 9.1322
#
#
#
# Elastic Compliance Matrix: (Units=1/GPa)
#
#
# Indices 1 2 3 4 5 6 
#
# 1 0.040652 -0.009281 -0.007494 0.000000 0.000000 0.000000
# 2 -0.009281 0.014901 -0.007596 0.000000 0.000000 0.000000
# 3 -0.007494 -0.007596 0.018586 0.000000 0.000000 0.000000
# 4 0.000000 0.000000 0.000000 0.075146 0.000000 0.000000
# 5 0.000000 0.000000 0.000000 0.000000 0.074273 0.000000
# 6 0.000000 0.000000 0.000000 0.000000 0.000000 0.109503
#
#
# Mechanical properties :
#
#
# Convention : Reuss Voigt Hill
#
# Bulk Modulus (GPa) = 39.37421 61.88915 50.63168
# Shear Modulus (GPa) = 12.81172 15.15750 13.98461
#
# Velocity S-wave (km/s) = 2.76399 3.00640 2.88774
# Velocity P-wave (km/s) = 5.80215 6.99683 6.42731
#
# Compressibility (1/GPa) = 0.02539733
#
# Stress axis : x y z
#
# Youngs Moduli (GPa) = 24.59902 67.11045 53.80349
#
# Poissons Ratio (x) = 0.62283 0.40320
# Poissons Ratio (y) = 0.22829 0.40870
# Poissons Ratio (z) = 0.18434 0.50979
#
# Static dielectric constant tensor:
#      x y z
#    x 2.903070 0.000000 0.000000 
#    y 0.000000 3.542660 0.000000 
#    z 0.000000 0.000000 3.090790 
# 
# 
# High freq. dielectric constant tensor:
#      x y z
#    x 1.624050 0.000000 0.000000 
#    y 0.000000 1.654410 0.000000 
#    z 0.000000 0.000000 1.623870 
# 
# From -- ./inp_files/31998.got.cif
#   From: 2010.03.12/outbox.cif.g09.slc.cpg/sg47_16_cif.got.tgz:31998.got - 2010.04.14 03:12:58.
