data_PCOD8200461
_publ_section_title
;
Structure prediction by ZEFSAII (Michael W. Deem and Ramdas Pophale) SiO2 
 PCOD8200461
Probable space group: P M M M
;
_chemical_formula_sum "Si O2"
_cell_formula_units_Z 48
_cell_length_a 9.222113
_cell_length_b 34.728800
_cell_length_c 7.697346
_cell_angle_alpha 90.000000
_cell_angle_beta 90.000000
_cell_angle_gamma 90.000000
_cell_volume 2465.251464
_symmetry_space_group_name_H-M "P M M M"
_symmetry_group_IT_number 47
_symmetry_cell_setting 'orthorhombic'
loop_
_space_group_symop_operation_xyz
x,y,z
-x,-y,z
x,-y,-z
-x,y,-z
-x,-y,-z
x,y,-z
-x,y,z
x,-y,z
loop_
_atom_site_type_symbol
_atom_site_label
_atom_site_fract_x
_atom_site_fract_y
_atom_site_fract_z
Si Si1 0.338424 0.193206 0.293826
Si Si2 0.833524 0.958909 0.204276
Si Si3 0.828622 0.675019 0.000000
Si Si4 0.827251 0.411816 0.000000
Si Si5 0.333142 0.544911 0.301329
Si Si6 0.838867 0.877703 0.699485
Si Si7 0.170516 0.730700 0.301411
O O1 0.346018 0.190244 0.500000
O O2 0.500000 0.195692 0.215199
O O3 0.260394 0.155288 0.213645
O O4 0.249457 0.230747 0.237714
O O5 0.762461 0.919946 0.281515
O O6 0.000000 0.959168 0.263821
O O7 0.763786 0.000000 0.269255
O O8 0.818324 0.956762 0.000000
O O9 0.775546 0.696569 0.175000
O O10 0.767239 0.631823 0.000000
O O11 0.000000 0.673461 0.000000
O O12 0.770429 0.431767 0.174140
O O13 0.000000 0.413991 0.000000
O O14 0.296795 0.556334 0.500000
O O15 0.500000 0.554581 0.258528
O O16 0.303746 0.500000 0.271726
O O17 0.855635 0.867070 0.500000
O O18 0.000000 0.877731 0.786622
O O19 0.211642 0.719744 0.500000
O O20 0.000000 0.738218 0.283361
#
# Coordination Sequence:
#
# PCOD8200461 Si02
#       7
#     8   8   4   4   8   8   8
#     4   9  17  30  48  69  94 121 148 188 244 294
#     4   8  14  25  40  59  85 114 143 178 220 264
#     4   9  20  36  52  77 108 138 175 213 256 318
#     4  11  22  34  53  84 120 150 180 229 291 342
#     4   9  19  37  59  81 109 151 200 241 278 327
#     4   9  16  26  43  67  90 112 144 184 225 275
#     4   9  17  33  56  74  93 128 170 208 247 297
#
# _framework density 19.470631000000001
#
# number of rings (size 3 to 8) (size 9 to 14) (size 15 to 20)
#    0.000    3.000    0.000    2.000    0.000    4.667 
#    1.500    6.250    0.000    2.500    0.000    3.500 
#    0.000    0.000    0.000    0.000    0.000    0.000 
#
# Total GULP energy -594803.368405 kJ/mol
# GULP energy per Si atom -12391.736842 kJ/mol
# Density = 1.942632 g / cm^3
# Si number density = 19.470631 Si / 1000 Ang^3
#
#
#
# Elastic Constant Matrix: (Units=GPa)
#
#
# Indices 1 2 3 4 5 6 
#
# 1 73.7027 62.9002 34.5855 0.0000 0.0000 0.0000
# 2 62.9002 168.8784 64.7662 0.0000 0.0000 0.0000
# 3 34.5855 64.7662 80.3243 0.0000 0.0000 0.0000
# 4 0.0000 0.0000 0.0000 29.8393 0.0000 0.0000
# 5 0.0000 0.0000 0.0000 0.0000 15.7646 0.0000
# 6 0.0000 0.0000 0.0000 0.0000 0.0000 4.4776
#
#
#
# Elastic Compliance Matrix: (Units=1/GPa)
#
#
# Indices 1 2 3 4 5 6 
#
# 1 0.020703 -0.006214 -0.003904 0.000000 0.000000 0.000000
# 2 -0.006214 0.010437 -0.005740 0.000000 0.000000 0.000000
# 3 -0.003904 -0.005740 0.018759 0.000000 0.000000 0.000000
# 4 0.000000 0.000000 0.000000 0.033513 0.000000 0.000000
# 5 0.000000 0.000000 0.000000 0.000000 0.063433 0.000000
# 6 0.000000 0.000000 0.000000 0.000000 0.000000 0.223336
#
#
# Mechanical properties :
#
#
# Convention : Reuss Voigt Hill
#
# Bulk Modulus (GPa) = 54.99554 71.93434 63.46494
# Shear Modulus (GPa) = 12.25618 20.72653 16.49135
#
# Velocity S-wave (km/s) = 2.51165 3.26621 2.91346
# Velocity P-wave (km/s) = 6.05953 7.15887 6.63202
#
# Compressibility (1/GPa) = 0.01818329
#
# Stress axis : x y z
#
# Youngs Moduli (GPa) = 48.30207 95.81136 53.30855
#
# Poissons Ratio (x) = 0.59536 0.20811
# Poissons Ratio (y) = 0.30014 0.30599
# Poissons Ratio (z) = 0.18857 0.54996
#
# Static dielectric constant tensor:
#      x y z
#    x 3.356740 0.000000 0.000000 
#    y 0.000000 3.845360 0.000000 
#    z 0.000000 0.000000 3.379890 
# 
# 
# High freq. dielectric constant tensor:
#      x y z
#    x 1.717010 0.000000 0.000000 
#    y 0.000000 1.767410 0.000000 
#    z 0.000000 0.000000 1.748460 
# 
# From -- ./inp_files/2696.got.cif
#   From: 2010.03.12/outbox.cif.g09.slc.cpg/sg47_2_cif.got.tgz:2696.got - 2010.04.14 03:12:58.
