data_PCOD8200371
_publ_section_title
;
Structure prediction by ZEFSAII (Michael W. Deem and Ramdas Pophale) SiO2 
 PCOD8200371
Probable space group: P M M M
;
_chemical_formula_sum "Si O2"
_cell_formula_units_Z 40
_cell_length_a 23.326093
_cell_length_b 11.646105
_cell_length_c 9.177555
_cell_angle_alpha 90.000000
_cell_angle_beta 90.000000
_cell_angle_gamma 90.000000
_cell_volume 2493.157414
_symmetry_space_group_name_H-M "P M M M"
_symmetry_group_IT_number 47
_symmetry_cell_setting 'orthorhombic'
loop_
_space_group_symop_operation_xyz
x,y,z
-x,-y,z
x,-y,-z
-x,y,-z
-x,-y,-z
x,y,-z
-x,y,z
x,-y,z
loop_
_atom_site_type_symbol
_atom_site_label
_atom_site_fract_x
_atom_site_fract_y
_atom_site_fract_z
Si Si1 0.332209 0.364277 0.340219
Si Si2 0.000000 0.373319 0.172246
Si Si3 0.795898 0.632979 0.328181
Si Si4 0.437655 0.636372 0.162732
Si Si5 0.067310 0.000000 0.673327
Si Si6 0.107773 0.773309 0.174110
O O1 0.337481 0.309857 0.500000
O O2 0.340041 0.500000 0.349459
O O3 0.269029 0.337443 0.277736
O O4 0.383833 0.308348 0.247445
O O5 0.056047 0.307588 0.226188
O O6 0.000000 0.500000 0.242856
O O7 0.000000 0.382304 0.000000
O O8 0.804349 0.657591 0.500000
O O9 0.810282 0.500000 0.294707
O O10 0.834332 0.714727 0.229151
O O11 0.500000 0.670064 0.231539
O O12 0.431748 0.500000 0.160938
O O13 0.434617 0.685167 0.000000
O O14 0.099098 0.892828 0.744992
O O15 0.076294 0.000000 0.500000
O O16 0.000000 0.000000 0.714308
O O17 0.109428 0.790965 0.000000
#
# Coordination Sequence:
#
# PCOD8200371 Si02
#       6
#     8   4   8   8   4   8
#     4   8  14  24  37  53  77 112 150 186 222 263
#     4   9  18  31  47  70  98 121 142 177 224 267
#     4   9  18  32  47  66  95 126 156 191 232 278
#     4   8  13  20  30  47  73 105 143 187 228 263
#     4  11  23  39  57  73  93 119 150 185 230 283
#     4  11  21  34  53  73  95 120 152 191 230 273
#
# _framework density 16.043913
#
# number of rings (size 3 to 8) (size 9 to 14) (size 15 to 20)
#    0.000    2.800    1.000    3.300    0.000    2.800 
#    0.000    4.000    0.000    2.400    0.000    0.000 
#    0.000    0.000    0.000    0.900    0.000   17.200 
#
# Total GULP energy -495691.970913 kJ/mol
# GULP energy per Si atom -12392.299273 kJ/mol
# Density = 1.600740 g / cm^3
# Si number density = 16.043913 Si / 1000 Ang^3
#
#
#
# Elastic Constant Matrix: (Units=GPa)
#
#
# Indices 1 2 3 4 5 6 
#
# 1 146.6803 46.2101 59.3082 0.0000 0.0000 0.0000
# 2 46.2101 73.4399 34.6109 0.0000 0.0000 0.0000
# 3 59.3082 34.6109 72.5108 0.0000 0.0000 0.0000
# 4 0.0000 0.0000 0.0000 15.7808 0.0000 0.0000
# 5 0.0000 0.0000 0.0000 0.0000 30.6218 0.0000
# 6 0.0000 0.0000 0.0000 0.0000 0.0000 -3.4747
#
#
#
# Elastic Compliance Matrix: (Units=1/GPa)
#
#
# Indices 1 2 3 4 5 6 
#
# 1 0.010806 -0.003398 -0.007216 0.000000 0.000000 0.000000
# 2 -0.003398 0.018638 -0.006116 0.000000 0.000000 0.000000
# 3 -0.007216 -0.006116 0.022613 0.000000 0.000000 0.000000
# 4 0.000000 0.000000 0.000000 0.063368 0.000000 0.000000
# 5 0.000000 0.000000 0.000000 0.000000 0.032657 0.000000
# 6 0.000000 0.000000 0.000000 0.000000 0.000000 -0.287798
#
#
# Mechanical properties :
#
#
# Convention : Reuss Voigt Hill
#
# Bulk Modulus (GPa) = 53.78051 63.65438 58.71745
# Shear Modulus (GPa) = -49.97171 18.75236 -15.60968
#
# Velocity S-wave (km/s) = -5.58699 3.42250 -3.12257
# Velocity P-wave (km/s) = 2.83296 7.44172 4.86588
#
# Compressibility (1/GPa) = 0.01859410
#
# Stress axis : x y z
#
# Youngs Moduli (GPa) = 92.54088 53.65518 44.22247
#
# Poissons Ratio (x) = 0.18235 0.31912
# Poissons Ratio (y) = 0.31450 0.27048
# Poissons Ratio (z) = 0.66781 0.32818
#
# Static dielectric constant tensor:
#      x y z
#    x 3.314730 0.000000 0.000000 
#    y 0.000000 2.664060 0.000000 
#    z 0.000000 0.000000 3.117210 
# 
# 
# High freq. dielectric constant tensor:
#      x y z
#    x 1.631260 0.000000 0.000000 
#    y 0.000000 1.559100 0.000000 
#    z 0.000000 0.000000 1.612440 
# 
# From -- ./inp_files/10723.got.cif
#   From: 2010.03.12/outbox.cif.g09.slc.cpg/sg47_6_cif.got.tgz:10723.got - 2010.04.14 03:12:58.
