data_PCOD8200701
_publ_section_title
;
Structure prediction by ZEFSAII (Michael W. Deem and Ramdas Pophale) SiO2 
 PCOD8200701
Probable space group: P M M M
;
_chemical_formula_sum "Si O2"
_cell_formula_units_Z 56
_cell_length_a 9.084801
_cell_length_b 33.744784
_cell_length_c 12.789535
_cell_angle_alpha 90.000000
_cell_angle_beta 90.000000
_cell_angle_gamma 90.000000
_cell_volume 3920.819288
_symmetry_space_group_name_H-M "P M M M"
_symmetry_group_IT_number 47
_symmetry_cell_setting 'orthorhombic'
loop_
_space_group_symop_operation_xyz
x,y,z
-x,-y,z
x,-y,-z
-x,y,-z
-x,-y,-z
x,y,-z
-x,y,z
x,-y,z
loop_
_atom_site_type_symbol
_atom_site_label
_atom_site_fract_x
_atom_site_fract_y
_atom_site_fract_z
Si Si1 0.833554 0.577503 0.875353
Si Si2 0.665971 0.809534 0.124391
Si Si3 0.826957 0.888328 0.879818
Si Si4 0.833609 0.267496 0.875283
Si Si5 0.333592 0.654983 0.875368
Si Si6 0.823863 0.955691 0.724551
Si Si7 0.160345 0.953140 0.500000
Si Si8 0.333551 0.500000 0.875357
O O1 0.750418 0.616312 0.832430
O O2 0.749886 0.538769 0.832493
O O3 0.000000 0.577424 0.832399
O O4 0.833756 0.577511 0.000000
O O5 0.500000 0.808931 0.168024
O O6 0.746415 0.849252 0.163022
O O7 0.752249 0.771454 0.168953
O O8 0.666700 0.808038 0.000000
O O9 0.768198 0.925550 0.813034
O O10 0.000000 0.881529 0.866032
O O11 0.786271 0.897025 0.000000
O O12 0.749046 0.306118 0.832638
O O13 0.000000 0.268083 0.832503
O O14 0.833195 0.267264 0.000000
O O15 0.500000 0.654812 0.832366
O O16 0.333791 0.654915 0.000000
O O17 0.759565 0.941880 0.610053
O O18 0.000000 0.955848 0.718313
O O19 0.767812 0.000000 0.753204
O O20 0.000000 0.932499 0.500000
O O21 0.139528 0.000000 0.500000
O O22 0.500000 0.500000 0.832393
O O23 0.333783 0.500000 0.000000
#
# Coordination Sequence:
#
# PCOD8200701 Si02
#       8
#     8   8   8   8   8   8   4   4
#     4   9  15  21  27  34  44  58  77 102 133 170
#     4   9  16  25  35  45  59  81 106 127 148 180
#     4   9  16  24  34  50  71  91 110 134 164 196
#     4   9  15  22  32  44  56  70  90 117 147 176
#     4   9  15  21  28  38  51  65  82 106 137 173
#     4   8  13  21  34  52  72  92 113 138 167 196
#     4   7  10  18  32  50  71  91 111 137 167 195
#     4   9  15  21  27  33  41  55  75  99 131 173
#
# _framework density 14.282729
#
# number of rings (size 3 to 8) (size 9 to 14) (size 15 to 20)
#    0.000    3.286    0.000    2.786    0.000    8.000 
#    0.000    1.429    0.000    0.429    0.000    2.500 
#    0.000    1.714    0.000    0.000    0.000    0.000 
#
# Total GULP energy -693981.336567 kJ/mol
# GULP energy per Si atom -12392.523867 kJ/mol
# Density = 1.425022 g / cm^3
# Si number density = 14.282729 Si / 1000 Ang^3
#
#
#
# Elastic Constant Matrix: (Units=GPa)
#
#
# Indices 1 2 3 4 5 6 
#
# 1 101.0419 64.7875 16.5387 0.0000 0.0000 0.0000
# 2 64.7875 147.1462 32.5796 0.0000 0.0000 0.0000
# 3 16.5387 32.5796 28.7695 0.0000 0.0000 0.0000
# 4 0.0000 0.0000 0.0000 0.6026 0.0000 0.0000
# 5 0.0000 0.0000 0.0000 0.0000 2.1739 0.0000
# 6 0.0000 0.0000 0.0000 0.0000 0.0000 15.4709
#
#
#
# Elastic Compliance Matrix: (Units=1/GPa)
#
#
# Indices 1 2 3 4 5 6 
#
# 1 0.013833 -0.005779 -0.001408 0.000000 0.000000 0.000000
# 2 -0.005779 0.011484 -0.009683 0.000000 0.000000 0.000000
# 3 -0.001408 -0.009683 0.046534 0.000000 0.000000 0.000000
# 4 0.000000 0.000000 0.000000 1.659426 0.000000 0.000000
# 5 0.000000 0.000000 0.000000 0.000000 0.460001 0.000000
# 6 0.000000 0.000000 0.000000 0.000000 0.000000 0.064638
#
#
# Mechanical properties :
#
#
# Convention : Reuss Voigt Hill
#
# Bulk Modulus (GPa) = 26.23903 56.08546 41.16224
# Shear Modulus (GPa) = 2.17169 14.51960 8.34564
#
# Velocity S-wave (km/s) = 1.23442 3.19185 2.41989
# Velocity P-wave (km/s) = 4.52137 7.27579 6.05722
#
# Compressibility (1/GPa) = 0.03811117
#
# Stress axis : x y z
#
# Youngs Moduli (GPa) = 72.29307 87.07608 21.48972
#
# Poissons Ratio (x) = 0.50318 0.03026
# Poissons Ratio (y) = 0.41776 0.20809
# Poissons Ratio (z) = 0.10179 0.84317
#
# Static dielectric constant tensor:
#      x y z
#    x 2.806050 0.000000 0.000000 
#    y 0.000000 2.978260 0.000000 
#    z 0.000000 0.000000 2.292240 
# 
# 
# High freq. dielectric constant tensor:
#      x y z
#    x 1.542500 0.000000 0.000000 
#    y 0.000000 1.556720 0.000000 
#    z 0.000000 0.000000 1.454300 
# 
# From -- ./inp_files/22113.got.cif
#   From: 2010.03.12/outbox.cif.g09.slc.cpg/sg47_12_cif.got.tgz:22113.got - 2010.04.14 03:12:58.
