data_PCOD8200937
_publ_section_title
;
Structure prediction by ZEFSAII (Michael W. Deem and Ramdas Pophale) SiO2 
 PCOD8200937
Probable space group: P M M M
;
_chemical_formula_sum "Si O2"
_cell_formula_units_Z 40
_cell_length_a 27.904031
_cell_length_b 9.376330
_cell_length_c 7.570340
_cell_angle_alpha 90.000000
_cell_angle_beta 90.000000
_cell_angle_gamma 90.000000
_cell_volume 1980.684097
_symmetry_space_group_name_H-M "P M M M"
_symmetry_group_IT_number 47
_symmetry_cell_setting 'orthorhombic'
loop_
_space_group_symop_operation_xyz
x,y,z
-x,-y,z
x,-y,-z
-x,y,-z
-x,-y,-z
x,y,-z
-x,y,z
x,-y,z
loop_
_atom_site_type_symbol
_atom_site_label
_atom_site_fract_x
_atom_site_fract_y
_atom_site_fract_z
Si Si1 0.624707 0.832276 0.798157
Si Si2 0.446662 0.830775 0.500000
Si Si3 0.090811 0.161072 0.210674
Si Si4 0.285015 0.659230 0.790533
Si Si5 0.000000 0.661807 0.789691
Si Si6 0.820563 0.660575 0.210058
O O1 0.580833 0.779284 0.676506
O O2 0.673470 0.763447 0.721688
O O3 0.631990 0.000000 0.783728
O O4 0.613809 0.785516 0.000000
O O5 0.500000 0.763738 0.500000
O O6 0.450044 0.000000 0.500000
O O7 0.139635 0.231527 0.285841
O O8 0.046482 0.254503 0.281742
O O9 0.086733 0.000000 0.283834
O O10 0.090845 0.159899 0.000000
O O11 0.295843 0.500000 0.720949
O O12 0.232369 0.708654 0.722769
O O13 0.284586 0.660789 0.000000
O O14 0.000000 0.500000 0.715871
O O15 0.000000 0.658897 0.000000
O O16 0.831590 0.500000 0.276440
O O17 0.822097 0.662622 0.000000
#
# Coordination Sequence:
#
# PCOD8200937 Si02
#       6
#     8   4   8   8   4   8
#     4   9  17  29  47  70  93 120 156 195 234 278
#     4   9  18  32  49  71  99 127 157 196 237 276
#     4   9  15  20  26  38  57  82 117 166 219 265
#     4   8  14  25  41  60  83 111 141 177 224 276
#     4   9  15  21  27  33  47  79 123 168 215 270
#     4   8  13  21  32  46  65  91 124 161 206 263
#
# _framework density 20.195041
#
# number of rings (size 3 to 8) (size 9 to 14) (size 15 to 20)
#    0.000    3.400    0.000    2.100    0.000    4.800 
#    0.000    6.500    0.000    1.200    0.000    2.800 
#    0.000    0.000    0.000    0.000    0.000    1.000 
#
# Total GULP energy -495717.486161 kJ/mol
# GULP energy per Si atom -12392.937154 kJ/mol
# Density = 2.014908 g / cm^3
# Si number density = 20.195041 Si / 1000 Ang^3
#
#
#
# Elastic Constant Matrix: (Units=GPa)
#
#
# Indices 1 2 3 4 5 6 
#
# 1 215.0314 91.3731 38.1001 0.0000 0.0000 0.0000
# 2 91.3731 111.9686 18.7853 0.0000 0.0000 0.0000
# 3 38.1001 18.7853 46.0120 0.0000 0.0000 0.0000
# 4 0.0000 0.0000 0.0000 -1.6910 0.0000 0.0000
# 5 0.0000 0.0000 0.0000 0.0000 -13.3538 0.0000
# 6 0.0000 0.0000 0.0000 0.0000 0.0000 30.1933
#
#
#
# Elastic Compliance Matrix: (Units=1/GPa)
#
#
# Indices 1 2 3 4 5 6 
#
# 1 0.007790 -0.005663 -0.004139 0.000000 0.000000 0.000000
# 2 -0.005663 0.013704 -0.000906 0.000000 0.000000 0.000000
# 3 -0.004139 -0.000906 0.025530 0.000000 0.000000 0.000000
# 4 0.000000 0.000000 0.000000 -0.591371 0.000000 0.000000
# 5 0.000000 0.000000 0.000000 0.000000 -0.074885 0.000000
# 6 0.000000 0.000000 0.000000 0.000000 0.000000 0.033120
#
#
# Mechanical properties :
#
#
# Convention : Reuss Voigt Hill
#
# Bulk Modulus (GPa) = 39.04736 74.39210 56.71973
# Shear Modulus (GPa) = -8.99022 18.01325 4.51152
#
# Velocity S-wave (km/s) = -2.11219 2.98982 1.49627
# Velocity P-wave (km/s) = 3.66451 6.98824 5.57961
#
# Compressibility (1/GPa) = 0.02560993
#
# Stress axis : x y z
#
# Youngs Moduli (GPa) = 128.36841 72.96996 39.16912
#
# Poissons Ratio (x) = 0.41322 0.16211
# Poissons Ratio (y) = 0.72693 0.03548
# Poissons Ratio (z) = 0.53127 0.06611
#
# Static dielectric constant tensor:
#      x y z
#    x 4.124590 0.000000 0.000000 
#    y 0.000000 3.675430 0.000000 
#    z 0.000000 0.000000 3.175410 
# 
# 
# High freq. dielectric constant tensor:
#      x y z
#    x 1.794170 0.000000 0.000000 
#    y 0.000000 1.769000 0.000000 
#    z 0.000000 0.000000 1.750510 
# 
# From -- ./inp_files/13031.got.cif
#   From: 2010.03.12/outbox.cif.g09.slc.cpg/sg47_7_cif.got.tgz:13031.got - 2010.04.14 03:12:58.
