data_PCOD8200601
_publ_section_title
;
Structure prediction by ZEFSAII (Michael W. Deem and Ramdas Pophale) SiO2 
 PCOD8200601
Probable space group: P M M M
;
_chemical_formula_sum "Si O2"
_cell_formula_units_Z 40
_cell_length_a 9.455842
_cell_length_b 9.357898
_cell_length_c 26.094593
_cell_angle_alpha 90.000000
_cell_angle_beta 90.000000
_cell_angle_gamma 90.000000
_cell_volume 2309.027161
_symmetry_space_group_name_H-M "P M M M"
_symmetry_group_IT_number 47
_symmetry_cell_setting 'orthorhombic'
loop_
_space_group_symop_operation_xyz
x,y,z
-x,-y,z
x,-y,-z
-x,y,-z
-x,-y,-z
x,y,-z
-x,y,z
x,-y,z
loop_
_atom_site_type_symbol
_atom_site_label
_atom_site_fract_x
_atom_site_fract_y
_atom_site_fract_z
Si Si1 0.166016 0.168569 0.000000
Si Si2 0.163160 0.667389 0.293852
Si Si3 0.655924 0.669456 0.200147
Si Si4 0.169218 0.839367 0.390304
Si Si5 0.665711 0.333677 0.914876
Si Si6 0.155256 0.830037 0.500000
O O1 0.237522 0.235981 0.950130
O O2 0.000000 0.204612 0.000000
O O3 0.193542 0.000000 0.000000
O O4 0.188440 0.500000 0.299625
O O5 0.239457 0.730601 0.243434
O O6 0.227305 0.739398 0.344930
O O7 0.000000 0.706948 0.287333
O O8 0.500000 0.732469 0.210693
O O9 0.650486 0.500000 0.203296
O O10 0.705977 0.711760 0.143133
O O11 0.231092 0.786129 0.446053
O O12 0.000000 0.833163 0.393405
O O13 0.220358 0.000000 0.378559
O O14 0.500000 0.305364 0.925683
O O15 0.700197 0.500000 0.925086
O O16 0.000000 0.759176 0.500000
O O17 0.139649 0.000000 0.500000
#
# Coordination Sequence:
#
# PCOD8200601 Si02
#       6
#     4   8   8   8   8   4
#     4  11  24  37  48  70 104 133 154 181 224 276
#     4   9  16  25  39  62  89 112 136 171 215 258
#     4   8  15  29  48  68  89 114 145 179 214 256
#     4   8  13  22  36  54  78 109 142 174 211 256
#     4   9  18  34  56  77  93 116 157 200 230 264
#     4   7  10  18  33  51  72 103 142 176 206 249
#
# _framework density 17.323312999999999
#
# number of rings (size 3 to 8) (size 9 to 14) (size 15 to 20)
#    0.000    3.400    0.000    3.000    0.000    3.200 
#    0.000    3.500    0.000    7.200    0.000    0.700 
#    0.000    5.600    0.000    0.000    0.000    0.000 
#
# Total GULP energy -495568.392914 kJ/mol
# GULP energy per Si atom -12389.209823 kJ/mol
# Density = 1.728388 g / cm^3
# Si number density = 17.323313 Si / 1000 Ang^3
#
#
#
# Elastic Constant Matrix: (Units=GPa)
#
#
# Indices 1 2 3 4 5 6 
#
# 1 59.1121 36.9491 70.6615 0.0000 0.0000 0.0000
# 2 36.9491 50.2537 58.4312 0.0000 0.0000 0.0000
# 3 70.6615 58.4312 198.6089 0.0000 0.0000 0.0000
# 4 0.0000 0.0000 0.0000 9.5340 0.0000 0.0000
# 5 0.0000 0.0000 0.0000 0.0000 5.5843 0.0000
# 6 0.0000 0.0000 0.0000 0.0000 0.0000 14.6270
#
#
#
# Elastic Compliance Matrix: (Units=1/GPa)
#
#
# Indices 1 2 3 4 5 6 
#
# 1 0.038353 -0.018746 -0.008130 0.000000 0.000000 0.000000
# 2 -0.018746 0.039408 -0.004924 0.000000 0.000000 0.000000
# 3 -0.008130 -0.004924 0.009376 0.000000 0.000000 0.000000
# 4 0.000000 0.000000 0.000000 0.104887 0.000000 0.000000
# 5 0.000000 0.000000 0.000000 0.000000 0.179073 0.000000
# 6 0.000000 0.000000 0.000000 0.000000 0.000000 0.068367
#
#
# Mechanical properties :
#
#
# Convention : Reuss Voigt Hill
#
# Bulk Modulus (GPa) = 42.48795 71.11761 56.80278
# Shear Modulus (GPa) = 9.78644 15.41127 12.59885
#
# Velocity S-wave (km/s) = 2.37940 2.98590 2.69973
# Velocity P-wave (km/s) = 5.66820 7.28215 6.52526
#
# Compressibility (1/GPa) = 0.02353608
#
# Stress axis : x y z
#
# Youngs Moduli (GPa) = 26.07326 25.37570 106.65079
#
# Poissons Ratio (x) = 0.47570 0.86711
# Poissons Ratio (y) = 0.48877 0.52518
# Poissons Ratio (z) = 0.21198 0.12496
#
# Static dielectric constant tensor:
#      x y z
#    x 3.009710 0.000000 0.000000 
#    y 0.000000 2.916180 0.000000 
#    z 0.000000 0.000000 3.812310 
# 
# 
# High freq. dielectric constant tensor:
#      x y z
#    x 1.627280 0.000000 0.000000 
#    y 0.000000 1.631660 0.000000 
#    z 0.000000 0.000000 1.695000 
# 
# From -- ./inp_files/33039.got.cif
#   From: 2010.03.12/outbox.cif.g09.slc.cpg/sg47_17_cif.got.tgz:33039.got - 2010.04.14 03:12:58.
