data_PCOD8200673
_publ_section_title
;
Structure prediction by ZEFSAII (Michael W. Deem and Ramdas Pophale) SiO2 
 PCOD8200673
Probable space group: P M M M
;
_chemical_formula_sum "Si O2"
_cell_formula_units_Z 52
_cell_length_a 9.385274
_cell_length_b 28.281895
_cell_length_c 15.283472
_cell_angle_alpha 90.000000
_cell_angle_beta 90.000000
_cell_angle_gamma 90.000000
_cell_volume 4056.742925
_symmetry_space_group_name_H-M "P M M M"
_symmetry_group_IT_number 47
_symmetry_cell_setting 'orthorhombic'
loop_
_space_group_symop_operation_xyz
x,y,z
-x,-y,z
x,-y,-z
-x,y,-z
-x,-y,-z
x,y,-z
-x,y,z
x,-y,z
loop_
_atom_site_type_symbol
_atom_site_label
_atom_site_fract_x
_atom_site_fract_y
_atom_site_fract_z
Si Si1 0.668900 0.000000 0.595674
Si Si2 0.165972 0.553699 0.259290
Si Si3 0.838796 0.810311 0.395608
Si Si4 0.339527 0.898546 0.604762
Si Si5 0.165141 0.630467 0.600621
Si Si6 0.661236 0.278686 0.395960
Si Si7 0.339500 0.443823 0.904096
O O1 0.711210 0.049765 0.642848
O O2 0.500000 0.000000 0.584563
O O3 0.741416 0.000000 0.500000
O O4 0.216561 0.500000 0.278128
O O5 0.206658 0.584343 0.343914
O O6 0.241103 0.575975 0.173614
O O7 0.000000 0.555479 0.239458
O O8 0.838085 0.809812 0.500000
O O9 0.766926 0.858427 0.359852
O O10 0.748138 0.766178 0.358878
O O11 0.000000 0.807191 0.359835
O O12 0.337158 0.900897 0.500000
O O13 0.500000 0.886374 0.636249
O O14 0.199287 0.618372 0.500000
O O15 0.259753 0.673870 0.635318
O O16 0.000000 0.644469 0.612442
O O17 0.659654 0.276545 0.500000
O O18 0.500000 0.277890 0.359055
O O19 0.500000 0.426334 0.887024
O O20 0.332465 0.500000 0.903629
O O21 0.287555 0.425575 0.000000
#
# Coordination Sequence:
#
# PCOD8200673 Si02
#       7
#     4   8   8   8   8   8   8
#     4   7  10  16  25  35  47  65  87 109 135 171
#     4   9  17  27  39  56  74  91 112 135 159 191
#     4   9  15  21  29  41  55  69  87 115 152 189
#     4   8  12  18  27  37  49  66  88 112 139 175
#     4   9  17  28  39  50  67  90 112 135 164 196
#     4   9  16  25  36  47  57  72  98 130 160 190
#     4   8  14  25  40  56  73  92 111 131 158 190
#
# _framework density 12.818165
#
# number of rings (size 3 to 8) (size 9 to 14) (size 15 to 20)
#    0.000    3.462    0.000    2.308    0.000    4.923 
#    0.000    3.462    0.000    2.308    0.000    4.308 
#    0.000    0.000    0.000    0.000    0.000    0.000 
#
# Total GULP energy -644288.820213 kJ/mol
# GULP energy per Si atom -12390.169619 kJ/mol
# Density = 1.278899 g / cm^3
# Si number density = 12.818165 Si / 1000 Ang^3
#
#
#
# Elastic Constant Matrix: (Units=GPa)
#
#
# Indices 1 2 3 4 5 6 
#
# 1 75.3992 52.7779 24.8271 0.0000 0.0000 0.0000
# 2 52.7779 97.3951 30.7238 0.0000 0.0000 0.0000
# 3 24.8271 30.7238 38.6790 0.0000 0.0000 0.0000
# 4 0.0000 0.0000 0.0000 0.4979 0.0000 0.0000
# 5 0.0000 0.0000 0.0000 0.0000 11.5050 0.0000
# 6 0.0000 0.0000 0.0000 0.0000 0.0000 20.6613
#
#
#
# Elastic Compliance Matrix: (Units=1/GPa)
#
#
# Indices 1 2 3 4 5 6 
#
# 1 0.022476 -0.010179 -0.006341 0.000000 0.000000 0.000000
# 2 -0.010179 0.018311 -0.008011 0.000000 0.000000 0.000000
# 3 -0.006341 -0.008011 0.036287 0.000000 0.000000 0.000000
# 4 0.000000 0.000000 0.000000 2.008386 0.000000 0.000000
# 5 0.000000 0.000000 0.000000 0.000000 0.086918 0.000000
# 6 0.000000 0.000000 0.000000 0.000000 0.000000 0.048400
#
#
# Mechanical properties :
#
#
# Convention : Reuss Voigt Hill
#
# Bulk Modulus (GPa) = 35.69968 47.57010 41.63489
# Shear Modulus (GPa) = 2.19377 13.40916 7.80147
#
# Velocity S-wave (km/s) = 1.30965 3.23787 2.46971
# Velocity P-wave (km/s) = 5.49529 7.15335 6.37843
#
# Compressibility (1/GPa) = 0.02801146
#
# Stress axis : x y z
#
# Youngs Moduli (GPa) = 44.49194 54.61319 27.55800
#
# Poissons Ratio (x) = 0.55592 0.17475
# Poissons Ratio (y) = 0.45290 0.22076
# Poissons Ratio (z) = 0.28213 0.43749
#
# Static dielectric constant tensor:
#      x y z
#    x 2.692470 0.000000 0.000000 
#    y 0.000000 2.751510 0.000000 
#    z 0.000000 0.000000 2.228940 
# 
# 
# High freq. dielectric constant tensor:
#      x y z
#    x 1.491010 0.000000 0.000000 
#    y 0.000000 1.484070 0.000000 
#    z 0.000000 0.000000 1.413830 
# 
# From -- ./inp_files/21986.got.cif
#   From: 2010.03.12/outbox.cif.g09.slc.cpg/sg47_11_cif.got.tgz:21986.got - 2010.04.14 03:12:58.
