data_PCOD8200681
_publ_section_title
;
Structure prediction by ZEFSAII (Michael W. Deem and Ramdas Pophale) SiO2 
 PCOD8200681
Probable space group: P M M M
;
_chemical_formula_sum "Si O2"
_cell_formula_units_Z 60
_cell_length_a 14.228971
_cell_length_b 19.663615
_cell_length_c 15.356975
_cell_angle_alpha 90.000000
_cell_angle_beta 90.000000
_cell_angle_gamma 90.000000
_cell_volume 4296.774223
_symmetry_space_group_name_H-M "P M M M"
_symmetry_group_IT_number 47
_symmetry_cell_setting 'orthorhombic'
loop_
_space_group_symop_operation_xyz
x,y,z
-x,-y,z
x,-y,-z
-x,y,-z
-x,-y,-z
x,y,-z
-x,y,z
x,-y,z
loop_
_atom_site_type_symbol
_atom_site_label
_atom_site_fract_x
_atom_site_fract_y
_atom_site_fract_z
Si Si1 0.888796 0.713946 0.252304
Si Si2 0.395631 0.080516 0.249726
Si Si3 0.899146 0.420677 0.000000
Si Si4 0.108396 0.188888 0.401380
Si Si5 0.891519 0.189919 0.901574
Si Si6 0.112756 0.575145 0.812895
Si Si7 0.739611 0.921704 0.598782
Si Si8 0.740415 0.078205 0.098709
O O1 0.851516 0.751771 0.338654
O O2 0.854935 0.752812 0.165210
O O3 0.852184 0.635335 0.251466
O O4 0.000000 0.712590 0.254485
O O5 0.500000 0.113133 0.249537
O O6 0.341426 0.104966 0.336582
O O7 0.340906 0.104836 0.163266
O O8 0.404188 0.000000 0.250058
O O9 0.845793 0.404573 0.909055
O O10 0.919943 0.500000 0.000000
O O11 0.000000 0.381427 0.000000
O O12 0.121158 0.215040 0.500000
O O13 0.165369 0.120011 0.384252
O O14 0.000000 0.171980 0.380545
O O15 0.834642 0.120766 0.885051
O O16 0.000000 0.171671 0.884628
O O17 0.875767 0.217303 0.000000
O O18 0.148709 0.500000 0.782328
O O19 0.000000 0.573565 0.819531
O O20 0.703069 0.911740 0.500000
O O21 0.764847 0.000000 0.617861
O O22 0.766056 0.000000 0.118740
O O23 0.703203 0.087118 0.000000
#
# Coordination Sequence:
#
# PCOD8200681 Si02
#       8
#     8   8   4   8   8   8   8   8
#     4   9  16  24  35  49  68  94 122 154 189 222
#     4   9  17  28  41  56  73  92 116 151 193 231
#     4   7  10  16  26  42  62  82 105 137 178 215
#     4   9  17  28  40  54  73  98 128 158 186 217
#     4   9  17  26  36  53  75  98 125 156 190 225
#     4   8  13  20  31  47  66  89 118 152 187 219
#     4   9  17  28  42  59  76  94 119 153 192 232
#     4   9  17  28  40  53  71  97 129 161 187 215
#
# _framework density 13.963964000000001
#
# number of rings (size 3 to 8) (size 9 to 14) (size 15 to 20)
#    0.000    3.267    0.000    1.600    0.933    1.067 
#    0.000    5.333    0.000    5.200    0.000    2.800 
#    0.000    0.000    0.000    0.000    0.000   10.667 
#
# Total GULP energy -743377.712335 kJ/mol
# GULP energy per Si atom -12389.628539 kJ/mol
# Density = 1.393218 g / cm^3
# Si number density = 13.963964 Si / 1000 Ang^3
#
#
#
# Elastic Constant Matrix: (Units=GPa)
#
#
# Indices 1 2 3 4 5 6 
#
# 1 52.2236 28.2142 38.0800 0.0000 0.0000 0.0000
# 2 28.2142 78.9913 49.0093 0.0000 0.0000 0.0000
# 3 38.0800 49.0093 94.5744 0.0000 0.0000 0.0000
# 4 0.0000 0.0000 0.0000 19.6296 0.0000 0.0000
# 5 0.0000 0.0000 0.0000 0.0000 16.1153 0.0000
# 6 0.0000 0.0000 0.0000 0.0000 0.0000 1.7513
#
#
#
# Elastic Compliance Matrix: (Units=1/GPa)
#
#
# Indices 1 2 3 4 5 6 
#
# 1 0.028130 -0.004451 -0.009020 0.000000 0.000000 0.000000
# 2 -0.004451 0.019363 -0.008242 0.000000 0.000000 0.000000
# 3 -0.009020 -0.008242 0.018477 0.000000 0.000000 0.000000
# 4 0.000000 0.000000 0.000000 0.050943 0.000000 0.000000
# 5 0.000000 0.000000 0.000000 0.000000 0.062053 0.000000
# 6 0.000000 0.000000 0.000000 0.000000 0.000000 0.571012
#
#
# Mechanical properties :
#
#
# Convention : Reuss Voigt Hill
#
# Bulk Modulus (GPa) = 44.35792 50.71071 47.53431
# Shear Modulus (GPa) = 6.24283 14.86495 10.55389
#
# Velocity S-wave (km/s) = 2.11669 3.26624 2.75215
# Velocity P-wave (km/s) = 6.14889 7.11468 6.64934
#
# Compressibility (1/GPa) = 0.02254389
#
# Stress axis : x y z
#
# Youngs Moduli (GPa) = 35.54885 51.64458 54.12280
#
# Poissons Ratio (x) = 0.22989 0.48818
# Poissons Ratio (y) = 0.15824 0.44607
# Poissons Ratio (z) = 0.32065 0.42565
#
# Static dielectric constant tensor:
#      x y z
#    x 2.464230 0.000000 0.000000 
#    y 0.000000 2.754820 0.000000 
#    z 0.000000 0.000000 3.031140 
# 
# 
# High freq. dielectric constant tensor:
#      x y z
#    x 1.478870 0.000000 0.000000 
#    y 0.000000 1.512360 0.000000 
#    z 0.000000 0.000000 1.543400 
# 
# From -- ./inp_files/23107.got.cif
#   From: 2010.03.12/outbox.cif.g09.slc.cpg/sg47_12_cif.got.tgz:23107.got - 2010.04.14 03:12:58.
