data_PCOD8200508
_publ_section_title
;
Structure prediction by ZEFSAII (Michael W. Deem and Ramdas Pophale) SiO2 
 PCOD8200508
Probable space group: P M M M
;
_chemical_formula_sum "Si O2"
_cell_formula_units_Z 48
_cell_length_a 9.043732
_cell_length_b 29.493640
_cell_length_c 9.976498
_cell_angle_alpha 90.000000
_cell_angle_beta 90.000000
_cell_angle_gamma 90.000000
_cell_volume 2661.057010
_symmetry_space_group_name_H-M "P M M M"
_symmetry_group_IT_number 47
_symmetry_cell_setting 'orthorhombic'
loop_
_space_group_symop_operation_xyz
x,y,z
-x,-y,z
x,-y,-z
-x,y,-z
-x,-y,-z
x,y,-z
-x,y,z
x,-y,z
loop_
_atom_site_type_symbol
_atom_site_label
_atom_site_fract_x
_atom_site_fract_y
_atom_site_fract_z
Si Si1 0.664912 0.947198 0.500000
Si Si2 0.824955 0.195049 0.348717
Si Si3 0.335140 0.363867 0.159351
Si Si4 0.175858 0.904212 0.744276
Si Si5 0.675701 0.052886 0.000000
Si Si6 0.833816 0.549773 0.159398
Si Si7 0.175125 0.273383 0.846923
O O1 0.500000 0.924431 0.500000
O O2 0.762350 0.934571 0.373604
O O3 0.640335 0.000000 0.500000
O O4 0.759502 0.199546 0.500000
O O5 0.777959 0.147575 0.283441
O O6 0.762962 0.234388 0.251544
O O7 0.000000 0.198207 0.356802
O O8 0.500000 0.358797 0.216494
O O9 0.266442 0.410116 0.220346
O O10 0.240716 0.320674 0.205874
O O11 0.335389 0.366785 0.000000
O O12 0.255554 0.921322 0.875684
O O13 0.000000 0.909979 0.756667
O O14 0.500000 0.058166 0.000000
O O15 0.721204 0.000000 0.000000
O O16 0.773638 0.500000 0.203891
O O17 0.000000 0.556436 0.213309
O O18 0.834052 0.552791 0.000000
O O19 0.000000 0.277099 0.839355
O O20 0.225347 0.262755 0.000000
#
# Coordination Sequence:
#
# PCOD8200508 Si02
#       7
#     4   8   8   8   4   8   8
#     4  11  23  39  59  83 115 151 181 213 262 323
#     4   9  18  34  55  80 106 130 164 215 265 305
#     4   9  16  25  37  57  89 123 158 203 249 292
#     4  11  22  38  62  88 112 140 181 229 268 311
#     4  11  25  43  59  81 117 153 181 215 266 323
#     4   8  13  21  34  53  80 117 160 201 241 292
#     4   9  17  29  49  71  93 128 168 202 246 305
#
# _framework density 18.037946000000002
#
# number of rings (size 3 to 8) (size 9 to 14) (size 15 to 20)
#    0.000    2.500    0.833    2.500    1.167    5.667 
#    0.000    3.333    0.000    0.000    0.000    0.000 
#    0.000    0.667    0.000    7.667    0.000    9.833 
#
# Total GULP energy -594993.427978 kJ/mol
# GULP energy per Si atom -12395.696416 kJ/mol
# Density = 1.799689 g / cm^3
# Si number density = 18.037946 Si / 1000 Ang^3
#
#
#
# Elastic Constant Matrix: (Units=GPa)
#
#
# Indices 1 2 3 4 5 6 
#
# 1 66.3545 51.1681 34.3389 0.0000 0.0000 0.0000
# 2 51.1681 161.4805 65.1934 0.0000 0.0000 0.0000
# 3 34.3389 65.1934 104.2597 0.0000 0.0000 0.0000
# 4 0.0000 0.0000 0.0000 22.8065 0.0000 0.0000
# 5 0.0000 0.0000 0.0000 0.0000 7.8203 0.0000
# 6 0.0000 0.0000 0.0000 0.0000 0.0000 9.5476
#
#
#
# Elastic Compliance Matrix: (Units=1/GPa)
#
#
# Indices 1 2 3 4 5 6 
#
# 1 0.020947 -0.005153 -0.003677 0.000000 0.000000 0.000000
# 2 -0.005153 0.009552 -0.004275 0.000000 0.000000 0.000000
# 3 -0.003677 -0.004275 0.013476 0.000000 0.000000 0.000000
# 4 0.000000 0.000000 0.000000 0.043847 0.000000 0.000000
# 5 0.000000 0.000000 0.000000 0.000000 0.127873 0.000000
# 6 0.000000 0.000000 0.000000 0.000000 0.000000 0.104739
#
#
# Mechanical properties :
#
#
# Convention : Reuss Voigt Hill
#
# Bulk Modulus (GPa) = 56.29419 70.38837 63.34128
# Shear Modulus (GPa) = 14.18178 20.12783 17.15481
#
# Velocity S-wave (km/s) = 2.80700 3.34407 3.08724
# Velocity P-wave (km/s) = 6.46391 7.34966 6.92097
#
# Compressibility (1/GPa) = 0.01776382
#
# Stress axis : x y z
#
# Youngs Moduli (GPa) = 47.73945 104.69456 74.20669
#
# Poissons Ratio (x) = 0.53949 0.27285
# Poissons Ratio (y) = 0.24600 0.31726
# Poissons Ratio (z) = 0.17554 0.44761
#
# Static dielectric constant tensor:
#      x y z
#    x 3.344120 0.000000 0.000000 
#    y 0.000000 3.646990 0.000000 
#    z 0.000000 0.000000 3.132160 
# 
# 
# High freq. dielectric constant tensor:
#      x y z
#    x 1.688070 0.000000 0.000000 
#    y 0.000000 1.714240 0.000000 
#    z 0.000000 0.000000 1.660440 
# 
# From -- ./inp_files/2664.got.cif
#   From: 2010.03.12/outbox.cif.g09.slc.cpg/sg47_2_cif.got.tgz:2664.got - 2010.04.14 03:12:58.
