data_PCOD8200813
_publ_section_title
;
Structure prediction by ZEFSAII (Michael W. Deem and Ramdas Pophale) SiO2 
 PCOD8200813
Probable space group: P M M M
;
_chemical_formula_sum "Si O2"
_cell_formula_units_Z 52
_cell_length_a 9.276045
_cell_length_b 33.665942
_cell_length_c 9.575500
_cell_angle_alpha 90.000000
_cell_angle_beta 90.000000
_cell_angle_gamma 90.000000
_cell_volume 2990.302186
_symmetry_space_group_name_H-M "P M M M"
_symmetry_group_IT_number 47
_symmetry_cell_setting 'orthorhombic'
loop_
_space_group_symop_operation_xyz
x,y,z
-x,-y,z
x,-y,-z
-x,y,-z
-x,-y,-z
x,y,-z
-x,y,z
x,-y,z
loop_
_atom_site_type_symbol
_atom_site_label
_atom_site_fract_x
_atom_site_fract_y
_atom_site_fract_z
Si Si1 0.671415 0.544095 0.156599
Si Si2 0.671228 0.224832 0.156655
Si Si3 0.332381 0.847235 0.338415
Si Si4 0.830788 0.925950 0.660851
Si Si5 0.328455 0.687355 0.842955
Si Si6 0.672292 0.384359 0.342471
Si Si7 0.171405 0.000000 0.841421
O O1 0.500000 0.545547 0.157807
O O2 0.724013 0.500000 0.201714
O O3 0.733366 0.576562 0.264217
O O4 0.726363 0.553888 0.000000
O O5 0.500000 0.224397 0.163344
O O6 0.733055 0.190731 0.257419
O O7 0.725603 0.268689 0.203411
O O8 0.724660 0.215817 0.000000
O O9 0.305042 0.838745 0.500000
O O10 0.500000 0.853825 0.304695
O O11 0.248633 0.886276 0.288541
O O12 0.793211 0.936213 0.500000
O O13 0.000000 0.919302 0.679906
O O14 0.772658 0.961334 0.758750
O O15 0.500000 0.686177 0.841446
O O16 0.266642 0.654617 0.736331
O O17 0.274199 0.677836 0.000000
O O18 0.732014 0.384293 0.500000
O O19 0.500000 0.384350 0.341525
O O20 0.000000 0.000000 0.841848
O O21 0.231768 0.000000 0.000000
#
# Coordination Sequence:
#
# PCOD8200813 Si02
#       7
#     8   8   8   8   8   8   4
#     4   8  13  20  27  32  40  59  87 118 157 208
#     4   8  14  24  37  52  70  94 121 147 180 223
#     4   9  17  28  42  61  83 105 130 161 195 229
#     4   9  17  30  47  64  83 109 137 161 190 232
#     4   8  13  21  31  41  55  77 104 131 161 204
#     4   9  15  19  24  36  51  66  88 123 166 207
#     4   9  17  29  46  67  86 104 132 169 200 224
#
# _framework density 17.389548000000001
#
# number of rings (size 3 to 8) (size 9 to 14) (size 15 to 20)
#    0.000    3.462    0.000    2.077    0.000    4.308 
#    0.000    5.000    0.000    2.308    0.000    0.000 
#    0.000    0.000    0.000    0.000    0.000    0.000 
#
# Total GULP energy -644461.541712 kJ/mol
# GULP energy per Si atom -12393.491187 kJ/mol
# Density = 1.734997 g / cm^3
# Si number density = 17.389548 Si / 1000 Ang^3
#
#
#
# Elastic Constant Matrix: (Units=GPa)
#
#
# Indices 1 2 3 4 5 6 
#
# 1 7.9453 18.7213 12.9963 0.0000 0.0000 0.0000
# 2 18.7213 195.0546 113.2653 0.0000 0.0000 0.0000
# 3 12.9963 113.2653 129.0116 0.0000 0.0000 0.0000
# 4 0.0000 0.0000 0.0000 38.6159 0.0000 0.0000
# 5 0.0000 0.0000 0.0000 0.0000 6.5620 0.0000
# 6 0.0000 0.0000 0.0000 0.0000 0.0000 -0.6579
#
#
#
# Elastic Compliance Matrix: (Units=1/GPa)
#
#
# Indices 1 2 3 4 5 6 
#
# 1 0.164554 -0.012583 -0.005530 0.000000 0.000000 0.000000
# 2 -0.012583 0.011421 -0.008759 0.000000 0.000000 0.000000
# 3 -0.005530 -0.008759 0.015999 0.000000 0.000000 0.000000
# 4 0.000000 0.000000 0.000000 0.025896 0.000000 0.000000
# 5 0.000000 0.000000 0.000000 0.000000 0.152393 0.000000
# 6 0.000000 0.000000 0.000000 0.000000 0.000000 -1.520033
#
#
# Mechanical properties :
#
#
# Convention : Reuss Voigt Hill
#
# Bulk Modulus (GPa) = 7.23435 69.10859 38.17147
# Shear Modulus (GPa) = -4.76213 21.37257 8.30522
#
# Velocity S-wave (km/s) = -1.65664 3.50958 2.18777
# Velocity P-wave (km/s) = 0.71410 7.50004 5.32731
#
# Compressibility (1/GPa) = 0.13822948
#
# Stress axis : x y z
#
# Youngs Moduli (GPa) = 6.07704 87.55872 62.50553
#
# Poissons Ratio (x) = 1.10173 0.34564
# Poissons Ratio (y) = 0.07647 0.54751
# Poissons Ratio (z) = 0.03360 0.76696
#
# Static dielectric constant tensor:
#      x y z
#    x 2.474630 0.000000 0.000000 
#    y 0.000000 3.664010 0.000000 
#    z 0.000000 0.000000 3.410340 
# 
# 
# High freq. dielectric constant tensor:
#      x y z
#    x 1.584170 0.000000 0.000000 
#    y 0.000000 1.690090 0.000000 
#    z 0.000000 0.000000 1.672510 
# 
# From -- ./inp_files/4780.got.cif
#   From: 2010.03.12/outbox.cif.g09.slc.cpg/sg47_3_cif.got.tgz:4780.got - 2010.04.14 03:12:58.
