data_PCOD8200956
_publ_section_title
;
Structure prediction by ZEFSAII (Michael W. Deem and Ramdas Pophale) SiO2 
 PCOD8200956
Probable space group: P M M M
;
_chemical_formula_sum "Si O2"
_cell_formula_units_Z 48
_cell_length_a 9.827058
_cell_length_b 30.628499
_cell_length_c 9.462779
_cell_angle_alpha 90.000000
_cell_angle_beta 90.000000
_cell_angle_gamma 90.000000
_cell_volume 2848.183268
_symmetry_space_group_name_H-M "P M M M"
_symmetry_group_IT_number 47
_symmetry_cell_setting 'orthorhombic'
loop_
_space_group_symop_operation_xyz
x,y,z
-x,-y,z
x,-y,-z
-x,y,-z
-x,-y,-z
x,y,-z
-x,y,z
x,-y,z
loop_
_atom_site_type_symbol
_atom_site_label
_atom_site_fract_x
_atom_site_fract_y
_atom_site_fract_z
Si Si1 0.349326 0.711650 0.832139
Si Si2 0.842079 0.788659 0.834987
Si Si3 0.838132 0.951550 0.158571
Si Si4 0.161974 0.127915 0.659197
Si Si5 0.845156 0.549944 0.335400
Si Si6 0.341283 0.385679 0.162739
O O1 0.500000 0.723888 0.774932
O O2 0.240627 0.746910 0.777408
O O3 0.307921 0.663183 0.780620
O O4 0.352728 0.711079 0.000000
O O5 0.789160 0.830235 0.747701
O O6 0.000000 0.779102 0.806371
O O7 0.814763 0.797884 0.000000
O O8 0.778272 0.915594 0.266110
O O9 0.000000 0.949297 0.158743
O O10 0.790257 0.000000 0.206450
O O11 0.785225 0.941605 0.000000
O O12 0.219753 0.130517 0.500000
O O13 0.000000 0.126054 0.657719
O O14 0.817340 0.556726 0.500000
O O15 0.817246 0.500000 0.292187
O O16 0.743629 0.580136 0.250837
O O17 0.000000 0.562677 0.298041
O O18 0.500000 0.395850 0.182822
O O19 0.298661 0.390255 0.000000
#
# Coordination Sequence:
#
# PCOD8200956 Si02
#       6
#     8   8   8   8   8   8
#     4   8  15  29  47  66  89 115 143 179 221 261
#     4   9  16  26  42  62  82 108 143 177 209 251
#     4   8  13  21  33  49  71 102 139 175 210 251
#     4   9  16  24  34  51  78 109 138 172 214 255
#     4   9  19  35  51  68  94 127 160 192 226 267
#     4   9  18  32  50  73  98 121 149 189 234 277
#
# _framework density 16.852848999999999
#
# number of rings (size 3 to 8) (size 9 to 14) (size 15 to 20)
#    0.000    3.333    0.000    2.500    0.000    4.333 
#    0.000    6.667    0.000    3.500    0.000    0.000 
#    0.000    0.667    0.000    7.667    0.000    9.833 
#
# Total GULP energy -594956.544054 kJ/mol
# GULP energy per Si atom -12394.928001 kJ/mol
# Density = 1.681449 g / cm^3
# Si number density = 16.852849 Si / 1000 Ang^3
#
#
#
# Elastic Constant Matrix: (Units=GPa)
#
#
# Indices 1 2 3 4 5 6 
#
# 1 48.3360 60.7876 34.6408 0.0000 0.0000 0.0000
# 2 60.7876 151.4748 69.7641 0.0000 0.0000 0.0000
# 3 34.6408 69.7641 75.4712 0.0000 0.0000 0.0000
# 4 0.0000 0.0000 0.0000 2.2391 0.0000 0.0000
# 5 0.0000 0.0000 0.0000 0.0000 16.8121 0.0000
# 6 0.0000 0.0000 0.0000 0.0000 0.0000 -0.6219
#
#
#
# Elastic Compliance Matrix: (Units=1/GPa)
#
#
# Indices 1 2 3 4 5 6 
#
# 1 0.043624 -0.014427 -0.006688 0.000000 0.000000 0.000000
# 2 -0.014427 0.016267 -0.008415 0.000000 0.000000 0.000000
# 3 -0.006688 -0.008415 0.024098 0.000000 0.000000 0.000000
# 4 0.000000 0.000000 0.000000 0.446611 0.000000 0.000000
# 5 0.000000 0.000000 0.000000 0.000000 0.059481 0.000000
# 6 0.000000 0.000000 0.000000 0.000000 0.000000 -1.607887
#
#
# Mechanical properties :
#
#
# Convention : Reuss Voigt Hill
#
# Bulk Modulus (GPa) = 40.11070 67.29633 53.70352
# Shear Modulus (GPa) = -5.26074 11.02514 2.88220
#
# Velocity S-wave (km/s) = -1.76871 2.56051 1.30917
# Velocity P-wave (km/s) = 4.43634 6.98284 5.84983
#
# Compressibility (1/GPa) = 0.02493100
#
# Stress axis : x y z
#
# Youngs Moduli (GPa) = 22.92309 61.47440 41.49643
#
# Poissons Ratio (x) = 0.88686 0.27751
# Poissons Ratio (y) = 0.33070 0.34920
# Poissons Ratio (z) = 0.15330 0.51732
#
# Static dielectric constant tensor:
#      x y z
#    x 2.863600 0.000000 0.000000 
#    y 0.000000 3.407180 0.000000 
#    z 0.000000 0.000000 3.064830 
# 
# 
# High freq. dielectric constant tensor:
#      x y z
#    x 1.607940 0.000000 0.000000 
#    y 0.000000 1.662820 0.000000 
#    z 0.000000 0.000000 1.632080 
# 
# From -- ./inp_files/2507.got.cif
#   From: 2010.03.12/outbox.cif.g09.slc.cpg/sg47_2_cif.got.tgz:2507.got - 2010.04.14 03:12:58.
