data_PCOD8200753
_publ_section_title
;
Structure prediction by ZEFSAII (Michael W. Deem and Ramdas Pophale) SiO2 
 PCOD8200753
Probable space group: P M M M
;
_chemical_formula_sum "Si O2"
_cell_formula_units_Z 48
_cell_length_a 23.837156
_cell_length_b 9.499735
_cell_length_c 13.986567
_cell_angle_alpha 90.000000
_cell_angle_beta 90.000000
_cell_angle_gamma 90.000000
_cell_volume 3167.211454
_symmetry_space_group_name_H-M "P M M M"
_symmetry_group_IT_number 47
_symmetry_cell_setting 'orthorhombic'
loop_
_space_group_symop_operation_xyz
x,y,z
-x,-y,z
x,-y,-z
-x,y,-z
-x,-y,-z
x,y,-z
-x,y,z
x,-y,z
loop_
_atom_site_type_symbol
_atom_site_label
_atom_site_fract_x
_atom_site_fract_y
_atom_site_fract_z
Si Si1 0.231578 0.167113 0.394601
Si Si2 0.278776 0.833042 0.894401
Si Si3 0.343359 0.834256 0.711284
Si Si4 0.564752 0.662593 0.608944
Si Si5 0.061817 0.832503 0.107788
Si Si6 0.830297 0.832069 0.212627
O O1 0.220386 0.231782 0.500000
O O2 0.292937 0.213336 0.358474
O O3 0.183828 0.220895 0.320419
O O4 0.229680 0.000000 0.398687
O O5 0.327424 0.789252 0.819841
O O6 0.218361 0.776780 0.858410
O O7 0.275630 0.000000 0.898481
O O8 0.291716 0.770693 0.000000
O O9 0.399527 0.754832 0.682031
O O10 0.354288 0.000000 0.703724
O O11 0.577171 0.708994 0.500000
O O12 0.500000 0.688891 0.633738
O O13 0.580449 0.500000 0.622875
O O14 0.109690 0.770536 0.178197
O O15 0.000000 0.781148 0.141973
O O16 0.063922 0.000000 0.108867
O O17 0.073359 0.779104 0.000000
O O18 0.831245 0.000000 0.210803
#
# Coordination Sequence:
#
# PCOD8200753 Si02
#       6
#     8   8   8   8   8   8
#     4   8  13  20  30  46  67  87 108 140 181 219
#     4   8  13  21  34  53  75  95 116 148 190 229
#     4   9  16  25  40  61  79  96 122 156 189 219
#     4   9  18  31  44  58  78 103 126 148 180 222
#     4   8  12  16  22  33  50  75 110 150 184 212
#     4   8  12  17  26  40  59  85 114 144 182 223
#
# _framework density 15.155287
#
# number of rings (size 3 to 8) (size 9 to 14) (size 15 to 20)
#    0.000    3.667    0.000    4.000    0.000    3.333 
#    0.000    0.833    0.000    1.500    0.000    7.000 
#    0.000    0.000    0.000    0.000    0.000   13.333 
#
# Total GULP energy -594693.885058 kJ/mol
# GULP energy per Si atom -12389.455939 kJ/mol
# Density = 1.512079 g / cm^3
# Si number density = 15.155287 Si / 1000 Ang^3
#
#
#
# Elastic Constant Matrix: (Units=GPa)
#
#
# Indices 1 2 3 4 5 6 
#
# 1 112.7432 25.7391 73.3521 0.0000 0.0000 0.0000
# 2 25.7391 14.7095 19.5463 0.0000 0.0000 0.0000
# 3 73.3521 19.5463 141.4514 0.0000 0.0000 0.0000
# 4 0.0000 0.0000 0.0000 7.1480 0.0000 0.0000
# 5 0.0000 0.0000 0.0000 0.0000 28.0118 0.0000
# 6 0.0000 0.0000 0.0000 0.0000 0.0000 -0.4886
#
#
#
# Elastic Compliance Matrix: (Units=1/GPa)
#
#
# Indices 1 2 3 4 5 6 
#
# 1 0.018372 -0.023871 -0.006228 0.000000 0.000000 0.000000
# 2 -0.023871 0.114290 -0.003414 0.000000 0.000000 0.000000
# 3 -0.006228 -0.003414 0.010771 0.000000 0.000000 0.000000
# 4 0.000000 0.000000 0.000000 0.139900 0.000000 0.000000
# 5 0.000000 0.000000 0.000000 0.000000 0.035699 0.000000
# 6 0.000000 0.000000 0.000000 0.000000 0.000000 -2.046745
#
#
# Mechanical properties :
#
#
# Convention : Reuss Voigt Hill
#
# Bulk Modulus (GPa) = 13.08798 56.24211 34.66504
# Shear Modulus (GPa) = -3.05770 16.95201 6.94716
#
# Velocity S-wave (km/s) = -1.42196 3.34811 2.14335
# Velocity P-wave (km/s) = 2.44105 7.22063 5.38963
#
# Compressibility (1/GPa) = 0.07640600
#
# Stress axis : x y z
#
# Youngs Moduli (GPa) = 54.43178 8.74964 92.84004
#
# Poissons Ratio (x) = 0.20886 0.57824
# Poissons Ratio (y) = 1.29933 0.31700
# Poissons Ratio (z) = 0.33902 0.02988
#
# Static dielectric constant tensor:
#      x y z
#    x 3.000440 0.000000 0.000000 
#    y 0.000000 2.272070 0.000000 
#    z 0.000000 0.000000 3.324290 
# 
# 
# High freq. dielectric constant tensor:
#      x y z
#    x 1.575590 0.000000 0.000000 
#    y 0.000000 1.510600 0.000000 
#    z 0.000000 0.000000 1.581630 
# 
# From -- ./inp_files/7473.got.cif
#   From: 2010.03.12/outbox.cif.g09.slc.cpg/sg47_4_cif.got.tgz:7473.got - 2010.04.14 03:12:58.
