data_PCOD8200979
_publ_section_title
;
Structure prediction by ZEFSAII (Michael W. Deem and Ramdas Pophale) SiO2 
 PCOD8200979
Probable space group: P M M M
;
_chemical_formula_sum "Si O2"
_cell_formula_units_Z 44
_cell_length_a 7.535009
_cell_length_b 32.296865
_cell_length_c 9.324352
_cell_angle_alpha 90.000000
_cell_angle_beta 90.000000
_cell_angle_gamma 90.000000
_cell_volume 2269.147900
_symmetry_space_group_name_H-M "P M M M"
_symmetry_group_IT_number 47
_symmetry_cell_setting 'orthorhombic'
loop_
_space_group_symop_operation_xyz
x,y,z
-x,-y,z
x,-y,-z
-x,y,-z
-x,-y,-z
x,y,-z
-x,y,z
x,-y,z
loop_
_atom_site_type_symbol
_atom_site_label
_atom_site_fract_x
_atom_site_fract_y
_atom_site_fract_z
Si Si1 0.710233 0.000000 0.161388
Si Si2 0.289075 0.622064 0.160622
Si Si3 0.000000 0.856837 0.669349
Si Si4 0.295545 0.080114 0.332233
Si Si5 0.710984 0.545734 0.660892
Si Si6 0.703481 0.297572 0.332069
Si Si7 0.000000 0.234902 0.330375
O O1 0.776187 0.959450 0.245228
O O2 0.500000 0.000000 0.158644
O O3 0.788116 0.000000 0.000000
O O4 0.500000 0.619800 0.159160
O O5 0.209463 0.580767 0.234539
O O6 0.227199 0.662080 0.248982
O O7 0.212487 0.624956 0.000000
O O8 0.177482 0.880973 0.717860
O O9 0.000000 0.810994 0.739554
O O10 0.000000 0.852462 0.500000
O O11 0.270446 0.070299 0.500000
O O12 0.500000 0.090520 0.296438
O O13 0.781209 0.553911 0.500000
O O14 0.500000 0.548061 0.661059
O O15 0.772728 0.500000 0.713003
O O16 0.726923 0.306781 0.500000
O O17 0.500000 0.286809 0.294173
O O18 0.823036 0.259039 0.280831
O O19 0.000000 0.230924 0.500000
#
# Coordination Sequence:
#
# PCOD8200979 Si02
#       7
#     4   8   4   8   8   8   4
#     4   9  17  30  49  72  99 131 166 203 237 272
#     4   9  16  25  39  61  89 120 155 194 233 277
#     4   9  18  31  48  73 100 123 155 200 242 283
#     4   9  17  30  49  72  99 131 163 196 237 282
#     4   8  13  21  34  55  86 122 156 190 229 275
#     4   9  17  30  49  70  92 120 153 192 237 281
#     4   9  18  32  50  74  98 119 154 200 240 284
#
# _framework density 19.390540000000001
#
# number of rings (size 3 to 8) (size 9 to 14) (size 15 to 20)
#    0.000    3.182    0.000    1.364    0.000    4.727 
#    0.000    8.182    0.000    2.182    0.000    5.727 
#    0.000    5.091    0.000    0.545    0.000    0.000 
#
# Total GULP energy -545419.844979 kJ/mol
# GULP energy per Si atom -12395.905568 kJ/mol
# Density = 1.934641 g / cm^3
# Si number density = 19.390540 Si / 1000 Ang^3
#
#
#
# Elastic Constant Matrix: (Units=GPa)
#
#
# Indices 1 2 3 4 5 6 
#
# 1 74.7762 62.7761 26.0916 0.0000 0.0000 0.0000
# 2 62.7761 209.6632 72.6302 0.0000 0.0000 0.0000
# 3 26.0916 72.6302 82.3063 0.0000 0.0000 0.0000
# 4 0.0000 0.0000 0.0000 6.8906 0.0000 0.0000
# 5 0.0000 0.0000 0.0000 0.0000 3.9574 0.0000
# 6 0.0000 0.0000 0.0000 0.0000 0.0000 -42.7032
#
#
#
# Elastic Compliance Matrix: (Units=1/GPa)
#
#
# Indices 1 2 3 4 5 6 
#
# 1 0.017970 -0.004907 -0.001366 0.000000 0.000000 0.000000
# 2 -0.004907 0.008209 -0.005689 0.000000 0.000000 0.000000
# 3 -0.001366 -0.005689 0.017603 0.000000 0.000000 0.000000
# 4 0.000000 0.000000 0.000000 0.145126 0.000000 0.000000
# 5 0.000000 0.000000 0.000000 0.000000 0.252694 0.000000
# 6 0.000000 0.000000 0.000000 0.000000 0.000000 -0.023417
#
#
# Mechanical properties :
#
#
# Convention : Reuss Voigt Hill
#
# Bulk Modulus (GPa) = 50.35851 76.63796 63.49823
# Shear Modulus (GPa) = 11.14262 7.31214 9.22738
#
# Velocity S-wave (km/s) = 2.39977 1.94401 2.18381
# Velocity P-wave (km/s) = 5.80565 6.68192 6.25914
#
# Compressibility (1/GPa) = 0.01985762
#
# Stress axis : x y z
#
# Youngs Moduli (GPa) = 55.64979 121.81075 56.80896
#
# Poissons Ratio (x) = 0.59773 0.07762
# Poissons Ratio (y) = 0.27307 0.32317
# Poissons Ratio (z) = 0.07603 0.69295
#
# Static dielectric constant tensor:
#      x y z
#    x 3.296820 0.000000 0.000000 
#    y 0.000000 3.837550 0.000000 
#    z 0.000000 0.000000 3.461940 
# 
# 
# High freq. dielectric constant tensor:
#      x y z
#    x 1.739800 0.000000 0.000000 
#    y 0.000000 1.755180 0.000000 
#    z 0.000000 0.000000 1.724930 
# 
# From -- ./inp_files/2364.got.cif
#   From: 2010.03.12/outbox.cif.g09.slc.cpg/sg47_2_cif.got.tgz:2364.got - 2010.04.14 03:12:58.
