data_PCOD8200822
_publ_section_title
;
Structure prediction by ZEFSAII (Michael W. Deem and Ramdas Pophale) SiO2 
 PCOD8200822
Probable space group: P M M M
;
_chemical_formula_sum "Si O2"
_cell_formula_units_Z 48
_cell_length_a 9.366524
_cell_length_b 10.076550
_cell_length_c 31.149453
_cell_angle_alpha 90.000000
_cell_angle_beta 90.000000
_cell_angle_gamma 90.000000
_cell_volume 2939.955380
_symmetry_space_group_name_H-M "P M M M"
_symmetry_group_IT_number 47
_symmetry_cell_setting 'orthorhombic'
loop_
_space_group_symop_operation_xyz
x,y,z
-x,-y,z
x,-y,-z
-x,y,-z
-x,-y,-z
x,y,-z
-x,y,z
x,-y,z
loop_
_atom_site_type_symbol
_atom_site_label
_atom_site_fract_x
_atom_site_fract_y
_atom_site_fract_z
Si Si1 0.160977 0.341695 0.708185
Si Si2 0.339019 0.658355 0.373057
Si Si3 0.160278 0.342187 0.452475
Si Si4 0.669859 0.148413 0.952067
Si Si5 0.341010 0.657723 0.212379
Si Si6 0.329752 0.351899 0.117533
O O1 0.160238 0.500000 0.708429
O O2 0.249425 0.288278 0.667445
O O3 0.234425 0.285850 0.751501
O O4 0.000000 0.286368 0.705655
O O5 0.500000 0.713273 0.370052
O O6 0.339195 0.500000 0.373330
O O7 0.267449 0.715004 0.416619
O O8 0.209464 0.294662 0.500000
O O9 0.160842 0.500000 0.450654
O O10 0.000000 0.290931 0.442846
O O11 0.500000 0.152003 0.949957
O O12 0.735423 0.251887 0.917852
O O13 0.723830 0.000000 0.940916
O O14 0.720634 0.188470 0.000000
O O15 0.500000 0.715876 0.220480
O O16 0.349243 0.500000 0.215051
O O17 0.283642 0.697922 0.165050
O O18 0.500000 0.355017 0.115513
O O19 0.270175 0.500000 0.108306
#
# Coordination Sequence:
#
# PCOD8200822 Si02
#       6
#     8   8   8   8   8   8
#     4   9  15  21  29  40  54  72  94 121 156 200
#     4   9  15  20  26  36  49  66  90 120 155 198
#     4   8  13  20  27  33  43  61  86 119 160 202
#     4   8  13  20  29  43  66  94 119 143 174 211
#     4   8  13  21  31  42  58  79 102 129 162 200
#     4   8  13  20  30  44  62  87 117 144 172 210
#
# _framework density 16.326778999999998
#
# number of rings (size 3 to 8) (size 9 to 14) (size 15 to 20)
#    0.000    3.667    0.000    3.000    0.000    4.667 
#    0.000    3.333    0.000    0.000    0.000    0.000 
#    0.000    1.333    0.000    8.333    0.000    9.667 
#
# Total GULP energy -594758.999964 kJ/mol
# GULP energy per Si atom -12390.812499 kJ/mol
# Density = 1.628962 g / cm^3
# Si number density = 16.326779 Si / 1000 Ang^3
#
#
#
# Elastic Constant Matrix: (Units=GPa)
#
#
# Indices 1 2 3 4 5 6 
#
# 1 88.3533 16.8462 71.4728 0.0000 0.0000 0.0000
# 2 16.8462 26.6000 40.8520 0.0000 0.0000 0.0000
# 3 71.4728 40.8520 176.8893 0.0000 0.0000 0.0000
# 4 0.0000 0.0000 0.0000 1.5329 0.0000 0.0000
# 5 0.0000 0.0000 0.0000 0.0000 11.0220 0.0000
# 6 0.0000 0.0000 0.0000 0.0000 0.0000 1.8759
#
#
#
# Elastic Compliance Matrix: (Units=1/GPa)
#
#
# Indices 1 2 3 4 5 6 
#
# 1 0.016816 -0.000333 -0.006718 0.000000 0.000000 0.000000
# 2 -0.000333 0.058264 -0.013321 0.000000 0.000000 0.000000
# 3 -0.006718 -0.013321 0.011444 0.000000 0.000000 0.000000
# 4 0.000000 0.000000 0.000000 0.652371 0.000000 0.000000
# 5 0.000000 0.000000 0.000000 0.000000 0.090728 0.000000
# 6 0.000000 0.000000 0.000000 0.000000 0.000000 0.533068
#
#
# Mechanical properties :
#
#
# Convention : Reuss Voigt Hill
#
# Bulk Modulus (GPa) = 21.84364 61.13163 41.48763
# Shear Modulus (GPa) = 3.52437 13.73093 8.62765
#
# Velocity S-wave (km/s) = 1.47083 2.90316 2.30127
# Velocity P-wave (km/s) = 4.03640 6.98295 5.70325
#
# Compressibility (1/GPa) = 0.04577992
#
# Stress axis : x y z
#
# Youngs Moduli (GPa) = 59.46767 17.16336 87.38163
#
# Poissons Ratio (x) = 0.00571 0.58700
# Poissons Ratio (y) = 0.01980 1.16404
# Poissons Ratio (z) = 0.39948 0.22864
#
# Static dielectric constant tensor:
#      x y z
#    x 2.949870 0.000000 0.000000 
#    y 0.000000 2.507720 0.000000 
#    z 0.000000 0.000000 3.528310 
# 
# 
# High freq. dielectric constant tensor:
#      x y z
#    x 1.597490 0.000000 0.000000 
#    y 0.000000 1.540720 0.000000 
#    z 0.000000 0.000000 1.649450 
# 
# From -- ./inp_files/4700.got.cif
#   From: 2010.03.12/outbox.cif.g09.slc.cpg/sg47_3_cif.got.tgz:4700.got - 2010.04.14 03:12:58.
