data_PCOD8200275
_publ_section_title
;
Structure prediction by ZEFSAII (Michael W. Deem and Ramdas Pophale) SiO2 
 PCOD8200275
Probable space group: P M M M
;
_chemical_formula_sum "Si O2"
_cell_formula_units_Z 52
_cell_length_a 9.084334
_cell_length_b 13.759141
_cell_length_c 26.716334
_cell_angle_alpha 90.000000
_cell_angle_beta 90.000000
_cell_angle_gamma 90.000000
_cell_volume 3339.344915
_symmetry_space_group_name_H-M "P M M M"
_symmetry_group_IT_number 47
_symmetry_cell_setting 'orthorhombic'
loop_
_space_group_symop_operation_xyz
x,y,z
-x,-y,z
x,-y,-z
-x,y,-z
-x,-y,-z
x,y,-z
-x,y,z
x,-y,z
loop_
_atom_site_type_symbol
_atom_site_label
_atom_site_fract_x
_atom_site_fract_y
_atom_site_fract_z
Si Si1 0.329903 0.390366 0.617730
Si Si2 0.672086 0.210300 0.445452
Si Si3 0.326486 0.612375 0.793748
Si Si4 0.825029 0.715646 0.704960
Si Si5 0.337909 0.384979 0.905546
Si Si6 0.836551 0.383822 0.000000
Si Si7 0.673908 0.110997 0.653774
O O1 0.500000 0.377451 0.634229
O O2 0.295681 0.500000 0.600928
O O3 0.292788 0.320954 0.570963
O O4 0.229457 0.363062 0.664728
O O5 0.746834 0.190688 0.500000
O O6 0.500000 0.194421 0.451481
O O7 0.729896 0.136805 0.402589
O O8 0.500000 0.630482 0.785991
O O9 0.289022 0.500000 0.782117
O O10 0.231367 0.682380 0.758934
O O11 0.277678 0.640303 0.850270
O O12 0.758608 0.821941 0.693335
O O13 0.000000 0.721468 0.704516
O O14 0.500000 0.340008 0.912437
O O15 0.347400 0.500000 0.910805
O O16 0.237828 0.341499 0.949706
O O17 0.832327 0.500000 0.000000
O O18 0.000000 0.342860 0.000000
O O19 0.500000 0.131604 0.658170
O O20 0.713315 0.000000 0.665599
#
# Coordination Sequence:
#
# PCOD8200275 Si02
#       7
#     8   8   8   8   8   4   8
#     4   9  17  29  44  61  84 115 146 172 200 240
#     4   8  14  25  43  69  93 106 126 167 212 248
#     4   9  17  29  44  61  83 113 148 183 216 250
#     4  11  21  30  43  63  86 110 137 173 214 255
#     4   8  14  24  37  52  72 104 145 182 213 246
#     4   9  15  21  31  49  75 107 142 181 218 247
#     4   9  18  33  51  67  83 106 135 166 205 255
#
# _framework density 15.571916999999999
#
# number of rings (size 3 to 8) (size 9 to 14) (size 15 to 20)
#    0.000    3.000    0.000    3.923    0.000    4.923 
#    0.000    4.615    0.000    7.385    0.000    8.615 
#    0.000    0.000    0.000    0.692    0.000   13.462 
#
# Total GULP energy -644476.277552 kJ/mol
# GULP energy per Si atom -12393.774568 kJ/mol
# Density = 1.553647 g / cm^3
# Si number density = 15.571917 Si / 1000 Ang^3
#
#
#
# Elastic Constant Matrix: (Units=GPa)
#
#
# Indices 1 2 3 4 5 6 
#
# 1 75.3256 34.2338 55.6325 0.0000 0.0000 0.0000
# 2 34.2338 77.8267 39.3124 0.0000 0.0000 0.0000
# 3 55.6325 39.3124 126.3831 0.0000 0.0000 0.0000
# 4 0.0000 0.0000 0.0000 13.4843 0.0000 0.0000
# 5 0.0000 0.0000 0.0000 0.0000 5.3177 0.0000
# 6 0.0000 0.0000 0.0000 0.0000 0.0000 11.8812
#
#
#
# Elastic Compliance Matrix: (Units=1/GPa)
#
#
# Indices 1 2 3 4 5 6 
#
# 1 0.021520 -0.005554 -0.007745 0.000000 0.000000 0.000000
# 2 -0.005554 0.016678 -0.002743 0.000000 0.000000 0.000000
# 3 -0.007745 -0.002743 0.012175 0.000000 0.000000 0.000000
# 4 0.000000 0.000000 0.000000 0.074160 0.000000 0.000000
# 5 0.000000 0.000000 0.000000 0.000000 0.188052 0.000000
# 6 0.000000 0.000000 0.000000 0.000000 0.000000 0.084166
#
#
# Mechanical properties :
#
#
# Convention : Reuss Voigt Hill
#
# Bulk Modulus (GPa) = 54.67884 59.76587 57.22235
# Shear Modulus (GPa) = 11.49604 16.16043 13.82824
#
# Velocity S-wave (km/s) = 2.72003 3.22497 2.98321
# Velocity P-wave (km/s) = 6.71228 7.23403 6.97803
#
# Compressibility (1/GPa) = 0.01828861
#
# Stress axis : x y z
#
# Youngs Moduli (GPa) = 46.46802 59.96089 82.13461
#
# Poissons Ratio (x) = 0.33300 0.63617
# Poissons Ratio (y) = 0.25807 0.22530
# Poissons Ratio (z) = 0.35991 0.16447
#
# Static dielectric constant tensor:
#      x y z
#    x 2.845820 0.000000 0.000000 
#    y 0.000000 2.713820 0.000000 
#    z 0.000000 0.000000 3.164720 
# 
# 
# High freq. dielectric constant tensor:
#      x y z
#    x 1.578670 0.000000 0.000000 
#    y 0.000000 1.555920 0.000000 
#    z 0.000000 0.000000 1.599750 
# 
# From -- ./inp_files/33401.got.cif
#   From: 2010.03.12/outbox.cif.g09.slc.cpg/sg47_17_cif.got.tgz:33401.got - 2010.04.14 03:12:58.
