data_PCOD8200492
_publ_section_title
;
Structure prediction by ZEFSAII (Michael W. Deem and Ramdas Pophale) SiO2 
 PCOD8200492
Probable space group: P M M M
;
_chemical_formula_sum "Si O2"
_cell_formula_units_Z 52
_cell_length_a 21.431405
_cell_length_b 14.573977
_cell_length_c 9.064884
_cell_angle_alpha 90.000000
_cell_angle_beta 90.000000
_cell_angle_gamma 90.000000
_cell_volume 2831.333153
_symmetry_space_group_name_H-M "P M M M"
_symmetry_group_IT_number 47
_symmetry_cell_setting 'orthorhombic'
loop_
_space_group_symop_operation_xyz
x,y,z
-x,-y,z
x,-y,-z
-x,y,-z
-x,-y,-z
x,y,-z
-x,y,z
x,-y,z
loop_
_atom_site_type_symbol
_atom_site_label
_atom_site_fract_x
_atom_site_fract_y
_atom_site_fract_z
Si Si1 0.069604 0.646583 0.831389
Si Si2 0.375246 0.105841 0.825650
Si Si3 0.195874 0.603658 0.669546
Si Si4 0.500000 0.891580 0.664707
Si Si5 0.262560 0.764295 0.172732
Si Si6 0.930593 0.137159 0.163566
Si Si7 0.818835 0.100101 0.335082
O O1 0.125927 0.606362 0.734929
O O2 0.071597 0.754600 0.816065
O O3 0.000000 0.611894 0.780667
O O4 0.080915 0.615981 0.000000
O O5 0.438664 0.141138 0.750889
O O6 0.323980 0.180351 0.772246
O O7 0.358486 0.000000 0.778952
O O8 0.383838 0.109822 0.000000
O O9 0.191599 0.634225 0.500000
O O10 0.221017 0.500000 0.685467
O O11 0.248165 0.667838 0.747839
O O12 0.500000 0.849385 0.500000
O O13 0.500000 0.000000 0.657110
O O14 0.206482 0.832056 0.211099
O O15 0.265086 0.745056 0.000000
O O16 0.890959 0.088804 0.291700
O O17 0.000000 0.099731 0.183357
O O18 0.905972 0.110622 0.000000
O O19 0.811258 0.140854 0.500000
O O20 0.786459 0.000000 0.327693
#
# Coordination Sequence:
#
# PCOD8200492 Si02
#       7
#     8   8   8   4   8   8   8
#     4   9  18  34  56  79 100 126 165 215 272 331
#     4   9  18  33  54  81 114 150 184 218 256 297
#     4  11  24  39  55  78 107 137 171 216 274 335
#     4   9  17  29  49  81 118 153 186 217 249 292
#     4  11  22  37  57  79 104 139 182 223 261 308
#     4   9  18  33  52  72  94 125 167 213 261 313
#     4  11  23  35  49  73 104 136 170 211 261 315
#
# _framework density 18.365905999999999
#
# number of rings (size 3 to 8) (size 9 to 14) (size 15 to 20)
#    0.000    2.077    1.538    3.000    0.000    6.462 
#    0.000    6.154    0.000    0.000    0.000    0.538 
#    0.000    4.308    0.000    0.000    0.000    0.000 
#
# Total GULP energy -644372.321178 kJ/mol
# GULP energy per Si atom -12391.775407 kJ/mol
# Density = 1.832410 g / cm^3
# Si number density = 18.365906 Si / 1000 Ang^3
#
#
#
# Elastic Constant Matrix: (Units=GPa)
#
#
# Indices 1 2 3 4 5 6 
#
# 1 112.2974 43.7678 48.0392 0.0000 0.0000 0.0000
# 2 43.7678 91.1899 36.9000 0.0000 0.0000 0.0000
# 3 48.0392 36.9000 77.0149 0.0000 0.0000 0.0000
# 4 0.0000 0.0000 0.0000 34.8297 0.0000 0.0000
# 5 0.0000 0.0000 0.0000 0.0000 17.5051 0.0000
# 6 0.0000 0.0000 0.0000 0.0000 0.0000 9.4119
#
#
#
# Elastic Compliance Matrix: (Units=1/GPa)
#
#
# Indices 1 2 3 4 5 6 
#
# 1 0.013076 -0.003691 -0.006388 0.000000 0.000000 0.000000
# 2 -0.003691 0.014646 -0.004715 0.000000 0.000000 0.000000
# 3 -0.006388 -0.004715 0.019228 0.000000 0.000000 0.000000
# 4 0.000000 0.000000 0.000000 0.028711 0.000000 0.000000
# 5 0.000000 0.000000 0.000000 0.000000 0.057126 0.000000
# 6 0.000000 0.000000 0.000000 0.000000 0.000000 0.106248
#
#
# Mechanical properties :
#
#
# Convention : Reuss Voigt Hill
#
# Bulk Modulus (GPa) = 57.59643 59.76846 58.68245
# Shear Modulus (GPa) = 18.22088 22.46901 20.34494
#
# Velocity S-wave (km/s) = 3.15318 3.50152 3.33191
# Velocity P-wave (km/s) = 6.68471 6.99724 6.84276
#
# Compressibility (1/GPa) = 0.01736219
#
# Stress axis : x y z
#
# Youngs Moduli (GPa) = 76.47454 68.28000 52.00749
#
# Poissons Ratio (x) = 0.25204 0.33222
# Poissons Ratio (y) = 0.28229 0.24520
# Poissons Ratio (z) = 0.48851 0.32192
#
# Static dielectric constant tensor:
#      x y z
#    x 3.490050 0.000000 0.000000 
#    y 0.000000 3.301780 0.000000 
#    z 0.000000 0.000000 3.396820 
# 
# 
# High freq. dielectric constant tensor:
#      x y z
#    x 1.693460 0.000000 0.000000 
#    y 0.000000 1.697270 0.000000 
#    z 0.000000 0.000000 1.713450 
# 
# From -- ./inp_files/11035.got.cif
#   From: 2010.03.12/outbox.cif.g09.slc.cpg/sg47_6_cif.got.tgz:11035.got - 2010.04.14 03:12:58.
