data_PCOD8200195
_publ_section_title
;
Structure prediction by ZEFSAII (Michael W. Deem and Ramdas Pophale) SiO2 
 PCOD8200195
Probable space group: P M M M
;
_chemical_formula_sum "Si O2"
_cell_formula_units_Z 52
_cell_length_a 15.242546
_cell_length_b 19.821341
_cell_length_c 11.548229
_cell_angle_alpha 90.000000
_cell_angle_beta 90.000000
_cell_angle_gamma 90.000000
_cell_volume 3489.039890
_symmetry_space_group_name_H-M "P M M M"
_symmetry_group_IT_number 47
_symmetry_cell_setting 'orthorhombic'
loop_
_space_group_symop_operation_xyz
x,y,z
-x,-y,z
x,-y,-z
-x,y,-z
-x,-y,-z
x,y,-z
-x,y,z
x,-y,z
loop_
_atom_site_type_symbol
_atom_site_label
_atom_site_fract_x
_atom_site_fract_y
_atom_site_fract_z
Si Si1 0.901570 0.424896 0.137953
Si Si2 0.000000 0.923201 0.136672
Si Si3 0.604463 0.920951 0.500000
Si Si4 0.218814 0.691491 0.134551
Si Si5 0.829499 0.841190 0.135964
Si Si6 0.597975 0.000000 0.122211
Si Si7 0.402771 0.258730 0.134946
Si Si8 0.345407 0.872485 0.256073
O O1 0.873318 0.500000 0.178494
O O2 0.833788 0.370536 0.193900
O O3 0.000000 0.408637 0.182434
O O4 0.901105 0.421105 0.000000
O O5 0.083393 0.879692 0.177404
O O6 0.000000 0.000000 0.188521
O O7 0.000000 0.928941 0.000000
O O8 0.500000 0.913157 0.500000
O O9 0.647006 0.880800 0.606773
O O10 0.631121 0.000000 0.500000
O O11 0.166836 0.760952 0.161203
O O12 0.321554 0.693383 0.175137
O O13 0.218266 0.676734 0.000000
O O14 0.754899 0.871898 0.216340
O O15 0.809649 0.853735 0.000000
O O16 0.611254 0.063799 0.200111
O O17 0.500000 0.000000 0.081025
O O18 0.653375 0.000000 0.000000
O O19 0.500000 0.292135 0.152271
O O20 0.398720 0.192337 0.212654
O O21 0.388708 0.238703 0.000000
#
# Coordination Sequence:
#
# PCOD8200195 Si02
#       8
#     8   4   4   8   8   4   8   8
#     4   8  13  20  32  52  79 112 144 169 194 232
#     4   9  18  28  40  59  84 108 130 169 223 266
#     4  11  22  34  44  57  79 109 140 174 219 265
#     4   8  14  23  36  55  78 105 137 171 205 243
#     4   9  18  30  44  64  84 108 140 175 220 264
#     4  11  20  27  41  62  80 100 126 167 220 262
#     4   9  16  27  42  59  79 103 134 171 212 256
#     4  11  20  31  44  58  80 106 137 175 211 259
#
# _framework density 14.903812
#
# number of rings (size 3 to 8) (size 9 to 14) (size 15 to 20)
#    0.000    2.692    0.769    4.154    2.154    1.231 
#    0.000    0.000    0.000    0.923    0.000    4.308 
#    0.000    0.000    0.000   11.077    0.000   68.615 
#
# Total GULP energy -644204.781419 kJ/mol
# GULP energy per Si atom -12388.553489 kJ/mol
# Density = 1.486989 g / cm^3
# Si number density = 14.903812 Si / 1000 Ang^3
#
#
#
# Elastic Constant Matrix: (Units=GPa)
#
#
# Indices 1 2 3 4 5 6 
#
# 1 127.2614 69.6090 21.9682 0.0000 0.0000 0.0000
# 2 69.6090 99.4698 19.5579 0.0000 0.0000 0.0000
# 3 21.9682 19.5579 59.3814 0.0000 0.0000 0.0000
# 4 0.0000 0.0000 0.0000 -8.2904 0.0000 0.0000
# 5 0.0000 0.0000 0.0000 0.0000 20.6096 0.0000
# 6 0.0000 0.0000 0.0000 0.0000 0.0000 109.6957
#
#
#
# Elastic Compliance Matrix: (Units=1/GPa)
#
#
# Indices 1 2 3 4 5 6 
#
# 1 0.012934 -0.008672 -0.001929 0.000000 0.000000 0.000000
# 2 -0.008672 0.016564 -0.002247 0.000000 0.000000 0.000000
# 3 -0.001929 -0.002247 0.018294 0.000000 0.000000 0.000000
# 4 0.000000 0.000000 0.000000 -0.120621 0.000000 0.000000
# 5 0.000000 0.000000 0.000000 0.000000 0.048521 0.000000
# 6 0.000000 0.000000 0.000000 0.000000 0.000000 0.009116
#
#
# Mechanical properties :
#
#
# Convention : Reuss Voigt Hill
#
# Bulk Modulus (GPa) = 45.25737 56.48699 50.87218
# Shear Modulus (GPa) = 279.79327 36.06814 157.93070
#
# Velocity S-wave (km/s) = 13.71642 4.92475 10.30518
# Velocity P-wave (km/s) = 16.77158 8.38575 13.25909
#
# Compressibility (1/GPa) = 0.02209585
#
# Stress axis : x y z
#
# Youngs Moduli (GPa) = 77.31403 60.37211 54.66273
#
# Poissons Ratio (x) = 0.52356 0.10543
# Poissons Ratio (y) = 0.67048 0.12284
# Poissons Ratio (z) = 0.14912 0.13567
#
# Static dielectric constant tensor:
#      x y z
#    x 3.261430 0.000000 0.000000 
#    y 0.000000 -6.106130 0.000000 
#    z 0.000000 0.000000 2.534330 
# 
# 
# High freq. dielectric constant tensor:
#      x y z
#    x 1.579690 0.000000 0.000000 
#    y 0.000000 1.558300 0.000000 
#    z 0.000000 0.000000 1.513220 
# 
# From -- ./inp_files/18005.got.cif
#   From: 2010.03.12/outbox.cif.g09.slc.cpg/sg47_10_cif.got.tgz:18005.got - 2010.04.14 03:12:58.
