data_PCOD8200680
_publ_section_title
;
Structure prediction by ZEFSAII (Michael W. Deem and Ramdas Pophale) SiO2 
 PCOD8200680
Probable space group: P M M M
;
_chemical_formula_sum "Si O2"
_cell_formula_units_Z 52
_cell_length_a 9.676890
_cell_length_b 32.794649
_cell_length_c 9.926288
_cell_angle_alpha 90.000000
_cell_angle_beta 90.000000
_cell_angle_gamma 90.000000
_cell_volume 3150.109591
_symmetry_space_group_name_H-M "P M M M"
_symmetry_group_IT_number 47
_symmetry_cell_setting 'orthorhombic'
loop_
_space_group_symop_operation_xyz
x,y,z
-x,-y,z
x,-y,-z
-x,y,-z
-x,-y,-z
x,y,-z
-x,y,z
x,-y,z
loop_
_atom_site_type_symbol
_atom_site_label
_atom_site_fract_x
_atom_site_fract_y
_atom_site_fract_z
Si Si1 0.151017 0.000000 0.340265
Si Si2 0.340776 0.602063 0.346036
Si Si3 0.659708 0.303599 0.346037
Si Si4 0.160072 0.453200 0.154417
Si Si5 0.165826 0.912421 0.651344
Si Si6 0.835758 0.155717 0.149250
Si Si7 0.160311 0.752668 0.843118
O O1 0.225041 0.042938 0.300212
O O2 0.133277 0.000000 0.500000
O O3 0.000000 0.000000 0.271701
O O4 0.305841 0.590838 0.500000
O O5 0.500000 0.592621 0.314821
O O6 0.307903 0.649218 0.318850
O O7 0.248513 0.575241 0.249380
O O8 0.696325 0.292302 0.500000
O O9 0.500000 0.294083 0.316769
O O10 0.752004 0.277772 0.245908
O O11 0.196487 0.500000 0.186005
O O12 0.000000 0.444688 0.183321
O O13 0.195836 0.442919 0.000000
O O14 0.215894 0.902486 0.500000
O O15 0.227120 0.877348 0.747663
O O16 0.000000 0.913838 0.656091
O O17 0.792005 0.201273 0.192451
O O18 0.000000 0.153224 0.147996
O O19 0.778685 0.145834 0.000000
O O20 0.000000 0.746427 0.807850
O O21 0.187255 0.743550 0.000000
#
# Coordination Sequence:
#
# PCOD8200680 Si02
#       7
#     4   8   8   8   8   8   8
#     4   7  10  16  25  39  61  89 124 167 208 245
#     4   9  19  35  52  71  96 124 154 189 229 272
#     4   9  19  35  51  68  93 122 151 187 230 272
#     4   9  19  35  52  72 100 130 158 190 227 265
#     4   8  12  18  29  44  63  92 131 170 207 250
#     4   8  14  24  35  49  74 104 132 169 215 256
#     4   9  18  31  46  66  91 118 150 187 226 270
#
# _framework density 16.507363000000002
#
# number of rings (size 3 to 8) (size 9 to 14) (size 15 to 20)
#    0.000    3.462    0.000    3.231    0.000    3.692 
#    0.000    8.846    0.000    2.308    0.000    0.000 
#    0.000    0.000    0.000    0.692    0.000   14.308 
#
# Total GULP energy -644376.743428 kJ/mol
# GULP energy per Si atom -12391.860451 kJ/mol
# Density = 1.646979 g / cm^3
# Si number density = 16.507363 Si / 1000 Ang^3
#
#
#
# Elastic Constant Matrix: (Units=GPa)
#
#
# Indices 1 2 3 4 5 6 
#
# 1 49.8306 61.1526 55.4213 0.0000 0.0000 0.0000
# 2 61.1526 135.0070 96.6894 0.0000 0.0000 0.0000
# 3 55.4213 96.6894 111.5139 0.0000 0.0000 0.0000
# 4 0.0000 0.0000 0.0000 56.6629 0.0000 0.0000
# 5 0.0000 0.0000 0.0000 0.0000 24.7055 0.0000
# 6 0.0000 0.0000 0.0000 0.0000 0.0000 -16.7025
#
#
#
# Elastic Compliance Matrix: (Units=1/GPa)
#
#
# Indices 1 2 3 4 5 6 
#
# 1 0.052816 -0.013520 -0.014526 0.000000 0.000000 0.000000
# 2 -0.013520 0.023003 -0.013226 0.000000 0.000000 0.000000
# 3 -0.014526 -0.013226 0.027655 0.000000 0.000000 0.000000
# 4 0.000000 0.000000 0.000000 0.017648 0.000000 0.000000
# 5 0.000000 0.000000 0.000000 0.000000 0.040477 0.000000
# 6 0.000000 0.000000 0.000000 0.000000 0.000000 -0.059871
#
#
# Mechanical properties :
#
#
# Convention : Reuss Voigt Hill
#
# Bulk Modulus (GPa) = 47.77995 80.31979 64.04987
# Shear Modulus (GPa) = 26.14413 18.47240 22.30826
#
# Velocity S-wave (km/s) = 3.98400 3.34883 3.68015
# Velocity P-wave (km/s) = 7.08311 7.98220 7.54606
#
# Compressibility (1/GPa) = 0.02092928
#
# Stress axis : x y z
#
# Youngs Moduli (GPa) = 18.93375 43.47255 36.16035
#
# Poissons Ratio (x) = 0.58774 0.52528
# Poissons Ratio (y) = 0.25598 0.47825
# Poissons Ratio (z) = 0.27504 0.57496
#
# Static dielectric constant tensor:
#      x y z
#    x 2.656920 0.000000 0.000000 
#    y 0.000000 3.324000 0.000000 
#    z 0.000000 0.000000 3.128830 
# 
# 
# High freq. dielectric constant tensor:
#      x y z
#    x 1.587640 0.000000 0.000000 
#    y 0.000000 1.648270 0.000000 
#    z 0.000000 0.000000 1.631900 
# 
# From -- ./inp_files/15451.got.cif
#   From: 2010.03.12/outbox.cif.g09.slc.cpg/sg47_8_cif.got.tgz:15451.got - 2010.04.14 03:12:58.
