data_PCOD8200427
_publ_section_title
;
Structure prediction by ZEFSAII (Michael W. Deem and Ramdas Pophale) SiO2 
 PCOD8200427
Probable space group: P M M M
;
_chemical_formula_sum "Si O2"
_cell_formula_units_Z 64
_cell_length_a 20.749185
_cell_length_b 13.782782
_cell_length_c 13.947945
_cell_angle_alpha 90.000000
_cell_angle_beta 90.000000
_cell_angle_gamma 90.000000
_cell_volume 3988.854143
_symmetry_space_group_name_H-M "P M M M"
_symmetry_group_IT_number 47
_symmetry_cell_setting 'orthorhombic'
loop_
_space_group_symop_operation_xyz
x,y,z
-x,-y,z
x,-y,-z
-x,y,-z
-x,-y,-z
x,y,-z
-x,y,z
x,-y,z
loop_
_atom_site_type_symbol
_atom_site_label
_atom_site_fract_x
_atom_site_fract_y
_atom_site_fract_z
Si Si1 0.269571 0.889291 0.608954
Si Si2 0.688526 0.790438 0.788928
Si Si3 0.117076 0.610452 0.109443
Si Si4 0.731798 0.389491 0.890998
Si Si5 0.072147 0.794627 0.791421
Si Si6 0.881974 0.888948 0.391130
Si Si7 0.426691 0.888131 0.110260
Si Si8 0.808338 0.113951 0.106835
O O1 0.289013 0.865641 0.500000
O O2 0.307342 0.812471 0.675572
O O3 0.193809 0.876126 0.624409
O O4 0.289041 0.000000 0.634869
O O5 0.694196 0.676792 0.814358
O O6 0.619193 0.824561 0.824106
O O7 0.747172 0.846585 0.837653
O O8 0.100786 0.500000 0.138432
O O9 0.192642 0.631189 0.118358
O O10 0.080805 0.681060 0.183244
O O11 0.094564 0.629892 0.000000
O O12 0.715625 0.500000 0.864547
O O13 0.709508 0.366798 0.000000
O O14 0.081235 0.813852 0.677974
O O15 0.123394 0.859062 0.847903
O O16 0.000000 0.826008 0.821034
O O17 0.901413 0.863538 0.500000
O O18 0.901726 0.000000 0.367326
O O19 0.500000 0.854898 0.128580
O O20 0.418033 0.000000 0.138087
O O21 0.407540 0.871927 0.000000
O O22 0.801996 0.000000 0.106428
O O23 0.806503 0.157567 0.000000
#
# Coordination Sequence:
#
# PCOD8200427 Si02
#       8
#     8   8   8   8   8   8   8   8
#     4   9  17  29  48  74  98 120 156 207 252 287
#     4  12  18  29  54  73  93 130 167 200 239 287
#     4   9  18  34  52  68  90 121 159 201 242 290
#     4   9  17  29  48  74  98 120 156 207 252 287
#     4  12  23  33  47  67  93 125 157 196 245 290
#     4   9  18  34  52  68  90 121 159 201 242 290
#     4   9  18  30  44  70 107 140 169 197 227 275
#     4  11  22  32  44  68  96 121 155 193 232 288
#
# _framework density 16.044709000000001
#
# number of rings (size 3 to 8) (size 9 to 14) (size 15 to 20)
#    0.000    2.000    2.500    4.875    0.000    3.500 
#    0.000    1.875    0.000    1.500    0.000    7.875 
#    0.000    0.000    0.000    1.125    0.000    0.375 
#
# Total GULP energy -793516.707920 kJ/mol
# GULP energy per Si atom -12398.698561 kJ/mol
# Density = 1.600819 g / cm^3
# Si number density = 16.044709 Si / 1000 Ang^3
#
#
#
# Elastic Constant Matrix: (Units=GPa)
#
#
# Indices 1 2 3 4 5 6 
#
# 1 66.6028 28.9574 32.5858 0.0000 0.0000 0.0000
# 2 28.9574 79.6041 52.7204 0.0000 0.0000 0.0000
# 3 32.5858 52.7204 97.6421 0.0000 0.0000 0.0000
# 4 0.0000 0.0000 0.0000 28.0118 0.0000 0.0000
# 5 0.0000 0.0000 0.0000 0.0000 15.5398 0.0000
# 6 0.0000 0.0000 0.0000 0.0000 0.0000 16.2479
#
#
#
# Elastic Compliance Matrix: (Units=1/GPa)
#
#
# Indices 1 2 3 4 5 6 
#
# 1 0.018796 -0.004177 -0.004018 0.000000 0.000000 0.000000
# 2 -0.004177 0.020483 -0.009666 0.000000 0.000000 0.000000
# 3 -0.004018 -0.009666 0.016801 0.000000 0.000000 0.000000
# 4 0.000000 0.000000 0.000000 0.035699 0.000000 0.000000
# 5 0.000000 0.000000 0.000000 0.000000 0.064351 0.000000
# 6 0.000000 0.000000 0.000000 0.000000 0.000000 0.061547
#
#
# Mechanical properties :
#
#
# Convention : Reuss Voigt Hill
#
# Bulk Modulus (GPa) = 49.11525 52.48627 50.80076
# Shear Modulus (GPa) = 19.21727 20.59891 19.90809
#
# Velocity S-wave (km/s) = 3.46458 3.58696 3.52630
# Velocity P-wave (km/s) = 6.83245 7.06673 6.95058
#
# Compressibility (1/GPa) = 0.02036027
#
# Stress axis : x y z
#
# Youngs Moduli (GPa) = 53.20309 48.82147 59.52009
#
# Poissons Ratio (x) = 0.20391 0.23913
# Poissons Ratio (y) = 0.22221 0.57530
# Poissons Ratio (z) = 0.21375 0.47189
#
# Static dielectric constant tensor:
#      x y z
#    x 2.835310 0.000000 0.000000 
#    y 0.000000 3.037750 0.000000 
#    z 0.000000 0.000000 3.127050 
# 
# 
# High freq. dielectric constant tensor:
#      x y z
#    x 1.595390 0.000000 0.000000 
#    y 0.000000 1.605430 0.000000 
#    z 0.000000 0.000000 1.606650 
# 
# From -- ./inp_files/24814.got.cif
#   From: 2010.03.12/outbox.cif.g09.slc.cpg/sg47_13_cif.got.tgz:24814.got - 2010.04.14 03:12:58.
