data_PCOD8200464
_publ_section_title
;
Structure prediction by ZEFSAII (Michael W. Deem and Ramdas Pophale) SiO2 
 PCOD8200464
Probable space group: P M M M
;
_chemical_formula_sum "Si O2"
_cell_formula_units_Z 40
_cell_length_a 21.150593
_cell_length_b 11.492106
_cell_length_c 9.980987
_cell_angle_alpha 90.000000
_cell_angle_beta 90.000000
_cell_angle_gamma 90.000000
_cell_volume 2426.027175
_symmetry_space_group_name_H-M "P M M M"
_symmetry_group_IT_number 47
_symmetry_cell_setting 'orthorhombic'
loop_
_space_group_symop_operation_xyz
x,y,z
-x,-y,z
x,-y,-z
-x,y,-z
-x,-y,-z
x,y,-z
-x,y,z
x,-y,z
loop_
_atom_site_type_symbol
_atom_site_label
_atom_site_fract_x
_atom_site_fract_y
_atom_site_fract_z
Si Si1 0.425200 0.368188 0.500000
Si Si2 0.107969 0.861636 0.350571
Si Si3 0.572372 0.362524 0.000000
Si Si4 0.627456 0.763753 0.247696
Si Si5 0.574171 0.000000 0.849399
Si Si6 0.750171 0.867053 0.656993
Si Si7 0.000000 0.861215 0.153132
O O1 0.398822 0.500000 0.500000
O O2 0.500000 0.369733 0.500000
O O3 0.400692 0.300193 0.373501
O O4 0.088926 0.815707 0.500000
O O5 0.178931 0.821249 0.314223
O O6 0.060993 0.814411 0.235328
O O7 0.105780 0.000000 0.355117
O O8 0.612161 0.318787 0.875326
O O9 0.569906 0.500000 0.000000
O O10 0.500000 0.313000 0.000000
O O11 0.702792 0.783086 0.262237
O O12 0.595218 0.888540 0.233692
O O13 0.500000 0.000000 0.861648
O O14 0.603752 0.000000 0.000000
O O15 0.734622 0.860407 0.500000
O O16 0.742314 0.000000 0.707306
O O17 0.000000 0.000000 0.149126
O O18 0.000000 0.812597 0.000000
#
# Coordination Sequence:
#
# PCOD8200464 Si02
#       7
#     4   8   4   8   4   8   4
#     4  11  24  39  55  77 101 129 171 220 268 315
#     4   8  14  25  42  58  86 129 170 195 226 285
#     4  11  24  41  57  71  93 133 177 214 260 317
#     4  12  21  36  56  76 102 132 166 215 263 313
#     4  11  22  35  51  75 103 130 165 210 261 317
#     4   9  17  31  47  71 101 132 163 200 250 308
#     4   9  15  23  35  61  91 123 166 211 236 257
#
# _framework density 16.487860999999999
#
# number of rings (size 3 to 8) (size 9 to 14) (size 15 to 20)
#    0.000    2.000    3.000    3.900    0.000    3.200 
#    1.800    1.000    0.000    0.000    0.000    0.000 
#    0.000    0.000    0.000    5.400    0.000    0.700 
#
# Total GULP energy -495860.292644 kJ/mol
# GULP energy per Si atom -12396.507316 kJ/mol
# Density = 1.645033 g / cm^3
# Si number density = 16.487861 Si / 1000 Ang^3
#
#
#
# Elastic Constant Matrix: (Units=GPa)
#
#
# Indices 1 2 3 4 5 6 
#
# 1 126.4190 31.8251 69.9211 0.0000 0.0000 0.0000
# 2 31.8251 70.6357 43.8928 0.0000 0.0000 0.0000
# 3 69.9211 43.8928 138.0280 0.0000 0.0000 0.0000
# 4 0.0000 0.0000 0.0000 31.8940 0.0000 0.0000
# 5 0.0000 0.0000 0.0000 0.0000 28.7372 0.0000
# 6 0.0000 0.0000 0.0000 0.0000 0.0000 148.0616
#
#
#
# Elastic Compliance Matrix: (Units=1/GPa)
#
#
# Indices 1 2 3 4 5 6 
#
# 1 0.011189 -0.001893 -0.005066 0.000000 0.000000 0.000000
# 2 -0.001893 0.017964 -0.004753 0.000000 0.000000 0.000000
# 3 -0.005066 -0.004753 0.011323 0.000000 0.000000 0.000000
# 4 0.000000 0.000000 0.000000 0.031354 0.000000 0.000000
# 5 0.000000 0.000000 0.000000 0.000000 0.034798 0.000000
# 6 0.000000 0.000000 0.000000 0.000000 0.000000 0.006754
#
#
# Mechanical properties :
#
#
# Convention : Reuss Voigt Hill
#
# Bulk Modulus (GPa) = 58.64995 69.59563 64.12279
# Shear Modulus (GPa) = 35.09027 54.36813 44.72920
#
# Velocity S-wave (km/s) = 4.61830 5.74858 5.21416
# Velocity P-wave (km/s) = 8.00544 9.29320 8.67325
#
# Compressibility (1/GPa) = 0.01705031
#
# Stress axis : x y z
#
# Youngs Moduli (GPa) = 89.37626 55.66709 88.31802
#
# Poissons Ratio (x) = 0.10539 0.44740
# Poissons Ratio (y) = 0.16921 0.41982
# Poissons Ratio (z) = 0.45276 0.26461
#
# Static dielectric constant tensor:
#      x y z
#    x 3.324500 0.000000 0.000000 
#    y 0.000000 2.822640 0.000000 
#    z 0.000000 0.000000 3.248460 
# 
# 
# High freq. dielectric constant tensor:
#      x y z
#    x 1.638960 0.000000 0.000000 
#    y 0.000000 1.587960 0.000000 
#    z 0.000000 0.000000 1.641640 
# 
# From -- ./inp_files/10757.got.cif
#   From: 2010.03.12/outbox.cif.g09.slc.cpg/sg47_6_cif.got.tgz:10757.got - 2010.04.14 03:12:58.
