data_PCOD8200269
_publ_section_title
;
Structure prediction by ZEFSAII (Michael W. Deem and Ramdas Pophale) SiO2 
 PCOD8200269
Probable space group: P M M M
;
_chemical_formula_sum "Si O2"
_cell_formula_units_Z 52
_cell_length_a 9.072972
_cell_length_b 26.475004
_cell_length_c 13.711426
_cell_angle_alpha 90.000000
_cell_angle_beta 90.000000
_cell_angle_gamma 90.000000
_cell_volume 3293.580094
_symmetry_space_group_name_H-M "P M M M"
_symmetry_group_IT_number 47
_symmetry_cell_setting 'orthorhombic'
loop_
_space_group_symop_operation_xyz
x,y,z
-x,-y,z
x,-y,-z
-x,y,-z
-x,-y,-z
x,y,-z
-x,y,z
x,-y,z
loop_
_atom_site_type_symbol
_atom_site_label
_atom_site_fract_x
_atom_site_fract_y
_atom_site_fract_z
Si Si1 0.325183 0.297960 0.713179
Si Si2 0.830591 0.208698 0.390026
Si Si3 0.170868 0.500000 0.386896
Si Si4 0.827319 0.750939 0.111498
Si Si5 0.173938 0.609496 0.385150
Si Si6 0.673942 0.056532 0.890541
Si Si7 0.831040 0.145495 0.791861
O O1 0.500000 0.298168 0.716718
O O2 0.271647 0.255597 0.637455
O O3 0.263031 0.287626 0.821376
O O4 0.267400 0.351659 0.677620
O O5 0.796187 0.191502 0.500000
O O6 0.799358 0.161095 0.320084
O O7 0.000000 0.226520 0.377468
O O8 0.203416 0.500000 0.500000
O O9 0.231019 0.553887 0.347218
O O10 0.000000 0.500000 0.365309
O O11 0.783453 0.808383 0.137969
O O12 0.000000 0.742777 0.131630
O O13 0.784814 0.740156 0.000000
O O14 0.206214 0.616731 0.500000
O O15 0.000000 0.616674 0.365596
O O16 0.500000 0.060415 0.886866
O O17 0.738206 0.095912 0.813934
O O18 0.724755 0.000000 0.861252
O O19 0.729990 0.068995 0.000000
O O20 0.000000 0.131537 0.809273
#
# Coordination Sequence:
#
# PCOD8200269 Si02
#       7
#     8   8   4   8   8   8   8
#     4  11  21  29  41  66  96 121 147 180 219 264
#     4   9  18  33  49  63  85 119 154 185 218 257
#     4   7  12  24  43  65  84 109 150 191 221 254
#     4   9  18  33  50  66  87 116 149 183 219 262
#     4   9  16  28  46  65  88 119 153 187 221 258
#     4   9  18  31  45  63  89 119 146 171 207 260
#     4   9  17  29  47  70  89 107 139 182 223 258
#
# _framework density 15.788290999999999
#
# number of rings (size 3 to 8) (size 9 to 14) (size 15 to 20)
#    0.000    2.846    0.000    4.615    0.000    6.462 
#    0.000    1.154    0.000    1.846    0.000    3.769 
#    0.000    4.308    0.000    0.000    0.000    0.000 
#
# Total GULP energy -644505.657620 kJ/mol
# GULP energy per Si atom -12394.339570 kJ/mol
# Density = 1.575236 g / cm^3
# Si number density = 15.788291 Si / 1000 Ang^3
#
#
#
# Elastic Constant Matrix: (Units=GPa)
#
#
# Indices 1 2 3 4 5 6 
#
# 1 67.1810 54.3804 44.8479 0.0000 0.0000 0.0000
# 2 54.3804 130.8438 64.8121 0.0000 0.0000 0.0000
# 3 44.8479 64.8121 112.0825 0.0000 0.0000 0.0000
# 4 0.0000 0.0000 0.0000 23.6348 0.0000 0.0000
# 5 0.0000 0.0000 0.0000 0.0000 13.7621 0.0000
# 6 0.0000 0.0000 0.0000 0.0000 0.0000 1.9288
#
#
#
# Elastic Compliance Matrix: (Units=1/GPa)
#
#
# Indices 1 2 3 4 5 6 
#
# 1 0.024650 -0.007510 -0.005520 0.000000 0.000000 0.000000
# 2 -0.007510 0.012999 -0.004511 0.000000 0.000000 0.000000
# 3 -0.005520 -0.004511 0.013740 0.000000 0.000000 0.000000
# 4 0.000000 0.000000 0.000000 0.042310 0.000000 0.000000
# 5 0.000000 0.000000 0.000000 0.000000 0.072663 0.000000
# 6 0.000000 0.000000 0.000000 0.000000 0.000000 0.518451
#
#
# Mechanical properties :
#
#
# Convention : Reuss Voigt Hill
#
# Bulk Modulus (GPa) = 61.33488 70.90978 66.12233
# Shear Modulus (GPa) = 6.89340 17.60295 12.24817
#
# Velocity S-wave (km/s) = 2.09180 3.34269 2.78830
# Velocity P-wave (km/s) = 6.69080 7.74006 7.23448
#
# Compressibility (1/GPa) = 0.01630394
#
# Stress axis : x y z
#
# Youngs Moduli (GPa) = 40.56865 76.93027 72.78226
#
# Poissons Ratio (x) = 0.57777 0.40178
# Poissons Ratio (y) = 0.30468 0.32836
# Poissons Ratio (z) = 0.22395 0.34707
#
# Static dielectric constant tensor:
#      x y z
#    x 2.832980 0.000000 0.000000 
#    y 0.000000 3.096790 0.000000 
#    z 0.000000 0.000000 2.994270 
# 
# 
# High freq. dielectric constant tensor:
#      x y z
#    x 1.593690 0.000000 0.000000 
#    y 0.000000 1.602590 0.000000 
#    z 0.000000 0.000000 1.589130 
# 
# From -- ./inp_files/21752.got.cif
#   From: 2010.03.12/outbox.cif.g09.slc.cpg/sg47_11_cif.got.tgz:21752.got - 2010.04.14 03:12:58.
