data_PCOD8200367
_publ_section_title
;
Structure prediction by ZEFSAII (Michael W. Deem and Ramdas Pophale) SiO2 
 PCOD8200367
Probable space group: P M M M
;
_chemical_formula_sum "Si O2"
_cell_formula_units_Z 40
_cell_length_a 12.619292
_cell_length_b 8.960412
_cell_length_c 19.312440
_cell_angle_alpha 90.000000
_cell_angle_beta 90.000000
_cell_angle_gamma 90.000000
_cell_volume 2183.735912
_symmetry_space_group_name_H-M "P M M M"
_symmetry_group_IT_number 47
_symmetry_cell_setting 'orthorhombic'
loop_
_space_group_symop_operation_xyz
x,y,z
-x,-y,z
x,-y,-z
-x,y,-z
-x,-y,-z
x,y,-z
-x,y,z
x,-y,z
loop_
_atom_site_type_symbol
_atom_site_label
_atom_site_fract_x
_atom_site_fract_y
_atom_site_fract_z
Si Si1 0.500000 0.668615 0.081752
Si Si2 0.227672 0.820966 0.577692
Si Si3 0.307327 0.823838 0.154661
Si Si4 0.000000 0.162172 0.581714
Si Si5 0.877975 0.327358 0.079348
Si Si6 0.618969 0.177244 0.304283
O O1 0.500000 0.500000 0.110310
O O2 0.395385 0.751227 0.106624
O O3 0.500000 0.670503 0.000000
O O4 0.257485 0.767300 0.500000
O O5 0.315040 0.757996 0.630749
O O6 0.111235 0.755956 0.600959
O O7 0.222060 0.000000 0.579580
O O8 0.191598 0.772597 0.130471
O O9 0.324763 0.771474 0.233606
O O10 0.317581 0.000000 0.147649
O O11 0.000000 0.138714 0.500000
O O12 0.000000 0.000000 0.618411
O O13 0.848324 0.500000 0.089903
O O14 0.000000 0.298331 0.098424
O O15 0.856083 0.280898 0.000000
O O16 0.500000 0.243046 0.307137
O O17 0.614582 0.000000 0.308446
#
# Coordination Sequence:
#
# PCOD8200367 Si02
#       6
#     4   8   8   4   8   8
#     4  11  23  37  55  77  98 129 178 222 253 297
#     4   8  13  22  38  59  84 121 166 203 239 291
#     4  11  21  34  51  75 109 140 165 206 263 314
#     4   7  10  18  32  52  78 108 150 201 240 274
#     4   9  19  37  58  77 100 132 170 213 256 300
#     4   9  17  29  41  58  94 135 164 199 250 300
#
# _framework density 18.317232000000001
#
# number of rings (size 3 to 8) (size 9 to 14) (size 15 to 20)
#    0.000    2.800    1.000    3.300    0.000    4.400 
#    1.800    3.000    0.000    0.000    0.000    0.000 
#    0.000    4.000    0.000    2.200    0.000    1.600 
#
# Total GULP energy -495747.665590 kJ/mol
# GULP energy per Si atom -12393.691640 kJ/mol
# Density = 1.827554 g / cm^3
# Si number density = 18.317232 Si / 1000 Ang^3
#
#
#
# Elastic Constant Matrix: (Units=GPa)
#
#
# Indices 1 2 3 4 5 6 
#
# 1 147.9077 33.4097 84.3330 0.0000 0.0000 0.0000
# 2 33.4097 41.7100 29.5609 0.0000 0.0000 0.0000
# 3 84.3330 29.5609 118.9127 0.0000 0.0000 0.0000
# 4 0.0000 0.0000 0.0000 -1.6457 0.0000 0.0000
# 5 0.0000 0.0000 0.0000 0.0000 28.2633 0.0000
# 6 0.0000 0.0000 0.0000 0.0000 0.0000 18.2603
#
#
#
# Elastic Compliance Matrix: (Units=1/GPa)
#
#
# Indices 1 2 3 4 5 6 
#
# 1 0.011963 -0.004333 -0.007407 0.000000 0.000000 0.000000
# 2 -0.004333 0.030672 -0.004552 0.000000 0.000000 0.000000
# 3 -0.007407 -0.004552 0.014794 0.000000 0.000000 0.000000
# 4 0.000000 0.000000 0.000000 -0.607651 0.000000 0.000000
# 5 0.000000 0.000000 0.000000 0.000000 0.035382 0.000000
# 6 0.000000 0.000000 0.000000 0.000000 0.000000 0.054763
#
#
# Mechanical properties :
#
#
# Convention : Reuss Voigt Hill
#
# Bulk Modulus (GPa) = 40.24907 67.01527 53.63217
# Shear Modulus (GPa) = -11.92716 19.72403 3.89843
#
# Velocity S-wave (km/s) = -2.55452 3.28503 1.46045
# Velocity P-wave (km/s) = 3.64969 7.14520 5.67336
#
# Compressibility (1/GPa) = 0.02484530
#
# Stress axis : x y z
#
# Youngs Moduli (GPa) = 83.59125 32.60331 67.59404
#
# Poissons Ratio (x) = 0.14126 0.50067
# Poissons Ratio (y) = 0.36218 0.30769
# Poissons Ratio (z) = 0.61916 0.14841
#
# Static dielectric constant tensor:
#      x y z
#    x 3.807070 0.000000 0.000000 
#    y 0.000000 2.903480 0.000000 
#    z 0.000000 0.000000 3.402720 
# 
# 
# High freq. dielectric constant tensor:
#      x y z
#    x 1.728150 0.000000 0.000000 
#    y 0.000000 1.654790 0.000000 
#    z 0.000000 0.000000 1.702710 
# 
# From -- ./inp_files/29368.got.cif
#   From: 2010.03.12/outbox.cif.g09.slc.cpg/sg47_15_cif.got.tgz:29368.got - 2010.04.14 03:12:58.
