data_PCOD8200887
_publ_section_title
;
Structure prediction by ZEFSAII (Michael W. Deem and Ramdas Pophale) SiO2 
 PCOD8200887
Probable space group: P M M M
;
_chemical_formula_sum "Si O2"
_cell_formula_units_Z 36
_cell_length_a 23.386091
_cell_length_b 9.693659
_cell_length_c 9.607530
_cell_angle_alpha 90.000000
_cell_angle_beta 90.000000
_cell_angle_gamma 90.000000
_cell_volume 2177.996225
_symmetry_space_group_name_H-M "P M M M"
_symmetry_group_IT_number 47
_symmetry_cell_setting 'orthorhombic'
loop_
_space_group_symop_operation_xyz
x,y,z
-x,-y,z
x,-y,-z
-x,y,-z
-x,-y,-z
x,y,-z
-x,y,z
x,-y,z
loop_
_atom_site_type_symbol
_atom_site_label
_atom_site_fract_x
_atom_site_fract_y
_atom_site_fract_z
Si Si1 0.063087 0.335995 0.155815
Si Si2 0.392829 0.161419 0.661691
Si Si3 0.836675 0.335778 0.654581
Si Si4 0.500000 0.163741 0.158311
Si Si5 0.288542 0.346659 0.334539
O O1 0.067720 0.500000 0.155795
O O2 0.112840 0.271334 0.251542
O O3 0.000000 0.291959 0.210948
O O4 0.071986 0.279491 0.000000
O O5 0.406687 0.194547 0.500000
O O6 0.444666 0.215741 0.757106
O O7 0.336666 0.240371 0.716200
O O8 0.381777 0.000000 0.682648
O O9 0.844278 0.273969 0.500000
O O10 0.841113 0.500000 0.648569
O O11 0.774178 0.296374 0.717527
O O12 0.500000 0.000000 0.155266
O O13 0.500000 0.222390 0.000000
O O14 0.286111 0.352225 0.500000
O O15 0.302718 0.500000 0.276613
#
# Coordination Sequence:
#
# PCOD8200887 Si02
#       5
#     8   8   8   4   8
#     4   8  13  20  29  43  66  95 124 154 188 223
#     4   9  16  27  45  65  80  98 130 165 190 221
#     4   8  13  21  33  48  67  94 125 152 181 222
#     4   9  17  29  44  61  82 106 128 155 196 236
#     4   8  14  25  40  58  81 106 129 156 193 233
#
# _framework density 16.528953999999999
#
# number of rings (size 3 to 8) (size 9 to 14) (size 15 to 20)
#    0.000    3.667    0.000    2.333    0.000    1.778 
#    0.000    3.889    0.000    5.333    0.000    0.000 
#    0.000    0.889    0.000   11.111    0.000   12.889 
#
# Total GULP energy -446062.191597 kJ/mol
# GULP energy per Si atom -12390.616433 kJ/mol
# Density = 1.649133 g / cm^3
# Si number density = 16.528954 Si / 1000 Ang^3
#
#
#
# Elastic Constant Matrix: (Units=GPa)
#
#
# Indices 1 2 3 4 5 6 
#
# 1 187.6762 39.1895 74.9821 0.0000 0.0000 0.0000
# 2 39.1895 25.0640 18.6005 0.0000 0.0000 0.0000
# 3 74.9821 18.6005 73.2953 0.0000 0.0000 0.0000
# 4 0.0000 0.0000 0.0000 6.8860 0.0000 0.0000
# 5 0.0000 0.0000 0.0000 0.0000 12.5589 0.0000
# 6 0.0000 0.0000 0.0000 0.0000 0.0000 4.3072
#
#
#
# Elastic Compliance Matrix: (Units=1/GPa)
#
#
# Indices 1 2 3 4 5 6 
#
# 1 0.010990 -0.010892 -0.008479 0.000000 0.000000 0.000000
# 2 -0.010892 0.059949 -0.004071 0.000000 0.000000 0.000000
# 3 -0.008479 -0.004071 0.023351 0.000000 0.000000 0.000000
# 4 0.000000 0.000000 0.000000 0.145222 0.000000 0.000000
# 5 0.000000 0.000000 0.000000 0.000000 0.079625 0.000000
# 6 0.000000 0.000000 0.000000 0.000000 0.000000 0.232167
#
#
# Mechanical properties :
#
#
# Convention : Reuss Voigt Hill
#
# Bulk Modulus (GPa) = 21.09430 61.28663 41.19047
# Shear Modulus (GPa) = 8.14345 14.96799 11.55572
#
# Velocity S-wave (km/s) = 2.22204 3.01252 2.64696
# Velocity P-wave (km/s) = 4.40148 7.01849 5.85800
#
# Compressibility (1/GPa) = 0.04740616
#
# Stress axis : x y z
#
# Youngs Moduli (GPa) = 90.98863 16.68083 42.82468
#
# Poissons Ratio (x) = 0.18168 0.36312
# Poissons Ratio (y) = 0.99102 0.17435
# Poissons Ratio (z) = 0.77152 0.06791
#
# Static dielectric constant tensor:
#      x y z
#    x 3.556640 0.000000 0.000000 
#    y 0.000000 2.613700 0.000000 
#    z 0.000000 0.000000 3.124370 
# 
# 
# High freq. dielectric constant tensor:
#      x y z
#    x 1.655130 0.000000 0.000000 
#    y 0.000000 1.569050 0.000000 
#    z 0.000000 0.000000 1.612360 
# 
# From -- ./inp_files/3877.got.cif
#   From: 2010.03.12/outbox.cif.g09.slc.cpg/sg47_2_cif.got.tgz:3877.got - 2010.04.14 03:12:58.
