data_PCOD8200831
_publ_section_title
;
Structure prediction by ZEFSAII (Michael W. Deem and Ramdas Pophale) SiO2 
 PCOD8200831
Probable space group: P M M M
;
_chemical_formula_sum "Si O2"
_cell_formula_units_Z 44
_cell_length_a 28.014431
_cell_length_b 9.669433
_cell_length_c 9.807271
_cell_angle_alpha 90.000000
_cell_angle_beta 90.000000
_cell_angle_gamma 90.000000
_cell_volume 2656.629498
_symmetry_space_group_name_H-M "P M M M"
_symmetry_group_IT_number 47
_symmetry_cell_setting 'orthorhombic'
loop_
_space_group_symop_operation_xyz
x,y,z
-x,-y,z
x,-y,-z
-x,y,-z
-x,-y,-z
x,y,-z
-x,y,z
x,-y,z
loop_
_atom_site_type_symbol
_atom_site_label
_atom_site_fract_x
_atom_site_fract_y
_atom_site_fract_z
Si Si1 0.444827 0.659808 0.155552
Si Si2 0.810044 0.164528 0.152181
Si Si3 0.377179 0.159573 0.340250
Si Si4 0.729531 0.164522 0.651014
Si Si5 0.000000 0.834849 0.654985
Si Si6 0.083748 0.835611 0.846718
O O1 0.500000 0.693355 0.182959
O O2 0.434107 0.500000 0.185372
O O3 0.414073 0.750698 0.256668
O O4 0.431482 0.696401 0.000000
O O5 0.769797 0.229380 0.250465
O O6 0.863086 0.213511 0.196721
O O7 0.807687 0.000000 0.156953
O O8 0.799135 0.217451 0.000000
O O9 0.385720 0.183996 0.500000
O O10 0.323477 0.206447 0.299704
O O11 0.385325 0.000000 0.302308
O O12 0.739185 0.223575 0.500000
O O13 0.732917 0.000000 0.647716
O O14 0.046344 0.777553 0.735838
O O15 0.000000 0.777255 0.500000
O O16 0.000000 0.000000 0.652627
O O17 0.081404 0.000000 0.848486
O O18 0.071507 0.782019 0.000000
#
# Coordination Sequence:
#
# PCOD8200831 Si02
#       6
#     8   8   8   8   4   8
#     4   9  19  35  51  67  89 116 146 180 216 254
#     4   8  13  20  30  44  60  81 113 149 185 231
#     4   9  18  31  46  67  93 117 143 176 214 257
#     4   8  14  24  36  51  74 100 122 151 194 238
#     4   9  15  19  23  33  47  65  97 141 184 227
#     4   8  13  20  27  34  48  72 101 137 183 229
#
# _framework density 16.562338
#
# number of rings (size 3 to 8) (size 9 to 14) (size 15 to 20)
#    0.000    3.545    0.000    3.000    0.000    4.000 
#    0.000    8.182    0.000    0.000    0.000    0.000 
#    0.000    0.000    0.000    0.000    0.000    0.000 
#
# Total GULP energy -545252.683261 kJ/mol
# GULP energy per Si atom -12392.106438 kJ/mol
# Density = 1.652464 g / cm^3
# Si number density = 16.562338 Si / 1000 Ang^3
#
#
#
# Elastic Constant Matrix: (Units=GPa)
#
#
# Indices 1 2 3 4 5 6 
#
# 1 146.3695 37.7729 97.5919 0.0000 0.0000 0.0000
# 2 37.7729 22.7474 31.5362 0.0000 0.0000 0.0000
# 3 97.5919 31.5362 114.8673 0.0000 0.0000 0.0000
# 4 0.0000 0.0000 0.0000 15.2311 0.0000 0.0000
# 5 0.0000 0.0000 0.0000 0.0000 38.5793 0.0000
# 6 0.0000 0.0000 0.0000 0.0000 0.0000 -2.3737
#
#
#
# Elastic Compliance Matrix: (Units=1/GPa)
#
#
# Indices 1 2 3 4 5 6 
#
# 1 0.018215 -0.014195 -0.011579 0.000000 0.000000 0.000000
# 2 -0.014195 0.082038 -0.010463 0.000000 0.000000 0.000000
# 3 -0.011579 -0.010463 0.021416 0.000000 0.000000 0.000000
# 4 0.000000 0.000000 0.000000 0.065655 0.000000 0.000000
# 5 0.000000 0.000000 0.000000 0.000000 0.025921 0.000000
# 6 0.000000 0.000000 0.000000 0.000000 0.000000 -0.421282
#
#
# Mechanical properties :
#
#
# Convention : Reuss Voigt Hill
#
# Bulk Modulus (GPa) = 20.32708 68.64290 44.48499
# Shear Modulus (GPa) = -41.95832 18.09290 -11.93271
#
# Velocity S-wave (km/s) = -5.03871 3.30875 -2.68707
# Velocity P-wave (km/s) = 4.64238 7.49215 4.15816
#
# Compressibility (1/GPa) = 0.04919546
#
# Stress axis : x y z
#
# Youngs Moduli (GPa) = 54.89871 12.18954 46.69491
#
# Poissons Ratio (x) = 0.17303 0.54067
# Poissons Ratio (y) = 0.77928 0.48856
# Poissons Ratio (z) = 0.63566 0.12754
#
# Static dielectric constant tensor:
#      x y z
#    x 3.402430 0.000000 0.000000 
#    y 0.000000 2.420420 0.000000 
#    z 0.000000 0.000000 3.330400 
# 
# 
# High freq. dielectric constant tensor:
#      x y z
#    x 1.651980 0.000000 0.000000 
#    y 0.000000 1.558110 0.000000 
#    z 0.000000 0.000000 1.642500 
# 
# From -- ./inp_files/13672.got.cif
#   From: 2010.03.12/outbox.cif.g09.slc.cpg/sg47_7_cif.got.tgz:13672.got - 2010.04.14 03:12:58.
