data_PCOD8200702
_publ_section_title
;
Structure prediction by ZEFSAII (Michael W. Deem and Ramdas Pophale) SiO2 
 PCOD8200702
Probable space group: P M M M
;
_chemical_formula_sum "Si O2"
_cell_formula_units_Z 40
_cell_length_a 23.269259
_cell_length_b 12.790206
_cell_length_c 9.097320
_cell_angle_alpha 90.000000
_cell_angle_beta 90.000000
_cell_angle_gamma 90.000000
_cell_volume 2707.531788
_symmetry_space_group_name_H-M "P M M M"
_symmetry_group_IT_number 47
_symmetry_cell_setting 'orthorhombic'
loop_
_space_group_symop_operation_xyz
x,y,z
-x,-y,z
x,-y,-z
-x,y,-z
-x,-y,-z
x,y,-z
-x,y,z
x,-y,z
loop_
_atom_site_type_symbol
_atom_site_label
_atom_site_fract_x
_atom_site_fract_y
_atom_site_fract_z
Si Si1 0.161978 0.620230 0.172742
Si Si2 0.064250 0.775463 0.175881
Si Si3 0.932042 0.000000 0.160129
Si Si4 0.276131 0.624379 0.665768
Si Si5 0.387721 0.375288 0.166200
Si Si6 0.500000 0.624610 0.333820
O O1 0.149301 0.500000 0.212839
O O2 0.107954 0.686932 0.231317
O O3 0.218530 0.662923 0.253836
O O4 0.172034 0.634319 0.000000
O O5 0.000000 0.746820 0.231919
O O6 0.084295 0.889948 0.240102
O O7 0.063987 0.781759 0.000000
O O8 0.000000 0.000000 0.139385
O O9 0.902113 0.000000 0.000000
O O10 0.277030 0.668057 0.500000
O O11 0.278330 0.500000 0.666296
O O12 0.331303 0.668904 0.752184
O O13 0.387391 0.500000 0.166474
O O14 0.443757 0.332638 0.250546
O O15 0.388469 0.332490 0.000000
O O16 0.500000 0.500000 0.334162
O O17 0.500000 0.667679 0.500000
#
# Coordination Sequence:
#
# PCOD8200702 Si02
#       6
#     8   8   4   8   8   4
#     4   9  16  24  34  50  71  92 115 145 180 216
#     4   8  13  21  34  52  72  92 114 143 179 216
#     4   7  10  18  32  50  71  91 111 138 173 212
#     4   9  16  25  35  45  60  86 118 147 175 211
#     4   9  15  22  32  45  61  82 111 148 185 214
#     4   9  15  21  29  43  63  85 111 144 181 218
#
# _framework density 14.773604000000001
#
# number of rings (size 3 to 8) (size 9 to 14) (size 15 to 20)
#    0.000    3.400    0.000    2.700    0.000    6.400 
#    0.000    2.000    0.000    0.600    0.000    3.500 
#    0.000    2.400    0.000    0.000    0.000    1.000 
#
# Total GULP energy -495632.269294 kJ/mol
# GULP energy per Si atom -12390.806732 kJ/mol
# Density = 1.473998 g / cm^3
# Si number density = 14.773604 Si / 1000 Ang^3
#
#
#
# Elastic Constant Matrix: (Units=GPa)
#
#
# Indices 1 2 3 4 5 6 
#
# 1 142.6068 45.7633 55.0414 0.0000 0.0000 0.0000
# 2 45.7633 45.9200 20.7870 0.0000 0.0000 0.0000
# 3 55.0414 20.7870 78.3455 0.0000 0.0000 0.0000
# 4 0.0000 0.0000 0.0000 3.1612 0.0000 0.0000
# 5 0.0000 0.0000 0.0000 0.0000 9.7705 0.0000
# 6 0.0000 0.0000 0.0000 0.0000 0.0000 1.1942
#
#
#
# Elastic Compliance Matrix: (Units=1/GPa)
#
#
# Indices 1 2 3 4 5 6 
#
# 1 0.012514 -0.009651 -0.006231 0.000000 0.000000 0.000000
# 2 -0.009651 0.032192 -0.001761 0.000000 0.000000 0.000000
# 3 -0.006231 -0.001761 0.017609 0.000000 0.000000 0.000000
# 4 0.000000 0.000000 0.000000 0.316335 0.000000 0.000000
# 5 0.000000 0.000000 0.000000 0.000000 0.102349 0.000000
# 6 0.000000 0.000000 0.000000 0.000000 0.000000 0.837360
#
#
# Mechanical properties :
#
#
# Convention : Reuss Voigt Hill
#
# Bulk Modulus (GPa) = 36.99750 56.67286 46.83518
# Shear Modulus (GPa) = 3.66930 12.51056 8.08993
#
# Velocity S-wave (km/s) = 1.57768 2.91317 2.34261
# Velocity P-wave (km/s) = 5.33068 7.05405 6.25203
#
# Compressibility (1/GPa) = 0.02702886
#
# Stress axis : x y z
#
# Youngs Moduli (GPa) = 79.90791 31.06343 56.78893
#
# Poissons Ratio (x) = 0.29979 0.35387
# Poissons Ratio (y) = 0.77118 0.10001
# Poissons Ratio (z) = 0.49793 0.05471
#
# Static dielectric constant tensor:
#      x y z
#    x 3.001450 0.000000 0.000000 
#    y 0.000000 2.585310 0.000000 
#    z 0.000000 0.000000 2.751750 
# 
# 
# High freq. dielectric constant tensor:
#      x y z
#    x 1.569430 0.000000 0.000000 
#    y 0.000000 1.498030 0.000000 
#    z 0.000000 0.000000 1.548450 
# 
# From -- ./inp_files/10793.got.cif
#   From: 2010.03.12/outbox.cif.g09.slc.cpg/sg47_6_cif.got.tgz:10793.got - 2010.04.14 03:12:58.
