data_PCOD8200599
_publ_section_title
;
Structure prediction by ZEFSAII (Michael W. Deem and Ramdas Pophale) SiO2 
 PCOD8200599
Probable space group: P M M M
;
_chemical_formula_sum "Si O2"
_cell_formula_units_Z 44
_cell_length_a 9.008519
_cell_length_b 28.634917
_cell_length_c 9.411299
_cell_angle_alpha 90.000000
_cell_angle_beta 90.000000
_cell_angle_gamma 90.000000
_cell_volume 2427.721692
_symmetry_space_group_name_H-M "P M M M"
_symmetry_group_IT_number 47
_symmetry_cell_setting 'orthorhombic'
loop_
_space_group_symop_operation_xyz
x,y,z
-x,-y,z
x,-y,-z
-x,y,-z
-x,-y,-z
x,y,-z
-x,y,z
x,-y,z
loop_
_atom_site_type_symbol
_atom_site_label
_atom_site_fract_x
_atom_site_fract_y
_atom_site_fract_z
Si Si1 0.677294 0.287371 0.338608
Si Si2 0.322155 0.086511 0.340063
Si Si3 0.337902 0.813486 0.668193
Si Si4 0.826729 0.368233 0.164814
Si Si5 0.670592 0.553995 0.336604
Si Si6 0.322864 0.000000 0.160037
O O1 0.725850 0.299530 0.500000
O O2 0.500000 0.287257 0.328162
O O3 0.741648 0.235807 0.292782
O O4 0.742732 0.324718 0.232105
O O5 0.268564 0.075150 0.500000
O O6 0.500000 0.088679 0.336133
O O7 0.257955 0.137487 0.287788
O O8 0.260246 0.046160 0.237631
O O9 0.357949 0.814816 0.500000
O O10 0.500000 0.812784 0.740795
O O11 0.776421 0.416323 0.236273
O O12 0.000000 0.361536 0.190271
O O13 0.785349 0.370682 0.000000
O O14 0.709735 0.564741 0.500000
O O15 0.500000 0.567457 0.306869
O O16 0.698855 0.500000 0.301478
O O17 0.500000 0.000000 0.165087
O O18 0.262633 0.000000 0.000000
#
# Coordination Sequence:
#
# PCOD8200599 Si02
#       6
#     8   8   8   8   8   4
#     4   9  17  31  52  74  93 117 155 202 246 286
#     4   8  12  19  31  45  64  95 134 171 211 264
#     4   7  11  21  38  59  79 100 134 183 231 272
#     4  11  24  37  48  69 103 137 165 194 230 275
#     4   9  19  37  60  83 103 124 156 198 239 279
#     4   9  15  19  23  37  65  99 134 173 214 255
#
# _framework density 18.123989000000002
#
# number of rings (size 3 to 8) (size 9 to 14) (size 15 to 20)
#    0.000    3.182    0.000    4.091    0.000    6.182 
#    0.000    3.636    0.000    3.273    0.000    0.000 
#    0.000    0.000    0.000    0.818    0.000   18.000 
#
# Total GULP energy -545106.243187 kJ/mol
# GULP energy per Si atom -12388.778254 kJ/mol
# Density = 1.808274 g / cm^3
# Si number density = 18.123989 Si / 1000 Ang^3
#
#
#
# Elastic Constant Matrix: (Units=GPa)
#
#
# Indices 1 2 3 4 5 6 
#
# 1 23.7628 27.4352 26.3061 0.0000 0.0000 0.0000
# 2 27.4352 157.2602 72.8974 0.0000 0.0000 0.0000
# 3 26.3061 72.8974 97.9367 0.0000 0.0000 0.0000
# 4 0.0000 0.0000 0.0000 2.8080 0.0000 0.0000
# 5 0.0000 0.0000 0.0000 0.0000 17.0413 0.0000
# 6 0.0000 0.0000 0.0000 0.0000 0.0000 -2.0334
#
#
#
# Elastic Compliance Matrix: (Units=1/GPa)
#
#
# Indices 1 2 3 4 5 6 
#
# 1 0.062120 -0.004737 -0.013160 0.000000 0.000000 0.000000
# 2 -0.004737 0.010070 -0.006223 0.000000 0.000000 0.000000
# 3 -0.013160 -0.006223 0.018377 0.000000 0.000000 0.000000
# 4 0.000000 0.000000 0.000000 0.356131 0.000000 0.000000
# 5 0.000000 0.000000 0.000000 0.000000 0.058681 0.000000
# 6 0.000000 0.000000 0.000000 0.000000 0.000000 -0.491776
#
#
# Mechanical properties :
#
#
# Convention : Reuss Voigt Hill
#
# Bulk Modulus (GPa) = 23.62518 59.13746 41.38132
# Shear Modulus (GPa) = 65.83114 13.71789 39.77451
#
# Velocity S-wave (km/s) = 6.03337 2.75415 4.68971
# Velocity P-wave (km/s) = 7.84850 6.54324 7.22541
#
# Compressibility (1/GPa) = 0.04232773
#
# Stress axis : x y z
#
# Youngs Moduli (GPa) = 16.09792 99.30524 54.41493
#
# Poissons Ratio (x) = 0.47043 0.71607
# Poissons Ratio (y) = 0.07626 0.33862
# Poissons Ratio (z) = 0.21184 0.61797
#
# Static dielectric constant tensor:
#      x y z
#    x 2.790660 0.000000 0.000000 
#    y 0.000000 3.881420 0.000000 
#    z 0.000000 0.000000 3.193970 
# 
# 
# High freq. dielectric constant tensor:
#      x y z
#    x 1.638520 0.000000 0.000000 
#    y 0.000000 1.732140 0.000000 
#    z 0.000000 0.000000 1.678010 
# 
# From -- ./inp_files/2144.got.cif
#   From: 2010.03.12/outbox.cif.g09.slc.cpg/sg47_2_cif.got.tgz:2144.got - 2010.04.14 03:12:58.
