data_PCOD8200424
_publ_section_title
;
Structure prediction by ZEFSAII (Michael W. Deem and Ramdas Pophale) SiO2 
 PCOD8200424
Probable space group: P M M M
;
_chemical_formula_sum "Si O2"
_cell_formula_units_Z 44
_cell_length_a 9.254193
_cell_length_b 14.098686
_cell_length_c 21.081519
_cell_angle_alpha 90.000000
_cell_angle_beta 90.000000
_cell_angle_gamma 90.000000
_cell_volume 2750.547131
_symmetry_space_group_name_H-M "P M M M"
_symmetry_group_IT_number 47
_symmetry_cell_setting 'orthorhombic'
loop_
_space_group_symop_operation_xyz
x,y,z
-x,-y,z
x,-y,-z
-x,y,-z
-x,-y,-z
x,y,-z
-x,y,z
x,-y,z
loop_
_atom_site_type_symbol
_atom_site_label
_atom_site_fract_x
_atom_site_fract_y
_atom_site_fract_z
Si Si1 0.172267 0.108865 0.296016
Si Si2 0.838368 0.112505 0.432926
Si Si3 0.335394 0.606227 0.120503
Si Si4 0.838980 0.612683 0.000000
Si Si5 0.666213 0.793573 0.816289
Si Si6 0.835606 0.888164 0.928234
O O1 0.232332 0.143772 0.365673
O O2 0.243941 0.175564 0.244462
O O3 0.000000 0.119506 0.293269
O O4 0.216417 0.000000 0.282378
O O5 0.759659 0.144030 0.500000
O O6 0.000000 0.153823 0.435320
O O7 0.846374 0.000000 0.430392
O O8 0.500000 0.603888 0.096411
O O9 0.286457 0.500000 0.141614
O O10 0.240235 0.647988 0.063150
O O11 0.317816 0.679166 0.178809
O O12 0.838519 0.500000 0.000000
O O13 0.000000 0.655149 0.000000
O O14 0.500000 0.823856 0.807775
O O15 0.724394 0.840508 0.880380
O O16 0.000000 0.863705 0.908115
O O17 0.811310 0.000000 0.925408
O O18 0.805999 0.851161 0.000000
#
# Coordination Sequence:
#
# PCOD8200424 Si02
#       6
#     8   8   8   4   8   8
#     4   9  17  29  45  65  91 122 149 173 208 252
#     4   7  10  19  38  63  87 112 145 178 201 232
#     4   9  19  35  49  60  81 112 141 172 216 270
#     4   9  17  29  47  69  84  95 122 169 221 266
#     4  11  22  31  44  65  86 111 145 181 217 256
#     4   9  19  35  50  62  80 110 145 178 215 257
#
# _framework density 15.996817
#
# number of rings (size 3 to 8) (size 9 to 14) (size 15 to 20)
#    0.000    3.000    0.000    3.545    1.273    5.818 
#    0.000    0.909    0.000    0.545    0.000    2.545 
#    0.000    0.727    0.000    9.091    0.000    0.364 
#
# Total GULP energy -545074.443626 kJ/mol
# GULP energy per Si atom -12388.055537 kJ/mol
# Density = 1.596041 g / cm^3
# Si number density = 15.996817 Si / 1000 Ang^3
#
#
#
# Elastic Constant Matrix: (Units=GPa)
#
#
# Indices 1 2 3 4 5 6 
#
# 1 53.5972 25.2283 41.5222 0.0000 0.0000 0.0000
# 2 25.2283 46.2601 46.9284 0.0000 0.0000 0.0000
# 3 41.5222 46.9284 134.9550 0.0000 0.0000 0.0000
# 4 0.0000 0.0000 0.0000 10.1726 0.0000 0.0000
# 5 0.0000 0.0000 0.0000 0.0000 4.1151 0.0000
# 6 0.0000 0.0000 0.0000 0.0000 0.0000 15.1574
#
#
#
# Elastic Compliance Matrix: (Units=1/GPa)
#
#
# Indices 1 2 3 4 5 6 
#
# 1 0.027075 -0.009757 -0.004938 0.000000 0.000000 0.000000
# 2 -0.009757 0.036914 -0.009834 0.000000 0.000000 0.000000
# 3 -0.004938 -0.009834 0.012349 0.000000 0.000000 0.000000
# 4 0.000000 0.000000 0.000000 0.098304 0.000000 0.000000
# 5 0.000000 0.000000 0.000000 0.000000 0.243007 0.000000
# 6 0.000000 0.000000 0.000000 0.000000 0.000000 0.065974
#
#
# Mechanical properties :
#
#
# Convention : Reuss Voigt Hill
#
# Bulk Modulus (GPa) = 36.65576 51.35224 44.00400
# Shear Modulus (GPa) = 9.22891 13.96458 11.59675
#
# Velocity S-wave (km/s) = 2.40453 2.95779 2.69539
# Velocity P-wave (km/s) = 5.53833 6.62087 6.10365
#
# Compressibility (1/GPa) = 0.02728085
#
# Stress axis : x y z
#
# Youngs Moduli (GPa) = 36.93377 27.08972 80.97929
#
# Poissons Ratio (x) = 0.26431 0.39985
# Poissons Ratio (y) = 0.36036 0.79639
# Poissons Ratio (z) = 0.18237 0.26641
#
# Static dielectric constant tensor:
#      x y z
#    x 2.921130 0.000000 0.000000 
#    y 0.000000 2.891440 0.000000 
#    z 0.000000 0.000000 3.343140 
# 
# 
# High freq. dielectric constant tensor:
#      x y z
#    x 1.597530 0.000000 0.000000 
#    y 0.000000 1.586900 0.000000 
#    z 0.000000 0.000000 1.610880 
# 
# From -- ./inp_files/24892.got.cif
#   From: 2010.03.12/outbox.cif.g09.slc.cpg/sg47_13_cif.got.tgz:24892.got - 2010.04.14 03:12:58.
