data_PCOD8200675
_publ_section_title
;
Structure prediction by ZEFSAII (Michael W. Deem and Ramdas Pophale) SiO2 
 PCOD8200675
Probable space group: P M M M
;
_chemical_formula_sum "Si O2"
_cell_formula_units_Z 44
_cell_length_a 9.250008
_cell_length_b 28.804918
_cell_length_c 9.819140
_cell_angle_alpha 90.000000
_cell_angle_beta 90.000000
_cell_angle_gamma 90.000000
_cell_volume 2616.267846
_symmetry_space_group_name_H-M "P M M M"
_symmetry_group_IT_number 47
_symmetry_cell_setting 'orthorhombic'
loop_
_space_group_symop_operation_xyz
x,y,z
-x,-y,z
x,-y,-z
-x,y,-z
-x,-y,-z
x,y,-z
-x,y,z
x,-y,z
loop_
_atom_site_type_symbol
_atom_site_label
_atom_site_fract_x
_atom_site_fract_y
_atom_site_fract_z
Si Si1 0.828299 0.551415 0.152575
Si Si2 0.328339 0.000000 0.649212
Si Si3 0.169403 0.633298 0.342263
Si Si4 0.836987 0.187311 0.337481
Si Si5 0.337297 0.900478 0.336914
Si Si6 0.336822 0.275805 0.662000
O O1 0.771019 0.500000 0.193383
O O2 0.769069 0.589389 0.258466
O O3 0.000000 0.551172 0.157630
O O4 0.775591 0.563973 0.000000
O O5 0.284554 0.951124 0.722247
O O6 0.500000 0.000000 0.633273
O O7 0.255766 0.000000 0.500000
O O8 0.201893 0.623387 0.500000
O O9 0.253455 0.678388 0.288140
O O10 0.000000 0.641848 0.317084
O O11 0.834555 0.187579 0.500000
O O12 0.767348 0.139692 0.281103
O O13 0.745928 0.230748 0.280074
O O14 0.000000 0.191006 0.282215
O O15 0.334112 0.902762 0.500000
O O16 0.500000 0.889118 0.287707
O O17 0.337446 0.274042 0.500000
O O18 0.500000 0.276225 0.719303
#
# Coordination Sequence:
#
# PCOD8200675 Si02
#       6
#     8   4   8   8   8   8
#     4   8  14  25  41  61  84 108 132 157 187 226
#     4   7  10  16  25  35  47  67  99 139 178 217
#     4   9  16  25  39  60  82 101 125 161 198 225
#     4   9  15  21  29  42  60  81 107 142 184 227
#     4   8  12  18  27  37  50  72 104 140 179 223
#     4   9  16  25  36  49  67  92 119 147 184 231
#
# _framework density 16.817851000000001
#
# number of rings (size 3 to 8) (size 9 to 14) (size 15 to 20)
#    0.000    3.545    0.000    2.727    0.000    4.727 
#    0.000    2.273    0.000    3.818    0.000    3.818 
#    0.000    0.000    0.000    0.000    0.000    0.000 
#
# Total GULP energy -545144.757759 kJ/mol
# GULP energy per Si atom -12389.653585 kJ/mol
# Density = 1.677957 g / cm^3
# Si number density = 16.817851 Si / 1000 Ang^3
#
#
#
# Elastic Constant Matrix: (Units=GPa)
#
#
# Indices 1 2 3 4 5 6 
#
# 1 86.5146 72.5550 16.9713 0.0000 0.0000 0.0000
# 2 72.5550 196.7265 39.6564 0.0000 0.0000 0.0000
# 3 16.9713 39.6564 22.7245 0.0000 0.0000 0.0000
# 4 0.0000 0.0000 0.0000 1.3509 0.0000 0.0000
# 5 0.0000 0.0000 0.0000 0.0000 3.5946 0.0000
# 6 0.0000 0.0000 0.0000 0.0000 0.0000 23.6488
#
#
#
# Elastic Compliance Matrix: (Units=1/GPa)
#
#
# Indices 1 2 3 4 5 6 
#
# 1 0.016840 -0.005670 -0.002681 0.000000 0.000000 0.000000
# 2 -0.005670 0.009751 -0.012782 0.000000 0.000000 0.000000
# 3 -0.002681 -0.012782 0.068313 0.000000 0.000000 0.000000
# 4 0.000000 0.000000 0.000000 0.740222 0.000000 0.000000
# 5 0.000000 0.000000 0.000000 0.000000 0.278199 0.000000
# 6 0.000000 0.000000 0.000000 0.000000 0.000000 0.042285
#
#
# Mechanical properties :
#
#
# Convention : Reuss Voigt Hill
#
# Bulk Modulus (GPa) = 18.99785 62.70342 40.85063
# Shear Modulus (GPa) = 4.11379 17.50439 10.80909
#
# Velocity S-wave (km/s) = 1.56569 3.22968 2.53793
# Velocity P-wave (km/s) = 3.81959 7.16048 5.73855
#
# Compressibility (1/GPa) = 0.05263754
#
# Stress axis : x y z
#
# Youngs Moduli (GPa) = 59.38201 102.55324 14.63842
#
# Poissons Ratio (x) = 0.58151 0.03925
# Poissons Ratio (y) = 0.33671 0.18710
# Poissons Ratio (z) = 0.15923 1.31081
#
# Static dielectric constant tensor:
#      x y z
#    x 3.007370 0.000000 0.000000 
#    y 0.000000 3.674270 0.000000 
#    z 0.000000 0.000000 2.505750 
# 
# 
# High freq. dielectric constant tensor:
#      x y z
#    x 1.624040 0.000000 0.000000 
#    y 0.000000 1.673890 0.000000 
#    z 0.000000 0.000000 1.561670 
# 
# From -- ./inp_files/2326.got.cif
#   From: 2010.03.12/outbox.cif.g09.slc.cpg/sg47_2_cif.got.tgz:2326.got - 2010.04.14 03:12:58.
