data_PCOD8200074
_publ_section_title
;
Structure prediction by ZEFSAII (Michael W. Deem and Ramdas Pophale) SiO2 
 PCOD8200074
Probable space group: P M M M
;
_chemical_formula_sum "Si O2"
_cell_formula_units_Z 56
_cell_length_a 15.093971
_cell_length_b 22.309393
_cell_length_c 8.061511
_cell_angle_alpha 90.000000
_cell_angle_beta 90.000000
_cell_angle_gamma 90.000000
_cell_volume 2714.611698
_symmetry_space_group_name_H-M "P M M M"
_symmetry_group_IT_number 47
_symmetry_cell_setting 'orthorhombic'
loop_
_space_group_symop_operation_xyz
x,y,z
-x,-y,z
x,-y,-z
-x,y,-z
-x,-y,-z
x,y,-z
-x,y,z
x,-y,z
loop_
_atom_site_type_symbol
_atom_site_label
_atom_site_fract_x
_atom_site_fract_y
_atom_site_fract_z
Si Si1 0.100790 0.630152 0.802082
Si Si2 0.398263 0.067810 0.305452
Si Si3 0.894958 0.500000 0.181641
Si Si4 0.248606 0.847892 0.808484
Si Si5 0.398812 0.640524 0.184905
Si Si6 0.604996 0.565583 0.500000
Si Si7 0.097869 0.066503 0.196932
Si Si8 0.253222 0.283377 0.312135
O O1 0.130977 0.563781 0.731114
O O2 0.163012 0.682062 0.732078
O O3 0.000000 0.644525 0.746288
O O4 0.107237 0.628699 0.000000
O O5 0.383737 0.076333 0.500000
O O6 0.500000 0.079523 0.257390
O O7 0.340861 0.116846 0.208799
O O8 0.371316 0.000000 0.252551
O O9 0.000000 0.500000 0.161886
O O10 0.850497 0.500000 0.000000
O O11 0.170878 0.888751 0.730627
O O12 0.242789 0.787302 0.705188
O O13 0.232026 0.832463 0.000000
O O14 0.500000 0.660588 0.218462
O O15 0.363846 0.596077 0.328312
O O16 0.334896 0.697875 0.193705
O O17 0.390770 0.611565 0.000000
O O18 0.648219 0.500000 0.500000
O O19 0.500000 0.561816 0.500000
O O20 0.000000 0.088597 0.250597
O O21 0.115515 0.000000 0.268667
O O22 0.105446 0.064376 0.000000
O O23 0.279208 0.298664 0.500000
#
# Coordination Sequence:
#
# PCOD8200074 Si02
#       8
#     8   8   4   8   8   4   8   8
#     4   9  18  36  61  86 114 148 189 240 296 356
#     4   9  19  37  59  83 114 151 186 222 276 345
#     4   7  12  28  57  87 110 137 178 231 291 351
#     4  11  22  35  55  83 112 145 191 242 291 344
#     4  10  21  40  64  87 117 158 201 247 300 358
#     4   9  18  36  62  92 123 153 192 243 299 359
#     4   8  15  30  53  81 111 141 176 223 282 346
#     4  12  25  40  56  79 116 158 203 251 300 358
#
# _framework density 20.629103000000001
#
# number of rings (size 3 to 8) (size 9 to 14) (size 15 to 20)
#    0.000    2.429    0.714    3.857    0.000    2.857 
#    1.286    3.929    0.000    2.571    0.000    5.000 
#    0.000    0.000    0.000    0.000    0.000    0.000 
#
# Total GULP energy -694053.017972 kJ/mol
# GULP energy per Si atom -12393.803892 kJ/mol
# Density = 2.058215 g / cm^3
# Si number density = 20.629103 Si / 1000 Ang^3
#
#
#
# Elastic Constant Matrix: (Units=GPa)
#
#
# Indices 1 2 3 4 5 6 
#
# 1 108.7913 68.3921 26.1582 0.0000 0.0000 0.0000
# 2 68.3921 144.2945 30.3873 0.0000 0.0000 0.0000
# 3 26.1582 30.3873 79.0323 0.0000 0.0000 0.0000
# 4 0.0000 0.0000 0.0000 11.8642 0.0000 0.0000
# 5 0.0000 0.0000 0.0000 0.0000 17.9196 0.0000
# 6 0.0000 0.0000 0.0000 0.0000 0.0000 21.5895
#
#
#
# Elastic Compliance Matrix: (Units=1/GPa)
#
#
# Indices 1 2 3 4 5 6 
#
# 1 0.013428 -0.005907 -0.002173 0.000000 0.000000 0.000000
# 2 -0.005907 0.010139 -0.001943 0.000000 0.000000 0.000000
# 3 -0.002173 -0.001943 0.014120 0.000000 0.000000 0.000000
# 4 0.000000 0.000000 0.000000 0.084287 0.000000 0.000000
# 5 0.000000 0.000000 0.000000 0.000000 0.055805 0.000000
# 6 0.000000 0.000000 0.000000 0.000000 0.000000 0.046319
#
#
# Mechanical properties :
#
#
# Convention : Reuss Voigt Hill
#
# Bulk Modulus (GPa) = 56.69026 64.66594 60.67810
# Shear Modulus (GPa) = 19.99808 24.08669 22.04238
#
# Velocity S-wave (km/s) = 3.11691 3.42073 3.27235
# Velocity P-wave (km/s) = 6.36348 6.85689 6.61479
#
# Compressibility (1/GPa) = 0.01763971
#
# Stress axis : x y z
#
# Youngs Moduli (GPa) = 74.47260 98.62714 70.82365
#
# Poissons Ratio (x) = 0.58257 0.15392
# Poissons Ratio (y) = 0.43989 0.13764
# Poissons Ratio (z) = 0.16185 0.19167
#
# Static dielectric constant tensor:
#      x y z
#    x 3.735010 0.000000 0.000000 
#    y 0.000000 3.841590 0.000000 
#    z 0.000000 0.000000 3.497280 
# 
# 
# High freq. dielectric constant tensor:
#      x y z
#    x 1.805200 0.000000 0.000000 
#    y 0.000000 1.801210 0.000000 
#    z 0.000000 0.000000 1.789140 
# 
# From -- ./inp_files/7420.got.cif
#   From: 2010.03.12/outbox.cif.g09.slc.cpg/sg47_4_cif.got.tgz:7420.got - 2010.04.14 03:12:58.
