data_PCOD8200290
_publ_section_title
;
Structure prediction by ZEFSAII (Michael W. Deem and Ramdas Pophale) SiO2 
 PCOD8200290
Probable space group: P M M M
;
_chemical_formula_sum "Si O2"
_cell_formula_units_Z 56
_cell_length_a 29.113633
_cell_length_b 9.093164
_cell_length_c 13.732334
_cell_angle_alpha 90.000000
_cell_angle_beta 90.000000
_cell_angle_gamma 90.000000
_cell_volume 3635.429984
_symmetry_space_group_name_H-M "P M M M"
_symmetry_group_IT_number 47
_symmetry_cell_setting 'orthorhombic'
loop_
_space_group_symop_operation_xyz
x,y,z
-x,-y,z
x,-y,-z
-x,y,-z
-x,-y,-z
x,y,-z
-x,y,z
x,-y,z
loop_
_atom_site_type_symbol
_atom_site_label
_atom_site_fract_x
_atom_site_fract_y
_atom_site_fract_z
Si Si1 0.147285 0.324682 0.389779
Si Si2 0.951414 0.335563 0.615568
Si Si3 0.447047 0.169097 0.887827
Si Si4 0.632532 0.326038 0.214260
Si Si5 0.676248 0.828480 0.388946
Si Si6 0.286654 0.830466 0.109977
Si Si7 0.229111 0.168644 0.708204
O O1 0.157684 0.269954 0.500000
O O2 0.146346 0.500000 0.387176
O O3 0.097229 0.262281 0.352279
O O4 0.185703 0.267773 0.316627
O O5 0.949425 0.343532 0.500000
O O6 0.953294 0.500000 0.658252
O O7 0.000000 0.255442 0.647705
O O8 0.500000 0.196768 0.861891
O O9 0.417605 0.274525 0.819033
O O10 0.433681 0.000000 0.868264
O O11 0.437424 0.209011 0.000000
O O12 0.634589 0.500000 0.217422
O O13 0.641853 0.264165 0.322139
O O14 0.669832 0.267891 0.137349
O O15 0.666937 0.783817 0.500000
O O16 0.728793 0.790220 0.362705
O O17 0.667031 0.000000 0.369832
O O18 0.243723 0.796807 0.180537
O O19 0.301850 0.000000 0.122726
O O20 0.271232 0.795233 0.000000
O O21 0.214737 0.000000 0.694440
#
# Coordination Sequence:
#
# PCOD8200290 Si02
#       7
#     8   8   8   8   8   8   8
#     4   9  16  24  36  56  81 109 138 167 202 244
#     4   7  10  18  32  49  70  99 136 171 197 229
#     4   9  18  33  52  71  91 118 150 179 207 246
#     4  11  21  30  45  71  98 118 137 170 218 261
#     4   9  18  33  50  64  82 115 156 186 205 238
#     4   9  18  33  49  61  79 112 150 180 204 242
#     4   9  17  28  42  61  82 105 136 173 212 248
#
# _framework density 15.403954000000001
#
# number of rings (size 3 to 8) (size 9 to 14) (size 15 to 20)
#    0.000    3.000    0.000    4.714    0.000    6.000 
#    0.000    0.714    0.000    0.857    0.000    5.000 
#    0.000    0.571    0.000    7.143    0.000    0.286 
#
# Total GULP energy -693951.987284 kJ/mol
# GULP energy per Si atom -12391.999773 kJ/mol
# Density = 1.536889 g / cm^3
# Si number density = 15.403954 Si / 1000 Ang^3
#
#
#
# Elastic Constant Matrix: (Units=GPa)
#
#
# Indices 1 2 3 4 5 6 
#
# 1 117.3472 47.8018 56.9332 0.0000 0.0000 0.0000
# 2 47.8018 60.0637 39.2441 0.0000 0.0000 0.0000
# 3 56.9332 39.2441 99.1052 0.0000 0.0000 0.0000
# 4 0.0000 0.0000 0.0000 12.5963 0.0000 0.0000
# 5 0.0000 0.0000 0.0000 0.0000 18.0718 0.0000
# 6 0.0000 0.0000 0.0000 0.0000 0.0000 13.8167
#
#
#
# Elastic Compliance Matrix: (Units=1/GPa)
#
#
# Indices 1 2 3 4 5 6 
#
# 1 0.014222 -0.008068 -0.004975 0.000000 0.000000 0.000000
# 2 -0.008068 0.027037 -0.006071 0.000000 0.000000 0.000000
# 3 -0.004975 -0.006071 0.015353 0.000000 0.000000 0.000000
# 4 0.000000 0.000000 0.000000 0.079389 0.000000 0.000000
# 5 0.000000 0.000000 0.000000 0.000000 0.055335 0.000000
# 6 0.000000 0.000000 0.000000 0.000000 0.000000 0.072376
#
#
# Mechanical properties :
#
#
# Convention : Reuss Voigt Hill
#
# Bulk Modulus (GPa) = 54.40054 62.71936 58.55995
# Shear Modulus (GPa) = 16.23019 17.73275 16.98147
#
# Velocity S-wave (km/s) = 3.24950 3.39659 3.32386
# Velocity P-wave (km/s) = 7.03361 7.49581 7.26838
#
# Compressibility (1/GPa) = 0.01838217
#
# Stress axis : x y z
#
# Youngs Moduli (GPa) = 70.31290 36.98684 65.13503
#
# Poissons Ratio (x) = 0.29840 0.32408
# Poissons Ratio (y) = 0.56727 0.39546
# Poissons Ratio (z) = 0.34984 0.22456
#
# Static dielectric constant tensor:
#      x y z
#    x 3.119860 0.000000 0.000000 
#    y 0.000000 2.735530 0.000000 
#    z 0.000000 0.000000 2.869100 
# 
# 
# High freq. dielectric constant tensor:
#      x y z
#    x 1.591530 0.000000 0.000000 
#    y 0.000000 1.571270 0.000000 
#    z 0.000000 0.000000 1.563660 
# 
# From -- ./inp_files/25801.got.cif
#   From: 2010.03.12/outbox.cif.g09.slc.cpg/sg47_13_cif.got.tgz:25801.got - 2010.04.14 03:12:58.
