data_PCOD8200799
_publ_section_title
;
Structure prediction by ZEFSAII (Michael W. Deem and Ramdas Pophale) SiO2 
 PCOD8200799
Probable space group: P M M M
;
_chemical_formula_sum "Si O2"
_cell_formula_units_Z 44
_cell_length_a 9.251072
_cell_length_b 28.385321
_cell_length_c 9.778036
_cell_angle_alpha 90.000000
_cell_angle_beta 90.000000
_cell_angle_gamma 90.000000
_cell_volume 2567.659925
_symmetry_space_group_name_H-M "P M M M"
_symmetry_group_IT_number 47
_symmetry_cell_setting 'orthorhombic'
loop_
_space_group_symop_operation_xyz
x,y,z
-x,-y,z
x,-y,-z
-x,y,-z
-x,-y,-z
x,y,-z
-x,y,z
x,-y,z
loop_
_atom_site_type_symbol
_atom_site_label
_atom_site_fract_x
_atom_site_fract_y
_atom_site_fract_z
Si Si1 0.172104 0.367360 0.846659
Si Si2 0.330105 0.914369 0.343070
Si Si3 0.828206 0.263135 0.846586
Si Si4 0.328255 0.000000 0.156115
Si Si5 0.168598 0.180199 0.342790
Si Si6 0.827990 0.552102 0.653233
O O1 0.224737 0.315231 0.799932
O O2 0.240202 0.407510 0.749498
O O3 0.000000 0.369368 0.841456
O O4 0.226396 0.377477 0.000000
O O5 0.291926 0.928324 0.500000
O O6 0.500000 0.906456 0.327123
O O7 0.273106 0.954496 0.239789
O O8 0.251156 0.866766 0.298353
O O9 0.766761 0.223523 0.744740
O O10 0.000000 0.262194 0.843218
O O11 0.772930 0.252362 0.000000
O O12 0.500000 0.000000 0.153275
O O13 0.267396 0.000000 0.000000
O O14 0.198102 0.192613 0.500000
O O15 0.000000 0.172058 0.313684
O O16 0.770980 0.560972 0.500000
O O17 0.779199 0.500000 0.703711
O O18 0.000000 0.555029 0.655495
#
# Coordination Sequence:
#
# PCOD8200799 Si02
#       6
#     8   8   8   4   8   8
#     4   8  13  20  29  41  57  80 113 149 183 223
#     4   9  17  30  47  64  83 108 134 159 192 233
#     4   8  14  24  36  50  70  96 124 155 193 234
#     4   9  17  29  46  67  86 104 132 167 194 222
#     4   9  17  28  42  61  82 103 131 165 196 228
#     4   8  13  19  25  35  53  77 107 146 190 229
#
# _framework density 17.136225
#
# number of rings (size 3 to 8) (size 9 to 14) (size 15 to 20)
#    0.000    3.545    0.000    1.909    0.000    2.909 
#    0.000    5.909    0.000    2.727    0.000    0.000 
#    0.000    0.000    0.000    0.000    0.000    0.909 
#
# Total GULP energy -545272.205428 kJ/mol
# GULP energy per Si atom -12392.550123 kJ/mol
# Density = 1.709722 g / cm^3
# Si number density = 17.136225 Si / 1000 Ang^3
#
#
#
# Elastic Constant Matrix: (Units=GPa)
#
#
# Indices 1 2 3 4 5 6 
#
# 1 9.1723 21.3837 14.4485 0.0000 0.0000 0.0000
# 2 21.3837 192.8342 114.0616 0.0000 0.0000 0.0000
# 3 14.4485 114.0616 116.9967 0.0000 0.0000 0.0000
# 4 0.0000 0.0000 0.0000 39.9656 0.0000 0.0000
# 5 0.0000 0.0000 0.0000 0.0000 8.0615 0.0000
# 6 0.0000 0.0000 0.0000 0.0000 0.0000 -1.7883
#
#
#
# Elastic Compliance Matrix: (Units=1/GPa)
#
#
# Indices 1 2 3 4 5 6 
#
# 1 0.148465 -0.013272 -0.005396 0.000000 0.000000 0.000000
# 2 -0.013272 0.013436 -0.011460 0.000000 0.000000 0.000000
# 3 -0.005396 -0.011460 0.020386 0.000000 0.000000 0.000000
# 4 0.000000 0.000000 0.000000 0.025022 0.000000 0.000000
# 5 0.000000 0.000000 0.000000 0.000000 0.124046 0.000000
# 6 0.000000 0.000000 0.000000 0.000000 0.000000 -0.559186
#
#
# Mechanical properties :
#
#
# Convention : Reuss Voigt Hill
#
# Bulk Modulus (GPa) = 8.19457 68.75452 38.47455
# Shear Modulus (GPa) = -39.40170 20.52172 -9.43999
#
# Velocity S-wave (km/s) = -4.80033 3.46434 -2.34963
# Velocity P-wave (km/s) = 5.09233 7.49744 3.89100
#
# Compressibility (1/GPa) = 0.12203203
#
# Stress axis : x y z
#
# Youngs Moduli (GPa) = 6.73559 74.42564 49.05277
#
# Poissons Ratio (x) = 0.98777 0.26467
# Poissons Ratio (y) = 0.08939 0.56215
# Poissons Ratio (z) = 0.03634 0.85293
#
# Static dielectric constant tensor:
#      x y z
#    x 2.518170 0.000000 0.000000 
#    y 0.000000 3.584480 0.000000 
#    z 0.000000 0.000000 3.432250 
# 
# 
# High freq. dielectric constant tensor:
#      x y z
#    x 1.583940 0.000000 0.000000 
#    y 0.000000 1.676210 0.000000 
#    z 0.000000 0.000000 1.662800 
# 
# From -- ./inp_files/2085.got.cif
#   From: 2010.03.12/outbox.cif.g09.slc.cpg/sg47_2_cif.got.tgz:2085.got - 2010.04.14 03:12:58.
