data_PCOD8200911
_publ_section_title
;
Structure prediction by ZEFSAII (Michael W. Deem and Ramdas Pophale) SiO2 
 PCOD8200911
Probable space group: P M M M
;
_chemical_formula_sum "Si O2"
_cell_formula_units_Z 52
_cell_length_a 9.991776
_cell_length_b 9.310090
_cell_length_c 33.356445
_cell_angle_alpha 90.000000
_cell_angle_beta 90.000000
_cell_angle_gamma 90.000000
_cell_volume 3102.961075
_symmetry_space_group_name_H-M "P M M M"
_symmetry_group_IT_number 47
_symmetry_cell_setting 'orthorhombic'
loop_
_space_group_symop_operation_xyz
x,y,z
-x,-y,z
x,-y,-z
-x,y,-z
-x,-y,-z
x,y,-z
-x,y,z
x,-y,z
loop_
_atom_site_type_symbol
_atom_site_label
_atom_site_fract_x
_atom_site_fract_y
_atom_site_fract_z
Si Si1 0.344846 0.332995 0.299743
Si Si2 0.648145 0.329234 0.389999
Si Si3 0.151937 0.830054 0.240267
Si Si4 0.840548 0.162647 0.000000
Si Si5 0.841363 0.159320 0.849188
Si Si6 0.850389 0.329088 0.455387
Si Si7 0.159689 0.338228 0.923551
O O1 0.500000 0.300681 0.290454
O O2 0.313293 0.500000 0.293513
O O3 0.309621 0.284755 0.345097
O O4 0.252370 0.242858 0.270693
O O5 0.500000 0.269589 0.399812
O O6 0.646198 0.500000 0.392912
O O7 0.750829 0.262046 0.422278
O O8 0.196496 0.785385 0.195251
O O9 0.000000 0.778232 0.248818
O O10 0.161214 0.000000 0.245123
O O11 0.786404 0.245445 0.960881
O O12 0.000000 0.160795 0.000000
O O13 0.784838 0.000000 0.000000
O O14 0.784122 0.268158 0.882518
O O15 0.000000 0.149527 0.852684
O O16 0.781542 0.000000 0.856851
O O17 0.805519 0.280026 0.500000
O O18 0.848417 0.500000 0.452949
O O19 0.000000 0.272744 0.446320
O O20 0.215606 0.500000 0.926917
O O21 0.000000 0.339735 0.923521
#
# Coordination Sequence:
#
# PCOD8200911 Si02
#       7
#     8   8   8   4   8   8   8
#     4   9  18  31  45  63  88 116 146 181 221 265
#     4   8  14  24  36  51  74 104 137 172 209 251
#     4   9  18  31  46  65  87 111 144 184 221 263
#     4   9  15  21  29  41  61  95 136 171 206 251
#     4   8  14  25  38  51  71  99 129 164 208 255
#     4   8  13  20  30  47  73 104 137 172 209 250
#     4   9  15  21  30  46  68  94 128 170 210 249
#
# _framework density 16.758185999999998
#
# number of rings (size 3 to 8) (size 9 to 14) (size 15 to 20)
#    0.000    3.462    0.000    3.000    0.000    4.923 
#    0.000    4.615    0.000    0.000    0.000    0.000 
#    0.000    0.615    0.000    7.462    0.000   24.769 
#
# Total GULP energy -644438.598569 kJ/mol
# GULP energy per Si atom -12393.049972 kJ/mol
# Density = 1.672004 g / cm^3
# Si number density = 16.758186 Si / 1000 Ang^3
#
#
#
# Elastic Constant Matrix: (Units=GPa)
#
#
# Indices 1 2 3 4 5 6 
#
# 1 56.7253 28.7224 69.7040 0.0000 0.0000 0.0000
# 2 28.7224 64.1906 58.4570 0.0000 0.0000 0.0000
# 3 69.7040 58.4570 167.7481 0.0000 0.0000 0.0000
# 4 0.0000 0.0000 0.0000 6.0282 0.0000 0.0000
# 5 0.0000 0.0000 0.0000 0.0000 0.9635 0.0000
# 6 0.0000 0.0000 0.0000 0.0000 0.0000 13.7538
#
#
#
# Elastic Compliance Matrix: (Units=1/GPa)
#
#
# Indices 1 2 3 4 5 6 
#
# 1 0.036612 -0.003703 -0.013923 0.000000 0.000000 0.000000
# 2 -0.003703 0.023195 -0.006544 0.000000 0.000000 0.000000
# 3 -0.013923 -0.006544 0.014027 0.000000 0.000000 0.000000
# 4 0.000000 0.000000 0.000000 0.165888 0.000000 0.000000
# 5 0.000000 0.000000 0.000000 0.000000 1.037921 0.000000
# 6 0.000000 0.000000 0.000000 0.000000 0.000000 0.072707
#
#
# Mechanical properties :
#
#
# Convention : Reuss Voigt Hill
#
# Bulk Modulus (GPa) = 39.22462 66.93674 53.08068
# Shear Modulus (GPa) = 3.55318 12.93446 8.24382
#
# Velocity S-wave (km/s) = 1.45769 2.78120 2.22035
# Velocity P-wave (km/s) = 5.12740 7.09527 6.19003
#
# Compressibility (1/GPa) = 0.02549419
#
# Stress axis : x y z
#
# Youngs Moduli (GPa) = 27.31311 43.11196 71.28925
#
# Poissons Ratio (x) = 0.15964 0.99257
# Poissons Ratio (y) = 0.10114 0.46655
# Poissons Ratio (z) = 0.38028 0.28214
#
# Static dielectric constant tensor:
#      x y z
#    x 2.902720 0.000000 0.000000 
#    y 0.000000 2.929640 0.000000 
#    z 0.000000 0.000000 3.470720 
# 
# 
# High freq. dielectric constant tensor:
#      x y z
#    x 1.597560 0.000000 0.000000 
#    y 0.000000 1.614330 0.000000 
#    z 0.000000 0.000000 1.661510 
# 
# From -- ./inp_files/33586.got.cif
#   From: 2010.03.12/outbox.cif.g09.slc.cpg/sg47_17_cif.got.tgz:33586.got - 2010.04.14 03:12:58.
