data_PCOD8200011
_publ_section_title
;
Structure prediction by ZEFSAII (Michael W. Deem and Ramdas Pophale) SiO2 
 PCOD8200011
Probable space group: P M M M
;
_chemical_formula_sum "Si O2"
_cell_formula_units_Z 44
_cell_length_a 7.452997
_cell_length_b 9.074155
_cell_length_c 30.310599
_cell_angle_alpha 90.000000
_cell_angle_beta 90.000000
_cell_angle_gamma 90.000000
_cell_volume 2049.895201
_symmetry_space_group_name_H-M "P M M M"
_symmetry_group_IT_number 47
_symmetry_cell_setting 'orthorhombic'
loop_
_space_group_symop_operation_xyz
x,y,z
-x,-y,z
x,-y,-z
-x,y,-z
-x,-y,-z
x,y,-z
-x,y,z
x,-y,z
loop_
_atom_site_type_symbol
_atom_site_label
_atom_site_fract_x
_atom_site_fract_y
_atom_site_fract_z
Si Si1 0.213948 0.665154 0.367462
Si Si2 0.500000 0.329897 0.052083
Si Si3 0.212800 0.665753 0.196284
Si Si4 0.786831 0.834456 0.548456
Si Si5 0.786134 0.166091 0.718249
Si Si6 0.209161 0.173148 0.892201
O O1 0.287339 0.500000 0.362718
O O2 0.292292 0.731674 0.413016
O O3 0.287183 0.759116 0.326326
O O4 0.000000 0.667502 0.367953
O O5 0.500000 0.500000 0.067185
O O6 0.678933 0.249961 0.069246
O O7 0.500000 0.315171 0.000000
O O8 0.290379 0.500000 0.193145
O O9 0.290209 0.743951 0.239968
O O10 0.275185 0.758998 0.154063
O O11 0.000000 0.661498 0.198771
O O12 0.723755 0.777624 0.500000
O O13 0.000000 0.833748 0.550627
O O14 0.715886 0.000000 0.556083
O O15 0.000000 0.166684 0.718792
O O16 0.712209 0.000000 0.720476
O O17 0.000000 0.205982 0.900886
O O18 0.249000 0.000000 0.891369
#
# Coordination Sequence:
#
# PCOD8200011 Si02
#       6
#     8   4   8   8   8   8
#     4   9  15  20  26  38  57  82 116 163 221 282
#     4  11  25  43  63  89 121 157 197 241 288 337
#     4   9  16  27  45  69  97 128 163 205 255 312
#     4   8  13  20  27  33  44  68 106 154 211 276
#     4   9  15  22  33  50  74 104 139 181 232 292
#     4  10  21  38  61  88 118 153 193 237 286 340
#
# _framework density 21.464511000000002
#
# number of rings (size 3 to 8) (size 9 to 14) (size 15 to 20)
#    0.000    2.818    0.000    3.000    0.000    9.091 
#    0.000    3.636    0.000    0.000    0.000    0.000 
#    0.000    0.000    0.000    0.000    0.000    0.000 
#
# Total GULP energy -545505.422471 kJ/mol
# GULP energy per Si atom -12397.850511 kJ/mol
# Density = 2.141566 g / cm^3
# Si number density = 21.464511 Si / 1000 Ang^3
#
#
#
# Elastic Constant Matrix: (Units=GPa)
#
#
# Indices 1 2 3 4 5 6 
#
# 1 47.0518 27.3750 28.7999 0.0000 0.0000 0.0000
# 2 27.3750 196.6814 102.1425 0.0000 0.0000 0.0000
# 3 28.7999 102.1425 172.5352 0.0000 0.0000 0.0000
# 4 0.0000 0.0000 0.0000 47.2436 0.0000 0.0000
# 5 0.0000 0.0000 0.0000 0.0000 -22.1832 0.0000
# 6 0.0000 0.0000 0.0000 0.0000 0.0000 4.7081
#
#
#
# Elastic Compliance Matrix: (Units=1/GPa)
#
#
# Indices 1 2 3 4 5 6 
#
# 1 0.024119 -0.001828 -0.002944 0.000000 0.000000 0.000000
# 2 -0.001828 0.007480 -0.004123 0.000000 0.000000 0.000000
# 3 -0.002944 -0.004123 0.008728 0.000000 0.000000 0.000000
# 4 0.000000 0.000000 0.000000 0.021167 0.000000 0.000000
# 5 0.000000 0.000000 0.000000 0.000000 -0.045079 0.000000
# 6 0.000000 0.000000 0.000000 0.000000 0.000000 0.212402
#
#
# Mechanical properties :
#
#
# Convention : Reuss Voigt Hill
#
# Bulk Modulus (GPa) = 44.37151 81.43371 62.90261
# Shear Modulus (GPa) = 19.67588 23.15043 21.41315
#
# Velocity S-wave (km/s) = 3.03094 3.28768 3.16192
# Velocity P-wave (km/s) = 5.74158 7.24106 6.53447
#
# Compressibility (1/GPa) = 0.02253698
#
# Stress axis : x y z
#
# Youngs Moduli (GPa) = 41.46180 133.68840 114.57135
#
# Poissons Ratio (x) = 0.24442 0.33725
# Poissons Ratio (y) = 0.07580 0.47239
# Poissons Ratio (z) = 0.12205 0.55121
#
# Static dielectric constant tensor:
#      x y z
#    x 3.302740 0.000000 0.000000 
#    y 0.000000 4.079100 0.000000 
#    z 0.000000 0.000000 4.040570 
# 
# 
# High freq. dielectric constant tensor:
#      x y z
#    x 1.804470 0.000000 0.000000 
#    y 0.000000 1.849590 0.000000 
#    z 0.000000 0.000000 1.848590 
# 
# From -- ./inp_files/33915.got.cif
#   From: 2010.03.12/outbox.cif.g09.slc.cpg/sg47_17_cif.got.tgz:33915.got - 2010.04.14 03:12:58.
