data_PCOD8200215
_publ_section_title
;
Structure prediction by ZEFSAII (Michael W. Deem and Ramdas Pophale) SiO2 
 PCOD8200215
Probable space group: P M M M
;
_chemical_formula_sum "Si O2"
_cell_formula_units_Z 40
_cell_length_a 9.328582
_cell_length_b 14.069861
_cell_length_c 20.593026
_cell_angle_alpha 90.000000
_cell_angle_beta 90.000000
_cell_angle_gamma 90.000000
_cell_volume 2702.872802
_symmetry_space_group_name_H-M "P M M M"
_symmetry_group_IT_number 47
_symmetry_cell_setting 'orthorhombic'
loop_
_space_group_symop_operation_xyz
x,y,z
-x,-y,z
x,-y,-z
-x,y,-z
-x,-y,-z
x,y,-z
-x,y,z
x,-y,z
loop_
_atom_site_type_symbol
_atom_site_label
_atom_site_fract_x
_atom_site_fract_y
_atom_site_fract_z
Si Si1 0.341770 0.112680 0.119331
Si Si2 0.170019 0.106311 0.500000
Si Si3 0.335054 0.391518 0.424894
Si Si4 0.159979 0.886395 0.000000
Si Si5 0.170603 0.220831 0.625628
Si Si6 0.332548 0.110339 0.265128
O O1 0.500000 0.154531 0.106015
O O2 0.235944 0.154211 0.064722
O O3 0.290949 0.140266 0.191663
O O4 0.348762 0.000000 0.114101
O O5 0.224977 0.160259 0.563874
O O6 0.000000 0.102380 0.500000
O O7 0.234750 0.000000 0.500000
O O8 0.292689 0.378684 0.500000
O O9 0.500000 0.362223 0.413912
O O10 0.310173 0.500000 0.403286
O O11 0.232587 0.326865 0.380833
O O12 0.000000 0.846137 0.000000
O O13 0.161991 0.000000 0.000000
O O14 0.232545 0.173323 0.689785
O O15 0.000000 0.225220 0.630327
O O16 0.500000 0.130336 0.278498
O O17 0.297442 0.000000 0.277524
#
# Coordination Sequence:
#
# PCOD8200215 Si02
#       6
#     8   4   8   4   8   8
#     4   8  14  25  39  53  73 105 142 176 209 245
#     4   9  18  30  40  55  82 112 141 171 206 249
#     4   9  18  33  51  67  83 104 132 171 217 263
#     4   9  15  21  33  55  79 101 132 175 214 247
#     4  11  20  30  45  64  86 112 139 175 219 260
#     4   9  18  31  44  59  82 114 151 184 212 249
#
# _framework density 14.799068
#
# number of rings (size 3 to 8) (size 9 to 14) (size 15 to 20)
#    0.000    2.800    1.000    3.300    0.000    3.600 
#    0.000    3.000    0.000    2.400    0.000    0.000 
#    0.000    0.000    0.000    0.900    0.000   17.500 
#
# Total GULP energy -495898.173177 kJ/mol
# GULP energy per Si atom -12397.454329 kJ/mol
# Density = 1.476538 g / cm^3
# Si number density = 14.799068 Si / 1000 Ang^3
#
#
#
# Elastic Constant Matrix: (Units=GPa)
#
#
# Indices 1 2 3 4 5 6 
#
# 1 88.2725 40.9201 64.9078 0.0000 0.0000 0.0000
# 2 40.9201 62.7506 39.6173 0.0000 0.0000 0.0000
# 3 64.9078 39.6173 116.2245 0.0000 0.0000 0.0000
# 4 0.0000 0.0000 0.0000 4.2742 0.0000 0.0000
# 5 0.0000 0.0000 0.0000 0.0000 23.8342 0.0000
# 6 0.0000 0.0000 0.0000 0.0000 0.0000 19.3454
#
#
#
# Elastic Compliance Matrix: (Units=1/GPa)
#
#
# Indices 1 2 3 4 5 6 
#
# 1 0.022296 -0.008509 -0.009551 0.000000 0.000000 0.000000
# 2 -0.008509 0.023554 -0.003276 0.000000 0.000000 0.000000
# 3 -0.009551 -0.003276 0.015055 0.000000 0.000000 0.000000
# 4 0.000000 0.000000 0.000000 0.233961 0.000000 0.000000
# 5 0.000000 0.000000 0.000000 0.000000 0.041956 0.000000
# 6 0.000000 0.000000 0.000000 0.000000 0.000000 0.051692
#
#
# Mechanical properties :
#
#
# Convention : Reuss Voigt Hill
#
# Bulk Modulus (GPa) = 54.85235 62.01533 58.43384
# Shear Modulus (GPa) = 11.43470 17.61093 14.52282
#
# Velocity S-wave (km/s) = 2.78270 3.45338 3.13602
# Velocity P-wave (km/s) = 6.88983 7.60901 7.25833
#
# Compressibility (1/GPa) = 0.01823076
#
# Stress axis : x y z
#
# Youngs Moduli (GPa) = 44.85038 42.45601 66.42344
#
# Poissons Ratio (x) = 0.36128 0.63442
# Poissons Ratio (y) = 0.38165 0.21763
# Poissons Ratio (z) = 0.42837 0.13911
#
# Static dielectric constant tensor:
#      x y z
#    x 2.877170 0.000000 0.000000 
#    y 0.000000 2.555430 0.000000 
#    z 0.000000 0.000000 2.928410 
# 
# 
# High freq. dielectric constant tensor:
#      x y z
#    x 1.566990 0.000000 0.000000 
#    y 0.000000 1.520010 0.000000 
#    z 0.000000 0.000000 1.563010 
# 
# From -- ./inp_files/21264.got.cif
#   From: 2010.03.12/outbox.cif.g09.slc.cpg/sg47_11_cif.got.tgz:21264.got - 2010.04.14 03:12:58.
