data_PCOD8200045
_publ_section_title
;
Structure prediction by ZEFSAII (Michael W. Deem and Ramdas Pophale) SiO2 
 PCOD8200045
Probable space group: P M M M
;
_chemical_formula_sum "Si O2"
_cell_formula_units_Z 48
_cell_length_a 17.412296
_cell_length_b 15.713147
_cell_length_c 8.794042
_cell_angle_alpha 90.000000
_cell_angle_beta 90.000000
_cell_angle_gamma 90.000000
_cell_volume 2406.067186
_symmetry_space_group_name_H-M "P M M M"
_symmetry_group_IT_number 47
_symmetry_cell_setting 'orthorhombic'
loop_
_space_group_symop_operation_xyz
x,y,z
-x,-y,z
x,-y,-z
-x,y,-z
-x,-y,-z
x,y,-z
-x,y,z
x,-y,z
loop_
_atom_site_type_symbol
_atom_site_label
_atom_site_fract_x
_atom_site_fract_y
_atom_site_fract_z
Si Si1 0.909795 0.000000 0.829188
Si Si2 0.822383 0.658466 0.818041
Si Si3 0.589071 0.000000 0.332559
Si Si4 0.090608 0.500000 0.677605
Si Si5 0.350625 0.335906 0.169874
Si Si6 0.833274 0.160716 0.320596
Si Si7 0.325765 0.856736 0.171764
Si Si8 0.500000 0.599253 0.664743
O O1 0.886461 0.085534 0.741187
O O2 0.000000 0.000000 0.838750
O O3 0.874452 0.000000 0.000000
O O4 0.875085 0.583666 0.755239
O O5 0.734189 0.642649 0.762427
O O6 0.854107 0.748541 0.756035
O O7 0.825398 0.661947 0.000000
O O8 0.609874 0.918072 0.235085
O O9 0.500000 0.000000 0.356925
O O10 0.628722 0.000000 0.500000
O O11 0.111206 0.500000 0.500000
O O12 0.000000 0.500000 0.705645
O O13 0.363407 0.235518 0.174012
O O14 0.420650 0.377097 0.256803
O O15 0.354309 0.372256 0.000000
O O16 0.844706 0.169397 0.500000
O O17 0.746644 0.135354 0.281872
O O18 0.300956 0.881187 0.000000
O O19 0.500000 0.500000 0.647682
O O20 0.500000 0.643752 0.500000
#
# Coordination Sequence:
#
# PCOD8200045 Si02
#       8
#     4   8   4   4   8   8   8   4
#     4  11  24  41  62  89 123 163 204 249 302 363
#     4  10  22  42  67  94 123 162 212 258 306 368
#     4  11  24  37  52  81 117 153 196 247 302 353
#     4  11  25  43  65  96 131 166 203 251 312 371
#     4   9  21  40  62  87 115 155 201 249 298 351
#     4  11  22  39  64  92 123 159 199 249 307 364
#     4  10  21  39  61  84 113 154 203 247 293 353
#     4  11  25  39  55  86 121 156 195 241 300 361
#
# _framework density 19.949569
#
# number of rings (size 3 to 8) (size 9 to 14) (size 15 to 20)
#    0.000    1.667    0.000    5.000    2.333    7.333 
#    0.000    0.000    0.000    0.000    0.000    0.000 
#    0.000    0.000    0.000    0.000    0.000    0.000 
#
# Total GULP energy -595147.354647 kJ/mol
# GULP energy per Si atom -12398.903222 kJ/mol
# Density = 1.990416 g / cm^3
# Si number density = 19.949569 Si / 1000 Ang^3
#
#
#
# Elastic Constant Matrix: (Units=GPa)
#
#
# Indices 1 2 3 4 5 6 
#
# 1 96.0697 63.5611 51.8787 0.0000 0.0000 0.0000
# 2 63.5611 124.3791 63.2553 0.0000 0.0000 0.0000
# 3 51.8787 63.2553 137.4090 0.0000 0.0000 0.0000
# 4 0.0000 0.0000 0.0000 33.1153 0.0000 0.0000
# 5 0.0000 0.0000 0.0000 0.0000 10.6210 0.0000
# 6 0.0000 0.0000 0.0000 0.0000 0.0000 -61.6008
#
#
#
# Elastic Compliance Matrix: (Units=1/GPa)
#
#
# Indices 1 2 3 4 5 6 
#
# 1 0.016679 -0.006947 -0.003099 0.000000 0.000000 0.000000
# 2 -0.006947 0.013391 -0.003542 0.000000 0.000000 0.000000
# 3 -0.003099 -0.003542 0.010078 0.000000 0.000000 0.000000
# 4 0.000000 0.000000 0.000000 0.030198 0.000000 0.000000
# 5 0.000000 0.000000 0.000000 0.000000 0.094153 0.000000
# 6 0.000000 0.000000 0.000000 0.000000 0.000000 -0.016234
#
#
# Mechanical properties :
#
#
# Convention : Reuss Voigt Hill
#
# Bulk Modulus (GPa) = 77.08711 79.47202 78.27956
# Shear Modulus (GPa) = 27.81399 8.37128 18.09263
#
# Velocity S-wave (km/s) = 3.73797 2.05069 3.01478
# Velocity P-wave (km/s) = 7.57329 6.74760 7.17234
#
# Compressibility (1/GPa) = 0.01297234
#
# Stress axis : x y z
#
# Youngs Moduli (GPa) = 59.95516 74.67458 99.22661
#
# Poissons Ratio (x) = 0.51880 0.30750
# Poissons Ratio (y) = 0.41653 0.35143
# Poissons Ratio (z) = 0.18580 0.26447
#
# Static dielectric constant tensor:
#      x y z
#    x 3.493840 0.000000 0.000000 
#    y 0.000000 3.860140 0.000000 
#    z 0.000000 0.000000 3.966690 
# 
# 
# High freq. dielectric constant tensor:
#      x y z
#    x 1.774780 0.000000 0.000000 
#    y 0.000000 1.788730 0.000000 
#    z 0.000000 0.000000 1.791570 
# 
# From -- ./inp_files/9311.got.cif
#   From: 2010.03.12/outbox.cif.g09.slc.cpg/sg47_5_cif.got.tgz:9311.got - 2010.04.14 03:12:58.
