data_PCOD8200561
_publ_section_title
;
Structure prediction by ZEFSAII (Michael W. Deem and Ramdas Pophale) SiO2 
 PCOD8200561
Probable space group: P M M M
;
_chemical_formula_sum "Si O2"
_cell_formula_units_Z 48
_cell_length_a 9.100609
_cell_length_b 13.170248
_cell_length_c 18.680399
_cell_angle_alpha 90.000000
_cell_angle_beta 90.000000
_cell_angle_gamma 90.000000
_cell_volume 2238.981766
_symmetry_space_group_name_H-M "P M M M"
_symmetry_group_IT_number 47
_symmetry_cell_setting 'orthorhombic'
loop_
_space_group_symop_operation_xyz
x,y,z
-x,-y,z
x,-y,-z
-x,y,-z
-x,-y,-z
x,y,-z
-x,y,z
x,-y,z
loop_
_atom_site_type_symbol
_atom_site_label
_atom_site_fract_x
_atom_site_fract_y
_atom_site_fract_z
Si Si1 0.667130 0.878833 0.640161
Si Si2 0.832288 0.697433 0.862915
Si Si3 0.832132 0.121774 0.500000
Si Si4 0.663874 0.380148 0.729364
Si Si5 0.674253 0.386446 0.575709
Si Si6 0.326397 0.383815 0.000000
Si Si7 0.832871 0.886955 0.221452
O O1 0.500000 0.841665 0.633853
O O2 0.752492 0.834841 0.571207
O O3 0.734034 0.838899 0.715264
O O4 0.680290 0.000000 0.641151
O O5 0.779699 0.641226 0.791482
O O6 0.817653 0.818115 0.849292
O O7 0.000000 0.665480 0.878527
O O8 0.733180 0.670637 0.929943
O O9 0.000000 0.158755 0.500000
O O10 0.822042 0.000000 0.500000
O O11 0.500000 0.341240 0.750981
O O12 0.657327 0.500000 0.716829
O O13 0.715633 0.330757 0.651758
O O14 0.728676 0.333404 0.500000
O O15 0.500000 0.393254 0.574751
O O16 0.740728 0.500000 0.575793
O O17 0.273897 0.500000 0.000000
O O18 0.500000 0.375164 0.000000
O O19 0.000000 0.887844 0.249687
O O20 0.780884 0.000000 0.200242
#
# Coordination Sequence:
#
# PCOD8200561 Si02
#       7
#     8   8   4   8   8   4   8
#     4   9  16  26  44  72 103 136 182 242 297 340
#     4  11  23  38  60  88 116 147 186 231 283 337
#     4   9  15  23  39  65  99 141 186 233 292 357
#     4   9  17  30  51  80 113 149 187 228 278 337
#     4   7  10  19  39  68 100 136 181 227 266 312
#     4  11  25  45  68  93 122 154 183 215 266 335
#     4   9  19  37  58  79 107 147 194 237 282 342
#
# _framework density 21.438314999999999
#
# number of rings (size 3 to 8) (size 9 to 14) (size 15 to 20)
#    0.000    2.833    0.000    3.500    0.000    7.333 
#    0.000    0.417    1.833    3.000    0.000    2.333 
#    0.000    0.000    0.000    0.000    0.000    0.000 
#
# Total GULP energy -594917.511088 kJ/mol
# GULP energy per Si atom -12394.114814 kJ/mol
# Density = 2.138952 g / cm^3
# Si number density = 21.438315 Si / 1000 Ang^3
#
#
#
# Elastic Constant Matrix: (Units=GPa)
#
#
# Indices 1 2 3 4 5 6 
#
# 1 98.7908 23.1895 57.1955 0.0000 0.0000 0.0000
# 2 23.1895 42.2303 46.0405 0.0000 0.0000 0.0000
# 3 57.1955 46.0405 171.9599 0.0000 0.0000 0.0000
# 4 0.0000 0.0000 0.0000 31.8961 0.0000 0.0000
# 5 0.0000 0.0000 0.0000 0.0000 13.2814 0.0000
# 6 0.0000 0.0000 0.0000 0.0000 0.0000 17.6076
#
#
#
# Elastic Compliance Matrix: (Units=1/GPa)
#
#
# Indices 1 2 3 4 5 6 
#
# 1 0.012871 -0.003390 -0.003373 0.000000 0.000000 0.000000
# 2 -0.003390 0.034334 -0.008065 0.000000 0.000000 0.000000
# 3 -0.003373 -0.008065 0.009097 0.000000 0.000000 0.000000
# 4 0.000000 0.000000 0.000000 0.031352 0.000000 0.000000
# 5 0.000000 0.000000 0.000000 0.000000 0.075293 0.000000
# 6 0.000000 0.000000 0.000000 0.000000 0.000000 0.056794
#
#
# Mechanical properties :
#
#
# Convention : Reuss Voigt Hill
#
# Bulk Modulus (GPa) = 37.53069 62.87021 50.20045
# Shear Modulus (GPa) = 19.35892 24.99406 22.17649
#
# Velocity S-wave (km/s) = 3.00827 3.41817 3.21975
# Velocity P-wave (km/s) = 5.44156 6.70584 6.10651
#
# Compressibility (1/GPa) = 0.02664486
#
# Stress axis : x y z
#
# Youngs Moduli (GPa) = 77.69264 29.12574 109.93035
#
# Poissons Ratio (x) = 0.09874 0.37084
# Poissons Ratio (y) = 0.26338 0.88659
# Poissons Ratio (z) = 0.26209 0.23490
#
# Static dielectric constant tensor:
#      x y z
#    x 3.665960 0.000000 0.000000 
#    y 0.000000 3.818980 0.000000 
#    z 0.000000 0.000000 4.058840 
# 
# 
# High freq. dielectric constant tensor:
#      x y z
#    x 1.816760 0.000000 0.000000 
#    y 0.000000 1.853540 0.000000 
#    z 0.000000 0.000000 1.838540 
# 
# From -- ./inp_files/26555.got.cif
#   From: 2010.03.12/outbox.cif.g09.slc.cpg/sg47_14_cif.got.tgz:26555.got - 2010.04.14 03:12:58.
