data_PCOD8200611
_publ_section_title
;
Structure prediction by ZEFSAII (Michael W. Deem and Ramdas Pophale) SiO2 
 PCOD8200611
Probable space group: P M M M
;
_chemical_formula_sum "Si O2"
_cell_formula_units_Z 44
_cell_length_a 9.220790
_cell_length_b 28.140033
_cell_length_c 9.296284
_cell_angle_alpha 90.000000
_cell_angle_beta 90.000000
_cell_angle_gamma 90.000000
_cell_volume 2412.137812
_symmetry_space_group_name_H-M "P M M M"
_symmetry_group_IT_number 47
_symmetry_cell_setting 'orthorhombic'
loop_
_space_group_symop_operation_xyz
x,y,z
-x,-y,z
x,-y,-z
-x,y,-z
-x,-y,-z
x,y,-z
-x,y,z
x,-y,z
loop_
_atom_site_type_symbol
_atom_site_label
_atom_site_fract_x
_atom_site_fract_y
_atom_site_fract_z
Si Si1 0.826939 0.090614 0.338147
Si Si2 0.833023 0.554869 0.164918
Si Si3 0.172259 0.178821 0.840534
Si Si4 0.827163 0.000000 0.162741
Si Si5 0.166714 0.285088 0.831039
Si Si6 0.329592 0.633676 0.333842
O O1 0.766532 0.086378 0.500000
O O2 0.766349 0.139479 0.269263
O O3 0.768233 0.046431 0.245171
O O4 0.000000 0.090604 0.338885
O O5 0.806509 0.500000 0.202717
O O6 0.733503 0.585486 0.268561
O O7 0.000000 0.568773 0.190475
O O8 0.790606 0.565235 0.000000
O O9 0.217215 0.231642 0.790139
O O10 0.000000 0.176055 0.847743
O O11 0.234602 0.168283 0.000000
O O12 0.000000 0.000000 0.161365
O O13 0.766857 0.000000 0.000000
O O14 0.266991 0.320363 0.743847
O O15 0.000000 0.293505 0.786857
O O16 0.186757 0.294158 0.000000
O O17 0.286080 0.635990 0.500000
O O18 0.500000 0.633117 0.310352
#
# Coordination Sequence:
#
# PCOD8200611 Si02
#       6
#     8   8   8   4   8   8
#     4   9  15  21  30  47  72 102 139 182 226 276
#     4   9  19  37  60  83 104 128 163 205 244 285
#     4   8  14  25  40  58  80 106 140 185 234 281
#     4   9  15  21  29  41  63 101 144 183 226 275
#     4   9  18  33  53  74  94 121 162 208 248 290
#     4  11  24  37  49  72 106 138 166 199 241 289
#
# _framework density 18.24108
#
# number of rings (size 3 to 8) (size 9 to 14) (size 15 to 20)
#    0.000    2.818    0.000    3.545    0.000    9.091 
#    0.000    4.545    0.000    0.000    0.000    0.000 
#    0.000    0.000    0.000    0.818    0.000   16.182 
#
# Total GULP energy -545525.519437 kJ/mol
# GULP energy per Si atom -12398.307260 kJ/mol
# Density = 1.819956 g / cm^3
# Si number density = 18.241080 Si / 1000 Ang^3
#
#
#
# Elastic Constant Matrix: (Units=GPa)
#
#
# Indices 1 2 3 4 5 6 
#
# 1 35.3354 36.4500 36.9107 0.0000 0.0000 0.0000
# 2 36.4500 147.5018 86.0070 0.0000 0.0000 0.0000
# 3 36.9107 86.0070 128.0969 0.0000 0.0000 0.0000
# 4 0.0000 0.0000 0.0000 17.6394 0.0000 0.0000
# 5 0.0000 0.0000 0.0000 0.0000 19.3763 0.0000
# 6 0.0000 0.0000 0.0000 0.0000 0.0000 -2.0300
#
#
#
# Elastic Compliance Matrix: (Units=1/GPa)
#
#
# Indices 1 2 3 4 5 6 
#
# 1 0.043135 -0.005607 -0.008664 0.000000 0.000000 0.000000
# 2 -0.005607 0.011870 -0.006354 0.000000 0.000000 0.000000
# 3 -0.008664 -0.006354 0.014570 0.000000 0.000000 0.000000
# 4 0.000000 0.000000 0.000000 0.056691 0.000000 0.000000
# 5 0.000000 0.000000 0.000000 0.000000 0.051610 0.000000
# 6 0.000000 0.000000 0.000000 0.000000 0.000000 -0.492610
#
#
# Mechanical properties :
#
#
# Convention : Reuss Voigt Hill
#
# Bulk Modulus (GPa) = 35.30686 69.96329 52.63508
# Shear Modulus (GPa) = -18.93640 17.10156 -0.91742
#
# Velocity S-wave (km/s) = -3.22548 3.06523 -0.70995
# Velocity P-wave (km/s) = 2.35076 7.13902 5.31468
#
# Compressibility (1/GPa) = 0.02832310
#
# Stress axis : x y z
#
# Youngs Moduli (GPa) = 23.18309 84.24361 68.63593
#
# Poissons Ratio (x) = 0.47237 0.59469
# Poissons Ratio (y) = 0.12999 0.43613
# Poissons Ratio (z) = 0.20087 0.53531
#
# Static dielectric constant tensor:
#      x y z
#    x 2.810560 0.000000 0.000000 
#    y 0.000000 3.587150 0.000000 
#    z 0.000000 0.000000 3.509610 
# 
# 
# High freq. dielectric constant tensor:
#      x y z
#    x 1.645550 0.000000 0.000000 
#    y 0.000000 1.726440 0.000000 
#    z 0.000000 0.000000 1.711040 
# 
# From -- ./inp_files/2240.got.cif
#   From: 2010.03.12/outbox.cif.g09.slc.cpg/sg47_2_cif.got.tgz:2240.got - 2010.04.14 03:12:58.
