data_PCOD8200819
_publ_section_title
;
Structure prediction by ZEFSAII (Michael W. Deem and Ramdas Pophale) SiO2 
 PCOD8200819
Probable space group: P M M M
;
_chemical_formula_sum "Si O2"
_cell_formula_units_Z 56
_cell_length_a 15.315418
_cell_length_b 30.704595
_cell_length_c 9.309910
_cell_angle_alpha 90.000000
_cell_angle_beta 90.000000
_cell_angle_gamma 90.000000
_cell_volume 4378.019689
_symmetry_space_group_name_H-M "P M M M"
_symmetry_group_IT_number 47
_symmetry_cell_setting 'orthorhombic'
loop_
_space_group_symop_operation_xyz
x,y,z
-x,-y,z
x,-y,-z
-x,y,-z
-x,-y,-z
x,y,-z
-x,y,z
x,-y,z
loop_
_atom_site_type_symbol
_atom_site_label
_atom_site_fract_x
_atom_site_fract_y
_atom_site_fract_z
Si Si1 0.104101 0.287437 0.162931
Si Si2 0.103819 0.548186 0.161291
Si Si3 0.899624 0.120122 0.166833
Si Si4 0.595571 0.948257 0.661872
Si Si5 0.103826 0.795419 0.662490
Si Si6 0.760262 0.950621 0.832236
Si Si7 0.895836 0.370684 0.338030
O O1 0.140762 0.245574 0.248287
O O2 0.138985 0.330320 0.244101
O O3 0.000000 0.286901 0.161204
O O4 0.140165 0.287029 0.000000
O O5 0.134982 0.500000 0.211363
O O6 0.141337 0.584675 0.268876
O O7 0.000000 0.550067 0.161666
O O8 0.137637 0.557775 0.000000
O O9 0.864923 0.160550 0.260010
O O10 0.844057 0.077864 0.210631
O O11 0.000000 0.109093 0.202058
O O12 0.887935 0.132358 0.000000
O O13 0.611766 0.932074 0.500000
O O14 0.500000 0.931519 0.715399
O O15 0.673724 0.930048 0.759846
O O16 0.596158 0.000000 0.668846
O O17 0.140588 0.794063 0.500000
O O18 0.000000 0.793400 0.660995
O O19 0.778601 0.000000 0.779598
O O20 0.742608 0.949426 0.000000
O O21 0.859786 0.366633 0.500000
O O22 0.000000 0.370894 0.338746
#
# Coordination Sequence:
#
# PCOD8200819 Si02
#       7
#     8   8   8   8   8   8   8
#     4   9  15  22  32  43  54  68  86 110 143 181
#     4   8  13  20  27  33  43  61  83 104 128 163
#     4   9  17  28  39  50  67  91 115 136 160 192
#     4   8  14  25  40  56  73  92 111 131 159 194
#     4   9  16  25  36  48  60  74  96 126 156 184
#     4   9  17  27  39  56  74  91 113 139 163 187
#     4   9  15  20  26  37  51  64  80 105 136 169
#
# _framework density 12.791172
#
# number of rings (size 3 to 8) (size 9 to 14) (size 15 to 20)
#    0.000    3.286    0.000    2.143    0.000    6.571 
#    0.000    4.286    0.000    0.000    0.000    4.000 
#    0.000    0.000    0.000    0.000    0.000    0.000 
#
# Total GULP energy -694051.601581 kJ/mol
# GULP energy per Si atom -12393.778600 kJ/mol
# Density = 1.276206 g / cm^3
# Si number density = 12.791172 Si / 1000 Ang^3
#
#
#
# Elastic Constant Matrix: (Units=GPa)
#
#
# Indices 1 2 3 4 5 6 
#
# 1 35.2531 28.2726 23.8427 0.0000 0.0000 0.0000
# 2 28.2726 96.6367 57.8626 0.0000 0.0000 0.0000
# 3 23.8427 57.8626 89.5629 0.0000 0.0000 0.0000
# 4 0.0000 0.0000 0.0000 19.8627 0.0000 0.0000
# 5 0.0000 0.0000 0.0000 0.0000 10.4987 0.0000
# 6 0.0000 0.0000 0.0000 0.0000 0.0000 0.4266
#
#
#
# Elastic Compliance Matrix: (Units=1/GPa)
#
#
# Indices 1 2 3 4 5 6 
#
# 1 0.038298 -0.008318 -0.004822 0.000000 0.000000 0.000000
# 2 -0.008318 0.018683 -0.009856 0.000000 0.000000 0.000000
# 3 -0.004822 -0.009856 0.018816 0.000000 0.000000 0.000000
# 4 0.000000 0.000000 0.000000 0.050346 0.000000 0.000000
# 5 0.000000 0.000000 0.000000 0.000000 0.095250 0.000000
# 6 0.000000 0.000000 0.000000 0.000000 0.000000 2.344269
#
#
# Mechanical properties :
#
#
# Convention : Reuss Voigt Hill
#
# Bulk Modulus (GPa) = 33.54948 49.04540 41.29744
# Shear Modulus (GPa) = 1.90724 13.58925 7.74825
#
# Velocity S-wave (km/s) = 1.22241 3.26297 2.46387
# Velocity P-wave (km/s) = 5.31770 7.25413 6.36005
#
# Compressibility (1/GPa) = 0.02980673
#
# Stress axis : x y z
#
# Youngs Moduli (GPa) = 26.11108 53.52503 53.14514
#
# Poissons Ratio (x) = 0.44520 0.25625
# Poissons Ratio (y) = 0.21718 0.52379
# Poissons Ratio (z) = 0.12590 0.52754
#
# Static dielectric constant tensor:
#      x y z
#    x 2.188630 0.000000 0.000000 
#    y 0.000000 2.688400 0.000000 
#    z 0.000000 0.000000 2.775860 
# 
# 
# High freq. dielectric constant tensor:
#      x y z
#    x 1.407380 0.000000 0.000000 
#    y 0.000000 1.482380 0.000000 
#    z 0.000000 0.000000 1.498720 
# 
# From -- ./inp_files/8129.got.cif
#   From: 2010.03.12/outbox.cif.g09.slc.cpg/sg47_5_cif.got.tgz:8129.got - 2010.04.14 03:12:58.
