data_PCOD8200940
_publ_section_title
;
Structure prediction by ZEFSAII (Michael W. Deem and Ramdas Pophale) SiO2 
 PCOD8200940
Probable space group: P M M M
;
_chemical_formula_sum "Si O2"
_cell_formula_units_Z 60
_cell_length_a 9.258313
_cell_length_b 20.695995
_cell_length_c 28.201041
_cell_angle_alpha 90.000000
_cell_angle_beta 90.000000
_cell_angle_gamma 90.000000
_cell_volume 5403.601454
_symmetry_space_group_name_H-M "P M M M"
_symmetry_group_IT_number 47
_symmetry_cell_setting 'orthorhombic'
loop_
_space_group_symop_operation_xyz
x,y,z
-x,-y,z
x,-y,-z
-x,y,-z
-x,-y,-z
x,y,-z
-x,y,z
x,-y,z
loop_
_atom_site_type_symbol
_atom_site_label
_atom_site_fract_x
_atom_site_fract_y
_atom_site_fract_z
Si Si1 0.837764 0.071306 0.056391
Si Si2 0.335991 0.422998 0.500000
Si Si3 0.839312 0.423302 0.228786
Si Si4 0.169627 0.317788 0.054630
Si Si5 0.163767 0.423017 0.408613
Si Si6 0.828131 0.571711 0.124128
Si Si7 0.662727 0.577077 0.317568
Si Si8 0.338035 0.808227 0.056452
O O1 0.734178 0.126692 0.077585
O O2 0.000000 0.083312 0.075171
O O3 0.783420 0.000000 0.072555
O O4 0.837773 0.075128 0.000000
O O5 0.338342 0.500000 0.500000
O O6 0.500000 0.396323 0.500000
O O7 0.251796 0.396822 0.453913
O O8 0.848572 0.500000 0.232437
O O9 0.778960 0.404715 0.176568
O O10 0.732701 0.395710 0.269020
O O11 0.000000 0.394427 0.236909
O O12 0.228995 0.378326 0.084824
O O13 0.248765 0.253909 0.073638
O O14 0.000000 0.306875 0.061871
O O15 0.207217 0.332143 0.000000
O O16 0.161626 0.500000 0.408893
O O17 0.243322 0.396995 0.361614
O O18 0.000000 0.396246 0.409946
O O19 0.765862 0.500000 0.112786
O O20 0.000000 0.568326 0.123325
O O21 0.500000 0.603926 0.321813
O O22 0.661593 0.500000 0.317463
O O23 0.500000 0.803483 0.076461
O O24 0.337483 0.811134 0.000000
#
# Coordination Sequence:
#
# PCOD8200940 Si02
#       8
#     8   4   8   8   8   8   8   8
#     4   8  13  21  33  48  64  80  97 116 135 153
#     4   9  15  21  27  35  49  67  85 105 125 141
#     4   8  13  22  34  44  54  67  81 100 130 167
#     4   9  16  25  37  50  62  77  96 117 141 170
#     4   9  15  21  28  37  49  66  86 103 120 145
#     4   8  14  24  37  51  62  71  88 116 147 177
#     4   9  15  21  29  41  54  65  79 100 125 153
#     4   9  16  24  33  45  62  82 100 116 133 156
#
# _framework density 11.103706000000001
#
# number of rings (size 3 to 8) (size 9 to 14) (size 15 to 20)
#    0.000    3.400    0.000    2.600    0.000    6.133 
#    0.000    3.333    0.000    1.200    0.000    1.867 
#    0.000    0.000    0.000    0.000    0.000    0.000 
#
# Total GULP energy -743580.591456 kJ/mol
# GULP energy per Si atom -12393.009858 kJ/mol
# Density = 1.107843 g / cm^3
# Si number density = 11.103706 Si / 1000 Ang^3
#
#
#
# Elastic Constant Matrix: (Units=GPa)
#
#
# Indices 1 2 3 4 5 6 
#
# 1 73.7746 28.0331 36.0220 0.0000 0.0000 0.0000
# 2 28.0331 50.7706 28.9608 0.0000 0.0000 0.0000
# 3 36.0220 28.9608 64.9189 0.0000 0.0000 0.0000
# 4 0.0000 0.0000 0.0000 0.3023 0.0000 0.0000
# 5 0.0000 0.0000 0.0000 0.0000 10.1831 0.0000
# 6 0.0000 0.0000 0.0000 0.0000 0.0000 5.5810
#
#
#
# Elastic Compliance Matrix: (Units=1/GPa)
#
#
# Indices 1 2 3 4 5 6 
#
# 1 0.019998 -0.006321 -0.008277 0.000000 0.000000 0.000000
# 2 -0.006321 0.028417 -0.009170 0.000000 0.000000 0.000000
# 3 -0.008277 -0.009170 0.024087 0.000000 0.000000 0.000000
# 4 0.000000 0.000000 0.000000 3.308326 0.000000 0.000000
# 5 0.000000 0.000000 0.000000 0.000000 0.098202 0.000000
# 6 0.000000 0.000000 0.000000 0.000000 0.000000 0.179180
#
#
# Mechanical properties :
#
#
# Convention : Reuss Voigt Hill
#
# Bulk Modulus (GPa) = 40.05180 41.72177 40.88678
# Shear Modulus (GPa) = 1.34623 9.64315 5.49469
#
# Velocity S-wave (km/s) = 1.10229 2.95016 2.22694
# Velocity P-wave (km/s) = 6.14565 7.01861 6.59658
#
# Compressibility (1/GPa) = 0.02496767
#
# Stress axis : x y z
#
# Youngs Moduli (GPa) = 50.00557 35.19005 41.51605
#
# Poissons Ratio (x) = 0.22242 0.34361
# Poissons Ratio (y) = 0.31607 0.38070
# Poissons Ratio (z) = 0.41388 0.32269
#
# Static dielectric constant tensor:
#      x y z
#    x 2.476270 0.000000 0.000000 
#    y 0.000000 2.139050 0.000000 
#    z 0.000000 0.000000 2.342350 
# 
# 
# High freq. dielectric constant tensor:
#      x y z
#    x 1.424180 0.000000 0.000000 
#    y 0.000000 1.364110 0.000000 
#    z 0.000000 0.000000 1.396960 
# 
# From -- ./inp_files/33502.got.cif
#   From: 2010.03.12/outbox.cif.g09.slc.cpg/sg47_17_cif.got.tgz:33502.got - 2010.04.14 03:12:58.
