data_PCOD8200377
_publ_section_title
;
Structure prediction by ZEFSAII (Michael W. Deem and Ramdas Pophale) SiO2 
 PCOD8200377
Probable space group: P M M M
;
_chemical_formula_sum "Si O2"
_cell_formula_units_Z 52
_cell_length_a 9.305828
_cell_length_b 29.492396
_cell_length_c 10.720325
_cell_angle_alpha 90.000000
_cell_angle_beta 90.000000
_cell_angle_gamma 90.000000
_cell_volume 2942.205680
_symmetry_space_group_name_H-M "P M M M"
_symmetry_group_IT_number 47
_symmetry_cell_setting 'orthorhombic'
loop_
_space_group_symop_operation_xyz
x,y,z
-x,-y,z
x,-y,-z
-x,y,-z
-x,-y,-z
x,y,-z
-x,y,z
x,-y,z
loop_
_atom_site_type_symbol
_atom_site_label
_atom_site_fract_x
_atom_site_fract_y
_atom_site_fract_z
Si Si1 0.338071 0.946555 0.000000
Si Si2 0.169870 0.276520 0.356441
Si Si3 0.660090 0.366386 0.352663
Si Si4 0.169827 0.892272 0.200166
Si Si5 0.658167 0.950124 0.644812
Si Si6 0.161226 0.550164 0.351652
Si Si7 0.170236 0.791072 0.859913
O O1 0.252077 0.928852 0.118048
O O2 0.500000 0.927584 0.000000
O O3 0.336075 0.000000 0.000000
O O4 0.209789 0.262043 0.500000
O O5 0.245443 0.323036 0.317284
O O6 0.226943 0.240393 0.253727
O O7 0.000000 0.283729 0.346257
O O8 0.650864 0.371403 0.500000
O O9 0.500000 0.361466 0.296008
O O10 0.733995 0.411471 0.295038
O O11 0.224900 0.909607 0.334049
O O12 0.223527 0.841800 0.168706
O O13 0.000000 0.895972 0.183707
O O14 0.637860 0.953014 0.500000
O O15 0.500000 0.939118 0.704529
O O16 0.709197 0.000000 0.694209
O O17 0.159568 0.553462 0.500000
O O18 0.214923 0.500000 0.310403
O O19 0.000000 0.558633 0.301244
O O20 0.000000 0.789585 0.858560
O O21 0.224629 0.776631 0.000000
#
# Coordination Sequence:
#
# PCOD8200377 Si02
#       7
#     4   8   8   8   8   8   8
#     4  11  23  37  53  73  99 131 163 191 228 289
#     4   9  17  30  50  71  90 121 165 203 237 287
#     4   9  16  25  38  59  90 124 157 199 248 291
#     4  11  21  34  54  78 101 124 156 202 249 288
#     4   9  19  36  54  72 100 136 166 192 230 286
#     4   8  13  21  34  54  83 121 163 202 239 285
#     4   9  18  34  53  72  98 128 157 197 251 300
#
# _framework density 17.673814
#
# number of rings (size 3 to 8) (size 9 to 14) (size 15 to 20)
#    0.000    2.692    0.769    2.538    0.000    5.846 
#    0.000    5.385    0.000    1.846    0.000    0.000 
#    0.000    0.615    0.000    7.077    0.000    9.077 
#
# Total GULP energy -644200.253815 kJ/mol
# GULP energy per Si atom -12388.466420 kJ/mol
# Density = 1.763359 g / cm^3
# Si number density = 17.673814 Si / 1000 Ang^3
#
#
#
# Elastic Constant Matrix: (Units=GPa)
#
#
# Indices 1 2 3 4 5 6 
#
# 1 76.7645 55.0467 25.8537 0.0000 0.0000 0.0000
# 2 55.0467 130.6380 53.0444 0.0000 0.0000 0.0000
# 3 25.8537 53.0444 65.9928 0.0000 0.0000 0.0000
# 4 0.0000 0.0000 0.0000 8.0159 0.0000 0.0000
# 5 0.0000 0.0000 0.0000 0.0000 15.7436 0.0000
# 6 0.0000 0.0000 0.0000 0.0000 0.0000 11.5989
#
#
#
# Elastic Compliance Matrix: (Units=1/GPa)
#
#
# Indices 1 2 3 4 5 6 
#
# 1 0.018764 -0.007306 -0.001478 0.000000 0.000000 0.000000
# 2 -0.007306 0.014208 -0.008558 0.000000 0.000000 0.000000
# 3 -0.001478 -0.008558 0.022611 0.000000 0.000000 0.000000
# 4 0.000000 0.000000 0.000000 0.124753 0.000000 0.000000
# 5 0.000000 0.000000 0.000000 0.000000 0.063518 0.000000
# 6 0.000000 0.000000 0.000000 0.000000 0.000000 0.086215
#
#
# Mechanical properties :
#
#
# Convention : Reuss Voigt Hill
#
# Bulk Modulus (GPa) = 47.85145 60.14276 53.99711
# Shear Modulus (GPa) = 13.45096 16.36838 14.90967
#
# Velocity S-wave (km/s) = 2.76174 3.04655 2.90763
# Velocity P-wave (km/s) = 6.10763 6.81751 6.47231
#
# Compressibility (1/GPa) = 0.02089801
#
# Stress axis : x y z
#
# Youngs Moduli (GPa) = 53.29358 70.38110 44.22560
#
# Poissons Ratio (x) = 0.51422 0.06538
# Poissons Ratio (y) = 0.38938 0.37849
# Poissons Ratio (z) = 0.07879 0.60234
#
# Static dielectric constant tensor:
#      x y z
#    x 3.288300 0.000000 0.000000 
#    y 0.000000 3.449800 0.000000 
#    z 0.000000 0.000000 4.015740 
# 
# 
# High freq. dielectric constant tensor:
#      x y z
#    x 1.672040 0.000000 0.000000 
#    y 0.000000 1.685300 0.000000 
#    z 0.000000 0.000000 1.648860 
# 
# From -- ./inp_files/15445.got.cif
#   From: 2010.03.12/outbox.cif.g09.slc.cpg/sg47_8_cif.got.tgz:15445.got - 2010.04.14 03:12:58.
