data_PCOD8200878
_publ_section_title
;
Structure prediction by ZEFSAII (Michael W. Deem and Ramdas Pophale) SiO2 
 PCOD8200878
Probable space group: P M M M
;
_chemical_formula_sum "Si O2"
_cell_formula_units_Z 40
_cell_length_a 22.320808
_cell_length_b 9.181348
_cell_length_c 13.004295
_cell_angle_alpha 90.000000
_cell_angle_beta 90.000000
_cell_angle_gamma 90.000000
_cell_volume 2665.036573
_symmetry_space_group_name_H-M "P M M M"
_symmetry_group_IT_number 47
_symmetry_cell_setting 'orthorhombic'
loop_
_space_group_symop_operation_xyz
x,y,z
-x,-y,z
x,-y,-z
-x,y,-z
-x,-y,-z
x,y,-z
-x,y,z
x,-y,z
loop_
_atom_site_type_symbol
_atom_site_label
_atom_site_fract_x
_atom_site_fract_y
_atom_site_fract_z
Si Si1 0.767609 0.168727 0.379759
Si Si2 0.432388 0.826172 0.500000
Si Si3 0.115475 0.335610 0.377564
Si Si4 0.359561 0.826621 0.694647
Si Si5 0.567380 0.826722 0.886110
Si Si6 0.000000 0.835259 0.377304
O O1 0.755360 0.195488 0.500000
O O2 0.823691 0.260723 0.338099
O O3 0.709294 0.223202 0.317433
O O4 0.781755 0.000000 0.359116
O O5 0.500000 0.766655 0.500000
O O6 0.398944 0.764734 0.600680
O O7 0.431541 0.000000 0.500000
O O8 0.114197 0.333526 0.500000
O O9 0.112508 0.500000 0.335342
O O10 0.058617 0.246956 0.334394
O O11 0.386530 0.763900 0.801352
O O12 0.362488 0.000000 0.692246
O O13 0.500000 0.772583 0.860793
O O14 0.568312 0.000000 0.883080
O O15 0.586644 0.772127 0.000000
O O16 0.000000 0.834664 0.500000
O O17 0.000000 0.000000 0.335278
#
# Coordination Sequence:
#
# PCOD8200878 Si02
#       6
#     8   4   8   8   8   4
#     4   9  15  23  33  46  67  94 123 153 186 223
#     4   9  14  18  26  42  63  86 113 148 189 225
#     4   9  16  24  34  48  68  94 125 157 186 216
#     4   9  14  20  29  43  64  91 120 151 186 225
#     4   8  13  20  29  42  63  92 121 148 186 236
#     4   9  15  23  35  51  69  93 126 159 188 213
#
# _framework density 15.009175000000001
#
# number of rings (size 3 to 8) (size 9 to 14) (size 15 to 20)
#    0.000    3.200    1.000    2.100    0.000    6.000 
#    0.000    0.000    0.000    0.000    0.000    0.000 
#    0.000    4.800    0.000    3.100    0.000   23.300 
#
# Total GULP energy -495775.518590 kJ/mol
# GULP energy per Si atom -12394.387965 kJ/mol
# Density = 1.497501 g / cm^3
# Si number density = 15.009175 Si / 1000 Ang^3
#
#
#
# Elastic Constant Matrix: (Units=GPa)
#
#
# Indices 1 2 3 4 5 6 
#
# 1 158.6060 49.8952 57.1234 0.0000 0.0000 0.0000
# 2 49.8952 55.8047 18.1779 0.0000 0.0000 0.0000
# 3 57.1234 18.1779 71.1714 0.0000 0.0000 0.0000
# 4 0.0000 0.0000 0.0000 2.6735 0.0000 0.0000
# 5 0.0000 0.0000 0.0000 0.0000 13.1681 0.0000
# 6 0.0000 0.0000 0.0000 0.0000 0.0000 3.6708
#
#
#
# Elastic Compliance Matrix: (Units=1/GPa)
#
#
# Indices 1 2 3 4 5 6 
#
# 1 0.011313 -0.007807 -0.007086 0.000000 0.000000 0.000000
# 2 -0.007807 0.024933 -0.000102 0.000000 0.000000 0.000000
# 3 -0.007086 -0.000102 0.019764 0.000000 0.000000 0.000000
# 4 0.000000 0.000000 0.000000 0.374046 0.000000 0.000000
# 5 0.000000 0.000000 0.000000 0.000000 0.075941 0.000000
# 6 0.000000 0.000000 0.000000 0.000000 0.000000 0.272421
#
#
# Mechanical properties :
#
#
# Convention : Reuss Voigt Hill
#
# Bulk Modulus (GPa) = 38.43218 59.55278 48.99248
# Shear Modulus (GPa) = 6.11934 14.59484 10.35709
#
# Velocity S-wave (km/s) = 2.02136 3.12171 2.62973
# Velocity P-wave (km/s) = 5.57757 7.26341 6.47558
#
# Compressibility (1/GPa) = 0.02601986
#
# Stress axis : x y z
#
# Youngs Moduli (GPa) = 88.39456 40.10747 50.59687
#
# Poissons Ratio (x) = 0.31311 0.35853
# Poissons Ratio (y) = 0.69007 0.00518
# Poissons Ratio (z) = 0.62637 0.00410
#
# Static dielectric constant tensor:
#      x y z
#    x 3.102760 0.000000 0.000000 
#    y 0.000000 2.545580 0.000000 
#    z 0.000000 0.000000 2.712980 
# 
# 
# High freq. dielectric constant tensor:
#      x y z
#    x 1.587040 0.000000 0.000000 
#    y 0.000000 1.532400 0.000000 
#    z 0.000000 0.000000 1.520590 
# 
# From -- ./inp_files/24829.got.cif
#   From: 2010.03.12/outbox.cif.g09.slc.cpg/sg47_13_cif.got.tgz:24829.got - 2010.04.14 03:12:58.
