data_PCOD8200816
_publ_section_title
;
Structure prediction by ZEFSAII (Michael W. Deem and Ramdas Pophale) SiO2 
 PCOD8200816
Probable space group: P M M M
;
_chemical_formula_sum "Si O2"
_cell_formula_units_Z 56
_cell_length_a 9.429080
_cell_length_b 30.708802
_cell_length_c 15.501691
_cell_angle_alpha 90.000000
_cell_angle_beta 90.000000
_cell_angle_gamma 90.000000
_cell_volume 4488.603776
_symmetry_space_group_name_H-M "P M M M"
_symmetry_group_IT_number 47
_symmetry_cell_setting 'orthorhombic'
loop_
_space_group_symop_operation_xyz
x,y,z
-x,-y,z
x,-y,-z
-x,y,-z
-x,-y,-z
x,y,-z
-x,y,z
x,-y,z
loop_
_atom_site_type_symbol
_atom_site_label
_atom_site_fract_x
_atom_site_fract_y
_atom_site_fract_z
Si Si1 0.833371 0.050223 0.743747
Si Si2 0.842039 0.790255 0.602378
Si Si3 0.659355 0.051713 0.094803
Si Si4 0.340833 0.451706 0.602575
Si Si5 0.168675 0.886643 0.595715
Si Si6 0.839789 0.371728 0.602903
Si Si7 0.660217 0.289704 0.397119
O O1 0.762461 0.069343 0.830561
O O2 0.773684 0.077483 0.662581
O O3 0.000000 0.056359 0.755019
O O4 0.792646 0.000000 0.727403
O O5 0.851092 0.786787 0.500000
O O6 0.784971 0.838388 0.627334
O O7 0.734325 0.754097 0.639149
O O8 0.000000 0.782081 0.640571
O O9 0.500000 0.067978 0.113920
O O10 0.664190 0.000000 0.094481
O O11 0.708654 0.068706 0.000000
O O12 0.340095 0.450001 0.500000
O O13 0.500000 0.441282 0.635560
O O14 0.293885 0.500000 0.633821
O O15 0.232135 0.415861 0.639486
O O16 0.230418 0.896808 0.500000
O O17 0.000000 0.888143 0.591008
O O18 0.840928 0.371949 0.500000
O O19 0.749330 0.330866 0.637325
O O20 0.000000 0.368660 0.638695
O O21 0.658327 0.289490 0.500000
O O22 0.500000 0.292227 0.361037
#
# Coordination Sequence:
#
# PCOD8200816 Si02
#       7
#     8   8   8   8   8   8   8
#     4   9  16  24  36  55  73  87 107 134 158 180
#     4   8  13  22  34  43  52  70  95 118 140 170
#     4   8  14  25  39  52  67  88 109 127 153 189
#     4   8  13  20  27  33  43  60  79  98 123 156
#     4   8  14  24  36  49  66  88 110 130 154 185
#     4   9  15  20  26  36  48  61  78 100 127 162
#     4   9  15  21  29  40  52  63  78 106 142 173
#
# _framework density 12.476039
#
# number of rings (size 3 to 8) (size 9 to 14) (size 15 to 20)
#    0.000    3.571    0.000    2.571    0.000    4.286 
#    0.000    5.000    0.000    1.286    0.000    2.000 
#    0.000    0.000    0.000    0.000    0.000    0.000 
#
# Total GULP energy -693895.701374 kJ/mol
# GULP energy per Si atom -12390.994667 kJ/mol
# Density = 1.244764 g / cm^3
# Si number density = 12.476039 Si / 1000 Ang^3
#
#
#
# Elastic Constant Matrix: (Units=GPa)
#
#
# Indices 1 2 3 4 5 6 
#
# 1 72.8133 48.4283 23.9835 0.0000 0.0000 0.0000
# 2 48.4283 89.9692 32.4233 0.0000 0.0000 0.0000
# 3 23.9835 32.4233 42.1303 0.0000 0.0000 0.0000
# 4 0.0000 0.0000 0.0000 0.5019 0.0000 0.0000
# 5 0.0000 0.0000 0.0000 0.0000 7.2743 0.0000
# 6 0.0000 0.0000 0.0000 0.0000 0.0000 15.9293
#
#
#
# Elastic Compliance Matrix: (Units=1/GPa)
#
#
# Indices 1 2 3 4 5 6 
#
# 1 0.022053 -0.010166 -0.004731 0.000000 0.000000 0.000000
# 2 -0.010166 0.020067 -0.009656 0.000000 0.000000 0.000000
# 3 -0.004731 -0.009656 0.033860 0.000000 0.000000 0.000000
# 4 0.000000 0.000000 0.000000 1.992557 0.000000 0.000000
# 5 0.000000 0.000000 0.000000 0.000000 0.137470 0.000000
# 6 0.000000 0.000000 0.000000 0.000000 0.000000 0.062778
#
#
# Mechanical properties :
#
#
# Convention : Reuss Voigt Hill
#
# Bulk Modulus (GPa) = 37.20946 46.06479 41.63713
# Shear Modulus (GPa) = 2.14883 11.41293 6.78088
#
# Velocity S-wave (km/s) = 1.31381 3.02783 2.33386
# Velocity P-wave (km/s) = 5.67371 7.01615 6.38034
#
# Compressibility (1/GPa) = 0.02687488
#
# Stress axis : x y z
#
# Youngs Moduli (GPa) = 45.34448 49.83316 29.53315
#
# Poissons Ratio (x) = 0.50660 0.13971
# Poissons Ratio (y) = 0.46097 0.28518
# Poissons Ratio (z) = 0.21451 0.48120
#
# Static dielectric constant tensor:
#      x y z
#    x 2.640480 0.000000 0.000000 
#    y 0.000000 2.709200 0.000000 
#    z 0.000000 0.000000 2.233070 
# 
# 
# High freq. dielectric constant tensor:
#      x y z
#    x 1.472930 0.000000 0.000000 
#    y 0.000000 1.470710 0.000000 
#    z 0.000000 0.000000 1.398190 
# 
# From -- ./inp_files/8156.got.cif
#   From: 2010.03.12/outbox.cif.g09.slc.cpg/sg47_5_cif.got.tgz:8156.got - 2010.04.14 03:12:58.
