data_PCOD8200383
_publ_section_title
;
Structure prediction by ZEFSAII (Michael W. Deem and Ramdas Pophale) SiO2 
 PCOD8200383
Probable space group: P M M M
;
_chemical_formula_sum "Si O2"
_cell_formula_units_Z 28
_cell_length_a 7.740254
_cell_length_b 13.998929
_cell_length_c 13.973396
_cell_angle_alpha 90.000000
_cell_angle_beta 90.000000
_cell_angle_gamma 90.000000
_cell_volume 1514.091043
_symmetry_space_group_name_H-M "P M M M"
_symmetry_group_IT_number 47
_symmetry_cell_setting 'orthorhombic'
loop_
_space_group_symop_operation_xyz
x,y,z
-x,-y,z
x,-y,-z
-x,y,-z
-x,-y,-z
x,y,-z
-x,y,z
x,-y,z
loop_
_atom_site_type_symbol
_atom_site_label
_atom_site_fract_x
_atom_site_fract_y
_atom_site_fract_z
Si Si1 0.803260 0.708609 0.710326
Si Si2 0.204118 0.104713 0.392791
Si Si3 0.296254 0.391534 0.108384
Si Si4 0.500000 0.611226 0.604459
O O1 0.736788 0.815823 0.684614
O O2 0.796261 0.686095 0.823568
O O3 0.675396 0.635850 0.659295
O O4 0.000000 0.694512 0.673417
O O5 0.269171 0.132268 0.500000
O O6 0.000000 0.098281 0.393625
O O7 0.279306 0.000000 0.363915
O O8 0.500000 0.383352 0.122320
O O9 0.236827 0.500000 0.132918
O O10 0.242907 0.366361 0.000000
O O11 0.500000 0.500000 0.592355
O O12 0.500000 0.660747 0.500000
#
# Coordination Sequence:
#
# PCOD8200383 Si02
#       4
#     8   8   8   4
#     4  11  21  34  56  81 105 139 180 219 267 320
#     4   8  15  30  52  77 105 137 175 220 265 309
#     4   9  18  34  55  77 104 139 178 221 267 315
#     4  11  24  38  50  72 110 147 178 216 260 311
#
# _framework density 18.492943
#
# number of rings (size 3 to 8) (size 9 to 14) (size 15 to 20)
#    0.000    2.429    1.429    3.429    0.000    4.571 
#    0.000    3.571    0.000    3.429    0.000    6.000 
#    0.000    0.000    0.000    0.000    0.000    0.000 
#
# Total GULP energy -346980.996392 kJ/mol
# GULP energy per Si atom -12392.178443 kJ/mol
# Density = 1.845085 g / cm^3
# Si number density = 18.492943 Si / 1000 Ang^3
#
#
#
# Elastic Constant Matrix: (Units=GPa)
#
#
# Indices 1 2 3 4 5 6 
#
# 1 67.8451 20.6805 24.7927 0.0000 0.0000 0.0000
# 2 20.6805 126.1896 78.2650 0.0000 0.0000 0.0000
# 3 24.7927 78.2650 126.4781 0.0000 0.0000 0.0000
# 4 0.0000 0.0000 0.0000 37.0927 0.0000 0.0000
# 5 0.0000 0.0000 0.0000 0.0000 20.2512 0.0000
# 6 0.0000 0.0000 0.0000 0.0000 0.0000 -165.9038
#
#
#
# Elastic Compliance Matrix: (Units=1/GPa)
#
#
# Indices 1 2 3 4 5 6 
#
# 1 0.015970 -0.001096 -0.002452 0.000000 0.000000 0.000000
# 2 -0.001096 0.012936 -0.007790 0.000000 0.000000 0.000000
# 3 -0.002452 -0.007790 0.013207 0.000000 0.000000 0.000000
# 4 0.000000 0.000000 0.000000 0.026959 0.000000 0.000000
# 5 0.000000 0.000000 0.000000 0.000000 0.049380 0.000000
# 6 0.000000 0.000000 0.000000 0.000000 0.000000 -0.006028
#
#
# Mechanical properties :
#
#
# Convention : Reuss Voigt Hill
#
# Bulk Modulus (GPa) = 51.44936 63.10991 57.27963
# Shear Modulus (GPa) = 35.31594 -8.59367 13.36113
#
# Velocity S-wave (km/s) = 4.37475 -2.15803 2.69085
# Velocity P-wave (km/s) = 7.30749 5.29066 6.37928
#
# Compressibility (1/GPa) = 0.01943659
#
# Stress axis : x y z
#
# Youngs Moduli (GPa) = 62.61865 77.30651 75.71525
#
# Poissons Ratio (x) = 0.08476 0.18565
# Poissons Ratio (y) = 0.06866 0.58979
# Poissons Ratio (z) = 0.15354 0.60219
#
# Static dielectric constant tensor:
#      x y z
#    x 3.253730 0.000000 0.000000 
#    y 0.000000 3.681640 0.000000 
#    z 0.000000 0.000000 3.581340 
# 
# 
# High freq. dielectric constant tensor:
#      x y z
#    x 1.709130 0.000000 0.000000 
#    y 0.000000 1.706240 0.000000 
#    z 0.000000 0.000000 1.706470 
# 
# From -- ./inp_files/20438.got.cif
#   From: 2010.03.12/outbox.cif.g09.slc.cpg/sg47_11_cif.got.tgz:20438.got - 2010.04.14 03:12:58.
