data_PCOD8200276
_publ_section_title
;
Structure prediction by ZEFSAII (Michael W. Deem and Ramdas Pophale) SiO2 
 PCOD8200276
Probable space group: P M M M
;
_chemical_formula_sum "Si O2"
_cell_formula_units_Z 44
_cell_length_a 13.845336
_cell_length_b 21.722950
_cell_length_c 8.799811
_cell_angle_alpha 90.000000
_cell_angle_beta 90.000000
_cell_angle_gamma 90.000000
_cell_volume 2646.644723
_symmetry_space_group_name_H-M "P M M M"
_symmetry_group_IT_number 47
_symmetry_cell_setting 'orthorhombic'
loop_
_space_group_symop_operation_xyz
x,y,z
-x,-y,z
x,-y,-z
-x,y,-z
-x,-y,-z
x,y,-z
-x,y,z
x,-y,z
loop_
_atom_site_type_symbol
_atom_site_label
_atom_site_fract_x
_atom_site_fract_y
_atom_site_fract_z
Si Si1 0.391170 0.354877 0.176215
Si Si2 0.890567 0.687724 0.819728
Si Si3 0.386225 0.000000 0.165027
Si Si4 0.389631 0.866856 0.818409
Si Si5 0.716502 0.754608 0.320973
Si Si6 0.212782 0.432724 0.821647
O O1 0.500000 0.374758 0.215288
O O2 0.362711 0.295658 0.273677
O O3 0.322335 0.412232 0.216858
O O4 0.379297 0.336235 0.000000
O O5 0.821950 0.738616 0.745263
O O6 0.860819 0.619329 0.760176
O O7 0.000000 0.701043 0.769657
O O8 0.877143 0.691071 0.000000
O O9 0.359463 0.064874 0.246276
O O10 0.500000 0.000000 0.140066
O O11 0.335517 0.000000 0.000000
O O12 0.500000 0.850803 0.771529
O O13 0.315523 0.820209 0.742586
O O14 0.379822 0.864900 0.000000
O O15 0.723986 0.757812 0.500000
O O16 0.193309 0.500000 0.746125
O O17 0.198420 0.439145 0.000000
#
# Coordination Sequence:
#
# PCOD8200276 Si02
#       6
#     8   8   4   8   8   8
#     4   9  17  29  44  62  87 120 155 187 218 256
#     4   9  18  33  51  68  86 110 143 184 229 276
#     4   7  12  24  43  67  92 121 156 187 213 246
#     4   9  16  28  47  69  95 126 157 186 215 251
#     4  11  21  30  43  65  92 120 151 186 224 266
#     4   8  14  25  43  69  94 110 133 177 230 277
#
# _framework density 16.624822999999999
#
# number of rings (size 3 to 8) (size 9 to 14) (size 15 to 20)
#    0.000    3.000    0.000    4.364    0.000    4.000 
#    0.000    4.091    0.000   10.364    0.000   10.818 
#    0.000    5.091    0.000    0.000    0.000    0.000 
#
# Total GULP energy -545216.421302 kJ/mol
# GULP energy per Si atom -12391.282302 kJ/mol
# Density = 1.658698 g / cm^3
# Si number density = 16.624823 Si / 1000 Ang^3
#
#
#
# Elastic Constant Matrix: (Units=GPa)
#
#
# Indices 1 2 3 4 5 6 
#
# 1 114.9507 61.8435 33.9827 0.0000 0.0000 0.0000
# 2 61.8435 145.1194 37.3445 0.0000 0.0000 0.0000
# 3 33.9827 37.3445 45.4195 0.0000 0.0000 0.0000
# 4 0.0000 0.0000 0.0000 -1.1611 0.0000 0.0000
# 5 0.0000 0.0000 0.0000 0.0000 9.0397 0.0000
# 6 0.0000 0.0000 0.0000 0.0000 0.0000 18.8097
#
#
#
# Elastic Compliance Matrix: (Units=1/GPa)
#
#
# Indices 1 2 3 4 5 6 
#
# 1 0.012582 -0.003728 -0.006348 0.000000 0.000000 0.000000
# 2 -0.003728 0.009845 -0.005305 0.000000 0.000000 0.000000
# 3 -0.006348 -0.005305 0.031129 0.000000 0.000000 0.000000
# 4 0.000000 0.000000 0.000000 -0.861231 0.000000 0.000000
# 5 0.000000 0.000000 0.000000 0.000000 0.110623 0.000000
# 6 0.000000 0.000000 0.000000 0.000000 0.000000 0.053164
#
#
# Mechanical properties :
#
#
# Convention : Reuss Voigt Hill
#
# Bulk Modulus (GPa) = 43.87482 63.53679 53.70580
# Shear Modulus (GPa) = -8.25725 16.82560 4.28417
#
# Velocity S-wave (km/s) = -2.23105 3.18477 1.60704
# Velocity P-wave (km/s) = 4.45103 7.19893 5.98483
#
# Compressibility (1/GPa) = 0.02279212
#
# Stress axis : x y z
#
# Youngs Moduli (GPa) = 79.47919 101.57567 32.12459
#
# Poissons Ratio (x) = 0.37869 0.20394
# Poissons Ratio (y) = 0.29631 0.17043
# Poissons Ratio (z) = 0.50456 0.53888
#
# Static dielectric constant tensor:
#      x y z
#    x 3.057150 0.000000 0.000000 
#    y 0.000000 3.459780 0.000000 
#    z 0.000000 0.000000 2.777210 
# 
# 
# High freq. dielectric constant tensor:
#      x y z
#    x 1.620720 0.000000 0.000000 
#    y 0.000000 1.642520 0.000000 
#    z 0.000000 0.000000 1.604700 
# 
# From -- ./inp_files/6798.got.cif
#   From: 2010.03.12/outbox.cif.g09.slc.cpg/sg47_4_cif.got.tgz:6798.got - 2010.04.14 03:12:58.
