data_PCOD8200550
_publ_section_title
;
Structure prediction by ZEFSAII (Michael W. Deem and Ramdas Pophale) SiO2 
 PCOD8200550
Probable space group: P M M M
;
_chemical_formula_sum "Si O2"
_cell_formula_units_Z 32
_cell_length_a 15.483071
_cell_length_b 8.639698
_cell_length_c 12.206115
_cell_angle_alpha 90.000000
_cell_angle_beta 90.000000
_cell_angle_gamma 90.000000
_cell_volume 1632.800500
_symmetry_space_group_name_H-M "P M M M"
_symmetry_group_IT_number 47
_symmetry_cell_setting 'orthorhombic'
loop_
_space_group_symop_operation_xyz
x,y,z
-x,-y,z
x,-y,-z
-x,y,-z
-x,-y,-z
x,y,-z
-x,y,z
x,-y,z
loop_
_atom_site_type_symbol
_atom_site_label
_atom_site_fract_x
_atom_site_fract_y
_atom_site_fract_z
Si Si1 0.648758 0.182707 0.725298
Si Si2 0.903611 0.184376 0.000000
Si Si3 0.000000 0.815385 0.375519
Si Si4 0.500000 0.682748 0.126494
Si Si5 0.840687 0.815799 0.230514
Si Si6 0.400101 0.670237 0.500000
O O1 0.586344 0.255982 0.815779
O O2 0.746157 0.245373 0.738478
O O3 0.622679 0.228531 0.604254
O O4 0.643053 0.000000 0.739751
O O5 0.857193 0.247969 0.108392
O O6 0.000000 0.249453 0.000000
O O7 0.903866 0.000000 0.000000
O O8 0.085957 0.752629 0.313935
O O9 0.000000 0.752224 0.500000
O O10 0.000000 0.000000 0.374729
O O11 0.500000 0.500000 0.136966
O O12 0.500000 0.737094 0.000000
O O13 0.843950 0.000000 0.232779
O O14 0.354343 0.500000 0.500000
O O15 0.500000 0.638235 0.500000
#
# Coordination Sequence:
#
# PCOD8200550 Si02
#       6
#     8   4   4   4   8   4
#     4  11  23  37  60  91 119 146 189 248 298 335
#     4   9  14  26  46  69 109 154 186 217 273 346
#     4   9  16  27  43  67 111 157 183 217 280 351
#     4  11  25  44  61  80 115 161 201 233 280 353
#     4   9  18  29  46  77 113 149 184 227 283 340
#     4  11  23  41  63  82 112 155 197 236 284 354
#
# _framework density 19.598231999999999
#
# number of rings (size 3 to 8) (size 9 to 14) (size 15 to 20)
#    0.000    2.000    2.500    1.500    3.500    1.500 
#    0.000    0.000    0.000    0.000    0.000    4.375 
#    0.000    6.000    0.000    0.000    0.000    0.000 
#
# Total GULP energy -396712.613662 kJ/mol
# GULP energy per Si atom -12397.269177 kJ/mol
# Density = 1.955363 g / cm^3
# Si number density = 19.598232 Si / 1000 Ang^3
#
#
#
# Elastic Constant Matrix: (Units=GPa)
#
#
# Indices 1 2 3 4 5 6 
#
# 1 176.4036 27.2172 91.5985 0.0000 0.0000 0.0000
# 2 27.2172 38.5724 26.9345 0.0000 0.0000 0.0000
# 3 91.5985 26.9345 195.6915 0.0000 0.0000 0.0000
# 4 0.0000 0.0000 0.0000 23.9933 0.0000 0.0000
# 5 0.0000 0.0000 0.0000 0.0000 4.7856 0.0000
# 6 0.0000 0.0000 0.0000 0.0000 0.0000 -3.2980
#
#
#
# Elastic Compliance Matrix: (Units=1/GPa)
#
#
# Indices 1 2 3 4 5 6 
#
# 1 0.007849 -0.003289 -0.003221 0.000000 0.000000 0.000000
# 2 -0.003289 0.030060 -0.002598 0.000000 0.000000 0.000000
# 3 -0.003221 -0.002598 0.006975 0.000000 0.000000 0.000000
# 4 0.000000 0.000000 0.000000 0.041678 0.000000 0.000000
# 5 0.000000 0.000000 0.000000 0.000000 0.208961 0.000000
# 6 0.000000 0.000000 0.000000 0.000000 0.000000 -0.303218
#
#
# Mechanical properties :
#
#
# Convention : Reuss Voigt Hill
#
# Bulk Modulus (GPa) = 37.49777 78.01867 57.75822
# Shear Modulus (GPa) = 257.58685 22.75734 140.17209
#
# Velocity S-wave (km/s) = 11.47689 3.41133 8.46629
# Velocity P-wave (km/s) = 13.95708 7.44390 11.18508
#
# Compressibility (1/GPa) = 0.02666825
#
# Stress axis : x y z
#
# Youngs Moduli (GPa) = 127.40645 33.26669 143.36057
#
# Poissons Ratio (x) = 0.10941 0.46179
# Poissons Ratio (y) = 0.41904 0.37244
# Poissons Ratio (z) = 0.41040 0.08642
#
# Static dielectric constant tensor:
#      x y z
#    x 3.879550 0.000000 0.000000 
#    y 0.000000 3.095200 0.000000 
#    z 0.000000 0.000000 3.821110 
# 
# 
# High freq. dielectric constant tensor:
#      x y z
#    x 1.775970 0.000000 0.000000 
#    y 0.000000 1.717310 0.000000 
#    z 0.000000 0.000000 1.781340 
# 
# From -- ./inp_files/17111.got.cif
#   From: 2010.03.12/outbox.cif.g09.slc.cpg/sg47_9_cif.got.tgz:17111.got - 2010.04.14 03:12:58.
