data_PCOD8200026
_publ_section_title
;
Structure prediction by ZEFSAII (Michael W. Deem and Ramdas Pophale) SiO2 
 PCOD8200026
Probable space group: P M M M
;
_chemical_formula_sum "Si O2"
_cell_formula_units_Z 48
_cell_length_a 16.421837
_cell_length_b 8.891342
_cell_length_c 17.071378
_cell_angle_alpha 90.000000
_cell_angle_beta 90.000000
_cell_angle_gamma 90.000000
_cell_volume 2492.628930
_symmetry_space_group_name_H-M "P M M M"
_symmetry_group_IT_number 47
_symmetry_cell_setting 'orthorhombic'
loop_
_space_group_symop_operation_xyz
x,y,z
-x,-y,z
x,-y,-z
-x,y,-z
-x,-y,-z
x,y,-z
-x,y,z
x,-y,z
loop_
_atom_site_type_symbol
_atom_site_label
_atom_site_fract_x
_atom_site_fract_y
_atom_site_fract_z
Si Si1 0.825759 0.824969 0.157762
Si Si2 0.091835 0.178865 0.000000
Si Si3 0.857100 0.675175 0.315522
Si Si4 0.329058 0.676292 0.652110
Si Si5 0.404529 0.175577 0.500000
Si Si6 0.500000 0.324980 0.908065
Si Si7 0.360323 0.824684 0.811384
Si Si8 0.000000 0.824254 0.590936
O O1 0.869044 0.736322 0.227863
O O2 0.729756 0.794728 0.156323
O O3 0.845702 0.000000 0.169349
O O4 0.862087 0.760996 0.076913
O O5 0.000000 0.240943 0.000000
O O6 0.093308 0.000000 0.000000
O O7 0.876349 0.500000 0.315265
O O8 0.766831 0.711209 0.346237
O O9 0.918826 0.755660 0.373100
O O10 0.347152 0.500000 0.652222
O O11 0.365561 0.749781 0.575511
O O12 0.373105 0.748865 0.726982
O O13 0.500000 0.207311 0.500000
O O14 0.384146 0.000000 0.500000
O O15 0.500000 0.500000 0.886980
O O16 0.580088 0.249138 0.873506
O O17 0.500000 0.295693 0.000000
O O18 0.379971 0.000000 0.802881
O O19 0.000000 0.784713 0.500000
O O20 0.000000 0.000000 0.607485
#
# Coordination Sequence:
#
# PCOD8200026 Si02
#       8
#     8   4   8   8   4   4   8   4
#     4   9  19  36  60  88 118 156 198 240 291 351
#     4   9  18  32  55  88 121 152 193 240 286 338
#     4  10  22  40  62  88 120 157 196 242 298 354
#     4  10  22  41  64  89 121 160 199 241 300 362
#     4  11  25  41  61  90 123 156 201 251 293 344
#     4  11  25  41  59  86 119 156 201 249 305 363
#     4  10  21  38  62  88 118 155 199 248 298 352
#     4  11  25  41  61  90 119 154 199 245 296 351
#
# _framework density 19.256777
#
# number of rings (size 3 to 8) (size 9 to 14) (size 15 to 20)
#    0.000    2.000    0.000    2.250    4.667    4.667 
#    0.000    0.417    0.000    0.500    0.000    0.000 
#    0.000    0.000    0.000    0.000    0.000    0.000 
#
# Total GULP energy -595437.289585 kJ/mol
# GULP energy per Si atom -12404.943533 kJ/mol
# Density = 1.921295 g / cm^3
# Si number density = 19.256777 Si / 1000 Ang^3
#
#
#
# Elastic Constant Matrix: (Units=GPa)
#
#
# Indices 1 2 3 4 5 6 
#
# 1 96.1879 66.5039 80.3822 0.0000 0.0000 0.0000
# 2 66.5039 112.0346 91.8618 0.0000 0.0000 0.0000
# 3 80.3822 91.8618 162.7219 0.0000 0.0000 0.0000
# 4 0.0000 0.0000 0.0000 27.3211 0.0000 0.0000
# 5 0.0000 0.0000 0.0000 0.0000 67.9119 0.0000
# 6 0.0000 0.0000 0.0000 0.0000 0.0000 30.7423
#
#
#
# Elastic Compliance Matrix: (Units=1/GPa)
#
#
# Indices 1 2 3 4 5 6 
#
# 1 0.020382 -0.007155 -0.006029 0.000000 0.000000 0.000000
# 2 -0.007155 0.019130 -0.007265 0.000000 0.000000 0.000000
# 3 -0.006029 -0.007265 0.013225 0.000000 0.000000 0.000000
# 4 0.000000 0.000000 0.000000 0.036602 0.000000 0.000000
# 5 0.000000 0.000000 0.000000 0.000000 0.014725 0.000000
# 6 0.000000 0.000000 0.000000 0.000000 0.000000 0.032528
#
#
# Mechanical properties :
#
#
# Convention : Reuss Voigt Hill
#
# Bulk Modulus (GPa) = 84.47035 94.27115 89.37075
# Shear Modulus (GPa) = 27.55796 34.00817 30.78306
#
# Velocity S-wave (km/s) = 3.78706 4.20698 4.00253
# Velocity P-wave (km/s) = 7.94248 8.52404 8.23839
#
# Compressibility (1/GPa) = 0.01183847
#
# Stress axis : x y z
#
# Youngs Moduli (GPa) = 49.06387 52.27396 75.61499
#
# Poissons Ratio (x) = 0.37403 0.45587
# Poissons Ratio (y) = 0.35106 0.54934
# Poissons Ratio (z) = 0.29580 0.37977
#
# Static dielectric constant tensor:
#      x y z
#    x 3.604840 0.000000 0.000000 
#    y 0.000000 3.575670 0.000000 
#    z 0.000000 0.000000 3.132860 
# 
# 
# High freq. dielectric constant tensor:
#      x y z
#    x 1.756830 0.000000 0.000000 
#    y 0.000000 1.752400 0.000000 
#    z 0.000000 0.000000 1.761920 
# 
# From -- ./inp_files/24525.got.cif
#   From: 2010.03.12/outbox.cif.g09.slc.cpg/sg47_13_cif.got.tgz:24525.got - 2010.04.14 03:12:58.
