data_PCOD8200422
_publ_section_title
;
Structure prediction by ZEFSAII (Michael W. Deem and Ramdas Pophale) SiO2 
 PCOD8200422
Probable space group: P M M M
;
_chemical_formula_sum "Si O2"
_cell_formula_units_Z 52
_cell_length_a 8.723955
_cell_length_b 14.063710
_cell_length_c 21.631173
_cell_angle_alpha 90.000000
_cell_angle_beta 90.000000
_cell_angle_gamma 90.000000
_cell_volume 2653.953992
_symmetry_space_group_name_H-M "P M M M"
_symmetry_group_IT_number 47
_symmetry_cell_setting 'orthorhombic'
loop_
_space_group_symop_operation_xyz
x,y,z
-x,-y,z
x,-y,-z
-x,y,-z
-x,-y,-z
x,y,-z
-x,y,z
x,-y,z
loop_
_atom_site_type_symbol
_atom_site_label
_atom_site_fract_x
_atom_site_fract_y
_atom_site_fract_z
Si Si1 0.682455 0.608137 0.687475
Si Si2 0.318291 0.397537 0.068867
Si Si3 0.318374 0.203212 0.119480
Si Si4 0.679614 0.714451 0.567571
Si Si5 0.820386 0.217020 0.753244
Si Si6 0.172547 0.887982 0.000000
Si Si7 0.322417 0.107895 0.644049
O O1 0.500000 0.614565 0.690365
O O2 0.738581 0.500000 0.699325
O O3 0.743821 0.642585 0.619958
O O4 0.747002 0.679339 0.739393
O O5 0.500000 0.395768 0.064582
O O6 0.262623 0.500000 0.095314
O O7 0.262624 0.312643 0.112215
O O8 0.251124 0.382078 0.000000
O O9 0.500000 0.191822 0.123351
O O10 0.243035 0.170835 0.183490
O O11 0.260648 0.143400 0.061480
O O12 0.755049 0.694524 0.500000
O O13 0.500000 0.697721 0.562294
O O14 0.714905 0.823730 0.586164
O O15 0.780047 0.139823 0.701501
O O16 0.000000 0.230559 0.757881
O O17 0.000000 0.846358 0.000000
O O18 0.168610 0.000000 0.000000
O O19 0.500000 0.118692 0.663414
O O20 0.282076 0.000000 0.625186
#
# Coordination Sequence:
#
# PCOD8200422 Si02
#       7
#     8   8   8   8   8   4   8
#     4   9  18  34  55  79 110 149 191 230 268 317
#     4   8  14  27  50  80 107 129 158 197 244 301
#     4  11  21  37  61  85 108 140 181 224 271 324
#     4   8  14  26  48  82 117 142 172 222 280 330
#     4  11  23  37  54  78 109 144 182 229 280 329
#     4  11  25  43  60  81 112 146 179 221 276 332
#     4   9  18  34  55  78 105 139 181 227 274 330
#
# _framework density 19.593405000000001
#
# number of rings (size 3 to 8) (size 9 to 14) (size 15 to 20)
#    0.000    2.538    0.769    3.462    0.000    3.077 
#    0.000    4.615    0.000    9.231    0.000    8.615 
#    0.000    0.000    0.000    0.000    0.000    0.000 
#
# Total GULP energy -644501.576067 kJ/mol
# GULP energy per Si atom -12394.261078 kJ/mol
# Density = 1.954881 g / cm^3
# Si number density = 19.593405 Si / 1000 Ang^3
#
#
#
# Elastic Constant Matrix: (Units=GPa)
#
#
# Indices 1 2 3 4 5 6 
#
# 1 63.9713 22.5863 28.4303 0.0000 0.0000 0.0000
# 2 22.5863 80.7911 13.9997 0.0000 0.0000 0.0000
# 3 28.4303 13.9997 111.7624 0.0000 0.0000 0.0000
# 4 0.0000 0.0000 0.0000 9.2443 0.0000 0.0000
# 5 0.0000 0.0000 0.0000 0.0000 8.4922 0.0000
# 6 0.0000 0.0000 0.0000 0.0000 0.0000 17.2146
#
#
#
# Elastic Compliance Matrix: (Units=1/GPa)
#
#
# Indices 1 2 3 4 5 6 
#
# 1 0.019172 -0.004615 -0.004299 0.000000 0.000000 0.000000
# 2 -0.004615 0.013763 -0.000550 0.000000 0.000000 0.000000
# 3 -0.004299 -0.000550 0.010110 0.000000 0.000000 0.000000
# 4 0.000000 0.000000 0.000000 0.108175 0.000000 0.000000
# 5 0.000000 0.000000 0.000000 0.000000 0.117756 0.000000
# 6 0.000000 0.000000 0.000000 0.000000 0.000000 0.058090
#
#
# Mechanical properties :
#
#
# Convention : Reuss Voigt Hill
#
# Bulk Modulus (GPa) = 41.46394 42.95080 42.20737
# Shear Modulus (GPa) = 14.12300 19.75745 16.94022
#
# Velocity S-wave (km/s) = 2.68769 3.17893 2.94358
# Velocity P-wave (km/s) = 5.55335 5.95338 5.75684
#
# Compressibility (1/GPa) = 0.02411734
#
# Stress axis : x y z
#
# Youngs Moduli (GPa) = 52.15968 72.65823 98.91181
#
# Poissons Ratio (x) = 0.33531 0.42521
# Poissons Ratio (y) = 0.24071 0.05441
# Poissons Ratio (z) = 0.22423 0.03997
#
# Static dielectric constant tensor:
#      x y z
#    x 3.224240 0.000000 0.000000 
#    y 0.000000 3.795090 0.000000 
#    z 0.000000 0.000000 3.706500 
# 
# 
# High freq. dielectric constant tensor:
#      x y z
#    x 1.725030 0.000000 0.000000 
#    y 0.000000 1.766070 0.000000 
#    z 0.000000 0.000000 1.763050 
# 
# From -- ./inp_files/29564.got.cif
#   From: 2010.03.12/outbox.cif.g09.slc.cpg/sg47_15_cif.got.tgz:29564.got - 2010.04.14 03:12:58.
