data_PCOD8200585
_publ_section_title
;
Structure prediction by ZEFSAII (Michael W. Deem and Ramdas Pophale) SiO2 
 PCOD8200585
Probable space group: P M M M
;
_chemical_formula_sum "Si O2"
_cell_formula_units_Z 32
_cell_length_a 7.801214
_cell_length_b 9.685175
_cell_length_c 22.346894
_cell_angle_alpha 90.000000
_cell_angle_beta 90.000000
_cell_angle_gamma 90.000000
_cell_volume 1688.444667
_symmetry_space_group_name_H-M "P M M M"
_symmetry_group_IT_number 47
_symmetry_cell_setting 'orthorhombic'
loop_
_space_group_symop_operation_xyz
x,y,z
-x,-y,z
x,-y,-z
-x,y,-z
-x,-y,-z
x,y,-z
-x,y,z
x,-y,z
loop_
_atom_site_type_symbol
_atom_site_label
_atom_site_fract_x
_atom_site_fract_y
_atom_site_fract_z
Si Si1 0.802210 0.651340 0.000000
Si Si2 0.297930 0.152918 0.106448
Si Si3 0.702936 0.846353 0.761275
Si Si4 0.000000 0.663382 0.566539
Si Si5 0.302146 0.338045 0.652397
O O1 0.756078 0.733668 0.059290
O O2 0.710622 0.500000 0.000000
O O3 0.000000 0.624988 0.000000
O O4 0.500000 0.145229 0.108112
O O5 0.227990 0.194506 0.172521
O O6 0.227138 0.000000 0.088916
O O7 0.500000 0.845405 0.762653
O O8 0.766219 0.737373 0.712106
O O9 0.769006 0.000000 0.744400
O O10 0.824994 0.711075 0.599549
O O11 0.000000 0.500000 0.562238
O O12 0.000000 0.728715 0.500000
O O13 0.500000 0.299140 0.636130
O O14 0.285349 0.500000 0.664598
#
# Coordination Sequence:
#
# PCOD8200585 Si02
#       5
#     4   8   8   4   8
#     4  11  24  37  46  66 102 137 168 205 252 302
#     4   9  18  34  56  77  95 123 166 210 253 305
#     4   8  15  30  52  76 100 125 157 201 251 300
#     4   9  18  32  49  73 105 136 169 210 249 289
#     4   9  17  30  50  75 101 132 169 207 251 300
#
# _framework density 18.952354
#
# number of rings (size 3 to 8) (size 9 to 14) (size 15 to 20)
#    0.000    3.000    0.000    2.250    0.000    4.500 
#    2.250    5.625    0.000    1.500    0.000    3.500 
#    0.000    0.000    0.000    0.000    0.000    0.000 
#
# Total GULP energy -396513.654908 kJ/mol
# GULP energy per Si atom -12391.051716 kJ/mol
# Density = 1.890922 g / cm^3
# Si number density = 18.952354 Si / 1000 Ang^3
#
#
#
# Elastic Constant Matrix: (Units=GPa)
#
#
# Indices 1 2 3 4 5 6 
#
# 1 61.5742 29.9605 52.0850 0.0000 0.0000 0.0000
# 2 29.9605 98.6417 86.8371 0.0000 0.0000 0.0000
# 3 52.0850 86.8371 181.3110 0.0000 0.0000 0.0000
# 4 0.0000 0.0000 0.0000 12.6392 0.0000 0.0000
# 5 0.0000 0.0000 0.0000 0.0000 309.3520 0.0000
# 6 0.0000 0.0000 0.0000 0.0000 0.0000 -4.9497
#
#
#
# Elastic Compliance Matrix: (Units=1/GPa)
#
#
# Indices 1 2 3 4 5 6 
#
# 1 0.021659 -0.001904 -0.005310 0.000000 0.000000 0.000000
# 2 -0.001904 0.017695 -0.007928 0.000000 0.000000 0.000000
# 3 -0.005310 -0.007928 0.010838 0.000000 0.000000 0.000000
# 4 0.000000 0.000000 0.000000 0.079119 0.000000 0.000000
# 5 0.000000 0.000000 0.000000 0.000000 0.003233 0.000000
# 6 0.000000 0.000000 0.000000 0.000000 0.000000 -0.202034
#
#
# Mechanical properties :
#
#
# Convention : Reuss Voigt Hill
#
# Bulk Modulus (GPa) = 50.23127 75.47691 62.85409
# Shear Modulus (GPa) = -153.51132 74.91792 -39.29670
#
# Velocity S-wave (km/s) = -9.00968 6.29408 -4.55845
# Velocity P-wave (km/s) = 9.03720 9.62972 2.35166
#
# Compressibility (1/GPa) = 0.01990792
#
# Stress axis : x y z
#
# Youngs Moduli (GPa) = 46.17094 56.51243 92.26927
#
# Poissons Ratio (x) = 0.10759 0.48995
# Poissons Ratio (y) = 0.08790 0.73151
# Poissons Ratio (z) = 0.24517 0.44803
#
# Static dielectric constant tensor:
#      x y z
#    x 3.368860 0.000000 0.000000 
#    y 0.000000 2.702290 0.000000 
#    z 0.000000 0.000000 3.566540 
# 
# 
# High freq. dielectric constant tensor:
#      x y z
#    x 1.724630 0.000000 0.000000 
#    y 0.000000 1.719590 0.000000 
#    z 0.000000 0.000000 1.737070 
# 
# From -- ./inp_files/31623.got.cif
#   From: 2010.03.12/outbox.cif.g09.slc.cpg/sg47_16_cif.got.tgz:31623.got - 2010.04.14 03:12:58.
