data_PCOD8200297
_publ_section_title
;
Structure prediction by ZEFSAII (Michael W. Deem and Ramdas Pophale) SiO2 
 PCOD8200297
Probable space group: P M M M
;
_chemical_formula_sum "Si O2"
_cell_formula_units_Z 36
_cell_length_a 9.119328
_cell_length_b 14.338597
_cell_length_c 15.550283
_cell_angle_alpha 90.000000
_cell_angle_beta 90.000000
_cell_angle_gamma 90.000000
_cell_volume 2033.329644
_symmetry_space_group_name_H-M "P M M M"
_symmetry_group_IT_number 47
_symmetry_cell_setting 'orthorhombic'
loop_
_space_group_symop_operation_xyz
x,y,z
-x,-y,z
x,-y,-z
-x,y,-z
-x,-y,-z
x,y,-z
-x,y,z
x,-y,z
loop_
_atom_site_type_symbol
_atom_site_label
_atom_site_fract_x
_atom_site_fract_y
_atom_site_fract_z
Si Si1 0.673917 0.778718 0.245376
Si Si2 0.827811 0.398776 0.000000
Si Si3 0.830987 0.890884 0.098310
Si Si4 0.325852 0.895671 0.405164
Si Si5 0.828612 0.391461 0.186404
O O1 0.500000 0.775323 0.243433
O O2 0.728226 0.833687 0.161883
O O3 0.735844 0.828256 0.331273
O O4 0.735953 0.673159 0.250304
O O5 0.786697 0.350472 0.090544
O O6 0.751201 0.500000 0.000000
O O7 0.000000 0.415053 0.000000
O O8 0.000000 0.867422 0.118901
O O9 0.799696 0.000000 0.111274
O O10 0.795325 0.861729 0.000000
O O11 0.274365 0.861117 0.500000
O O12 0.500000 0.897236 0.401278
O O13 0.265651 0.000000 0.388336
O O14 0.783798 0.500000 0.196453
O O15 0.000000 0.379169 0.205437
#
# Coordination Sequence:
#
# PCOD8200297 Si02
#       5
#     8   4   8   8   8
#     4  11  21  30  48  78 105 126 156 206 261 301
#     4   7  12  26  47  65  80 111 164 209 231 262
#     4   9  19  35  51  67  94 136 177 202 227 282
#     4   8  15  30  51  73  98 129 163 197 239 297
#     4   9  18  33  51  69  93 131 175 210 241 287
#
# _framework density 17.704951000000001
#
# number of rings (size 3 to 8) (size 9 to 14) (size 15 to 20)
#    0.000    3.000    0.000    4.000    1.556    2.222 
#    0.000    1.111    0.000    5.333    0.000   12.444 
#    0.000    0.000    0.000    0.000    0.000    0.000 
#
# Total GULP energy -446040.048208 kJ/mol
# GULP energy per Si atom -12390.001339 kJ/mol
# Density = 1.766465 g / cm^3
# Si number density = 17.704951 Si / 1000 Ang^3
#
#
#
# Elastic Constant Matrix: (Units=GPa)
#
#
# Indices 1 2 3 4 5 6 
#
# 1 47.6903 40.9808 37.6954 0.0000 0.0000 0.0000
# 2 40.9808 101.8409 78.5663 0.0000 0.0000 0.0000
# 3 37.6954 78.5663 121.6096 0.0000 0.0000 0.0000
# 4 0.0000 0.0000 0.0000 21.7015 0.0000 0.0000
# 5 0.0000 0.0000 0.0000 0.0000 9.1262 0.0000
# 6 0.0000 0.0000 0.0000 0.0000 0.0000 29.1554
#
#
#
# Elastic Compliance Matrix: (Units=1/GPa)
#
#
# Indices 1 2 3 4 5 6 
#
# 1 0.032687 -0.010640 -0.003258 0.000000 0.000000 0.000000
# 2 -0.010640 0.023039 -0.011587 0.000000 0.000000 0.000000
# 3 -0.003258 -0.011587 0.016719 0.000000 0.000000 0.000000
# 4 0.000000 0.000000 0.000000 0.046080 0.000000 0.000000
# 5 0.000000 0.000000 0.000000 0.000000 0.109575 0.000000
# 6 0.000000 0.000000 0.000000 0.000000 0.000000 0.034299
#
#
# Mechanical properties :
#
#
# Convention : Reuss Voigt Hill
#
# Bulk Modulus (GPa) = 46.56421 65.06953 55.81687
# Shear Modulus (GPa) = 15.59940 19.58985 17.59462
#
# Velocity S-wave (km/s) = 2.97151 3.32996 3.15583
# Velocity P-wave (km/s) = 6.17498 7.18448 6.69878
#
# Compressibility (1/GPa) = 0.02147572
#
# Stress axis : x y z
#
# Youngs Moduli (GPa) = 30.59351 43.40416 59.81374
#
# Poissons Ratio (x) = 0.46180 0.19488
# Poissons Ratio (y) = 0.32550 0.69304
# Poissons Ratio (z) = 0.09968 0.50291
#
# Static dielectric constant tensor:
#      x y z
#    x 2.892380 0.000000 0.000000 
#    y 0.000000 3.348560 0.000000 
#    z 0.000000 0.000000 3.508300 
# 
# 
# High freq. dielectric constant tensor:
#      x y z
#    x 1.647420 0.000000 0.000000 
#    y 0.000000 1.687240 0.000000 
#    z 0.000000 0.000000 1.674060 
# 
# From -- ./inp_files/5478.got.cif
#   From: 2010.03.12/outbox.cif.g09.slc.cpg/sg47_3_cif.got.tgz:5478.got - 2010.04.14 03:12:58.
