data_PCOD8200436
_publ_section_title
;
Structure prediction by ZEFSAII (Michael W. Deem and Ramdas Pophale) SiO2 
 PCOD8200436
Probable space group: P M M M
;
_chemical_formula_sum "Si O2"
_cell_formula_units_Z 64
_cell_length_a 18.445256
_cell_length_b 8.864113
_cell_length_c 25.318374
_cell_angle_alpha 90.000000
_cell_angle_beta 90.000000
_cell_angle_gamma 90.000000
_cell_volume 4139.575252
_symmetry_space_group_name_H-M "P M M M"
_symmetry_group_IT_number 47
_symmetry_cell_setting 'orthorhombic'
loop_
_space_group_symop_operation_xyz
x,y,z
-x,-y,z
x,-y,-z
-x,y,-z
-x,-y,-z
x,y,-z
-x,y,z
x,-y,z
loop_
_atom_site_type_symbol
_atom_site_label
_atom_site_fract_x
_atom_site_fract_y
_atom_site_fract_z
Si Si1 0.299810 0.830962 0.191410
Si Si2 0.700190 0.169038 0.691410
Si Si3 0.083882 0.172711 0.939367
Si Si4 0.916118 0.827289 0.439367
Si Si5 0.835565 0.677032 0.652355
Si Si6 0.582917 0.321601 0.750000
Si Si7 0.085627 0.174245 0.250000
Si Si8 0.164435 0.322968 0.847645
O O1 0.263040 0.836614 0.250000
O O2 0.377507 0.745659 0.197486
O O3 0.246403 0.740575 0.153083
O O4 0.312543 0.000000 0.169506
O O5 0.753597 0.259425 0.653083
O O6 0.622493 0.254341 0.697486
O O7 0.687457 0.000000 0.669506
O O8 0.131653 0.284742 0.904567
O O9 0.000000 0.212725 0.930885
O O10 0.098448 0.000000 0.922330
O O11 0.106118 0.197521 0.000000
O O12 0.893882 0.802479 0.500000
O O13 0.868347 0.715258 0.404567
O O14 0.000000 0.787275 0.430885
O O15 0.901552 0.000000 0.422330
O O16 0.832922 0.500000 0.661304
O O17 0.884536 0.749769 0.697347
O O18 0.500000 0.268387 0.750000
O O19 0.590441 0.500000 0.750000
O O20 0.115463 0.250231 0.197347
O O21 0.000000 0.195638 0.250000
O O22 0.108245 0.000000 0.250000
O O23 0.167078 0.500000 0.838696
#
# Coordination Sequence:
#
# PCOD8200436 Si02
#       8
#     8   8   8   8   8   8   8   8
#     4   9  18  30  45  63  88 123 157 185 215 262
#     4   9  18  30  45  63  88 123 157 185 215 262
#     4   9  19  36  54  68  85 116 158 199 239 285
#     4   9  19  36  54  68  85 116 158 199 239 285
#     4  12  22  31  46  67  93 119 148 191 240 282
#     4   9  16  27  44  67  97 127 152 183 224 269
#     4  11  22  33  44  59  83 117 154 187 224 277
#     4  12  22  31  46  67  93 119 148 191 240 282
#
# _framework density 15.460523
#
# number of rings (size 3 to 8) (size 9 to 14) (size 15 to 20)
#    0.750    1.250    1.250    4.875    0.000    6.000 
#    0.000    1.250    0.000    0.000    0.000    0.000 
#    0.000    1.000    0.000   10.500    0.000    4.500 
#
# Total GULP energy -793416.596492 kJ/mol
# GULP energy per Si atom -12397.134320 kJ/mol
# Density = 1.542533 g / cm^3
# Si number density = 15.460523 Si / 1000 Ang^3
#
#
#
# Elastic Constant Matrix: (Units=GPa)
#
#
# Indices 1 2 3 4 5 6 
#
# 1 104.8028 61.1961 38.5721 0.0000 0.0000 0.0000
# 2 61.1961 126.9297 33.2241 0.0000 0.0000 0.0000
# 3 38.5721 33.2241 58.7061 0.0000 0.0000 0.0000
# 4 0.0000 0.0000 0.0000 18.9400 0.0000 0.0000
# 5 0.0000 0.0000 0.0000 0.0000 15.6619 0.0000
# 6 0.0000 0.0000 0.0000 0.0000 0.0000 26.5319
#
#
#
# Elastic Compliance Matrix: (Units=1/GPa)
#
#
# Indices 1 2 3 4 5 6 
#
# 1 0.015355 -0.005590 -0.006925 0.000000 0.000000 0.000000
# 2 -0.005590 0.011284 -0.002713 0.000000 0.000000 0.000000
# 3 -0.006925 -0.002713 0.023119 0.000000 0.000000 0.000000
# 4 0.000000 0.000000 0.000000 0.052798 0.000000 0.000000
# 5 0.000000 0.000000 0.000000 0.000000 0.063849 0.000000
# 6 0.000000 0.000000 0.000000 0.000000 0.000000 0.037691
#
#
# Mechanical properties :
#
#
# Convention : Reuss Voigt Hill
#
# Bulk Modulus (GPa) = 51.80917 61.82482 56.81700
# Shear Modulus (GPa) = 20.74813 22.72315 21.73564
#
# Velocity S-wave (km/s) = 3.66732 3.83789 3.75357
# Velocity P-wave (km/s) = 7.17744 7.72754 7.45756
#
# Compressibility (1/GPa) = 0.01930160
#
# Stress axis : x y z
#
# Youngs Moduli (GPa) = 65.12691 88.62346 43.25406
#
# Poissons Ratio (x) = 0.49543 0.29953
# Poissons Ratio (y) = 0.36408 0.11734
# Poissons Ratio (z) = 0.45099 0.24042
#
# Static dielectric constant tensor:
#      x y z
#    x 2.858050 0.000000 0.000000 
#    y 0.000000 3.000460 0.000000 
#    z 0.000000 0.000000 2.725280 
# 
# 
# High freq. dielectric constant tensor:
#      x y z
#    x 1.579480 0.000000 0.000000 
#    y 0.000000 1.607360 0.000000 
#    z 0.000000 0.000000 1.558580 
# 
# From -- ./inp_files/33833.got.cif
#   From: 2010.03.12/outbox.cif.g09.slc.cpg/sg47_17_cif.got.tgz:33833.got - 2010.04.14 03:12:58.
