data_PCOD8200351
_publ_section_title
;
Structure prediction by ZEFSAII (Michael W. Deem and Ramdas Pophale) SiO2 
 PCOD8200351
Probable space group: P M M M
;
_chemical_formula_sum "Si O2"
_cell_formula_units_Z 52
_cell_length_a 14.481622
_cell_length_b 22.999902
_cell_length_c 9.219586
_cell_angle_alpha 90.000000
_cell_angle_beta 90.000000
_cell_angle_gamma 90.000000
_cell_volume 3070.821783
_symmetry_space_group_name_H-M "P M M M"
_symmetry_group_IT_number 47
_symmetry_cell_setting 'orthorhombic'
loop_
_space_group_symop_operation_xyz
x,y,z
-x,-y,z
x,-y,-z
-x,y,-z
-x,-y,-z
x,y,-z
-x,y,z
x,-y,z
loop_
_atom_site_type_symbol
_atom_site_label
_atom_site_fract_x
_atom_site_fract_y
_atom_site_fract_z
Si Si1 0.282912 0.398419 0.171326
Si Si2 0.105080 0.431668 0.332827
Si Si3 0.899691 0.931094 0.838960
Si Si4 0.390932 0.500000 0.671221
Si Si5 0.605041 0.283605 0.168412
Si Si6 0.607027 0.829186 0.667574
Si Si7 0.274456 0.934956 0.328916
O O1 0.177768 0.398350 0.230275
O O2 0.345788 0.444020 0.256079
O O3 0.327256 0.336271 0.205900
O O4 0.283198 0.412465 0.000000
O O5 0.122680 0.414577 0.500000
O O6 0.120745 0.500000 0.311206
O O7 0.000000 0.414826 0.288205
O O8 0.823374 0.910059 0.725671
O O9 0.000000 0.906051 0.792347
O O10 0.904531 0.000000 0.839103
O O11 0.874119 0.908645 0.000000
O O12 0.500000 0.500000 0.702163
O O13 0.369294 0.500000 0.500000
O O14 0.500000 0.298290 0.219640
O O15 0.645382 0.227112 0.249351
O O16 0.605691 0.269228 0.000000
O O17 0.631350 0.820327 0.500000
O O18 0.500000 0.835758 0.697689
O O19 0.650068 0.889198 0.727234
O O20 0.271529 0.937776 0.500000
O O21 0.296050 0.000000 0.267214
#
# Coordination Sequence:
#
# PCOD8200351 Si02
#       7
#     8   8   8   4   8   8   8
#     4  11  21  33  52  77 102 129 162 204 250 291
#     4   9  18  33  52  74 103 136 167 201 242 290
#     4   8  14  25  41  62  89 120 152 185 224 274
#     4  11  23  35  48  71 104 137 165 196 238 289
#     4   9  19  35  52  70  95 128 163 199 242 290
#     4   9  18  32  49  69  93 124 163 200 234 281
#     4   9  17  28  44  69  98 124 152 192 242 289
#
# _framework density 16.933578000000001
#
# number of rings (size 3 to 8) (size 9 to 14) (size 15 to 20)
#    0.000    2.692    0.769    2.077    0.000    4.000 
#    0.000    5.385    0.000    0.923    0.000    4.308 
#    0.000    0.000    0.000    0.000    0.000    0.000 
#
# Total GULP energy -644562.129941 kJ/mol
# GULP energy per Si atom -12395.425576 kJ/mol
# Density = 1.689504 g / cm^3
# Si number density = 16.933578 Si / 1000 Ang^3
#
#
#
# Elastic Constant Matrix: (Units=GPa)
#
#
# Indices 1 2 3 4 5 6 
#
# 1 105.2612 66.6147 50.2607 0.0000 0.0000 0.0000
# 2 66.6147 109.0079 51.7854 0.0000 0.0000 0.0000
# 3 50.2607 51.7854 57.7406 0.0000 0.0000 0.0000
# 4 0.0000 0.0000 0.0000 23.5072 0.0000 0.0000
# 5 0.0000 0.0000 0.0000 0.0000 28.2228 0.0000
# 6 0.0000 0.0000 0.0000 0.0000 0.0000 13.2670
#
#
#
# Elastic Compliance Matrix: (Units=1/GPa)
#
#
# Indices 1 2 3 4 5 6 
#
# 1 0.018485 -0.006364 -0.010383 0.000000 0.000000 0.000000
# 2 -0.006364 0.018174 -0.010761 0.000000 0.000000 0.000000
# 3 -0.010383 -0.010761 0.036008 0.000000 0.000000 0.000000
# 4 0.000000 0.000000 0.000000 0.042540 0.000000 0.000000
# 5 0.000000 0.000000 0.000000 0.000000 0.035432 0.000000
# 6 0.000000 0.000000 0.000000 0.000000 0.000000 0.075375
#
#
# Mechanical properties :
#
#
# Convention : Reuss Voigt Hill
#
# Bulk Modulus (GPa) = 56.64974 67.70347 62.17661
# Shear Modulus (GPa) = 17.42676 19.88933 18.65805
#
# Velocity S-wave (km/s) = 3.21148 3.43089 3.32299
# Velocity P-wave (km/s) = 6.87591 7.46748 7.17779
#
# Compressibility (1/GPa) = 0.01765233
#
# Stress axis : x y z
#
# Youngs Moduli (GPa) = 54.09690 55.02226 27.77155
#
# Poissons Ratio (x) = 0.35014 0.28836
# Poissons Ratio (y) = 0.34425 0.29884
# Poissons Ratio (z) = 0.56171 0.59208
#
# Static dielectric constant tensor:
#      x y z
#    x 3.451410 0.000000 0.000000 
#    y 0.000000 3.199900 0.000000 
#    z 0.000000 0.000000 3.183210 
# 
# 
# High freq. dielectric constant tensor:
#      x y z
#    x 1.656470 0.000000 0.000000 
#    y 0.000000 1.627700 0.000000 
#    z 0.000000 0.000000 1.651710 
# 
# From -- ./inp_files/7073.got.cif
#   From: 2010.03.12/outbox.cif.g09.slc.cpg/sg47_4_cif.got.tgz:7073.got - 2010.04.14 03:12:58.
