data_PCOD8200159
_publ_section_title
;
Structure prediction by ZEFSAII (Michael W. Deem and Ramdas Pophale) SiO2 
 PCOD8200159
Probable space group: P M M M
;
_chemical_formula_sum "Si O2"
_cell_formula_units_Z 48
_cell_length_a 19.729409
_cell_length_b 8.979995
_cell_length_c 14.685678
_cell_angle_alpha 90.000000
_cell_angle_beta 90.000000
_cell_angle_gamma 90.000000
_cell_volume 2601.861486
_symmetry_space_group_name_H-M "P M M M"
_symmetry_group_IT_number 47
_symmetry_cell_setting 'orthorhombic'
loop_
_space_group_symop_operation_xyz
x,y,z
-x,-y,z
x,-y,-z
-x,y,-z
-x,-y,-z
x,y,-z
-x,y,z
x,-y,z
loop_
_atom_site_type_symbol
_atom_site_label
_atom_site_fract_x
_atom_site_fract_y
_atom_site_fract_z
Si Si1 0.301998 0.833108 0.897680
Si Si2 0.071598 0.329067 0.000000
Si Si3 0.690543 0.674805 0.713018
Si Si4 0.145779 0.839994 0.143022
Si Si5 0.828443 0.827288 0.653600
Si Si6 0.080518 0.677558 0.500000
Si Si7 0.577220 0.831543 0.393169
O O1 0.326687 0.726086 0.816529
O O2 0.222160 0.840091 0.889411
O O3 0.331906 0.000000 0.883820
O O4 0.321668 0.774802 0.000000
O O5 0.109752 0.292500 0.092248
O O6 0.059033 0.500000 0.000000
O O7 0.000000 0.243948 0.000000
O O8 0.705326 0.500000 0.713546
O O9 0.753821 0.755011 0.662988
O O10 0.623932 0.711068 0.655763
O O11 0.135767 0.813847 0.249438
O O12 0.113941 0.000000 0.116181
O O13 0.879273 0.742052 0.586528
O O14 0.819560 0.000000 0.623508
O O15 0.086512 0.500000 0.500000
O O16 0.000000 0.724173 0.500000
O O17 0.585428 0.809075 0.500000
O O18 0.500000 0.801607 0.363344
O O19 0.598440 0.000000 0.365868
#
# Coordination Sequence:
#
# PCOD8200159 Si02
#       7
#     8   4   8   8   8   4   8
#     4   9  17  33  56  79 106 140 183 230 274 325
#     4  11  23  33  45  71 105 139 170 209 272 339
#     4  11  22  34  54  87 122 151 184 231 286 336
#     4   9  18  35  55  75  98 130 176 225 268 314
#     4  10  22  40  61  82 107 145 192 235 274 328
#     4  11  25  43  61  83 112 143 178 231 297 351
#     4   9  19  37  60  84 113 153 197 235 275 329
#
# _framework density 18.448329999999999
#
# number of rings (size 3 to 8) (size 9 to 14) (size 15 to 20)
#    0.000    2.167    0.833    4.000    1.167    6.333 
#    0.000    4.167    0.000    0.500    0.000    3.500 
#    0.000    0.000    0.000    0.000    0.000    0.000 
#
# Total GULP energy -594809.410851 kJ/mol
# GULP energy per Si atom -12391.862726 kJ/mol
# Density = 1.840634 g / cm^3
# Si number density = 18.448330 Si / 1000 Ang^3
#
#
#
# Elastic Constant Matrix: (Units=GPa)
#
#
# Indices 1 2 3 4 5 6 
#
# 1 76.6053 44.0731 48.7187 0.0000 0.0000 0.0000
# 2 44.0731 108.7658 46.0708 0.0000 0.0000 0.0000
# 3 48.7187 46.0708 99.0436 0.0000 0.0000 0.0000
# 4 0.0000 0.0000 0.0000 31.2460 0.0000 0.0000
# 5 0.0000 0.0000 0.0000 0.0000 34.3558 0.0000
# 6 0.0000 0.0000 0.0000 0.0000 0.0000 27.7620
#
#
#
# Elastic Compliance Matrix: (Units=1/GPa)
#
#
# Indices 1 2 3 4 5 6 
#
# 1 0.021101 -0.005173 -0.007973 0.000000 0.000000 0.000000
# 2 -0.005173 0.012718 -0.003371 0.000000 0.000000 0.000000
# 3 -0.007973 -0.003371 0.015587 0.000000 0.000000 0.000000
# 4 0.000000 0.000000 0.000000 0.032004 0.000000 0.000000
# 5 0.000000 0.000000 0.000000 0.000000 0.029107 0.000000
# 6 0.000000 0.000000 0.000000 0.000000 0.000000 0.036020
#
#
# Mechanical properties :
#
#
# Convention : Reuss Voigt Hill
#
# Bulk Modulus (GPa) = 61.08459 62.45999 61.77229
# Shear Modulus (GPa) = 27.02277 28.37624 27.69951
#
# Velocity S-wave (km/s) = 3.83140 3.92618 3.87908
# Velocity P-wave (km/s) = 7.26332 7.38128 7.32254
#
# Compressibility (1/GPa) = 0.01637074
#
# Stress axis : x y z
#
# Youngs Moduli (GPa) = 47.39183 78.62679 64.15748
#
# Poissons Ratio (x) = 0.40674 0.51153
# Poissons Ratio (y) = 0.24516 0.21630
# Poissons Ratio (z) = 0.37785 0.26508
#
# Static dielectric constant tensor:
#      x y z
#    x 3.213180 0.000000 0.000000 
#    y 0.000000 3.423600 0.000000 
#    z 0.000000 0.000000 3.587550 
# 
# 
# High freq. dielectric constant tensor:
#      x y z
#    x 1.693730 0.000000 0.000000 
#    y 0.000000 1.715510 0.000000 
#    z 0.000000 0.000000 1.725680 
# 
# From -- ./inp_files/21099.got.cif
#   From: 2010.03.12/outbox.cif.g09.slc.cpg/sg47_11_cif.got.tgz:21099.got - 2010.04.14 03:12:58.
