data_PCOD8200053
_publ_section_title
;
Structure prediction by ZEFSAII (Michael W. Deem and Ramdas Pophale) SiO2 
 PCOD8200053
Probable space group: P M M M
;
_chemical_formula_sum "Si O2"
_cell_formula_units_Z 28
_cell_length_a 19.411604
_cell_length_b 9.594236
_cell_length_c 7.575714
_cell_angle_alpha 90.000000
_cell_angle_beta 90.000000
_cell_angle_gamma 90.000000
_cell_volume 1410.897263
_symmetry_space_group_name_H-M "P M M M"
_symmetry_group_IT_number 47
_symmetry_cell_setting 'orthorhombic'
loop_
_space_group_symop_operation_xyz
x,y,z
-x,-y,z
x,-y,-z
-x,y,-z
-x,-y,-z
x,y,-z
-x,y,z
x,-y,z
loop_
_atom_site_type_symbol
_atom_site_label
_atom_site_fract_x
_atom_site_fract_y
_atom_site_fract_z
Si Si1 0.918557 0.339214 0.000000
Si Si2 0.575717 0.656925 0.790172
Si Si3 0.301193 0.159103 0.205450
Si Si4 0.149553 0.839695 0.301141
O O1 0.891571 0.263398 0.825146
O O2 0.893644 0.500000 0.000000
O O3 0.000000 0.329735 0.000000
O O4 0.500000 0.706773 0.723652
O O5 0.589134 0.500000 0.725593
O O6 0.636245 0.752342 0.710812
O O7 0.577304 0.665455 0.000000
O O8 0.230307 0.198621 0.301325
O O9 0.321239 0.000000 0.238699
O O10 0.290285 0.191878 0.000000
O O11 0.121419 0.820300 0.500000
O O12 0.139588 0.000000 0.237398
#
# Coordination Sequence:
#
# PCOD8200053 Si02
#       4
#     4   8   8   8
#     4  11  25  43  63  89 122 155 186 229 283 340
#     4   8  14  24  39  64  99 139 184 231 278 331
#     4   9  16  28  48  75 106 139 181 234 285 332
#     4  10  21  39  63  89 118 153 194 238 284 339
#
# _framework density 19.845526
#
# number of rings (size 3 to 8) (size 9 to 14) (size 15 to 20)
#    0.000    2.714    1.429    1.286    0.000    4.000 
#    0.000    5.714    0.000    0.857    0.000    6.000 
#    0.000    0.000    0.000    0.000    0.000    0.000 
#
# Total GULP energy -347109.253944 kJ/mol
# GULP energy per Si atom -12396.759069 kJ/mol
# Density = 1.980036 g / cm^3
# Si number density = 19.845526 Si / 1000 Ang^3
#
#
#
# Elastic Constant Matrix: (Units=GPa)
#
#
# Indices 1 2 3 4 5 6 
#
# 1 102.2444 78.3564 40.0955 0.0000 0.0000 0.0000
# 2 78.3564 121.3464 48.6519 0.0000 0.0000 0.0000
# 3 40.0955 48.6519 75.5793 0.0000 0.0000 0.0000
# 4 0.0000 0.0000 0.0000 12.0546 0.0000 0.0000
# 5 0.0000 0.0000 0.0000 0.0000 -6.7623 0.0000
# 6 0.0000 0.0000 0.0000 0.0000 0.0000 42.3740
#
#
#
# Elastic Compliance Matrix: (Units=1/GPa)
#
#
# Indices 1 2 3 4 5 6 
#
# 1 0.019879 -0.011603 -0.003077 0.000000 0.000000 0.000000
# 2 -0.011603 0.017880 -0.005354 0.000000 0.000000 0.000000
# 3 -0.003077 -0.005354 0.018310 0.000000 0.000000 0.000000
# 4 0.000000 0.000000 0.000000 0.082956 0.000000 0.000000
# 5 0.000000 0.000000 0.000000 0.000000 -0.147878 0.000000
# 6 0.000000 0.000000 0.000000 0.000000 0.000000 0.023599
#
#
# Mechanical properties :
#
#
# Convention : Reuss Voigt Hill
#
# Bulk Modulus (GPa) = 62.49643 70.37531 66.43587
# Shear Modulus (GPa) = 83.12915 18.33768 50.73342
#
# Velocity S-wave (km/s) = 6.47912 3.04307 5.06159
# Velocity P-wave (km/s) = 9.35585 6.91994 8.22853
#
# Compressibility (1/GPa) = 0.01600091
#
# Stress axis : x y z
#
# Youngs Moduli (GPa) = 50.30421 55.92941 54.61439
#
# Poissons Ratio (x) = 0.64893 0.16806
# Poissons Ratio (y) = 0.58366 0.29242
# Poissons Ratio (z) = 0.15479 0.29946
#
# Static dielectric constant tensor:
#      x y z
#    x 3.782000 0.000000 0.000000 
#    y 0.000000 3.705100 0.000000 
#    z 0.000000 0.000000 3.501340 
# 
# 
# High freq. dielectric constant tensor:
#      x y z
#    x 1.775230 0.000000 0.000000 
#    y 0.000000 1.763890 0.000000 
#    z 0.000000 0.000000 1.758360 
# 
# From -- ./inp_files/660.got.cif
#   From: 2010.03.12/outbox.cif.g09.slc.cpg/sg47_1_cif.got.tgz:660.got - 2010.04.14 03:12:58.
