data_PCOD8200404
_publ_section_title
;
Structure prediction by ZEFSAII (Michael W. Deem and Ramdas Pophale) SiO2 
 PCOD8200404
Probable space group: P M M M
;
_chemical_formula_sum "Si O2"
_cell_formula_units_Z 64
_cell_length_a 9.035831
_cell_length_b 23.736956
_cell_length_c 14.945847
_cell_angle_alpha 90.000000
_cell_angle_beta 90.000000
_cell_angle_gamma 90.000000
_cell_volume 3205.631939
_symmetry_space_group_name_H-M "P M M M"
_symmetry_group_IT_number 47
_symmetry_cell_setting 'orthorhombic'
loop_
_space_group_symop_operation_xyz
x,y,z
-x,-y,z
x,-y,-z
-x,y,-z
-x,-y,-z
x,y,-z
-x,y,z
x,-y,z
loop_
_atom_site_type_symbol
_atom_site_label
_atom_site_fract_x
_atom_site_fract_y
_atom_site_fract_z
Si Si1 0.665506 0.062648 0.105611
Si Si2 0.834545 0.824670 0.146545
Si Si3 0.671846 0.287072 0.100901
Si Si4 0.174904 0.659100 0.732918
Si Si5 0.666870 0.937117 0.396145
Si Si6 0.824265 0.436638 0.399757
Si Si7 0.836667 0.164769 0.347940
Si Si8 0.667075 0.736195 0.401030
O O1 0.500000 0.072460 0.144548
O O2 0.770794 0.112595 0.137900
O O3 0.722212 0.000000 0.135728
O O4 0.658942 0.064890 0.000000
O O5 0.737010 0.776203 0.100637
O O6 0.841548 0.808294 0.249976
O O7 0.000000 0.823715 0.105064
O O8 0.500000 0.283084 0.126747
O O9 0.749296 0.330339 0.170663
O O10 0.692719 0.311199 0.000000
O O11 0.234485 0.602781 0.681529
O O12 0.215494 0.708399 0.664799
O O13 0.000000 0.657434 0.748770
O O14 0.707762 0.934635 0.500000
O O15 0.500000 0.916074 0.380080
O O16 0.780694 0.899207 0.341074
O O17 0.685742 0.000000 0.358969
O O18 0.768121 0.418348 0.500000
O O19 0.769096 0.500000 0.379523
O O20 0.000000 0.433840 0.400419
O O21 0.719149 0.198998 0.408066
O O22 0.000000 0.166577 0.391407
O O23 0.674547 0.709265 0.500000
O O24 0.500000 0.731916 0.363127
#
# Coordination Sequence:
#
# PCOD8200404 Si02
#       8
#     8   8   8   8   8   8   8   8
#     4   9  19  36  56  77 101 132 173 221 279 352
#     4  11  23  37  54  79 109 140 179 234 296 352
#     4  11  24  41  61  83 111 153 201 247 298 357
#     4  11  21  35  59  91 122 154 196 245 293 338
#     4   9  19  36  55  73  95 129 176 226 277 338
#     4   8  15  30  55  90 131 170 203 236 280 336
#     4  11  23  36  51  75 106 138 176 228 285 339
#     4  11  23  37  55  80 113 154 193 231 280 339
#
# _framework density 19.964863000000001
#
# number of rings (size 3 to 8) (size 9 to 14) (size 15 to 20)
#    0.000    1.875    1.250    4.125    0.000    8.500 
#    0.000    3.750    0.000    1.875    0.000    7.000 
#    0.000    0.000    0.000    0.000    0.000    0.000 
#
# Total GULP energy -793206.961914 kJ/mol
# GULP energy per Si atom -12393.858780 kJ/mol
# Density = 1.991942 g / cm^3
# Si number density = 19.964863 Si / 1000 Ang^3
#
#
#
# Elastic Constant Matrix: (Units=GPa)
#
#
# Indices 1 2 3 4 5 6 
#
# 1 104.8170 45.7888 41.8299 0.0000 0.0000 0.0000
# 2 45.7888 110.8769 45.6825 0.0000 0.0000 0.0000
# 3 41.8299 45.6825 100.9619 0.0000 0.0000 0.0000
# 4 0.0000 0.0000 0.0000 30.9883 0.0000 0.0000
# 5 0.0000 0.0000 0.0000 0.0000 36.6408 0.0000
# 6 0.0000 0.0000 0.0000 0.0000 0.0000 17.3809
#
#
#
# Elastic Compliance Matrix: (Units=1/GPa)
#
#
# Indices 1 2 3 4 5 6 
#
# 1 0.012581 -0.003746 -0.003517 0.000000 0.000000 0.000000
# 2 -0.003746 0.012201 -0.003969 0.000000 0.000000 0.000000
# 3 -0.003517 -0.003969 0.013158 0.000000 0.000000 0.000000
# 4 0.000000 0.000000 0.000000 0.032270 0.000000 0.000000
# 5 0.000000 0.000000 0.000000 0.000000 0.027292 0.000000
# 6 0.000000 0.000000 0.000000 0.000000 0.000000 0.057534
#
#
# Mechanical properties :
#
#
# Convention : Reuss Voigt Hill
#
# Bulk Modulus (GPa) = 64.61917 64.80647 64.71282
# Shear Modulus (GPa) = 27.37348 29.22565 28.29956
#
# Velocity S-wave (km/s) = 3.70683 3.83019 3.76901
# Velocity P-wave (km/s) = 7.12443 7.21742 7.17108
#
# Compressibility (1/GPa) = 0.01547528
#
# Stress axis : x y z
#
# Youngs Moduli (GPa) = 79.48728 81.95908 76.00148
#
# Poissons Ratio (x) = 0.30704 0.26732
# Poissons Ratio (y) = 0.29778 0.30162
# Poissons Ratio (z) = 0.27958 0.32526
#
# Static dielectric constant tensor:
#      x y z
#    x 3.587500 0.000000 0.000000 
#    y 0.000000 3.730340 0.000000 
#    z 0.000000 0.000000 3.647790 
# 
# 
# High freq. dielectric constant tensor:
#      x y z
#    x 1.769330 0.000000 0.000000 
#    y 0.000000 1.762520 0.000000 
#    z 0.000000 0.000000 1.777770 
# 
# From -- ./inp_files/7872.got.cif
#   From: 2010.03.12/outbox.cif.g09.slc.cpg/sg47_4_cif.got.tgz:7872.got - 2010.04.14 03:12:58.
