data_PCOD8200077
_publ_section_title
;
Structure prediction by ZEFSAII (Michael W. Deem and Ramdas Pophale) SiO2 
 PCOD8200077
Probable space group: P M M M
;
_chemical_formula_sum "Si O2"
_cell_formula_units_Z 52
_cell_length_a 19.114120
_cell_length_b 8.741066
_cell_length_c 15.392526
_cell_angle_alpha 90.000000
_cell_angle_beta 90.000000
_cell_angle_gamma 90.000000
_cell_volume 2571.749141
_symmetry_space_group_name_H-M "P M M M"
_symmetry_group_IT_number 47
_symmetry_cell_setting 'orthorhombic'
loop_
_space_group_symop_operation_xyz
x,y,z
-x,-y,z
x,-y,-z
-x,y,-z
-x,-y,-z
x,y,-z
-x,y,z
x,-y,z
loop_
_atom_site_type_symbol
_atom_site_label
_atom_site_fract_x
_atom_site_fract_y
_atom_site_fract_z
Si Si1 0.340961 0.324172 0.404197
Si Si2 0.184734 0.323300 0.369135
Si Si3 0.199247 0.824354 0.814201
Si Si4 0.580297 0.822051 0.753792
Si Si5 0.922910 0.330326 0.102181
Si Si6 0.668619 0.678474 0.900096
Si Si7 0.080002 0.819622 0.500000
O O1 0.374060 0.294205 0.500000
O O2 0.351936 0.500000 0.375502
O O3 0.258914 0.286305 0.413377
O O4 0.376599 0.217755 0.332686
O O5 0.165559 0.500000 0.378230
O O6 0.193336 0.279927 0.269640
O O7 0.121474 0.233066 0.414175
O O8 0.127710 0.803381 0.866394
O O9 0.262740 0.772123 0.874704
O O10 0.209785 0.000000 0.787832
O O11 0.500000 0.779996 0.736519
O O12 0.605217 0.727951 0.837785
O O13 0.591064 0.000000 0.773763
O O14 0.896250 0.500000 0.130589
O O15 0.000000 0.301130 0.141889
O O16 0.927266 0.322397 0.000000
O O17 0.684098 0.500000 0.887254
O O18 0.648631 0.715051 0.000000
O O19 0.000000 0.755192 0.500000
O O20 0.077480 0.000000 0.500000
#
# Coordination Sequence:
#
# PCOD8200077 Si02
#       7
#     8   8   8   8   8   8   4
#     4  10  21  40  67  96 125 161 208 258 309 370
#     4  11  22  40  65  90 120 162 209 255 307 370
#     4  12  24  37  59  91 124 158 202 257 315 373
#     4  11  25  43  64  95 133 169 207 256 316 382
#     4   9  19  37  59  82 112 153 199 246 299 360
#     4  11  24  42  65  92 124 167 218 267 317 381
#     4  11  25  43  63  93 132 169 210 263 321 380
#
# _framework density 20.219701000000001
#
# number of rings (size 3 to 8) (size 9 to 14) (size 15 to 20)
#    0.000    1.308    2.308    3.923    0.000    7.692 
#    0.000    3.846    0.000    0.000    0.000    0.000 
#    0.000    0.000    0.000    0.000    0.000    0.000 
#
# Total GULP energy -644862.276549 kJ/mol
# GULP energy per Si atom -12401.197626 kJ/mol
# Density = 2.017368 g / cm^3
# Si number density = 20.219701 Si / 1000 Ang^3
#
#
#
# Elastic Constant Matrix: (Units=GPa)
#
#
# Indices 1 2 3 4 5 6 
#
# 1 98.6560 50.5696 44.8814 0.0000 0.0000 0.0000
# 2 50.5696 61.6814 25.8075 0.0000 0.0000 0.0000
# 3 44.8814 25.8075 106.9205 0.0000 0.0000 0.0000
# 4 0.0000 0.0000 0.0000 29.8780 0.0000 0.0000
# 5 0.0000 0.0000 0.0000 0.0000 12.5888 0.0000
# 6 0.0000 0.0000 0.0000 0.0000 0.0000 22.0379
#
#
#
# Elastic Compliance Matrix: (Units=1/GPa)
#
#
# Indices 1 2 3 4 5 6 
#
# 1 0.019477 -0.013957 -0.004807 0.000000 0.000000 0.000000
# 2 -0.013957 0.028035 -0.000908 0.000000 0.000000 0.000000
# 3 -0.004807 -0.000908 0.011590 0.000000 0.000000 0.000000
# 4 0.000000 0.000000 0.000000 0.033469 0.000000 0.000000
# 5 0.000000 0.000000 0.000000 0.000000 0.079435 0.000000
# 6 0.000000 0.000000 0.000000 0.000000 0.000000 0.045376
#
#
# Mechanical properties :
#
#
# Convention : Reuss Voigt Hill
#
# Bulk Modulus (GPa) = 50.61372 56.64164 53.62768
# Shear Modulus (GPa) = 18.98870 22.63424 20.81147
#
# Velocity S-wave (km/s) = 3.06783 3.34940 3.21170
# Velocity P-wave (km/s) = 6.13474 6.55987 6.35086
#
# Compressibility (1/GPa) = 0.01975749
#
# Stress axis : x y z
#
# Youngs Moduli (GPa) = 51.34149 35.66937 86.28309
#
# Poissons Ratio (x) = 0.49785 0.41477
# Poissons Ratio (y) = 0.71659 0.07835
# Poissons Ratio (z) = 0.24680 0.03239
#
# Static dielectric constant tensor:
#      x y z
#    x 3.985470 0.000000 0.000000 
#    y 0.000000 3.656100 0.000000 
#    z 0.000000 0.000000 3.925950 
# 
# 
# High freq. dielectric constant tensor:
#      x y z
#    x 1.790160 0.000000 0.000000 
#    y 0.000000 1.790220 0.000000 
#    z 0.000000 0.000000 1.797270 
# 
# From -- ./inp_files/25040.got.cif
#   From: 2010.03.12/outbox.cif.g09.slc.cpg/sg47_13_cif.got.tgz:25040.got - 2010.04.14 03:12:58.
