data_PCOD8200362
_publ_section_title
;
Structure prediction by ZEFSAII (Michael W. Deem and Ramdas Pophale) SiO2 
 PCOD8200362
Probable space group: P M M M
;
_chemical_formula_sum "Si O2"
_cell_formula_units_Z 52
_cell_length_a 14.297832
_cell_length_b 20.294505
_cell_length_c 9.310473
_cell_angle_alpha 90.000000
_cell_angle_beta 90.000000
_cell_angle_gamma 90.000000
_cell_volume 2701.595957
_symmetry_space_group_name_H-M "P M M M"
_symmetry_group_IT_number 47
_symmetry_cell_setting 'orthorhombic'
loop_
_space_group_symop_operation_xyz
x,y,z
-x,-y,z
x,-y,-z
-x,y,-z
-x,-y,-z
x,y,-z
-x,y,z
x,-y,z
loop_
_atom_site_type_symbol
_atom_site_label
_atom_site_fract_x
_atom_site_fract_y
_atom_site_fract_z
Si Si1 0.605617 0.617796 0.164211
Si Si2 0.394088 0.000000 0.329727
Si Si3 0.225787 0.426264 0.335263
Si Si4 0.277966 0.126382 0.670387
Si Si5 0.890299 0.322755 0.160769
Si Si6 0.106767 0.827878 0.168359
Si Si7 0.608585 0.769891 0.837908
O O1 0.500000 0.607338 0.218812
O O2 0.672955 0.574371 0.261467
O O3 0.635497 0.693810 0.178662
O O4 0.614509 0.594701 0.000000
O O5 0.337576 0.063773 0.275736
O O6 0.500000 0.000000 0.265817
O O7 0.400232 0.000000 0.500000
O O8 0.238820 0.406983 0.500000
O O9 0.184280 0.500000 0.318081
O O10 0.155886 0.373962 0.267582
O O11 0.266617 0.127395 0.500000
O O12 0.174965 0.124470 0.741534
O O13 0.331738 0.191179 0.721679
O O14 0.867852 0.247787 0.206169
O O15 0.000000 0.334767 0.165027
O O16 0.851792 0.335621 0.000000
O O17 0.000000 0.843678 0.212600
O O18 0.121129 0.840673 0.000000
O O19 0.500000 0.781301 0.805072
O O20 0.632586 0.793541 0.000000
#
# Coordination Sequence:
#
# PCOD8200362 Si02
#       7
#     8   4   8   8   8   8   8
#     4   9  19  36  56  76  99 132 175 220 265 314
#     4   9  20  38  54  73 110 154 187 215 252 301
#     4  11  24  37  49  72 107 142 173 211 264 319
#     4  11  21  33  54  81 108 142 182 221 260 304
#     4   9  19  37  60  82 103 133 174 216 259 312
#     4   9  19  37  59  82 109 138 169 213 269 320
#     4   9  18  33  53  78 107 135 167 215 271 320
#
# _framework density 19.247882000000001
#
# number of rings (size 3 to 8) (size 9 to 14) (size 15 to 20)
#    0.000    2.385    0.000    4.154    0.000    8.615 
#    0.000    8.077    0.000    5.077    0.000    0.000 
#    0.000    0.000    0.000    0.000    0.000    0.000 
#
# Total GULP energy -644838.799732 kJ/mol
# GULP energy per Si atom -12400.746149 kJ/mol
# Density = 1.920407 g / cm^3
# Si number density = 19.247882 Si / 1000 Ang^3
#
#
#
# Elastic Constant Matrix: (Units=GPa)
#
#
# Indices 1 2 3 4 5 6 
#
# 1 94.6707 57.3691 49.0907 0.0000 0.0000 0.0000
# 2 57.3691 69.9243 43.0666 0.0000 0.0000 0.0000
# 3 49.0907 43.0666 82.9403 0.0000 0.0000 0.0000
# 4 0.0000 0.0000 0.0000 5.3168 0.0000 0.0000
# 5 0.0000 0.0000 0.0000 0.0000 24.0757 0.0000
# 6 0.0000 0.0000 0.0000 0.0000 0.0000 24.5760
#
#
#
# Elastic Compliance Matrix: (Units=1/GPa)
#
#
# Indices 1 2 3 4 5 6 
#
# 1 0.022600 -0.015148 -0.005511 0.000000 0.000000 0.000000
# 2 -0.015148 0.031178 -0.007223 0.000000 0.000000 0.000000
# 3 -0.005511 -0.007223 0.019070 0.000000 0.000000 0.000000
# 4 0.000000 0.000000 0.000000 0.188083 0.000000 0.000000
# 5 0.000000 0.000000 0.000000 0.000000 0.041536 0.000000
# 6 0.000000 0.000000 0.000000 0.000000 0.000000 0.040690
#
#
# Mechanical properties :
#
#
# Convention : Reuss Voigt Hill
#
# Bulk Modulus (GPa) = 58.53779 60.73203 59.63491
# Shear Modulus (GPa) = 12.35741 17.32763 14.84252
#
# Velocity S-wave (km/s) = 2.53655 3.00365 2.77993
# Velocity P-wave (km/s) = 6.24959 6.60684 6.43069
#
# Compressibility (1/GPa) = 0.01708298
#
# Stress axis : x y z
#
# Youngs Moduli (GPa) = 44.24781 32.07373 52.43975
#
# Poissons Ratio (x) = 0.48585 0.28900
# Poissons Ratio (y) = 0.67026 0.37880
# Poissons Ratio (z) = 0.24385 0.23168
#
# Static dielectric constant tensor:
#      x y z
#    x 3.639390 0.000000 0.000000 
#    y 0.000000 3.411460 0.000000 
#    z 0.000000 0.000000 3.361050 
# 
# 
# High freq. dielectric constant tensor:
#      x y z
#    x 1.762780 0.000000 0.000000 
#    y 0.000000 1.736100 0.000000 
#    z 0.000000 0.000000 1.735390 
# 
# From -- ./inp_files/6993.got.cif
#   From: 2010.03.12/outbox.cif.g09.slc.cpg/sg47_4_cif.got.tgz:6993.got - 2010.04.14 03:12:58.
