data_PCOD8200677
_publ_section_title
;
Structure prediction by ZEFSAII (Michael W. Deem and Ramdas Pophale) SiO2 
 PCOD8200677
Probable space group: P M M M
;
_chemical_formula_sum "Si O2"
_cell_formula_units_Z 40
_cell_length_a 9.250781
_cell_length_b 28.093635
_cell_length_c 7.573035
_cell_angle_alpha 90.000000
_cell_angle_beta 90.000000
_cell_angle_gamma 90.000000
_cell_volume 1968.141411
_symmetry_space_group_name_H-M "P M M M"
_symmetry_group_IT_number 47
_symmetry_cell_setting 'orthorhombic'
loop_
_space_group_symop_operation_xyz
x,y,z
-x,-y,z
x,-y,-z
-x,y,-z
-x,-y,-z
x,y,-z
-x,y,z
x,-y,z
loop_
_atom_site_type_symbol
_atom_site_label
_atom_site_fract_x
_atom_site_fract_y
_atom_site_fract_z
Si Si1 0.669289 0.124350 0.702642
Si Si2 0.670906 0.947230 0.000000
Si Si3 0.162625 0.217878 0.709579
Si Si4 0.828279 0.500000 0.693353
Si Si5 0.337173 0.691795 0.289330
Si Si6 0.162538 0.398047 0.711340
O O1 0.706547 0.111615 0.500000
O O2 0.500000 0.135255 0.725805
O O3 0.754610 0.170532 0.770393
O O4 0.720600 0.080359 0.823406
O O5 0.500000 0.951795 0.000000
O O6 0.741107 0.000000 0.000000
O O7 0.159820 0.220607 0.500000
O O8 0.246611 0.263645 0.785918
O O9 0.000000 0.217259 0.785999
O O10 0.755652 0.500000 0.500000
O O11 0.784856 0.550070 0.788286
O O12 0.000000 0.500000 0.673225
O O13 0.334865 0.692174 0.500000
O O14 0.500000 0.695379 0.217194
O O15 0.267102 0.643089 0.216041
O O16 0.165506 0.400339 0.500000
O O17 0.000000 0.386474 0.775800
#
# Coordination Sequence:
#
# PCOD8200677 Si02
#       6
#     8   4   8   4   8   8
#     4   9  17  30  49  72  98 128 161 198 238 278
#     4   9  18  32  51  77 105 131 163 200 235 276
#     4   9  16  26  41  60  82 110 145 185 230 281
#     4   7  10  16  25  35  49  77 121 170 217 268
#     4   9  15  21  30  47  71  97 129 174 227 280
#     4   8  12  18  27  38  55  84 125 172 221 273
#
# _framework density 20.323741999999999
#
# number of rings (size 3 to 8) (size 9 to 14) (size 15 to 20)
#    0.000    3.400    0.000    2.400    0.000    5.200 
#    0.000    3.000    0.000    4.200    0.000    2.800 
#    0.000    0.000    0.000    0.000    0.000    1.000 
#
# Total GULP energy -495651.328386 kJ/mol
# GULP energy per Si atom -12391.283210 kJ/mol
# Density = 2.027748 g / cm^3
# Si number density = 20.323742 Si / 1000 Ang^3
#
#
#
# Elastic Constant Matrix: (Units=GPa)
#
#
# Indices 1 2 3 4 5 6 
#
# 1 113.5754 88.3888 16.6411 0.0000 0.0000 0.0000
# 2 88.3888 232.4862 39.7899 0.0000 0.0000 0.0000
# 3 16.6411 39.7899 45.6189 0.0000 0.0000 0.0000
# 4 0.0000 0.0000 0.0000 -17.7960 0.0000 0.0000
# 5 0.0000 0.0000 0.0000 0.0000 -0.5284 0.0000
# 6 0.0000 0.0000 0.0000 0.0000 0.0000 28.4651
#
#
#
# Elastic Compliance Matrix: (Units=1/GPa)
#
#
# Indices 1 2 3 4 5 6 
#
# 1 0.012514 -0.004674 -0.000488 0.000000 0.000000 0.000000
# 2 -0.004674 0.006802 -0.004228 0.000000 0.000000 0.000000
# 3 -0.000488 -0.004228 0.025786 0.000000 0.000000 0.000000
# 4 0.000000 0.000000 0.000000 -0.056192 0.000000 0.000000
# 5 0.000000 0.000000 0.000000 0.000000 -1.892357 0.000000
# 6 0.000000 0.000000 0.000000 0.000000 0.000000 0.035131
#
#
# Mechanical properties :
#
#
# Convention : Reuss Voigt Hill
#
# Bulk Modulus (GPa) = 37.99054 75.70223 56.84639
# Shear Modulus (GPa) = -2.71627 18.48552 7.88463
#
# Velocity S-wave (km/s) = -1.15732 3.01915 1.97179
# Velocity P-wave (km/s) = 4.11672 7.03440 5.76325
#
# Compressibility (1/GPa) = 0.02632234
#
# Stress axis : x y z
#
# Youngs Moduli (GPa) = 79.91193 147.01653 38.78024
#
# Poissons Ratio (x) = 0.68717 0.01892
# Poissons Ratio (y) = 0.37352 0.16396
# Poissons Ratio (z) = 0.03899 0.62156
#
# Static dielectric constant tensor:
#      x y z
#    x 3.549370 0.000000 0.000000 
#    y 0.000000 4.125360 0.000000 
#    z 0.000000 0.000000 3.127680 
# 
# 
# High freq. dielectric constant tensor:
#      x y z
#    x 1.762910 0.000000 0.000000 
#    y 0.000000 1.805800 0.000000 
#    z 0.000000 0.000000 1.751830 
# 
# From -- ./inp_files/1778.got.cif
#   From: 2010.03.12/outbox.cif.g09.slc.cpg/sg47_1_cif.got.tgz:1778.got - 2010.04.14 03:12:58.
