data_PCOD8200263
_publ_section_title
;
Structure prediction by ZEFSAII (Michael W. Deem and Ramdas Pophale) SiO2 
 PCOD8200263
Probable space group: P M M M
;
_chemical_formula_sum "Si O2"
_cell_formula_units_Z 44
_cell_length_a 18.891076
_cell_length_b 8.938708
_cell_length_c 13.470697
_cell_angle_alpha 90.000000
_cell_angle_beta 90.000000
_cell_angle_gamma 90.000000
_cell_volume 2274.686307
_symmetry_space_group_name_H-M "P M M M"
_symmetry_group_IT_number 47
_symmetry_cell_setting 'orthorhombic'
loop_
_space_group_symop_operation_xyz
x,y,z
-x,-y,z
x,-y,-z
-x,y,-z
-x,-y,-z
x,y,-z
-x,y,z
x,-y,z
loop_
_atom_site_type_symbol
_atom_site_label
_atom_site_fract_x
_atom_site_fract_y
_atom_site_fract_z
Si Si1 0.342653 0.169600 0.111553
Si Si2 0.164059 0.677104 0.693523
Si Si3 0.702250 0.172579 0.613164
Si Si4 0.581230 0.324874 0.716193
Si Si5 0.822214 0.825310 0.110273
Si Si6 0.919956 0.322034 0.500000
O O1 0.388758 0.282548 0.176187
O O2 0.260521 0.213434 0.116617
O O3 0.353036 0.000000 0.150392
O O4 0.370932 0.184428 0.000000
O O5 0.162719 0.500000 0.696224
O O6 0.243862 0.735063 0.680859
O O7 0.136715 0.738534 0.800549
O O8 0.117357 0.738073 0.600819
O O9 0.723471 0.196743 0.500000
O O10 0.623780 0.235294 0.631618
O O11 0.706071 0.000000 0.644425
O O12 0.500000 0.275798 0.708170
O O13 0.590645 0.500000 0.698203
O O14 0.835955 0.000000 0.125238
O O15 0.849954 0.776528 0.000000
O O16 0.917518 0.500000 0.500000
O O17 0.000000 0.261682 0.500000
#
# Coordination Sequence:
#
# PCOD8200263 Si02
#       6
#     8   8   8   8   8   4
#     4   9  18  33  53  76 103 140 183 226 276 334
#     4  11  20  33  59  90 117 148 189 233 276 328
#     4  11  23  38  57  79 105 140 183 229 279 339
#     4  11  24  38  52  74 105 140 181 233 288 337
#     4   9  18  33  54  82 116 151 188 233 284 335
#     4   9  20  38  59  89 128 161 184 217 273 334
#
# _framework density 19.343326999999999
#
# number of rings (size 3 to 8) (size 9 to 14) (size 15 to 20)
#    0.000    1.909    2.727    2.727    0.000    4.000 
#    0.000    5.455    0.000    4.909    0.000    3.818 
#    0.000    0.000    0.000    0.000    0.000    0.000 
#
# Total GULP energy -545504.736377 kJ/mol
# GULP energy per Si atom -12397.834918 kJ/mol
# Density = 1.929930 g / cm^3
# Si number density = 19.343327 Si / 1000 Ang^3
#
#
#
# Elastic Constant Matrix: (Units=GPa)
#
#
# Indices 1 2 3 4 5 6 
#
# 1 59.5337 21.1242 43.2920 0.0000 0.0000 0.0000
# 2 21.1242 61.3812 51.3049 0.0000 0.0000 0.0000
# 3 43.2920 51.3049 155.6131 0.0000 0.0000 0.0000
# 4 0.0000 0.0000 0.0000 34.2901 0.0000 0.0000
# 5 0.0000 0.0000 0.0000 0.0000 19.4404 0.0000
# 6 0.0000 0.0000 0.0000 0.0000 0.0000 10.4795
#
#
#
# Elastic Compliance Matrix: (Units=1/GPa)
#
#
# Indices 1 2 3 4 5 6 
#
# 1 0.021536 -0.003318 -0.004897 0.000000 0.000000 0.000000
# 2 -0.003318 0.023000 -0.006660 0.000000 0.000000 0.000000
# 3 -0.004897 -0.006660 0.009984 0.000000 0.000000 0.000000
# 4 0.000000 0.000000 0.000000 0.029163 0.000000 0.000000
# 5 0.000000 0.000000 0.000000 0.000000 0.051439 0.000000
# 6 0.000000 0.000000 0.000000 0.000000 0.000000 0.095425
#
#
# Mechanical properties :
#
#
# Convention : Reuss Voigt Hill
#
# Bulk Modulus (GPa) = 40.37198 56.44112 48.40655
# Shear Modulus (GPa) = 18.61818 23.56245 21.09031
#
# Velocity S-wave (km/s) = 3.10580 3.49394 3.30557
# Velocity P-wave (km/s) = 5.81188 6.74676 6.29669
#
# Compressibility (1/GPa) = 0.02476965
#
# Stress axis : x y z
#
# Youngs Moduli (GPa) = 46.43417 43.47786 100.15607
#
# Poissons Ratio (x) = 0.14426 0.49050
# Poissons Ratio (y) = 0.15407 0.66703
# Poissons Ratio (z) = 0.22741 0.28956
#
# Static dielectric constant tensor:
#      x y z
#    x 3.264070 0.000000 0.000000 
#    y 0.000000 3.364140 0.000000 
#    z 0.000000 0.000000 3.895520 
# 
# 
# High freq. dielectric constant tensor:
#      x y z
#    x 1.714060 0.000000 0.000000 
#    y 0.000000 1.742410 0.000000 
#    z 0.000000 0.000000 1.776300 
# 
# From -- ./inp_files/6205.got.cif
#   From: 2010.03.12/outbox.cif.g09.slc.cpg/sg47_4_cif.got.tgz:6205.got - 2010.04.14 03:12:58.
