data_PCOD8200587
_publ_section_title
;
Structure prediction by ZEFSAII (Michael W. Deem and Ramdas Pophale) SiO2 
 PCOD8200587
Probable space group: P M M M
;
_chemical_formula_sum "Si O2"
_cell_formula_units_Z 64
_cell_length_a 9.375556
_cell_length_b 14.622376
_cell_length_c 28.663558
_cell_angle_alpha 90.000000
_cell_angle_beta 90.000000
_cell_angle_gamma 90.000000
_cell_volume 3929.570435
_symmetry_space_group_name_H-M "P M M M"
_symmetry_group_IT_number 47
_symmetry_cell_setting 'orthorhombic'
loop_
_space_group_symop_operation_xyz
x,y,z
-x,-y,z
x,-y,-z
-x,y,-z
-x,-y,-z
x,y,-z
-x,y,z
x,-y,z
loop_
_atom_site_type_symbol
_atom_site_label
_atom_site_fract_x
_atom_site_fract_y
_atom_site_fract_z
Si Si1 0.165689 0.894168 0.083791
Si Si2 0.340015 0.891469 0.551206
Si Si3 0.836951 0.393010 0.123473
Si Si4 0.830098 0.781207 0.272524
Si Si5 0.832233 0.100182 0.188804
Si Si6 0.169592 0.600043 0.228651
Si Si7 0.336236 0.729883 0.052494
Si Si8 0.168028 0.105712 0.360552
O O1 0.198430 0.863372 0.136978
O O2 0.262498 0.829676 0.052079
O O3 0.000000 0.879450 0.071539
O O4 0.207142 0.000000 0.075667
O O5 0.289393 0.855821 0.500000
O O6 0.500000 0.856343 0.561343
O O7 0.236182 0.855691 0.591735
O O8 0.337313 0.000000 0.550872
O O9 0.825342 0.500000 0.112349
O O10 0.781873 0.373478 0.176190
O O11 0.739791 0.339610 0.087230
O O12 0.000000 0.359095 0.117719
O O13 0.766022 0.833424 0.227616
O O14 0.778765 0.675712 0.266522
O O15 0.771787 0.829464 0.319291
O O16 0.000000 0.786657 0.272824
O O17 0.000000 0.092274 0.196440
O O18 0.763403 0.000000 0.195489
O O19 0.231026 0.500000 0.242997
O O20 0.000000 0.595270 0.227744
O O21 0.500000 0.740672 0.067846
O O22 0.324756 0.690719 0.000000
O O23 0.000000 0.114804 0.365957
O O24 0.210690 0.000000 0.350315
#
# Coordination Sequence:
#
# PCOD8200587 Si02
#       8
#     8   8   8   8   8   8   8   8
#     4   9  18  33  53  73  89 111 149 191 221 246
#     4   8  14  25  39  52  70 104 147 182 211 244
#     4   9  18  34  56  77  92 109 140 182 221 256
#     4   9  14  20  34  57  87 116 135 159 200 248
#     4   8  13  22  39  63  86 107 134 168 205 244
#     4   8  14  25  43  67  89 108 135 171 208 246
#     4  11  24  37  48  66  93 122 146 171 213 269
#     4   9  16  23  33  55  85 113 141 171 203 240
#
# _framework density 16.286767999999999
#
# number of rings (size 3 to 8) (size 9 to 14) (size 15 to 20)
#    0.000    3.125    0.000    3.375    0.000    5.750 
#    0.000    3.750    0.000    3.000    0.000    3.500 
#    0.000    0.500    0.000    6.250    0.000    1.250 
#
# Total GULP energy -793084.171745 kJ/mol
# GULP energy per Si atom -12391.940184 kJ/mol
# Density = 1.624970 g / cm^3
# Si number density = 16.286768 Si / 1000 Ang^3
#
#
#
# Elastic Constant Matrix: (Units=GPa)
#
#
# Indices 1 2 3 4 5 6 
#
# 1 44.1820 29.1229 33.8165 0.0000 0.0000 0.0000
# 2 29.1229 78.3709 54.0918 0.0000 0.0000 0.0000
# 3 33.8165 54.0918 103.2766 0.0000 0.0000 0.0000
# 4 0.0000 0.0000 0.0000 17.0930 0.0000 0.0000
# 5 0.0000 0.0000 0.0000 0.0000 2.6841 0.0000
# 6 0.0000 0.0000 0.0000 0.0000 0.0000 8.9942
#
#
#
# Elastic Compliance Matrix: (Units=1/GPa)
#
#
# Indices 1 2 3 4 5 6 
#
# 1 0.032779 -0.007475 -0.006818 0.000000 0.000000 0.000000
# 2 -0.007475 0.021689 -0.008912 0.000000 0.000000 0.000000
# 3 -0.006818 -0.008912 0.016583 0.000000 0.000000 0.000000
# 4 0.000000 0.000000 0.000000 0.058503 0.000000 0.000000
# 5 0.000000 0.000000 0.000000 0.000000 0.372561 0.000000
# 6 0.000000 0.000000 0.000000 0.000000 0.000000 0.111183
#
#
# Mechanical properties :
#
#
# Convention : Reuss Voigt Hill
#
# Bulk Modulus (GPa) = 40.58314 51.09909 45.84112
# Shear Modulus (GPa) = 7.48591 13.00749 10.24670
#
# Velocity S-wave (km/s) = 2.14623 2.82911 2.51099
# Velocity P-wave (km/s) = 5.57796 6.48957 6.05096
#
# Compressibility (1/GPa) = 0.02464078
#
# Stress axis : x y z
#
# Youngs Moduli (GPa) = 30.50700 46.10706 60.30311
#
# Poissons Ratio (x) = 0.34465 0.41115
# Poissons Ratio (y) = 0.22804 0.53742
# Poissons Ratio (z) = 0.20800 0.41090
#
# Static dielectric constant tensor:
#      x y z
#    x 2.720700 0.000000 0.000000 
#    y 0.000000 3.172220 0.000000 
#    z 0.000000 0.000000 3.237340 
# 
# 
# High freq. dielectric constant tensor:
#      x y z
#    x 1.583180 0.000000 0.000000 
#    y 0.000000 1.612580 0.000000 
#    z 0.000000 0.000000 1.619670 
# 
# From -- ./inp_files/8272.got.cif
#   From: 2010.03.12/outbox.cif.g09.slc.cpg/sg47_5_cif.got.tgz:8272.got - 2010.04.14 03:12:58.
