data_PCOD8200257
_publ_section_title
;
Structure prediction by ZEFSAII (Michael W. Deem and Ramdas Pophale) SiO2 
 PCOD8200257
Probable space group: P M M M
;
_chemical_formula_sum "Si O2"
_cell_formula_units_Z 52
_cell_length_a 8.802346
_cell_length_b 27.347940
_cell_length_c 12.014554
_cell_angle_alpha 90.000000
_cell_angle_beta 90.000000
_cell_angle_gamma 90.000000
_cell_volume 2892.215890
_symmetry_space_group_name_H-M "P M M M"
_symmetry_group_IT_number 47
_symmetry_cell_setting 'orthorhombic'
loop_
_space_group_symop_operation_xyz
x,y,z
-x,-y,z
x,-y,-z
-x,y,-z
-x,-y,-z
x,y,-z
-x,y,z
x,-y,z
loop_
_atom_site_type_symbol
_atom_site_label
_atom_site_fract_x
_atom_site_fract_y
_atom_site_fract_z
Si Si1 0.320176 0.910012 0.271867
Si Si2 0.821660 0.173917 0.130374
Si Si3 0.320695 0.555343 0.000000
Si Si4 0.176732 0.384632 0.803117
Si Si5 0.179523 0.282023 0.877534
Si Si6 0.672575 0.445254 0.629677
Si Si7 0.819749 0.056601 0.500000
Si Si8 0.680284 0.000000 0.124780
O O1 0.500000 0.912046 0.288601
O O2 0.273809 0.859989 0.212422
O O3 0.243124 0.915562 0.391923
O O4 0.260679 0.952868 0.190998
O O5 0.767276 0.228766 0.165142
O O6 0.000000 0.165784 0.151625
O O7 0.783540 0.164096 0.000000
O O8 0.266669 0.583478 0.108566
O O9 0.255555 0.500000 0.000000
O O10 0.500000 0.554057 0.000000
O O11 0.231116 0.327743 0.801355
O O12 0.211741 0.406759 0.682804
O O13 0.000000 0.387787 0.832150
O O14 0.000000 0.279401 0.886413
O O15 0.247710 0.292037 0.000000
O O16 0.703123 0.443666 0.500000
O O17 0.500000 0.430289 0.657998
O O18 0.704142 0.500000 0.674958
O O19 0.000000 0.060070 0.500000
O O20 0.765010 0.000000 0.500000
O O21 0.500000 0.000000 0.117653
O O22 0.749787 0.000000 0.000000
#
# Coordination Sequence:
#
# PCOD8200257 Si02
#       8
#     8   8   4   8   8   8   4   4
#     4  11  21  35  56  81 113 146 181 224 270 317
#     4   9  18  34  57  81 108 143 182 220 263 316
#     4  11  23  35  47  71 111 151 179 208 261 328
#     4  11  20  32  54  80 105 134 175 224 266 310
#     4   8  15  31  53  76 105 141 175 211 261 319
#     4   9  19  36  54  71  98 138 176 211 261 323
#     4  11  23  39  59  81 109 145 189 229 264 319
#     4   9  18  31  49  76 112 149 174 203 260 321
#
# _framework density 17.979295
#
# number of rings (size 3 to 8) (size 9 to 14) (size 15 to 20)
#    0.000    2.231    1.538    3.692    0.000    4.308 
#    0.000    2.308    1.692    1.846    0.000    0.000 
#    0.000    0.000    0.000    0.000    0.000    0.000 
#
# Total GULP energy -644626.190991 kJ/mol
# GULP energy per Si atom -12396.657519 kJ/mol
# Density = 1.793837 g / cm^3
# Si number density = 17.979295 Si / 1000 Ang^3
#
#
#
# Elastic Constant Matrix: (Units=GPa)
#
#
# Indices 1 2 3 4 5 6 
#
# 1 48.3601 35.3951 29.4206 0.0000 0.0000 0.0000
# 2 35.3951 149.3682 63.5956 0.0000 0.0000 0.0000
# 3 29.4206 63.5956 99.9562 0.0000 0.0000 0.0000
# 4 0.0000 0.0000 0.0000 12.2606 0.0000 0.0000
# 5 0.0000 0.0000 0.0000 0.0000 28.2090 0.0000
# 6 0.0000 0.0000 0.0000 0.0000 0.0000 21.1825
#
#
#
# Elastic Compliance Matrix: (Units=1/GPa)
#
#
# Indices 1 2 3 4 5 6 
#
# 1 0.026920 -0.004122 -0.005301 0.000000 0.000000 0.000000
# 2 -0.004122 0.009813 -0.005030 0.000000 0.000000 0.000000
# 3 -0.005301 -0.005030 0.014765 0.000000 0.000000 0.000000
# 4 0.000000 0.000000 0.000000 0.081562 0.000000 0.000000
# 5 0.000000 0.000000 0.000000 0.000000 0.035450 0.000000
# 6 0.000000 0.000000 0.000000 0.000000 0.000000 0.047209
#
#
# Mechanical properties :
#
#
# Convention : Reuss Voigt Hill
#
# Bulk Modulus (GPa) = 44.26377 61.61192 52.93784
# Shear Modulus (GPa) = 19.82897 23.61532 21.72214
#
# Velocity S-wave (km/s) = 3.32456 3.62812 3.47965
# Velocity P-wave (km/s) = 6.27772 7.20372 6.75660
#
# Compressibility (1/GPa) = 0.02259184
#
# Stress axis : x y z
#
# Youngs Moduli (GPa) = 37.14693 101.90124 67.72744
#
# Poissons Ratio (x) = 0.42006 0.35901
# Poissons Ratio (y) = 0.15313 0.34069
# Poissons Ratio (z) = 0.19691 0.51260
#
# Static dielectric constant tensor:
#      x y z
#    x 3.099990 0.000000 0.000000 
#    y 0.000000 3.610700 0.000000 
#    z 0.000000 0.000000 3.323120 
# 
# 
# High freq. dielectric constant tensor:
#      x y z
#    x 1.678700 0.000000 0.000000 
#    y 0.000000 1.704440 0.000000 
#    z 0.000000 0.000000 1.686110 
# 
# From -- ./inp_files/15494.got.cif
#   From: 2010.03.12/outbox.cif.g09.slc.cpg/sg47_8_cif.got.tgz:15494.got - 2010.04.14 03:12:58.
