data_PCOD8200498
_publ_section_title
;
Structure prediction by ZEFSAII (Michael W. Deem and Ramdas Pophale) SiO2 
 PCOD8200498
Probable space group: P M M M
;
_chemical_formula_sum "Si O2"
_cell_formula_units_Z 48
_cell_length_a 8.640256
_cell_length_b 9.638980
_cell_length_c 29.414027
_cell_angle_alpha 90.000000
_cell_angle_beta 90.000000
_cell_angle_gamma 90.000000
_cell_volume 2449.695905
_symmetry_space_group_name_H-M "P M M M"
_symmetry_group_IT_number 47
_symmetry_cell_setting 'orthorhombic'
loop_
_space_group_symop_operation_xyz
x,y,z
-x,-y,z
x,-y,-z
-x,y,-z
-x,-y,-z
x,y,-z
-x,y,z
x,-y,z
loop_
_atom_site_type_symbol
_atom_site_label
_atom_site_fract_x
_atom_site_fract_y
_atom_site_fract_z
Si Si1 0.184077 0.156438 0.799272
Si Si2 0.673603 0.000000 0.946804
Si Si3 0.184060 0.655435 0.550675
Si Si4 0.815445 0.157935 0.367965
Si Si5 0.818757 0.247705 0.101659
Si Si6 0.184378 0.658456 0.716340
Si Si7 0.680338 0.500000 0.949207
O O1 0.241719 0.211722 0.847872
O O2 0.246799 0.262745 0.761189
O O3 0.000000 0.151387 0.798139
O O4 0.247851 0.000000 0.790767
O O5 0.778559 0.126562 0.932351
O O6 0.500000 0.000000 0.924993
O O7 0.653845 0.000000 0.000000
O O8 0.242632 0.694576 0.500000
O O9 0.241565 0.500000 0.563747
O O10 0.248506 0.769144 0.586105
O O11 0.000000 0.656531 0.551922
O O12 0.754625 0.251869 0.326318
O O13 0.000000 0.153954 0.367730
O O14 0.751108 0.000000 0.364637
O O15 0.726324 0.374109 0.081994
O O16 0.000000 0.279789 0.101868
O O17 0.248733 0.500000 0.714664
O O18 0.000000 0.653908 0.716234
O O19 0.500000 0.500000 0.957129
O O20 0.758314 0.500000 0.000000
#
# Coordination Sequence:
#
# PCOD8200498 Si02
#       7
#     8   4   8   8   8   8   4
#     4   9  17  30  46  68  96 120 147 191 246 296
#     4  11  23  39  59  83 113 147 179 213 260 317
#     4   8  13  20  28  37  53  81 121 172 226 279
#     4   9  15  21  29  43  64  92 128 171 224 287
#     4  11  22  37  59  85 110 139 178 223 265 311
#     4   9  16  24  37  55  77 107 139 175 227 292
#     4  11  25  43  59  79 111 147 179 215 264 317
#
# _framework density 19.594269000000001
#
# number of rings (size 3 to 8) (size 9 to 14) (size 15 to 20)
#    0.000    2.500    0.833    3.000    1.167    7.667 
#    0.000    1.667    0.000    0.000    0.000    0.000 
#    0.000    0.000    0.000    0.000    0.000    0.000 
#
# Total GULP energy -594897.387410 kJ/mol
# GULP energy per Si atom -12393.695571 kJ/mol
# Density = 1.954967 g / cm^3
# Si number density = 19.594269 Si / 1000 Ang^3
#
#
#
# Elastic Constant Matrix: (Units=GPa)
#
#
# Indices 1 2 3 4 5 6 
#
# 1 16.6495 8.2836 13.0520 0.0000 0.0000 0.0000
# 2 8.2836 196.9208 101.0718 0.0000 0.0000 0.0000
# 3 13.0520 101.0718 160.9975 0.0000 0.0000 0.0000
# 4 0.0000 0.0000 0.0000 44.6868 0.0000 0.0000
# 5 0.0000 0.0000 0.0000 0.0000 -0.2786 0.0000
# 6 0.0000 0.0000 0.0000 0.0000 0.0000 -4.5216
#
#
#
# Elastic Compliance Matrix: (Units=1/GPa)
#
#
# Indices 1 2 3 4 5 6 
#
# 1 0.064138 -0.000043 -0.005173 0.000000 0.000000 0.000000
# 2 -0.000043 0.007492 -0.004700 0.000000 0.000000 0.000000
# 3 -0.005173 -0.004700 0.009581 0.000000 0.000000 0.000000
# 4 0.000000 0.000000 0.000000 0.022378 0.000000 0.000000
# 5 0.000000 0.000000 0.000000 0.000000 -3.589616 0.000000
# 6 0.000000 0.000000 0.000000 0.000000 0.000000 -0.221160
#
#
# Mechanical properties :
#
#
# Convention : Reuss Voigt Hill
#
# Bulk Modulus (GPa) = 16.29186 68.82030 42.55608
# Shear Modulus (GPa) = -1.36355 24.78802 11.71223
#
# Velocity S-wave (km/s) = -0.83511 3.56063 2.44752
# Velocity P-wave (km/s) = 2.72081 7.21825 5.45462
#
# Compressibility (1/GPa) = 0.06138033
#
# Stress axis : x y z
#
# Youngs Moduli (GPa) = 15.59130 133.46889 104.37025
#
# Poissons Ratio (x) = 0.00575 0.53987
# Poissons Ratio (y) = 0.00067 0.49055
# Poissons Ratio (z) = 0.08065 0.62732
#
# Static dielectric constant tensor:
#      x y z
#    x 2.873070 0.000000 0.000000 
#    y 0.000000 3.881300 0.000000 
#    z 0.000000 0.000000 3.908810 
# 
# 
# High freq. dielectric constant tensor:
#      x y z
#    x 1.687180 0.000000 0.000000 
#    y 0.000000 1.779240 0.000000 
#    z 0.000000 0.000000 1.778860 
# 
# From -- ./inp_files/34088.got.cif
#   From: 2010.03.12/outbox.cif.g09.slc.cpg/sg47_18_cif.got.tgz:34088.got - 2010.04.14 03:12:58.
