data_PCOD8200570
_publ_section_title
;
Structure prediction by ZEFSAII (Michael W. Deem and Ramdas Pophale) SiO2 
 PCOD8200570
Probable space group: P M M M
;
_chemical_formula_sum "Si O2"
_cell_formula_units_Z 44
_cell_length_a 8.918737
_cell_length_b 13.523920
_cell_length_c 18.275218
_cell_angle_alpha 90.000000
_cell_angle_beta 90.000000
_cell_angle_gamma 90.000000
_cell_volume 2204.288915
_symmetry_space_group_name_H-M "P M M M"
_symmetry_group_IT_number 47
_symmetry_cell_setting 'orthorhombic'
loop_
_space_group_symop_operation_xyz
x,y,z
-x,-y,z
x,-y,-z
-x,y,-z
-x,-y,-z
x,y,-z
-x,y,z
x,-y,z
loop_
_atom_site_type_symbol
_atom_site_label
_atom_site_fract_x
_atom_site_fract_y
_atom_site_fract_z
Si Si1 0.677477 0.295174 0.158380
Si Si2 0.830848 0.110384 0.086477
Si Si3 0.669072 0.114064 0.582279
Si Si4 0.826505 0.740917 0.312734
Si Si5 0.333776 0.386095 0.419936
Si Si6 0.678231 0.500000 0.916286
O O1 0.500000 0.298628 0.160446
O O2 0.724721 0.198334 0.113195
O O3 0.738783 0.281460 0.239164
O O4 0.737485 0.399246 0.123507
O O5 0.000000 0.129332 0.115245
O O6 0.777900 0.000000 0.113209
O O7 0.828135 0.112069 0.000000
O O8 0.732397 0.132047 0.500000
O O9 0.500000 0.156686 0.587317
O O10 0.770080 0.162184 0.644978
O O11 0.668181 0.000000 0.601031
O O12 0.795987 0.650009 0.366652
O O13 0.000000 0.751905 0.294284
O O14 0.317603 0.335008 0.500000
O O15 0.500000 0.363110 0.387970
O O16 0.309575 0.500000 0.430446
O O17 0.500000 0.500000 0.915539
O O18 0.737728 0.500000 0.000000
#
# Coordination Sequence:
#
# PCOD8200570 Si02
#       6
#     8   8   8   8   8   4
#     4  11  23  39  61  88 118 157 202 248 298 355
#     4   9  19  38  63  90 122 156 188 231 293 361
#     4   9  19  38  63  87 112 149 200 251 296 350
#     4  12  25  37  53  82 120 156 190 236 292 349
#     4   9  19  37  60  82 106 143 191 238 284 337
#     4   9  20  40  65  91 116 145 190 249 303 352
#
# _framework density 19.961086000000002
#
# number of rings (size 3 to 8) (size 9 to 14) (size 15 to 20)
#    0.000    2.091    0.000    4.909    1.273    5.818 
#    0.000    4.091    0.000    3.273    0.000    0.000 
#    0.000    0.000    0.000    0.000    0.000    0.000 
#
# Total GULP energy -545252.827355 kJ/mol
# GULP energy per Si atom -12392.109713 kJ/mol
# Density = 1.991565 g / cm^3
# Si number density = 19.961086 Si / 1000 Ang^3
#
#
#
# Elastic Constant Matrix: (Units=GPa)
#
#
# Indices 1 2 3 4 5 6 
#
# 1 76.5229 45.1789 34.7932 0.0000 0.0000 0.0000
# 2 45.1789 150.3205 58.2932 0.0000 0.0000 0.0000
# 3 34.7932 58.2932 107.1817 0.0000 0.0000 0.0000
# 4 0.0000 0.0000 0.0000 33.4726 0.0000 0.0000
# 5 0.0000 0.0000 0.0000 0.0000 23.7431 0.0000
# 6 0.0000 0.0000 0.0000 0.0000 0.0000 30.9760
#
#
#
# Elastic Compliance Matrix: (Units=1/GPa)
#
#
# Indices 1 2 3 4 5 6 
#
# 1 0.016830 -0.003725 -0.003437 0.000000 0.000000 0.000000
# 2 -0.003725 0.009255 -0.003824 0.000000 0.000000 0.000000
# 3 -0.003437 -0.003824 0.012526 0.000000 0.000000 0.000000
# 4 0.000000 0.000000 0.000000 0.029875 0.000000 0.000000
# 5 0.000000 0.000000 0.000000 0.000000 0.042118 0.000000
# 6 0.000000 0.000000 0.000000 0.000000 0.000000 0.032283
#
#
# Mechanical properties :
#
#
# Convention : Reuss Voigt Hill
#
# Bulk Modulus (GPa) = 60.10632 67.83951 63.97292
# Shear Modulus (GPa) = 29.34160 30.68901 30.01531
#
# Velocity S-wave (km/s) = 3.83814 3.92528 3.88195
# Velocity P-wave (km/s) = 7.05825 7.38941 7.22573
#
# Compressibility (1/GPa) = 0.01663719
#
# Stress axis : x y z
#
# Youngs Moduli (GPa) = 59.41669 108.04793 79.83595
#
# Poissons Ratio (x) = 0.40252 0.27442
# Poissons Ratio (y) = 0.22135 0.30532
# Poissons Ratio (z) = 0.20423 0.41321
#
# Static dielectric constant tensor:
#      x y z
#    x 3.526840 0.000000 0.000000 
#    y 0.000000 4.020610 0.000000 
#    z 0.000000 0.000000 3.178070 
# 
# 
# High freq. dielectric constant tensor:
#      x y z
#    x 1.753750 0.000000 0.000000 
#    y 0.000000 1.801330 0.000000 
#    z 0.000000 0.000000 1.779810 
# 
# From -- ./inp_files/26357.got.cif
#   From: 2010.03.12/outbox.cif.g09.slc.cpg/sg47_14_cif.got.tgz:26357.got - 2010.04.14 03:12:58.
