data_PCOD8200772
_publ_section_title
;
Structure prediction by ZEFSAII (Michael W. Deem and Ramdas Pophale) SiO2 
 PCOD8200772
Probable space group: P M M M
;
_chemical_formula_sum "Si O2"
_cell_formula_units_Z 40
_cell_length_a 14.527186
_cell_length_b 20.866617
_cell_length_c 9.121649
_cell_angle_alpha 90.000000
_cell_angle_beta 90.000000
_cell_angle_gamma 90.000000
_cell_volume 2765.074891
_symmetry_space_group_name_H-M "P M M M"
_symmetry_group_IT_number 47
_symmetry_cell_setting 'orthorhombic'
loop_
_space_group_symop_operation_xyz
x,y,z
-x,-y,z
x,-y,-z
-x,y,-z
-x,-y,-z
x,y,-z
-x,y,z
x,-y,z
loop_
_atom_site_type_symbol
_atom_site_label
_atom_site_fract_x
_atom_site_fract_y
_atom_site_fract_z
Si Si1 0.396334 0.000000 0.674830
Si Si2 0.390142 0.500000 0.665745
Si Si3 0.393162 0.751143 0.328261
Si Si4 0.710804 0.123853 0.325471
Si Si5 0.100495 0.072315 0.325761
Si Si6 0.390505 0.375804 0.834718
O O1 0.345810 0.936787 0.735890
O O2 0.500000 0.000000 0.734982
O O3 0.394663 0.000000 0.500000
O O4 0.500000 0.500000 0.666420
O O5 0.352549 0.500000 0.500000
O O6 0.351506 0.437277 0.748183
O O7 0.377651 0.739758 0.500000
O O8 0.500000 0.765116 0.294466
O O9 0.334095 0.810707 0.266387
O O10 0.356445 0.688496 0.244929
O O11 0.705522 0.123855 0.500000
O O12 0.816789 0.117971 0.269366
O O13 0.102263 0.070891 0.500000
O O14 0.000000 0.097506 0.271161
O O15 0.116838 0.000000 0.267933
O O16 0.500000 0.378074 0.834322
O O17 0.351988 0.377103 0.000000
#
# Coordination Sequence:
#
# PCOD8200772 Si02
#       6
#     4   4   8   8   8   8
#     4   9  14  18  25  39  60  86 117 152 188 222
#     4   9  15  23  37  55  73  93 120 155 188 213
#     4   9  16  24  33  47  69  96 124 153 185 219
#     4   9  14  20  29  43  64  90 118 151 189 225
#     4   8  12  18  28  42  62  88 115 144 185 236
#     4   9  16  25  36  50  69  95 126 155 181 212
#
# _framework density 14.466153
#
# number of rings (size 3 to 8) (size 9 to 14) (size 15 to 20)
#    0.000    3.200    1.000    2.100    0.000    6.000 
#    0.000    0.000    0.000    0.000    0.000    0.700 
#    0.000    4.800    0.000    3.100    0.000   23.300 
#
# Total GULP energy -495716.758384 kJ/mol
# GULP energy per Si atom -12392.918960 kJ/mol
# Density = 1.443323 g / cm^3
# Si number density = 14.466153 Si / 1000 Ang^3
#
#
#
# Elastic Constant Matrix: (Units=GPa)
#
#
# Indices 1 2 3 4 5 6 
#
# 1 82.1578 54.4624 18.5175 0.0000 0.0000 0.0000
# 2 54.4624 144.3277 42.9588 0.0000 0.0000 0.0000
# 3 18.5175 42.9588 47.5819 0.0000 0.0000 0.0000
# 4 0.0000 0.0000 0.0000 3.1053 0.0000 0.0000
# 5 0.0000 0.0000 0.0000 0.0000 2.9820 0.0000
# 6 0.0000 0.0000 0.0000 0.0000 0.0000 6.5732
#
#
#
# Elastic Compliance Matrix: (Units=1/GPa)
#
#
# Indices 1 2 3 4 5 6 
#
# 1 0.016273 -0.005819 -0.001079 0.000000 0.000000 0.000000
# 2 -0.005819 0.011556 -0.008168 0.000000 0.000000 0.000000
# 3 -0.001079 -0.008168 0.028811 0.000000 0.000000 0.000000
# 4 0.000000 0.000000 0.000000 0.322034 0.000000 0.000000
# 5 0.000000 0.000000 0.000000 0.000000 0.335345 0.000000
# 6 0.000000 0.000000 0.000000 0.000000 0.000000 0.152134
#
#
# Mechanical properties :
#
#
# Convention : Reuss Voigt Hill
#
# Bulk Modulus (GPa) = 37.72702 56.21611 46.97156
# Shear Modulus (GPa) = 5.52412 13.07399 9.29906
#
# Velocity S-wave (km/s) = 1.95626 3.00953 2.53813
# Velocity P-wave (km/s) = 5.58916 7.14291 6.41326
#
# Compressibility (1/GPa) = 0.02650620
#
# Stress axis : x y z
#
# Youngs Moduli (GPa) = 61.45336 86.53563 34.70891
#
# Poissons Ratio (x) = 0.50358 0.03745
# Poissons Ratio (y) = 0.35762 0.28352
# Poissons Ratio (z) = 0.06630 0.70686
#
# Static dielectric constant tensor:
#      x y z
#    x 2.773510 0.000000 0.000000 
#    y 0.000000 2.941250 0.000000 
#    z 0.000000 0.000000 2.486510 
# 
# 
# High freq. dielectric constant tensor:
#      x y z
#    x 1.511560 0.000000 0.000000 
#    y 0.000000 1.552150 0.000000 
#    z 0.000000 0.000000 1.513640 
# 
# From -- ./inp_files/6670.got.cif
#   From: 2010.03.12/outbox.cif.g09.slc.cpg/sg47_4_cif.got.tgz:6670.got - 2010.04.14 03:12:58.
