data_PCOD8200617
_publ_section_title
;
Structure prediction by ZEFSAII (Michael W. Deem and Ramdas Pophale) SiO2 
 PCOD8200617
Probable space group: P M M M
;
_chemical_formula_sum "Si O2"
_cell_formula_units_Z 44
_cell_length_a 7.982549
_cell_length_b 9.256660
_cell_length_c 29.443301
_cell_angle_alpha 90.000000
_cell_angle_beta 90.000000
_cell_angle_gamma 90.000000
_cell_volume 2175.616802
_symmetry_space_group_name_H-M "P M M M"
_symmetry_group_IT_number 47
_symmetry_cell_setting 'orthorhombic'
loop_
_space_group_symop_operation_xyz
x,y,z
-x,-y,z
x,-y,-z
-x,y,-z
-x,-y,-z
x,y,-z
-x,y,z
x,-y,z
loop_
_atom_site_type_symbol
_atom_site_label
_atom_site_fract_x
_atom_site_fract_y
_atom_site_fract_z
Si Si1 0.195146 0.666083 0.817326
Si Si2 0.805501 0.336277 0.285692
Si Si3 0.690898 0.841878 0.368061
Si Si4 0.000000 0.666999 0.053676
Si Si5 0.691114 0.830267 0.900712
Si Si6 0.805246 0.657852 0.549234
O O1 0.251563 0.500000 0.824077
O O2 0.228179 0.715900 0.765698
O O3 0.301589 0.771595 0.849238
O O4 0.000000 0.681635 0.830083
O O5 0.743567 0.500000 0.291219
O O6 0.703888 0.239431 0.320371
O O7 0.000000 0.324527 0.297743
O O8 0.500000 0.854800 0.381606
O O9 0.777839 0.765883 0.409939
O O10 0.772521 0.000000 0.362230
O O11 0.170744 0.744625 0.069979
O O12 0.000000 0.500000 0.070766
O O13 0.000000 0.674229 0.000000
O O14 0.500000 0.804624 0.918863
O O15 0.734499 0.000000 0.901730
O O16 0.733987 0.712964 0.500000
O O17 0.725728 0.500000 0.560556
O O18 0.000000 0.637939 0.543877
#
# Coordination Sequence:
#
# PCOD8200617 Si02
#       6
#     8   8   8   4   8   8
#     4   9  18  35  60  88 118 155 200 249 300 354
#     4   9  19  36  58  83 110 145 192 240 283 333
#     4  11  24  37  49  73 111 148 181 223 275 332
#     4  11  25  45  69  95 125 165 215 269 316 363
#     4  11  24  40  62  95 132 169 208 254 313 378
#     4   9  19  37  60  82 101 126 168 222 276 334
#
# _framework density 20.224148
#
# number of rings (size 3 to 8) (size 9 to 14) (size 15 to 20)
#    0.000    2.091    0.909    3.545    0.000    9.091 
#    0.000   10.000    0.000    0.000    0.000    0.000 
#    0.000    0.000    0.000    0.000    0.000    0.000 
#
# Total GULP energy -545378.153414 kJ/mol
# GULP energy per Si atom -12394.958032 kJ/mol
# Density = 2.017812 g / cm^3
# Si number density = 20.224148 Si / 1000 Ang^3
#
#
#
# Elastic Constant Matrix: (Units=GPa)
#
#
# Indices 1 2 3 4 5 6 
#
# 1 78.7315 47.3407 36.4567 0.0000 0.0000 0.0000
# 2 47.3407 128.1959 61.0644 0.0000 0.0000 0.0000
# 3 36.4567 61.0644 107.8977 0.0000 0.0000 0.0000
# 4 0.0000 0.0000 0.0000 -16.2164 0.0000 0.0000
# 5 0.0000 0.0000 0.0000 0.0000 -13.7528 0.0000
# 6 0.0000 0.0000 0.0000 0.0000 0.0000 28.6397
#
#
#
# Elastic Compliance Matrix: (Units=1/GPa)
#
#
# Indices 1 2 3 4 5 6 
#
# 1 0.017008 -0.004851 -0.003001 0.000000 0.000000 0.000000
# 2 -0.004851 0.012063 -0.005188 0.000000 0.000000 0.000000
# 3 -0.003001 -0.005188 0.013218 0.000000 0.000000 0.000000
# 4 0.000000 0.000000 0.000000 -0.061666 0.000000 0.000000
# 5 0.000000 0.000000 0.000000 0.000000 -0.072713 0.000000
# 6 0.000000 0.000000 0.000000 0.000000 0.000000 0.034917
#
#
# Mechanical properties :
#
#
# Convention : Reuss Voigt Hill
#
# Bulk Modulus (GPa) = 61.69526 67.17209 64.43367
# Shear Modulus (GPa) = -194.63786 11.06501 -91.78642
#
# Velocity S-wave (km/s) = -9.82086 2.34159 -6.74412
# Velocity P-wave (km/s) = 9.90086 6.37155 5.35866
#
# Compressibility (1/GPa) = 0.01620870
#
# Stress axis : x y z
#
# Youngs Moduli (GPa) = 58.79543 82.89608 75.65303
#
# Poissons Ratio (x) = 0.40215 0.22705
# Poissons Ratio (y) = 0.28523 0.39249
# Poissons Ratio (z) = 0.17646 0.43007
#
# Static dielectric constant tensor:
#      x y z
#    x 3.529060 0.000000 0.000000 
#    y 0.000000 3.936540 0.000000 
#    z 0.000000 0.000000 3.734130 
# 
# 
# High freq. dielectric constant tensor:
#      x y z
#    x 1.780810 0.000000 0.000000 
#    y 0.000000 1.786980 0.000000 
#    z 0.000000 0.000000 1.798580 
# 
# From -- ./inp_files/33941.got.cif
#   From: 2010.03.12/outbox.cif.g09.slc.cpg/sg47_17_cif.got.tgz:33941.got - 2010.04.14 03:12:58.
