data_PCOD8200755
_publ_section_title
;
Structure prediction by ZEFSAII (Michael W. Deem and Ramdas Pophale) SiO2 
 PCOD8200755
Probable space group: P M M M
;
_chemical_formula_sum "Si O2"
_cell_formula_units_Z 40
_cell_length_a 14.642597
_cell_length_b 20.918778
_cell_length_c 9.482027
_cell_angle_alpha 90.000000
_cell_angle_beta 90.000000
_cell_angle_gamma 90.000000
_cell_volume 2904.394518
_symmetry_space_group_name_H-M "P M M M"
_symmetry_group_IT_number 47
_symmetry_cell_setting 'orthorhombic'
loop_
_space_group_symop_operation_xyz
x,y,z
-x,-y,z
x,-y,-z
-x,y,-z
-x,-y,-z
x,y,-z
-x,y,z
x,-y,z
loop_
_atom_site_type_symbol
_atom_site_label
_atom_site_fract_x
_atom_site_fract_y
_atom_site_fract_z
Si Si1 0.603036 0.000000 0.832049
Si Si2 0.390946 0.500000 0.341198
Si Si3 0.397924 0.757520 0.167980
Si Si4 0.712835 0.122873 0.168256
Si Si5 0.099568 0.072175 0.167644
Si Si6 0.391297 0.383173 0.842602
O O1 0.654256 0.062990 0.775131
O O2 0.500000 0.000000 0.773225
O O3 0.603028 0.000000 0.000000
O O4 0.500000 0.500000 0.340194
O O5 0.352861 0.500000 0.500000
O O6 0.352648 0.562903 0.262337
O O7 0.500000 0.770201 0.227472
O O8 0.329937 0.811522 0.229097
O O9 0.361889 0.687168 0.213639
O O10 0.401635 0.760177 0.000000
O O11 0.817474 0.116406 0.223745
O O12 0.710123 0.123738 0.000000
O O13 0.000000 0.098030 0.219309
O O14 0.114294 0.000000 0.223234
O O15 0.101993 0.071073 0.000000
O O16 0.500000 0.385835 0.848804
O O17 0.352409 0.395912 0.000000
#
# Coordination Sequence:
#
# PCOD8200755 Si02
#       6
#     4   4   8   8   8   8
#     4   9  14  16  19  29  45  65  91 125 162 189
#     4   9  15  21  31  47  63  79 104 137 162 180
#     4   8  13  19  26  36  51  73 101 129 155 186
#     4   9  13  17  23  32  46  67  96 129 159 186
#     4   8  12  17  23  30  42  63  94 129 159 187
#     4   8  13  21  31  42  58  82 108 131 158 192
#
# _framework density 13.772233999999999
#
# number of rings (size 3 to 8) (size 9 to 14) (size 15 to 20)
#    0.000    3.600    1.000    2.700    0.000    3.600 
#    0.000    0.000    0.000    0.000    0.000    0.000 
#    0.000    0.000    0.000    1.800    0.000   45.100 
#
# Total GULP energy -495529.034527 kJ/mol
# GULP energy per Si atom -12388.225863 kJ/mol
# Density = 1.374089 g / cm^3
# Si number density = 13.772234 Si / 1000 Ang^3
#
#
#
# Elastic Constant Matrix: (Units=GPa)
#
#
# Indices 1 2 3 4 5 6 
#
# 1 88.8161 56.0432 12.2964 0.0000 0.0000 0.0000
# 2 56.0432 133.8213 28.8535 0.0000 0.0000 0.0000
# 3 12.2964 28.8535 25.5825 0.0000 0.0000 0.0000
# 4 0.0000 0.0000 0.0000 1.0852 0.0000 0.0000
# 5 0.0000 0.0000 0.0000 0.0000 1.6990 0.0000
# 6 0.0000 0.0000 0.0000 0.0000 0.0000 6.8298
#
#
#
# Elastic Compliance Matrix: (Units=1/GPa)
#
#
# Indices 1 2 3 4 5 6 
#
# 1 0.015304 -0.006373 -0.000168 0.000000 0.000000 0.000000
# 2 -0.006373 0.012528 -0.011066 0.000000 0.000000 0.000000
# 3 -0.000168 -0.011066 0.051651 0.000000 0.000000 0.000000
# 4 0.000000 0.000000 0.000000 0.921476 0.000000 0.000000
# 5 0.000000 0.000000 0.000000 0.000000 0.588573 0.000000
# 6 0.000000 0.000000 0.000000 0.000000 0.000000 0.146416
#
#
# Mechanical properties :
#
#
# Convention : Reuss Voigt Hill
#
# Bulk Modulus (GPa) = 22.58967 49.17846 35.88407
# Shear Modulus (GPa) = 2.79968 11.99128 7.39548
#
# Velocity S-wave (km/s) = 1.42733 2.95394 2.31981
# Velocity P-wave (km/s) = 4.37656 6.88624 5.76951
#
# Compressibility (1/GPa) = 0.04426802
#
# Stress axis : x y z
#
# Youngs Moduli (GPa) = 65.34341 79.82418 19.36068
#
# Poissons Ratio (x) = 0.50870 0.00326
# Poissons Ratio (y) = 0.41642 0.21425
# Poissons Ratio (z) = 0.01099 0.88335
#
# Static dielectric constant tensor:
#      x y z
#    x 2.748650 0.000000 0.000000 
#    y 0.000000 3.011450 0.000000 
#    z 0.000000 0.000000 2.223410 
# 
# 
# High freq. dielectric constant tensor:
#      x y z
#    x 1.488600 0.000000 0.000000 
#    y 0.000000 1.526770 0.000000 
#    z 0.000000 0.000000 1.460310 
# 
# From -- ./inp_files/6668.got.cif
#   From: 2010.03.12/outbox.cif.g09.slc.cpg/sg47_4_cif.got.tgz:6668.got - 2010.04.14 03:12:58.
