data_PCOD8200018
_publ_section_title
;
Structure prediction by ZEFSAII (Michael W. Deem and Ramdas Pophale) SiO2 
 PCOD8200018
Probable space group: P M M M
;
_chemical_formula_sum "Si O2"
_cell_formula_units_Z 44
_cell_length_a 7.866984
_cell_length_b 29.491466
_cell_length_c 9.034498
_cell_angle_alpha 90.000000
_cell_angle_beta 90.000000
_cell_angle_gamma 90.000000
_cell_volume 2096.083863
_symmetry_space_group_name_H-M "P M M M"
_symmetry_group_IT_number 47
_symmetry_cell_setting 'orthorhombic'
loop_
_space_group_symop_operation_xyz
x,y,z
-x,-y,z
x,-y,-z
-x,y,-z
-x,-y,-z
x,y,-z
-x,y,z
x,-y,z
loop_
_atom_site_type_symbol
_atom_site_label
_atom_site_fract_x
_atom_site_fract_y
_atom_site_fract_z
Si Si1 0.305422 0.194106 0.161936
Si Si2 0.806668 0.278989 0.335180
Si Si3 0.000000 0.053582 0.829968
Si Si4 0.699571 0.105166 0.325188
Si Si5 0.199374 0.551044 0.331339
Si Si6 0.306342 0.636642 0.165860
O O1 0.500000 0.183652 0.135512
O O2 0.291260 0.243281 0.234789
O O3 0.236364 0.154477 0.268395
O O4 0.213854 0.193569 0.000000
O O5 0.727037 0.279794 0.500000
O O6 0.799160 0.329218 0.267638
O O7 0.000000 0.263147 0.342320
O O8 0.825495 0.069362 0.751030
O O9 0.000000 0.000000 0.821269
O O10 0.000000 0.070596 0.000000
O O11 0.726953 0.103574 0.500000
O O12 0.500000 0.095081 0.286414
O O13 0.256776 0.559218 0.500000
O O14 0.247311 0.500000 0.282408
O O15 0.297030 0.585662 0.226436
O O16 0.000000 0.559241 0.315200
O O17 0.500000 0.652967 0.166439
O O18 0.231604 0.637733 0.000000
#
# Coordination Sequence:
#
# PCOD8200018 Si02
#       6
#     8   8   4   8   8   8
#     4  10  21  38  61  89 121 157 198 244 297 359
#     4  11  24  39  57  83 114 150 193 240 290 347
#     4  11  25  43  65  95 131 173 219 269 324 381
#     4  10  22  41  66  95 129 170 215 266 322 380
#     4   9  19  37  60  84 109 139 179 227 278 336
#     4  11  24  39  55  79 112 147 185 232 284 340
#
# _framework density 20.991526
#
# number of rings (size 3 to 8) (size 9 to 14) (size 15 to 20)
#    0.000    1.727    0.000    4.091    1.273   11.636 
#    0.000    4.545    0.000    0.000    0.000    0.000 
#    0.000    0.000    0.000    0.000    0.000    0.000 
#
# Total GULP energy -545593.750517 kJ/mol
# GULP energy per Si atom -12399.857966 kJ/mol
# Density = 2.094375 g / cm^3
# Si number density = 20.991526 Si / 1000 Ang^3
#
#
#
# Elastic Constant Matrix: (Units=GPa)
#
#
# Indices 1 2 3 4 5 6 
#
# 1 63.6229 27.7249 41.8929 0.0000 0.0000 0.0000
# 2 27.7249 118.7960 66.3826 0.0000 0.0000 0.0000
# 3 41.8929 66.3826 171.4297 0.0000 0.0000 0.0000
# 4 0.0000 0.0000 0.0000 39.5457 0.0000 0.0000
# 5 0.0000 0.0000 0.0000 0.0000 19.5071 0.0000
# 6 0.0000 0.0000 0.0000 0.0000 0.0000 35.2788
#
#
#
# Elastic Compliance Matrix: (Units=1/GPa)
#
#
# Indices 1 2 3 4 5 6 
#
# 1 0.019244 -0.002378 -0.003782 0.000000 0.000000 0.000000
# 2 -0.002378 0.011036 -0.003692 0.000000 0.000000 0.000000
# 3 -0.003782 -0.003692 0.008187 0.000000 0.000000 0.000000
# 4 0.000000 0.000000 0.000000 0.025287 0.000000 0.000000
# 5 0.000000 0.000000 0.000000 0.000000 0.051263 0.000000
# 6 0.000000 0.000000 0.000000 0.000000 0.000000 0.028346
#
#
# Mechanical properties :
#
#
# Convention : Reuss Voigt Hill
#
# Bulk Modulus (GPa) = 53.29650 69.53882 61.41766
# Shear Modulus (GPa) = 29.52945 33.38952 31.45949
#
# Velocity S-wave (km/s) = 3.75471 3.99258 3.87547
# Velocity P-wave (km/s) = 6.65145 7.37925 7.02478
#
# Compressibility (1/GPa) = 0.01876296
#
# Stress axis : x y z
#
# Youngs Moduli (GPa) = 51.96400 90.61227 122.14031
#
# Poissons Ratio (x) = 0.21547 0.46193
# Poissons Ratio (y) = 0.12357 0.45099
# Poissons Ratio (z) = 0.19653 0.33457
#
# Static dielectric constant tensor:
#      x y z
#    x 3.655380 0.000000 0.000000 
#    y 0.000000 3.683870 0.000000 
#    z 0.000000 0.000000 4.037720 
# 
# 
# High freq. dielectric constant tensor:
#      x y z
#    x 1.815220 0.000000 0.000000 
#    y 0.000000 1.822700 0.000000 
#    z 0.000000 0.000000 1.834250 
# 
# From -- ./inp_files/2127.got.cif
#   From: 2010.03.12/outbox.cif.g09.slc.cpg/sg47_2_cif.got.tgz:2127.got - 2010.04.14 03:12:58.
