data_PCOD8200403
_publ_section_title
;
Structure prediction by ZEFSAII (Michael W. Deem and Ramdas Pophale) SiO2 
 PCOD8200403
Probable space group: P M M M
;
_chemical_formula_sum "Si O2"
_cell_formula_units_Z 64
_cell_length_a 14.398492
_cell_length_b 9.044682
_cell_length_c 25.471729
_cell_angle_alpha 90.000000
_cell_angle_beta 90.000000
_cell_angle_gamma 90.000000
_cell_volume 3317.177700
_symmetry_space_group_name_H-M "P M M M"
_symmetry_group_IT_number 47
_symmetry_cell_setting 'orthorhombic'
loop_
_space_group_symop_operation_xyz
x,y,z
-x,-y,z
x,-y,-z
-x,y,-z
-x,-y,-z
x,y,-z
-x,y,z
x,-y,z
loop_
_atom_site_type_symbol
_atom_site_label
_atom_site_fract_x
_atom_site_fract_y
_atom_site_fract_z
Si Si1 0.100908 0.834894 0.437713
Si Si2 0.104632 0.830594 0.216974
Si Si3 0.603023 0.675781 0.344889
Si Si4 0.717802 0.330766 0.940086
Si Si5 0.284549 0.675262 0.755867
Si Si6 0.895161 0.830726 0.906407
Si Si7 0.608399 0.174054 0.149001
Si Si8 0.280905 0.674583 0.558791
O O1 0.098107 0.834994 0.500000
O O2 0.181594 0.726353 0.418372
O O3 0.000000 0.781276 0.416304
O O4 0.121616 0.000000 0.416925
O O5 0.177625 0.726780 0.246961
O O6 0.120898 0.812461 0.155295
O O7 0.000000 0.781260 0.232075
O O8 0.120892 0.000000 0.233695
O O9 0.500000 0.741488 0.337457
O O10 0.600443 0.500000 0.345062
O O11 0.666969 0.731464 0.297403
O O12 0.641485 0.733429 0.400917
O O13 0.714741 0.500000 0.920576
O O14 0.823528 0.273857 0.936352
O O15 0.647591 0.233227 0.905948
O O16 0.684404 0.317907 0.000000
O O17 0.289187 0.500000 0.762214
O O18 0.337630 0.748545 0.804041
O O19 0.000000 0.783484 0.921620
O O20 0.877695 0.000000 0.923161
O O21 0.500000 0.213043 0.153031
O O22 0.626783 0.000000 0.151980
O O23 0.301146 0.737412 0.500000
O O24 0.279112 0.500000 0.557110
#
# Coordination Sequence:
#
# PCOD8200403 Si02
#       8
#     8   8   8   8   8   8   8   8
#     4   8  14  26  45  69  99 136 174 211 257 314
#     4   9  18  34  57  84 114 146 179 218 266 322
#     4   9  19  35  53  77 110 143 176 221 276 327
#     4  11  24  39  56  83 117 149 183 227 276 325
#     4  11  21  35  59  86 111 141 178 223 275 329
#     4   9  18  34  57  83 112 149 188 224 267 321
#     4  11  24  41  61  83 107 140 184 231 278 329
#     4   9  17  30  51  78 105 138 182 226 266 312
#
# _framework density 19.293510000000001
#
# number of rings (size 3 to 8) (size 9 to 14) (size 15 to 20)
#    0.000    2.375    1.250    2.625    0.000    4.000 
#    0.000    8.125    0.000    5.625    0.000    1.750 
#    0.000    0.000    0.000    0.000    0.000    0.000 
#
# Total GULP energy -793475.123659 kJ/mol
# GULP energy per Si atom -12398.048807 kJ/mol
# Density = 1.924960 g / cm^3
# Si number density = 19.293510 Si / 1000 Ang^3
#
#
#
# Elastic Constant Matrix: (Units=GPa)
#
#
# Indices 1 2 3 4 5 6 
#
# 1 145.3961 49.3594 62.1847 0.0000 0.0000 0.0000
# 2 49.3594 63.8614 34.4637 0.0000 0.0000 0.0000
# 3 62.1847 34.4637 94.2739 0.0000 0.0000 0.0000
# 4 0.0000 0.0000 0.0000 9.2604 0.0000 0.0000
# 5 0.0000 0.0000 0.0000 0.0000 27.1041 0.0000
# 6 0.0000 0.0000 0.0000 0.0000 0.0000 28.0494
#
#
#
# Elastic Compliance Matrix: (Units=1/GPa)
#
#
# Indices 1 2 3 4 5 6 
#
# 1 0.011044 -0.005736 -0.005188 0.000000 0.000000 0.000000
# 2 -0.005736 0.022487 -0.004437 0.000000 0.000000 0.000000
# 3 -0.005188 -0.004437 0.015651 0.000000 0.000000 0.000000
# 4 0.000000 0.000000 0.000000 0.107987 0.000000 0.000000
# 5 0.000000 0.000000 0.000000 0.000000 0.036895 0.000000
# 6 0.000000 0.000000 0.000000 0.000000 0.000000 0.035651
#
#
# Mechanical properties :
#
#
# Convention : Reuss Voigt Hill
#
# Bulk Modulus (GPa) = 54.16985 66.17189 60.17087
# Shear Modulus (GPa) = 18.75536 23.38435 21.06986
#
# Velocity S-wave (km/s) = 3.12125 3.48520 3.30823
# Velocity P-wave (km/s) = 6.41305 7.11108 6.77107
#
# Compressibility (1/GPa) = 0.01846045
#
# Stress axis : x y z
#
# Youngs Moduli (GPa) = 90.54785 44.47019 63.89274
#
# Poissons Ratio (x) = 0.25510 0.33146
# Poissons Ratio (y) = 0.51941 0.28348
# Poissons Ratio (z) = 0.46973 0.19730
#
# Static dielectric constant tensor:
#      x y z
#    x 3.907800 0.000000 0.000000 
#    y 0.000000 3.405100 0.000000 
#    z 0.000000 0.000000 3.458710 
# 
# 
# High freq. dielectric constant tensor:
#      x y z
#    x 1.762670 0.000000 0.000000 
#    y 0.000000 1.733780 0.000000 
#    z 0.000000 0.000000 1.735960 
# 
# From -- ./inp_files/32759.got.cif
#   From: 2010.03.12/outbox.cif.g09.slc.cpg/sg47_17_cif.got.tgz:32759.got - 2010.04.14 03:12:58.
