data_PCOD8200612
_publ_section_title
;
Structure prediction by ZEFSAII (Michael W. Deem and Ramdas Pophale) SiO2 
 PCOD8200612
Probable space group: P M M M
;
_chemical_formula_sum "Si O2"
_cell_formula_units_Z 36
_cell_length_a 9.156103
_cell_length_b 22.885705
_cell_length_c 9.420748
_cell_angle_alpha 90.000000
_cell_angle_beta 90.000000
_cell_angle_gamma 90.000000
_cell_volume 1974.060015
_symmetry_space_group_name_H-M "P M M M"
_symmetry_group_IT_number 47
_symmetry_cell_setting 'orthorhombic'
loop_
_space_group_symop_operation_xyz
x,y,z
-x,-y,z
x,-y,-z
-x,y,-z
-x,-y,-z
x,y,-z
-x,y,z
x,-y,z
loop_
_atom_site_type_symbol
_atom_site_label
_atom_site_fract_x
_atom_site_fract_y
_atom_site_fract_z
Si Si1 0.674564 0.000000 0.158934
Si Si2 0.331663 0.432364 0.337668
Si Si3 0.172231 0.663464 0.836570
Si Si4 0.669106 0.762588 0.665988
Si Si5 0.673396 0.893498 0.342865
O O1 0.736384 0.057967 0.235891
O O2 0.500000 0.000000 0.160335
O O3 0.736209 0.000000 0.000000
O O4 0.287882 0.418646 0.500000
O O5 0.500000 0.415396 0.313279
O O6 0.305116 0.500000 0.302771
O O7 0.232463 0.395507 0.232558
O O8 0.233782 0.720000 0.758573
O O9 0.000000 0.663453 0.819796
O O10 0.220942 0.665265 0.000000
O O11 0.696334 0.750654 0.500000
O O12 0.500000 0.752181 0.703338
O O13 0.718104 0.828470 0.706534
O O14 0.736296 0.906300 0.500000
O O15 0.500000 0.897244 0.349199
#
# Coordination Sequence:
#
# PCOD8200612 Si02
#       5
#     4   8   8   8   8
#     4   9  15  21  33  59  94 127 158 193 236 290
#     4   9  19  37  60  83 104 128 163 206 248 292
#     4  11  24  37  49  72 106 139 169 203 246 296
#     4   9  18  33  53  75  97 126 169 215 254 296
#     4   8  14  25  41  62  90 123 157 197 246 294
#
# _framework density 18.236526999999999
#
# number of rings (size 3 to 8) (size 9 to 14) (size 15 to 20)
#    0.000    2.778    0.000    3.667    0.000    8.444 
#    0.000    5.556    0.000    0.000    0.000    0.778 
#    0.000    6.222    0.000    0.000    0.000    0.000 
#
# Total GULP energy -446345.117872 kJ/mol
# GULP energy per Si atom -12398.475496 kJ/mol
# Density = 1.819502 g / cm^3
# Si number density = 18.236527 Si / 1000 Ang^3
#
#
#
# Elastic Constant Matrix: (Units=GPa)
#
#
# Indices 1 2 3 4 5 6 
#
# 1 45.7830 41.8903 46.5616 0.0000 0.0000 0.0000
# 2 41.8903 141.1035 87.8877 0.0000 0.0000 0.0000
# 3 46.5616 87.8877 126.8046 0.0000 0.0000 0.0000
# 4 0.0000 0.0000 0.0000 8.3969 0.0000 0.0000
# 5 0.0000 0.0000 0.0000 0.0000 23.7472 0.0000
# 6 0.0000 0.0000 0.0000 0.0000 0.0000 -3.3163
#
#
#
# Elastic Compliance Matrix: (Units=1/GPa)
#
#
# Indices 1 2 3 4 5 6 
#
# 1 0.036321 -0.004357 -0.010317 0.000000 0.000000 0.000000
# 2 -0.004357 0.012993 -0.007406 0.000000 0.000000 0.000000
# 3 -0.010317 -0.007406 0.016807 0.000000 0.000000 0.000000
# 4 0.000000 0.000000 0.000000 0.119092 0.000000 0.000000
# 5 0.000000 0.000000 0.000000 0.000000 0.042110 0.000000
# 6 0.000000 0.000000 0.000000 0.000000 0.000000 -0.301542
#
#
# Mechanical properties :
#
#
# Convention : Reuss Voigt Hill
#
# Bulk Modulus (GPa) = 45.53240 74.04117 59.78678
# Shear Modulus (GPa) = -219.89320 14.92232 -102.48544
#
# Velocity S-wave (km/s) = -10.99273 2.86364 -7.50466
# Velocity P-wave (km/s) = 11.66612 7.18488 6.49907
#
# Compressibility (1/GPa) = 0.02196238
#
# Stress axis : x y z
#
# Youngs Moduli (GPa) = 27.53216 76.96370 59.49755
#
# Poissons Ratio (x) = 0.33531 0.61385
# Poissons Ratio (y) = 0.11995 0.44062
# Poissons Ratio (z) = 0.28405 0.56997
#
# Static dielectric constant tensor:
#      x y z
#    x 2.934610 0.000000 0.000000 
#    y 0.000000 3.569550 0.000000 
#    z 0.000000 0.000000 3.497380 
# 
# 
# High freq. dielectric constant tensor:
#      x y z
#    x 1.661720 0.000000 0.000000 
#    y 0.000000 1.725250 0.000000 
#    z 0.000000 0.000000 1.706920 
# 
# From -- ./inp_files/1443.got.cif
#   From: 2010.03.12/outbox.cif.g09.slc.cpg/sg47_1_cif.got.tgz:1443.got - 2010.04.14 03:12:58.
