data_PCOD8200268
_publ_section_title
;
Structure prediction by ZEFSAII (Michael W. Deem and Ramdas Pophale) SiO2 
 PCOD8200268
Probable space group: P M M M
;
_chemical_formula_sum "Si O2"
_cell_formula_units_Z 64
_cell_length_a 19.356536
_cell_length_b 8.885749
_cell_length_c 23.654669
_cell_angle_alpha 90.000000
_cell_angle_beta 90.000000
_cell_angle_gamma 90.000000
_cell_volume 4068.539683
_symmetry_space_group_name_H-M "P M M M"
_symmetry_group_IT_number 47
_symmetry_cell_setting 'orthorhombic'
loop_
_space_group_symop_operation_xyz
x,y,z
-x,-y,z
x,-y,-z
-x,y,-z
-x,-y,-z
x,y,-z
-x,y,z
x,-y,z
loop_
_atom_site_type_symbol
_atom_site_label
_atom_site_fract_x
_atom_site_fract_y
_atom_site_fract_z
Si Si1 0.712360 0.320054 0.937389
Si Si2 0.155664 0.822944 0.336714
Si Si3 0.720283 0.677536 0.281166
Si Si4 0.205069 0.676791 0.832744
Si Si5 0.922250 0.322316 0.234527
Si Si6 0.575089 0.321267 0.247133
Si Si7 0.575514 0.678561 0.879912
Si Si8 0.920853 0.673742 0.565243
O O1 0.712863 0.500000 0.937446
O O2 0.768124 0.254067 0.892182
O O3 0.636312 0.259219 0.919968
O O4 0.730444 0.258600 0.000000
O O5 0.233468 0.761618 0.327681
O O6 0.102031 0.755611 0.291806
O O7 0.130457 0.776988 0.398795
O O8 0.156516 0.000000 0.330496
O O9 0.729228 0.500000 0.290697
O O10 0.745618 0.725706 0.218720
O O11 0.639864 0.730473 0.286151
O O12 0.208768 0.500000 0.839593
O O13 0.126621 0.727767 0.818021
O O14 0.916237 0.500000 0.244907
O O15 0.000000 0.272735 0.219806
O O16 0.500000 0.267128 0.271470
O O17 0.576363 0.500000 0.243971
O O18 0.584822 0.257923 0.183670
O O19 0.500000 0.727957 0.903605
O O20 0.580447 0.500000 0.877635
O O21 0.903153 0.702571 0.500000
O O22 0.908975 0.500000 0.581201
O O23 0.000000 0.718846 0.577879
#
# Coordination Sequence:
#
# PCOD8200268 Si02
#       8
#     8   8   8   8   8   8   8   8
#     4   9  14  18  26  42  68 102 134 164 202 251
#     4  11  21  29  41  65  94 117 140 175 213 246
#     4   9  15  26  43  58  79 113 147 177 211 253
#     4   8  13  22  34  49  69  96 133 169 204 250
#     4   9  17  29  45  60  75 102 139 175 211 256
#     4   8  12  19  35  57  77 101 139 182 215 246
#     4   8  12  17  25  41  68 100 132 164 199 245
#     4   9  18  33  51  68  89 121 156 180 198 232
#
# _framework density 15.730460000000001
#
# number of rings (size 3 to 8) (size 9 to 14) (size 15 to 20)
#    0.000    3.125    1.250    3.375    0.000    2.500 
#    0.000    1.875    0.000    0.750    0.000    2.625 
#    0.000    8.500    0.000   10.250    0.000   22.625 
#
# Total GULP energy -792934.195374 kJ/mol
# GULP energy per Si atom -12389.596803 kJ/mol
# Density = 1.569466 g / cm^3
# Si number density = 15.730460 Si / 1000 Ang^3
#
#
#
# Elastic Constant Matrix: (Units=GPa)
#
#
# Indices 1 2 3 4 5 6 
#
# 1 145.4291 27.7193 59.7565 0.0000 0.0000 0.0000
# 2 27.7193 27.3330 18.8226 0.0000 0.0000 0.0000
# 3 59.7565 18.8226 78.9364 0.0000 0.0000 0.0000
# 4 0.0000 0.0000 0.0000 0.6008 0.0000 0.0000
# 5 0.0000 0.0000 0.0000 0.0000 24.2761 0.0000
# 6 0.0000 0.0000 0.0000 0.0000 0.0000 4.1886
#
#
#
# Elastic Compliance Matrix: (Units=1/GPa)
#
#
# Indices 1 2 3 4 5 6 
#
# 1 0.010840 -0.006392 -0.006682 0.000000 0.000000 0.000000
# 2 -0.006392 0.047543 -0.006498 0.000000 0.000000 0.000000
# 3 -0.006682 -0.006498 0.019276 0.000000 0.000000 0.000000
# 4 0.000000 0.000000 0.000000 1.664492 0.000000 0.000000
# 5 0.000000 0.000000 0.000000 0.000000 0.041193 0.000000
# 6 0.000000 0.000000 0.000000 0.000000 0.000000 0.238742
#
#
# Mechanical properties :
#
#
# Convention : Reuss Voigt Hill
#
# Bulk Modulus (GPa) = 25.96352 51.58835 38.77593
# Shear Modulus (GPa) = 2.41072 15.50644 8.95858
#
# Velocity S-wave (km/s) = 1.23929 3.14309 2.38902
# Velocity P-wave (km/s) = 4.31148 6.78516 5.68451
#
# Compressibility (1/GPa) = 0.03851558
#
# Stress axis : x y z
#
# Youngs Moduli (GPa) = 92.24952 21.03368 51.87701
#
# Poissons Ratio (x) = 0.13444 0.34665
# Poissons Ratio (y) = 0.58964 0.33709
# Poissons Ratio (z) = 0.61642 0.13668
#
# Static dielectric constant tensor:
#      x y z
#    x 3.439890 0.000000 0.000000 
#    y 0.000000 2.508570 0.000000 
#    z 0.000000 0.000000 2.926040 
# 
# 
# High freq. dielectric constant tensor:
#      x y z
#    x 1.610930 0.000000 0.000000 
#    y 0.000000 1.552020 0.000000 
#    z 0.000000 0.000000 1.572840 
# 
# From -- ./inp_files/32962.got.cif
#   From: 2010.03.12/outbox.cif.g09.slc.cpg/sg47_17_cif.got.tgz:32962.got - 2010.04.14 03:12:58.
