data_PCOD8200684
_publ_section_title
;
Structure prediction by ZEFSAII (Michael W. Deem and Ramdas Pophale) SiO2 
 PCOD8200684
Probable space group: P M M M
;
_chemical_formula_sum "Si O2"
_cell_formula_units_Z 60
_cell_length_a 22.868783
_cell_length_b 25.670243
_cell_length_c 9.690299
_cell_angle_alpha 90.000000
_cell_angle_beta 90.000000
_cell_angle_gamma 90.000000
_cell_volume 5688.663057
_symmetry_space_group_name_H-M "P M M M"
_symmetry_group_IT_number 47
_symmetry_cell_setting 'orthorhombic'
loop_
_space_group_symop_operation_xyz
x,y,z
-x,-y,z
x,-y,-z
-x,y,-z
-x,-y,-z
x,y,-z
-x,y,z
x,-y,z
loop_
_atom_site_type_symbol
_atom_site_label
_atom_site_fract_x
_atom_site_fract_y
_atom_site_fract_z
Si Si1 0.930439 0.057478 0.345316
Si Si2 0.066847 0.355831 0.341017
Si Si3 0.730390 0.561946 0.156674
Si Si4 0.161701 0.439971 0.341369
Si Si5 0.500000 0.556789 0.336870
Si Si6 0.374273 0.437544 0.344226
Si Si7 0.069608 0.147872 0.154882
Si Si8 0.930521 0.737160 0.845103
O O1 0.907156 0.066287 0.500000
O O2 0.902730 0.102802 0.250590
O O3 0.000000 0.060977 0.343401
O O4 0.911056 0.000000 0.292120
O O5 0.071255 0.339758 0.500000
O O6 0.103537 0.407498 0.308281
O O7 0.093850 0.307417 0.255845
O O8 0.000000 0.367884 0.298433
O O9 0.727960 0.500000 0.155419
O O10 0.787402 0.580440 0.240548
O O11 0.673585 0.584122 0.236709
O O12 0.731992 0.583817 0.000000
O O13 0.182137 0.432472 0.500000
O O14 0.146351 0.500000 0.311769
O O15 0.500000 0.500000 0.265276
O O16 0.500000 0.549385 0.500000
O O17 0.561516 0.585006 0.297063
O O18 0.358544 0.418959 0.500000
O O19 0.376491 0.500000 0.342144
O O20 0.090907 0.205367 0.203662
O O21 0.000000 0.145523 0.160402
O O22 0.091567 0.137413 0.000000
O O23 0.000000 0.736372 0.841750
O O24 0.908042 0.725873 0.000000
#
# Coordination Sequence:
#
# PCOD8200684 Si02
#       8
#     8   8   8   8   4   8   8   8
#     4   8  13  19  25  35  52  71  88 105 124 142
#     4   9  17  27  38  51  61  67  80 104 133 166
#     4   9  16  24  33  45  59  73  90 110 128 148
#     4   9  17  28  39  48  58  72  87 103 128 164
#     4   7  10  16  27  43  59  75  95 113 125 141
#     4   8  12  19  31  44  58  76  95 111 126 144
#     4   8  13  20  29  40  52  67  87 105 119 140
#     4   8  14  24  35  45  57  71  84  99 123 155
#
# _framework density 10.547294000000001
#
# number of rings (size 3 to 8) (size 9 to 14) (size 15 to 20)
#    0.000    3.667    0.000    2.400    0.000    3.200 
#    0.000    5.667    0.000    2.000    0.000    3.733 
#    0.000    0.000    0.000    0.000    0.000    0.000 
#
# Total GULP energy -743290.592006 kJ/mol
# GULP energy per Si atom -12388.176533 kJ/mol
# Density = 1.052329 g / cm^3
# Si number density = 10.547294 Si / 1000 Ang^3
#
#
#
# Elastic Constant Matrix: (Units=GPa)
#
#
# Indices 1 2 3 4 5 6 
#
# 1 46.7273 23.3943 31.6722 0.0000 0.0000 0.0000
# 2 23.3943 56.3997 35.7526 0.0000 0.0000 0.0000
# 3 31.6722 35.7526 62.5195 0.0000 0.0000 0.0000
# 4 0.0000 0.0000 0.0000 15.7712 0.0000 0.0000
# 5 0.0000 0.0000 0.0000 0.0000 7.4359 0.0000
# 6 0.0000 0.0000 0.0000 0.0000 0.0000 0.3154
#
#
#
# Elastic Compliance Matrix: (Units=1/GPa)
#
#
# Indices 1 2 3 4 5 6 
#
# 1 0.033438 -0.004912 -0.014130 0.000000 0.000000 0.000000
# 2 -0.004912 0.028535 -0.013829 0.000000 0.000000 0.000000
# 3 -0.014130 -0.013829 0.031062 0.000000 0.000000 0.000000
# 4 0.000000 0.000000 0.000000 0.063407 0.000000 0.000000
# 5 0.000000 0.000000 0.000000 0.000000 0.134482 0.000000
# 6 0.000000 0.000000 0.000000 0.000000 0.000000 3.170252
#
#
# Mechanical properties :
#
#
# Convention : Reuss Voigt Hill
#
# Bulk Modulus (GPa) = 36.64300 38.58720 37.61510
# Shear Modulus (GPa) = 1.41402 9.69302 5.55352
#
# Velocity S-wave (km/s) = 1.15912 3.03480 2.29712
# Velocity P-wave (km/s) = 6.05049 6.99602 6.54037
#
# Compressibility (1/GPa) = 0.02729034
#
# Stress axis : x y z
#
# Youngs Moduli (GPa) = 29.90628 35.04478 32.19381
#
# Poissons Ratio (x) = 0.17216 0.45491
# Poissons Ratio (y) = 0.14691 0.44522
# Poissons Ratio (z) = 0.42258 0.48465
#
# Static dielectric constant tensor:
#      x y z
#    x 2.140900 0.000000 0.000000 
#    y 0.000000 2.230880 0.000000 
#    z 0.000000 0.000000 2.443830 
# 
# 
# High freq. dielectric constant tensor:
#      x y z
#    x 1.356480 0.000000 0.000000 
#    y 0.000000 1.364910 0.000000 
#    z 0.000000 0.000000 1.403040 
# 
# From -- ./inp_files/11983.got.cif
#   From: 2010.03.12/outbox.cif.g09.slc.cpg/sg47_6_cif.got.tgz:11983.got - 2010.04.14 03:12:58.
