data_PCOD8200594
_publ_section_title
;
Structure prediction by ZEFSAII (Michael W. Deem and Ramdas Pophale) SiO2 
 PCOD8200594
Probable space group: P M M M
;
_chemical_formula_sum "Si O2"
_cell_formula_units_Z 44
_cell_length_a 9.379287
_cell_length_b 9.054108
_cell_length_c 28.446465
_cell_angle_alpha 90.000000
_cell_angle_beta 90.000000
_cell_angle_gamma 90.000000
_cell_volume 2415.704458
_symmetry_space_group_name_H-M "P M M M"
_symmetry_group_IT_number 47
_symmetry_cell_setting 'orthorhombic'
loop_
_space_group_symop_operation_xyz
x,y,z
-x,-y,z
x,-y,-z
-x,y,-z
-x,-y,-z
x,y,-z
-x,y,z
x,-y,z
loop_
_atom_site_type_symbol
_atom_site_label
_atom_site_fract_x
_atom_site_fract_y
_atom_site_fract_z
Si Si1 0.839256 0.676263 0.138857
Si Si2 0.660508 0.676229 0.227576
Si Si3 0.660037 0.675653 0.947955
Si Si4 0.166143 0.328653 0.419306
Si Si5 0.841955 0.675399 0.686123
Si Si6 0.663005 0.174253 0.500000
O O1 0.839379 0.500000 0.138562
O O2 0.750394 0.735782 0.183332
O O3 0.767190 0.739323 0.091258
O O4 0.000000 0.737465 0.141923
O O5 0.500000 0.738080 0.224262
O O6 0.659602 0.500000 0.227715
O O7 0.731602 0.738148 0.275463
O O8 0.500000 0.732684 0.937340
O O9 0.660645 0.500000 0.946005
O O10 0.708893 0.728733 0.000000
O O11 0.202002 0.500000 0.427344
O O12 0.205731 0.278472 0.366288
O O13 0.261312 0.232783 0.453540
O O14 0.000000 0.299286 0.429495
O O15 0.848382 0.500000 0.688945
O O16 0.000000 0.738152 0.697142
O O17 0.500000 0.228359 0.500000
O O18 0.674396 0.000000 0.500000
#
# Coordination Sequence:
#
# PCOD8200594 Si02
#       6
#     8   8   8   8   8   4
#     4   9  15  20  26  36  51  73 101 135 177 224
#     4   9  15  21  30  45  65  88 113 141 178 229
#     4   8  13  20  27  33  43  62  91 130 176 225
#     4   9  18  33  53  74  93 116 149 186 223 266
#     4   8  14  25  40  58  79  99 121 155 198 242
#     4  11  24  37  48  68  98 127 154 185 220 258
#
# _framework density 18.21415
#
# number of rings (size 3 to 8) (size 9 to 14) (size 15 to 20)
#    0.000    3.182    0.000    3.273    0.000    7.636 
#    0.000    3.636    0.000    0.000    0.000    0.000 
#    0.000    0.000    0.000    0.000    0.000    0.000 
#
# Total GULP energy -545371.178117 kJ/mol
# GULP energy per Si atom -12394.799503 kJ/mol
# Density = 1.817269 g / cm^3
# Si number density = 18.214150 Si / 1000 Ang^3
#
#
#
# Elastic Constant Matrix: (Units=GPa)
#
#
# Indices 1 2 3 4 5 6 
#
# 1 157.3835 18.3344 112.8054 0.0000 0.0000 0.0000
# 2 18.3344 13.7105 18.0114 0.0000 0.0000 0.0000
# 3 112.8054 18.0114 182.9858 0.0000 0.0000 0.0000
# 4 0.0000 0.0000 0.0000 -1.4993 0.0000 0.0000
# 5 0.0000 0.0000 0.0000 0.0000 37.8928 0.0000
# 6 0.0000 0.0000 0.0000 0.0000 0.0000 9.2547
#
#
#
# Elastic Compliance Matrix: (Units=1/GPa)
#
#
# Indices 1 2 3 4 5 6 
#
# 1 0.011981 -0.007257 -0.006672 0.000000 0.000000 0.000000
# 2 -0.007257 0.088165 -0.004204 0.000000 0.000000 0.000000
# 3 -0.006672 -0.004204 0.009992 0.000000 0.000000 0.000000
# 4 0.000000 0.000000 0.000000 -0.666998 0.000000 0.000000
# 5 0.000000 0.000000 0.000000 0.000000 0.026390 0.000000
# 6 0.000000 0.000000 0.000000 0.000000 0.000000 0.108053
#
#
# Mechanical properties :
#
#
# Convention : Reuss Voigt Hill
#
# Bulk Modulus (GPa) = 13.53707 72.48691 43.01199
# Shear Modulus (GPa) = -13.83027 22.79155 4.48064
#
# Velocity S-wave (km/s) = -2.75856 3.54122 1.57013
# Velocity P-wave (km/s) = 1.64252 7.52355 5.19162
#
# Compressibility (1/GPa) = 0.07387121
#
# Stress axis : x y z
#
# Youngs Moduli (GPa) = 83.46234 11.34239 100.08284
#
# Poissons Ratio (x) = 0.08232 0.66774
# Poissons Ratio (y) = 0.60572 0.42076
# Poissons Ratio (z) = 0.55685 0.04768
#
# Static dielectric constant tensor:
#      x y z
#    x 3.589080 0.000000 0.000000 
#    y 0.000000 2.502320 0.000000 
#    z 0.000000 0.000000 3.724150 
# 
# 
# High freq. dielectric constant tensor:
#      x y z
#    x 1.711480 0.000000 0.000000 
#    y 0.000000 1.612680 0.000000 
#    z 0.000000 0.000000 1.726850 
# 
# From -- ./inp_files/33909.got.cif
#   From: 2010.03.12/outbox.cif.g09.slc.cpg/sg47_17_cif.got.tgz:33909.got - 2010.04.14 03:12:58.
