data_PCOD8200288
_publ_section_title
;
Structure prediction by ZEFSAII (Michael W. Deem and Ramdas Pophale) SiO2 
 PCOD8200288
Probable space group: P M M M
;
_chemical_formula_sum "Si O2"
_cell_formula_units_Z 52
_cell_length_a 7.908933
_cell_length_b 18.784198
_cell_length_c 18.568379
_cell_angle_alpha 90.000000
_cell_angle_beta 90.000000
_cell_angle_gamma 90.000000
_cell_volume 2758.573411
_symmetry_space_group_name_H-M "P M M M"
_symmetry_group_IT_number 47
_symmetry_cell_setting 'orthorhombic'
loop_
_space_group_symop_operation_xyz
x,y,z
-x,-y,z
x,-y,-z
-x,y,-z
-x,-y,-z
x,y,-z
-x,y,z
x,-y,z
loop_
_atom_site_type_symbol
_atom_site_label
_atom_site_fract_x
_atom_site_fract_y
_atom_site_fract_z
Si Si1 0.301787 0.318893 0.083722
Si Si2 0.297877 0.078659 0.280316
Si Si3 0.189825 0.286874 0.663172
Si Si4 0.300032 0.843361 0.420583
Si Si5 0.309467 0.786967 0.798671
Si Si6 0.000000 0.421119 0.084803
Si Si7 0.698576 0.419586 0.581039
O O1 0.500000 0.338781 0.100362
O O2 0.237561 0.250083 0.129227
O O3 0.174751 0.381997 0.107830
O O4 0.278898 0.300088 0.000000
O O5 0.500000 0.079217 0.277977
O O6 0.237268 0.099855 0.360947
O O7 0.222146 0.137498 0.224114
O O8 0.227229 0.000000 0.261569
O O9 0.229039 0.234862 0.596567
O O10 0.305067 0.268055 0.731850
O O11 0.214275 0.367606 0.637890
O O12 0.000000 0.276544 0.690198
O O13 0.235762 0.866690 0.500000
O O14 0.500000 0.837889 0.419320
O O15 0.500000 0.806251 0.816351
O O16 0.000000 0.500000 0.120001
O O17 0.000000 0.428115 0.000000
O O18 0.765358 0.405189 0.500000
O O19 0.500000 0.406654 0.583316
O O20 0.743965 0.500000 0.604122
#
# Coordination Sequence:
#
# PCOD8200288 Si02
#       7
#     8   8   8   8   8   4   8
#     4   9  18  33  55  81 107 139 178 215 254 304
#     4   8  14  26  46  72  98 125 161 205 251 297
#     4  11  21  30  45  68  93 122 159 202 246 294
#     4   9  17  29  45  65  91 125 163 202 247 298
#     4   9  18  33  52  72  97 129 164 202 246 298
#     4   9  18  32  52  80 111 139 168 207 253 299
#     4   9  18  33  51  67  86 118 158 199 245 294
#
# _framework density 18.850322999999999
#
# number of rings (size 3 to 8) (size 9 to 14) (size 15 to 20)
#    0.000    2.846    0.000    3.231    1.077    3.385 
#    0.000    4.615    0.000    8.769    0.000    7.538 
#    0.000    1.846    0.000    0.154    0.000    0.000 
#
# Total GULP energy -644300.125535 kJ/mol
# GULP energy per Si atom -12390.387030 kJ/mol
# Density = 1.880742 g / cm^3
# Si number density = 18.850323 Si / 1000 Ang^3
#
#
#
# Elastic Constant Matrix: (Units=GPa)
#
#
# Indices 1 2 3 4 5 6 
#
# 1 42.4489 26.2712 22.2278 0.0000 0.0000 0.0000
# 2 26.2712 157.5260 69.9304 0.0000 0.0000 0.0000
# 3 22.2278 69.9304 81.2145 0.0000 0.0000 0.0000
# 4 0.0000 0.0000 0.0000 22.4346 0.0000 0.0000
# 5 0.0000 0.0000 0.0000 0.0000 8.2456 0.0000
# 6 0.0000 0.0000 0.0000 0.0000 0.0000 2.8702
#
#
#
# Elastic Compliance Matrix: (Units=1/GPa)
#
#
# Indices 1 2 3 4 5 6 
#
# 1 0.027900 -0.002045 -0.005875 0.000000 0.000000 0.000000
# 2 -0.002045 0.010426 -0.008418 0.000000 0.000000 0.000000
# 3 -0.005875 -0.008418 0.021169 0.000000 0.000000 0.000000
# 4 0.000000 0.000000 0.000000 0.044574 0.000000 0.000000
# 5 0.000000 0.000000 0.000000 0.000000 0.121277 0.000000
# 6 0.000000 0.000000 0.000000 0.000000 0.000000 0.348408
#
#
# Mechanical properties :
#
#
# Convention : Reuss Voigt Hill
#
# Bulk Modulus (GPa) = 37.28645 57.56090 47.42367
# Shear Modulus (GPa) = 8.12520 17.56074 12.84297
#
# Velocity S-wave (km/s) = 2.07840 3.05550 2.61303
# Velocity P-wave (km/s) = 5.05795 6.56126 5.85803
#
# Compressibility (1/GPa) = 0.02681940
#
# Stress axis : x y z
#
# Youngs Moduli (GPa) = 35.84271 95.91312 47.23802
#
# Poissons Ratio (x) = 0.19611 0.27754
# Poissons Ratio (y) = 0.07329 0.39764
# Poissons Ratio (z) = 0.21059 0.80738
#
# Static dielectric constant tensor:
#      x y z
#    x 3.286250 0.000000 0.000000 
#    y 0.000000 3.744190 0.000000 
#    z 0.000000 0.000000 3.431780 
# 
# 
# High freq. dielectric constant tensor:
#      x y z
#    x 1.716700 0.000000 0.000000 
#    y 0.000000 1.725500 0.000000 
#    z 0.000000 0.000000 1.708760 
# 
# From -- ./inp_files/26729.got.cif
#   From: 2010.03.12/outbox.cif.g09.slc.cpg/sg47_14_cif.got.tgz:26729.got - 2010.04.14 03:12:58.
