data_PCOD8200901
_publ_section_title
;
Structure prediction by ZEFSAII (Michael W. Deem and Ramdas Pophale) SiO2 
 PCOD8200901
Probable space group: P M M M
;
_chemical_formula_sum "Si O2"
_cell_formula_units_Z 44
_cell_length_a 9.417142
_cell_length_b 14.400308
_cell_length_c 20.998430
_cell_angle_alpha 90.000000
_cell_angle_beta 90.000000
_cell_angle_gamma 90.000000
_cell_volume 2847.591744
_symmetry_space_group_name_H-M "P M M M"
_symmetry_group_IT_number 47
_symmetry_cell_setting 'orthorhombic'
loop_
_space_group_symop_operation_xyz
x,y,z
-x,-y,z
x,-y,-z
-x,y,-z
-x,-y,-z
x,y,-z
-x,y,z
x,-y,z
loop_
_atom_site_type_symbol
_atom_site_label
_atom_site_fract_x
_atom_site_fract_y
_atom_site_fract_z
Si Si1 0.334078 0.784690 0.311354
Si Si2 0.331087 0.104961 0.569600
Si Si3 0.160126 0.610062 0.500000
Si Si4 0.333276 0.892143 0.189629
Si Si5 0.664801 0.605014 0.377689
Si Si6 0.840705 0.889766 0.930047
O O1 0.500000 0.807437 0.309716
O O2 0.265924 0.832697 0.373958
O O3 0.269760 0.829179 0.247091
O O4 0.305590 0.673729 0.317711
O O5 0.275922 0.139542 0.500000
O O6 0.500000 0.110381 0.570262
O O7 0.280377 0.000000 0.581392
O O8 0.155664 0.500000 0.500000
O O9 0.244147 0.642377 0.562836
O O10 0.000000 0.650929 0.500000
O O11 0.500000 0.878852 0.181074
O O12 0.262480 0.852907 0.125163
O O13 0.295244 0.000000 0.203004
O O14 0.500000 0.610540 0.398126
O O15 0.706238 0.500000 0.357403
O O16 0.000000 0.854098 0.916325
O O17 0.837811 0.000000 0.930133
O O18 0.790298 0.853911 0.000000
#
# Coordination Sequence:
#
# PCOD8200901 Si02
#       6
#     8   8   4   8   8   8
#     4   9  16  24  36  54  78 103 127 159 197 232
#     4   8  13  20  30  46  69  97 128 159 190 223
#     4   9  17  29  43  57  74  95 120 158 207 247
#     4   9  16  25  38  58  83 107 131 161 194 226
#     4   9  17  28  42  59  77  98 126 159 196 241
#     4   8  14  25  40  57  79 108 137 160 184 221
#
# _framework density 15.451653
#
# number of rings (size 3 to 8) (size 9 to 14) (size 15 to 20)
#    0.000    3.364    0.000    1.909    1.273    3.636 
#    0.000    2.727    0.000    0.000    0.000    0.000 
#    0.000    2.182    0.000    9.091    0.000    1.818 
#
# Total GULP energy -545155.983740 kJ/mol
# GULP energy per Si atom -12389.908721 kJ/mol
# Density = 1.541648 g / cm^3
# Si number density = 15.451653 Si / 1000 Ang^3
#
#
#
# Elastic Constant Matrix: (Units=GPa)
#
#
# Indices 1 2 3 4 5 6 
#
# 1 37.4691 19.2307 38.3460 0.0000 0.0000 0.0000
# 2 19.2307 62.2307 57.5699 0.0000 0.0000 0.0000
# 3 38.3460 57.5699 144.6361 0.0000 0.0000 0.0000
# 4 0.0000 0.0000 0.0000 12.9209 0.0000 0.0000
# 5 0.0000 0.0000 0.0000 0.0000 9.7828 0.0000
# 6 0.0000 0.0000 0.0000 0.0000 0.0000 6.0232
#
#
#
# Elastic Compliance Matrix: (Units=1/GPa)
#
#
# Indices 1 2 3 4 5 6 
#
# 1 0.037171 -0.003751 -0.008362 0.000000 0.000000 0.000000
# 2 -0.003751 0.025814 -0.009280 0.000000 0.000000 0.000000
# 3 -0.008362 -0.009280 0.012825 0.000000 0.000000 0.000000
# 4 0.000000 0.000000 0.000000 0.077394 0.000000 0.000000
# 5 0.000000 0.000000 0.000000 0.000000 0.102220 0.000000
# 6 0.000000 0.000000 0.000000 0.000000 0.000000 0.166025
#
#
# Mechanical properties :
#
#
# Convention : Reuss Voigt Hill
#
# Bulk Modulus (GPa) = 30.28171 52.73657 41.50914
# Shear Modulus (GPa) = 10.52093 14.35799 12.43946
#
# Velocity S-wave (km/s) = 2.61222 3.05162 2.84043
# Velocity P-wave (km/s) = 5.36083 6.82793 6.13837
#
# Compressibility (1/GPa) = 0.03302324
#
# Stress axis : x y z
#
# Youngs Moduli (GPa) = 26.90238 38.73935 77.97527
#
# Poissons Ratio (x) = 0.14532 0.65201
# Poissons Ratio (y) = 0.10092 0.72362
# Poissons Ratio (z) = 0.22495 0.35951
#
# Static dielectric constant tensor:
#      x y z
#    x 2.728340 0.000000 0.000000 
#    y 0.000000 2.814960 0.000000 
#    z 0.000000 0.000000 3.267100 
# 
# 
# High freq. dielectric constant tensor:
#      x y z
#    x 1.554940 0.000000 0.000000 
#    y 0.000000 1.563450 0.000000 
#    z 0.000000 0.000000 1.585610 
# 
# From -- ./inp_files/17704.got.cif
#   From: 2010.03.12/outbox.cif.g09.slc.cpg/sg47_9_cif.got.tgz:17704.got - 2010.04.14 03:12:58.
