data_PCOD8200699
_publ_section_title
;
Structure prediction by ZEFSAII (Michael W. Deem and Ramdas Pophale) SiO2 
 PCOD8200699
Probable space group: P M M M
;
_chemical_formula_sum "Si O2"
_cell_formula_units_Z 36
_cell_length_a 10.419774
_cell_length_b 9.844449
_cell_length_c 22.153042
_cell_angle_alpha 90.000000
_cell_angle_beta 90.000000
_cell_angle_gamma 90.000000
_cell_volume 2272.391121
_symmetry_space_group_name_H-M "P M M M"
_symmetry_group_IT_number 47
_symmetry_cell_setting 'orthorhombic'
loop_
_space_group_symop_operation_xyz
x,y,z
-x,-y,z
x,-y,-z
-x,y,-z
-x,-y,-z
x,y,-z
-x,y,z
x,-y,z
loop_
_atom_site_type_symbol
_atom_site_label
_atom_site_fract_x
_atom_site_fract_y
_atom_site_fract_z
Si Si1 0.640200 0.660924 0.000000
Si Si2 0.500000 0.162218 0.567887
Si Si3 0.350051 0.842968 0.763485
Si Si4 0.000000 0.162156 0.569222
Si Si5 0.252601 0.839074 0.635418
Si Si6 0.346633 0.652493 0.129442
O O1 0.710000 0.700460 0.063518
O O2 0.623074 0.500000 0.000000
O O3 0.500000 0.730666 0.000000
O O4 0.500000 0.215461 0.500000
O O5 0.625947 0.222190 0.600005
O O6 0.500000 0.000000 0.571286
O O7 0.500000 0.815200 0.749443
O O8 0.265413 0.799057 0.705722
O O9 0.297540 0.754714 0.819274
O O10 0.328621 0.000000 0.779800
O O11 0.876473 0.219770 0.605130
O O12 0.000000 0.215002 0.500000
O O13 0.000000 0.000000 0.569443
O O14 0.253790 0.000000 0.628858
O O15 0.500000 0.655382 0.125300
O O16 0.299632 0.500000 0.145298
#
# Coordination Sequence:
#
# PCOD8200699 Si02
#       6
#     4   4   8   4   8   8
#     4   7  10  18  31  47  69  98 127 156 190 224
#     4   9  14  20  32  48  67  94 125 154 188 233
#     4   9  15  23  34  50  75 104 128 152 190 235
#     4   9  16  24  34  50  73 100 129 162 196 229
#     4   9  15  23  33  48  72 100 127 156 193 233
#     4   8  13  21  34  51  72  99 131 161 188 222
#
# _framework density 15.842343
#
# number of rings (size 3 to 8) (size 9 to 14) (size 15 to 20)
#    0.000    3.444    1.111    2.000    0.000    2.667 
#    0.000    0.556    0.000    3.333    0.000    0.778 
#    0.000    6.222    0.000   11.111    0.000    4.000 
#
# Total GULP energy -445975.838562 kJ/mol
# GULP energy per Si atom -12388.217738 kJ/mol
# Density = 1.580628 g / cm^3
# Si number density = 15.842343 Si / 1000 Ang^3
#
#
#
# Elastic Constant Matrix: (Units=GPa)
#
#
# Indices 1 2 3 4 5 6 
#
# 1 77.1213 14.8596 59.6045 0.0000 0.0000 0.0000
# 2 14.8596 33.2954 48.5293 0.0000 0.0000 0.0000
# 3 59.6045 48.5293 180.5683 0.0000 0.0000 0.0000
# 4 0.0000 0.0000 0.0000 5.2537 0.0000 0.0000
# 5 0.0000 0.0000 0.0000 0.0000 15.1741 0.0000
# 6 0.0000 0.0000 0.0000 0.0000 0.0000 3.4979
#
#
#
# Elastic Compliance Matrix: (Units=1/GPa)
#
#
# Indices 1 2 3 4 5 6 
#
# 1 0.017428 0.000998 -0.006021 0.000000 0.000000 0.000000
# 2 0.000998 0.049433 -0.013615 0.000000 0.000000 0.000000
# 3 -0.006021 -0.013615 0.011185 0.000000 0.000000 0.000000
# 4 0.000000 0.000000 0.000000 0.190342 0.000000 0.000000
# 5 0.000000 0.000000 0.000000 0.000000 0.065902 0.000000
# 6 0.000000 0.000000 0.000000 0.000000 0.000000 0.285885
#
#
# Mechanical properties :
#
#
# Convention : Reuss Voigt Hill
#
# Bulk Modulus (GPa) = 24.52817 59.66353 42.09585
# Shear Modulus (GPa) = 7.45112 15.98459 11.71785
#
# Velocity S-wave (km/s) = 2.17106 3.17989 2.72261
# Velocity P-wave (km/s) = 4.66915 7.15715 6.04259
#
# Compressibility (1/GPa) = 0.04076944
#
# Stress axis : x y z
#
# Youngs Moduli (GPa) = 57.37986 20.22934 89.40777
#
# Poissons Ratio (x) = -0.02019 0.53832
# Poissons Ratio (y) = -0.05726 1.21729
# Poissons Ratio (z) = 0.34548 0.27542
#
# Static dielectric constant tensor:
#      x y z
#    x 2.775510 0.000000 0.000000 
#    y 0.000000 2.519840 0.000000 
#    z 0.000000 0.000000 3.443870 
# 
# 
# High freq. dielectric constant tensor:
#      x y z
#    x 1.559760 0.000000 0.000000 
#    y 0.000000 1.544410 0.000000 
#    z 0.000000 0.000000 1.632780 
# 
# From -- ./inp_files/3982.got.cif
#   From: 2010.03.12/outbox.cif.g09.slc.cpg/sg47_2_cif.got.tgz:3982.got - 2010.04.14 03:12:58.
