data_PCOD8200504
_publ_section_title
;
Structure prediction by ZEFSAII (Michael W. Deem and Ramdas Pophale) SiO2 
 PCOD8200504
Probable space group: P M M M
;
_chemical_formula_sum "Si O2"
_cell_formula_units_Z 48
_cell_length_a 9.172075
_cell_length_b 29.094596
_cell_length_c 10.137298
_cell_angle_alpha 90.000000
_cell_angle_beta 90.000000
_cell_angle_gamma 90.000000
_cell_volume 2705.217211
_symmetry_space_group_name_H-M "P M M M"
_symmetry_group_IT_number 47
_symmetry_cell_setting 'orthorhombic'
loop_
_space_group_symop_operation_xyz
x,y,z
-x,-y,z
x,-y,-z
-x,y,-z
-x,-y,-z
x,y,-z
-x,y,z
x,-y,z
loop_
_atom_site_type_symbol
_atom_site_label
_atom_site_fract_x
_atom_site_fract_y
_atom_site_fract_z
Si Si1 0.826510 0.618711 0.350905
Si Si2 0.331502 0.806644 0.649215
Si Si3 0.834892 0.054174 0.500000
Si Si4 0.331524 0.446670 0.850083
Si Si5 0.327628 0.094666 0.252218
Si Si6 0.829273 0.945671 0.000000
Si Si7 0.161334 0.719815 0.656758
O O1 0.772055 0.608018 0.500000
O O2 0.764462 0.581643 0.251296
O O3 0.773678 0.669716 0.305259
O O4 0.000000 0.617108 0.347185
O O5 0.275597 0.816722 0.500000
O O6 0.500000 0.794947 0.645952
O O7 0.298347 0.850806 0.738786
O O8 0.255774 0.761928 0.713585
O O9 0.744631 0.069546 0.625691
O O10 0.000000 0.074795 0.500000
O O11 0.846090 0.000000 0.500000
O O12 0.500000 0.435381 0.824894
O O13 0.299638 0.500000 0.824553
O O14 0.288573 0.433666 0.000000
O O15 0.500000 0.083910 0.249339
O O16 0.249140 0.076054 0.124324
O O17 0.000000 0.933113 0.000000
O O18 0.805911 0.000000 0.000000
O O19 0.156574 0.722685 0.500000
O O20 0.000000 0.725306 0.716342
#
# Coordination Sequence:
#
# PCOD8200504 Si02
#       7
#     8   8   4   8   8   4   8
#     4   9  18  32  50  76 108 136 169 215 261 308
#     4   9  17  31  51  79 110 135 168 215 260 305
#     4  11  23  37  55  83 115 143 177 223 268 313
#     4   9  19  35  52  71  99 136 178 221 263 311
#     4  11  22  38  59  83 110 142 180 222 269 321
#     4  11  25  43  59  79 109 143 181 223 268 323
#     4   8  15  28  47  73 104 137 170 206 254 310
#
# _framework density 17.743490000000001
#
# number of rings (size 3 to 8) (size 9 to 14) (size 15 to 20)
#    0.000    2.500    0.833    3.000    0.000    6.667 
#    0.000    4.167    1.833    0.000    0.000    0.000 
#    0.000    0.000    0.000    0.000    0.000    0.000 
#
# Total GULP energy -595025.821336 kJ/mol
# GULP energy per Si atom -12396.371278 kJ/mol
# Density = 1.770311 g / cm^3
# Si number density = 17.743490 Si / 1000 Ang^3
#
#
#
# Elastic Constant Matrix: (Units=GPa)
#
#
# Indices 1 2 3 4 5 6 
#
# 1 85.6880 62.1660 56.7739 0.0000 0.0000 0.0000
# 2 62.1660 116.7552 62.9848 0.0000 0.0000 0.0000
# 3 56.7739 62.9848 111.7438 0.0000 0.0000 0.0000
# 4 0.0000 0.0000 0.0000 20.5839 0.0000 0.0000
# 5 0.0000 0.0000 0.0000 0.0000 31.6899 0.0000
# 6 0.0000 0.0000 0.0000 0.0000 0.0000 32.2453
#
#
#
# Elastic Compliance Matrix: (Units=1/GPa)
#
#
# Indices 1 2 3 4 5 6 
#
# 1 0.021909 -0.008134 -0.006547 0.000000 0.000000 0.000000
# 2 -0.008134 0.015327 -0.004507 0.000000 0.000000 0.000000
# 3 -0.006547 -0.004507 0.014815 0.000000 0.000000 0.000000
# 4 0.000000 0.000000 0.000000 0.048582 0.000000 0.000000
# 5 0.000000 0.000000 0.000000 0.000000 0.031556 0.000000
# 6 0.000000 0.000000 0.000000 0.000000 0.000000 0.031012
#
#
# Mechanical properties :
#
#
# Convention : Reuss Voigt Hill
#
# Bulk Modulus (GPa) = 73.11426 75.33738 74.22582
# Shear Modulus (GPa) = 24.25617 25.72131 24.98874
#
# Velocity S-wave (km/s) = 3.70137 3.81152 3.75685
# Velocity P-wave (km/s) = 7.71768 7.86903 7.79372
#
# Compressibility (1/GPa) = 0.01367722
#
# Stress axis : x y z
#
# Youngs Moduli (GPa) = 45.64400 65.24563 67.49748
#
# Poissons Ratio (x) = 0.53068 0.44189
# Poissons Ratio (y) = 0.37125 0.30418
# Poissons Ratio (z) = 0.29882 0.29403
#
# Static dielectric constant tensor:
#      x y z
#    x 3.392240 0.000000 0.000000 
#    y 0.000000 3.548250 0.000000 
#    z 0.000000 0.000000 3.028370 
# 
# 
# High freq. dielectric constant tensor:
#      x y z
#    x 1.688680 0.000000 0.000000 
#    y 0.000000 1.698490 0.000000 
#    z 0.000000 0.000000 1.661410 
# 
# From -- ./inp_files/2738.got.cif
#   From: 2010.03.12/outbox.cif.g09.slc.cpg/sg47_2_cif.got.tgz:2738.got - 2010.04.14 03:12:58.
