data_PCOD8200624
_publ_section_title
;
Structure prediction by ZEFSAII (Michael W. Deem and Ramdas Pophale) SiO2 
 PCOD8200624
Probable space group: P M M M
;
_chemical_formula_sum "Si O2"
_cell_formula_units_Z 48
_cell_length_a 9.307297
_cell_length_b 32.461093
_cell_length_c 8.150124
_cell_angle_alpha 90.000000
_cell_angle_beta 90.000000
_cell_angle_gamma 90.000000
_cell_volume 2462.356486
_symmetry_space_group_name_H-M "P M M M"
_symmetry_group_IT_number 47
_symmetry_cell_setting 'orthorhombic'
loop_
_space_group_symop_operation_xyz
x,y,z
-x,-y,z
x,-y,-z
-x,y,-z
-x,-y,-z
x,y,-z
-x,y,z
x,-y,z
loop_
_atom_site_type_symbol
_atom_site_label
_atom_site_fract_x
_atom_site_fract_y
_atom_site_fract_z
Si Si1 0.171263 0.453153 0.000000
Si Si2 0.163311 0.689041 0.689767
Si Si3 0.662995 0.762981 0.188352
Si Si4 0.329303 0.000000 0.820522
Si Si5 0.658365 0.087594 0.807824
Si Si6 0.829340 0.404503 0.682468
Si Si7 0.839249 0.162103 0.311568
O O1 0.232080 0.432059 0.832658
O O2 0.225311 0.500000 0.000000
O O3 0.000000 0.450321 0.000000
O O4 0.171858 0.701685 0.500000
O O5 0.266623 0.718152 0.793874
O O6 0.217917 0.642421 0.715567
O O7 0.000000 0.693860 0.753600
O O8 0.500000 0.761233 0.253982
O O9 0.750443 0.796167 0.291512
O O10 0.666496 0.776651 0.000000
O O11 0.286844 0.956537 0.730361
O O12 0.500000 0.000000 0.836673
O O13 0.255938 0.000000 0.000000
O O14 0.500000 0.099628 0.736725
O O15 0.769268 0.123955 0.780387
O O16 0.643215 0.079975 0.000000
O O17 0.773087 0.418723 0.500000
O O18 0.000000 0.407149 0.679340
O O19 0.843716 0.150128 0.500000
O O20 0.000000 0.169120 0.242277
#
# Coordination Sequence:
#
# PCOD8200624 Si02
#       7
#     4   8   8   4   8   8   8
#     4   9  16  24  38  64  97 137 181 217 259 314
#     4   9  18  33  53  76 101 133 173 212 254 308
#     4  11  24  38  53  77 104 129 164 210 258 309
#     4   7  12  26  50  79 106 130 160 203 252 299
#     4   9  17  32  56  82 105 131 167 210 254 301
#     4   8  15  27  42  64  96 132 172 217 261 310
#     4  11  24  39  53  72 101 137 174 209 250 303
#
# _framework density 19.493523
#
# number of rings (size 3 to 8) (size 9 to 14) (size 15 to 20)
#    0.000    2.667    0.000    4.000    1.167    7.667 
#    0.000    2.500    0.000    4.000    0.000    0.000 
#    0.000    1.333    0.000    3.667    0.000    3.667 
#
# Total GULP energy -594827.594736 kJ/mol
# GULP energy per Si atom -12392.241557 kJ/mol
# Density = 1.944915 g / cm^3
# Si number density = 19.493523 Si / 1000 Ang^3
#
#
#
# Elastic Constant Matrix: (Units=GPa)
#
#
# Indices 1 2 3 4 5 6 
#
# 1 85.8841 46.9682 21.6389 0.0000 0.0000 0.0000
# 2 46.9682 140.6972 45.2155 0.0000 0.0000 0.0000
# 3 21.6389 45.2155 70.2967 0.0000 0.0000 0.0000
# 4 0.0000 0.0000 0.0000 -46.6467 0.0000 0.0000
# 5 0.0000 0.0000 0.0000 0.0000 26.1871 0.0000
# 6 0.0000 0.0000 0.0000 0.0000 0.0000 -14.8686
#
#
#
# Elastic Compliance Matrix: (Units=1/GPa)
#
#
# Indices 1 2 3 4 5 6 
#
# 1 0.014402 -0.004264 -0.001690 0.000000 0.000000 0.000000
# 2 -0.004264 0.010222 -0.005262 0.000000 0.000000 0.000000
# 3 -0.001690 -0.005262 0.018130 0.000000 0.000000 0.000000
# 4 0.000000 0.000000 0.000000 -0.021438 0.000000 0.000000
# 5 0.000000 0.000000 0.000000 0.000000 0.038187 0.000000
# 6 0.000000 0.000000 0.000000 0.000000 0.000000 -0.067256
#
#
# Mechanical properties :
#
#
# Convention : Reuss Voigt Hill
#
# Bulk Modulus (GPa) = 49.21179 58.28036 53.74608
# Shear Modulus (GPa) = 233.05030 5.13806 119.09418
#
# Velocity S-wave (km/s) = 10.94588 1.62527 7.82476
# Velocity P-wave (km/s) = 13.60330 5.78655 10.45308
#
# Compressibility (1/GPa) = 0.02032033
#
# Stress axis : x y z
#
# Youngs Moduli (GPa) = 69.43684 97.82661 55.15571
#
# Poissons Ratio (x) = 0.41717 0.09322
# Poissons Ratio (y) = 0.29611 0.29025
# Poissons Ratio (z) = 0.11736 0.51479
#
# Static dielectric constant tensor:
#      x y z
#    x 3.260030 0.000000 0.000000 
#    y 0.000000 3.713100 0.000000 
#    z 0.000000 0.000000 3.534430 
# 
# 
# High freq. dielectric constant tensor:
#      x y z
#    x 1.713560 0.000000 0.000000 
#    y 0.000000 1.770310 0.000000 
#    z 0.000000 0.000000 1.748840 
# 
# From -- ./inp_files/2581.got.cif
#   From: 2010.03.12/outbox.cif.g09.slc.cpg/sg47_2_cif.got.tgz:2581.got - 2010.04.14 03:12:58.
