data_PCOD8200029
_publ_section_title
;
Structure prediction by ZEFSAII (Michael W. Deem and Ramdas Pophale) SiO2 
 PCOD8200029
Probable space group: P M M M
;
_chemical_formula_sum "Si O2"
_cell_formula_units_Z 44
_cell_length_a 34.024060
_cell_length_b 7.776377
_cell_length_c 7.955213
_cell_angle_alpha 90.000000
_cell_angle_beta 90.000000
_cell_angle_gamma 90.000000
_cell_volume 2104.821421
_symmetry_space_group_name_H-M "P M M M"
_symmetry_group_IT_number 47
_symmetry_cell_setting 'orthorhombic'
loop_
_space_group_symop_operation_xyz
x,y,z
-x,-y,z
x,-y,-z
-x,y,-z
-x,-y,-z
x,y,-z
-x,y,z
x,-y,z
loop_
_atom_site_type_symbol
_atom_site_label
_atom_site_fract_x
_atom_site_fract_y
_atom_site_fract_z
Si Si1 0.095453 0.797706 0.814139
Si Si2 0.542244 0.203626 0.810271
Si Si3 0.819853 0.195322 0.300675
Si Si4 0.676308 0.500000 0.701665
Si Si5 0.043012 0.301460 0.500000
Si Si6 0.624850 0.809009 0.692780
Si Si7 0.764842 0.500000 0.300348
O O1 0.139308 0.733006 0.773618
O O2 0.065527 0.742806 0.670531
O O3 0.096450 0.000000 0.815692
O O4 0.082838 0.727858 0.000000
O O5 0.500000 0.273283 0.738360
O O6 0.580311 0.265529 0.706967
O O7 0.540799 0.000000 0.804418
O O8 0.547329 0.269841 0.000000
O O9 0.823711 0.198896 0.500000
O O10 0.786304 0.326247 0.236209
O O11 0.810192 0.000000 0.239690
O O12 0.674406 0.500000 0.500000
O O13 0.654751 0.670936 0.774062
O O14 0.720681 0.500000 0.770921
O O15 0.035856 0.500000 0.500000
O O16 0.000000 0.209529 0.500000
O O17 0.635766 0.828873 0.500000
O O18 0.629032 0.000000 0.778236
O O19 0.764235 0.500000 0.500000
#
# Coordination Sequence:
#
# PCOD8200029 Si02
#       7
#     8   8   8   4   4   8   4
#     4  10  21  38  62  89 117 155 200 246 297 350
#     4   8  14  26  45  68  92 119 156 202 250 301
#     4   9  17  31  53  82 111 139 181 232 280 336
#     4   9  18  32  46  70 103 130 168 214 253 311
#     4  11  25  41  59  87 125 165 203 247 293 347
#     4   9  17  29  47  68  93 129 166 204 252 304
#     4   9  18  30  51  78 104 139 175 216 274 326
#
# _framework density 20.904385000000001
#
# number of rings (size 3 to 8) (size 9 to 14) (size 15 to 20)
#    0.000    2.818    0.909    0.818    1.273    2.545 
#    0.000    8.182    0.000    4.909    0.000    5.091 
#    0.000    0.000    0.000    0.000    0.000    0.000 
#
# Total GULP energy -545108.666762 kJ/mol
# GULP energy per Si atom -12388.833336 kJ/mol
# Density = 2.085681 g / cm^3
# Si number density = 20.904385 Si / 1000 Ang^3
#
#
#
# Elastic Constant Matrix: (Units=GPa)
#
#
# Indices 1 2 3 4 5 6 
#
# 1 202.9080 79.8356 44.7109 0.0000 0.0000 0.0000
# 2 79.8356 95.5913 20.0476 0.0000 0.0000 0.0000
# 3 44.7109 20.0476 60.3243 0.0000 0.0000 0.0000
# 4 0.0000 0.0000 0.0000 1.9479 0.0000 0.0000
# 5 0.0000 0.0000 0.0000 0.0000 -0.6616 0.0000
# 6 0.0000 0.0000 0.0000 0.0000 0.0000 36.1524
#
#
#
# Elastic Compliance Matrix: (Units=1/GPa)
#
#
# Indices 1 2 3 4 5 6 
#
# 1 0.008177 -0.005975 -0.004075 0.000000 0.000000 0.000000
# 2 -0.005975 0.015610 -0.000760 0.000000 0.000000 0.000000
# 3 -0.004075 -0.000760 0.019850 0.000000 0.000000 0.000000
# 4 0.000000 0.000000 0.000000 0.513368 0.000000 0.000000
# 5 0.000000 0.000000 0.000000 0.000000 -1.511373 0.000000
# 6 0.000000 0.000000 0.000000 0.000000 0.000000 0.027661
#
#
# Mechanical properties :
#
#
# Convention : Reuss Voigt Hill
#
# Bulk Modulus (GPa) = 45.41584 72.00131 58.70857
# Shear Modulus (GPa) = -5.56949 21.76969 8.10010
#
# Velocity S-wave (km/s) = -1.63403 3.23056 1.97060
# Velocity P-wave (km/s) = 4.26762 6.95941 5.77260
#
# Compressibility (1/GPa) = 0.02201875
#
# Stress axis : x y z
#
# Youngs Moduli (GPa) = 122.29335 64.05994 50.37824
#
# Poissons Ratio (x) = 0.38274 0.20530
# Poissons Ratio (y) = 0.73066 0.03826
# Poissons Ratio (z) = 0.49836 0.04866
#
# Static dielectric constant tensor:
#      x y z
#    x 4.872350 0.000000 0.000000 
#    y 0.000000 3.902460 0.000000 
#    z 0.000000 0.000000 3.579790 
# 
# 
# High freq. dielectric constant tensor:
#      x y z
#    x 1.818390 0.000000 0.000000 
#    y 0.000000 1.809190 0.000000 
#    z 0.000000 0.000000 1.787910 
# 
# From -- ./inp_files/13735.got.cif
#   From: 2010.03.12/outbox.cif.g09.slc.cpg/sg47_7_cif.got.tgz:13735.got - 2010.04.14 03:12:58.
