data_PCOD8200191
_publ_section_title
;
Structure prediction by ZEFSAII (Michael W. Deem and Ramdas Pophale) SiO2 
 PCOD8200191
Probable space group: P M M M
;
_chemical_formula_sum "Si O2"
_cell_formula_units_Z 46
_cell_length_a 7.619459
_cell_length_b 29.416561
_cell_length_c 11.636424
_cell_angle_alpha 90.000000
_cell_angle_beta 90.000000
_cell_angle_gamma 90.000000
_cell_volume 2608.168066
_symmetry_space_group_name_H-M "P M M M"
_symmetry_group_IT_number 47
_symmetry_cell_setting 'orthorhombic'
loop_
_space_group_symop_operation_xyz
x,y,z
-x,-y,z
x,-y,-z
-x,y,-z
-x,-y,-z
x,y,-z
-x,y,z
x,-y,z
loop_
_atom_site_type_symbol
_atom_site_label
_atom_site_fract_x
_atom_site_fract_y
_atom_site_fract_z
Si Si1 0.791985 0.784910 0.627333
Si Si2 0.805011 0.115155 0.636993
Si Si3 0.000000 0.552412 0.248206
Si Si4 0.000000 0.589289 0.000000
Si Si5 0.698838 0.337284 0.000000
Si Si6 0.301244 0.392044 0.632001
Si Si7 0.207707 0.302698 0.759070
Si Si8 0.500000 0.948863 0.362785
O O1 0.711885 0.776829 0.500000
O O2 0.737709 0.834690 0.675569
O O3 0.723571 0.745749 0.712385
O O4 0.000000 0.783161 0.618539
O O5 0.811021 0.114734 0.500000
O O6 0.672454 0.076981 0.684233
O O7 0.000000 0.104686 0.685829
O O8 0.000000 0.557530 0.111152
O O9 0.825143 0.574768 0.298495
O O10 0.000000 0.500000 0.282803
O O11 0.174144 0.619656 0.000000
O O12 0.732459 0.305705 0.109685
O O13 0.500000 0.355851 0.000000
O O14 0.240055 0.390311 0.500000
O O15 0.500000 0.410539 0.642970
O O16 0.295587 0.341676 0.683274
O O17 0.000000 0.308462 0.749377
O O18 0.500000 0.949116 0.500000
O O19 0.500000 0.000000 0.313824
#
# Coordination Sequence:
#
# PCOD8200191 Si02
#       8
#     8   8   4   2   4   8   8   4
#     4   8  15  27  47  73 101 134 170 210 258 310
#     4   8  14  26  39  55  86 124 160 205 257 300
#     4  12  26  44  67  87 110 142 180 225 273 312
#     4  12  23  46  64  88 106 140 182 224 267 314
#     4  12  22  37  59  79 108 142 172 215 261 307
#     4  11  23  39  60  87 117 145 176 215 261 321
#     4  11  19  34  57  82 107 141 180 216 258 314
#     4   9  16  24  36  56  82 121 175 219 250 294
#
# _framework density 17.636901000000002
#
# number of rings (size 3 to 8) (size 9 to 14) (size 15 to 20)
#    0.000    2.000    3.478    2.478    0.000    2.087 
#    3.130    2.609    0.000    1.565    0.000    0.000 
#    0.000    0.000    0.000    1.565    0.000   13.913 
#
# Total GULP energy -570318.359183 kJ/mol
# GULP energy per Si atom -12398.225200 kJ/mol
# Density = 1.759676 g / cm^3
# Si number density = 17.636901 Si / 1000 Ang^3
#
#
#
# Elastic Constant Matrix: (Units=GPa)
#
#
# Indices 1 2 3 4 5 6 
#
# 1 93.6047 49.8733 24.3662 0.0000 0.0000 0.0000
# 2 49.8733 145.2922 39.6802 0.0000 0.0000 0.0000
# 3 24.3662 39.6802 91.8106 0.0000 0.0000 0.0000
# 4 0.0000 0.0000 0.0000 9.3046 0.0000 0.0000
# 5 0.0000 0.0000 0.0000 0.0000 12.5648 0.0000
# 6 0.0000 0.0000 0.0000 0.0000 0.0000 7.9610
#
#
#
# Elastic Compliance Matrix: (Units=1/GPa)
#
#
# Indices 1 2 3 4 5 6 
#
# 1 0.013323 -0.004090 -0.001768 0.000000 0.000000 0.000000
# 2 -0.004090 0.009060 -0.002830 0.000000 0.000000 0.000000
# 3 -0.001768 -0.002830 0.012584 0.000000 0.000000 0.000000
# 4 0.000000 0.000000 0.000000 0.107473 0.000000 0.000000
# 5 0.000000 0.000000 0.000000 0.000000 0.079588 0.000000
# 6 0.000000 0.000000 0.000000 0.000000 0.000000 0.125612
#
#
# Mechanical properties :
#
#
# Convention : Reuss Voigt Hill
#
# Bulk Modulus (GPa) = 56.85014 62.06078 59.45546
# Shear Modulus (GPa) = 13.48147 20.41862 16.95004
#
# Velocity S-wave (km/s) = 2.76776 3.40622 3.10345
# Velocity P-wave (km/s) = 6.52055 7.12280 6.82832
#
# Compressibility (1/GPa) = 0.01759011
#
# Stress axis : x y z
#
# Youngs Moduli (GPa) = 75.05918 110.37980 79.46407
#
# Poissons Ratio (x) = 0.45149 0.14049
# Poissons Ratio (y) = 0.30702 0.22488
# Poissons Ratio (z) = 0.13270 0.31237
#
# Static dielectric constant tensor:
#      x y z
#    x 3.422000 0.000000 0.000000 
#    y 0.000000 3.399590 0.000000 
#    z 0.000000 0.000000 3.140700 
# 
# 
# High freq. dielectric constant tensor:
#      x y z
#    x 1.691770 0.000000 0.000000 
#    y 0.000000 1.674780 0.000000 
#    z 0.000000 0.000000 1.642630 
# 
# From -- ./inp_files/15435.got.cif
#   From: 2010.03.12/outbox.cif.g09.slc.cpg/sg47_8_cif.got.tgz:15435.got - 2010.04.14 03:12:58.
