data_PCOD8200123
_publ_section_title
;
Structure prediction by ZEFSAII (Michael W. Deem and Ramdas Pophale) SiO2 
 PCOD8200123
Probable space group: P M M M
;
_chemical_formula_sum "Si O2"
_cell_formula_units_Z 52
_cell_length_a 11.975496
_cell_length_b 29.455648
_cell_length_c 8.271346
_cell_angle_alpha 90.000000
_cell_angle_beta 90.000000
_cell_angle_gamma 90.000000
_cell_volume 2917.684173
_symmetry_space_group_name_H-M "P M M M"
_symmetry_group_IT_number 47
_symmetry_cell_setting 'orthorhombic'
loop_
_space_group_symop_operation_xyz
x,y,z
-x,-y,z
x,-y,-z
-x,y,-z
-x,-y,-z
x,y,-z
-x,y,z
x,-y,z
loop_
_atom_site_type_symbol
_atom_site_label
_atom_site_fract_x
_atom_site_fract_y
_atom_site_fract_z
Si Si1 0.132876 0.448232 0.500000
Si Si2 0.127183 0.128028 0.307769
Si Si3 0.867390 0.603313 0.819372
Si Si4 0.500000 0.094307 0.683159
Si Si5 0.264384 0.212832 0.314041
Si Si6 0.500000 0.192284 0.815893
Si Si7 0.125968 0.293585 0.186489
Si Si8 0.281824 0.051633 0.186673
O O1 0.173412 0.500000 0.500000
O O2 0.179999 0.425750 0.667063
O O3 0.000000 0.444197 0.500000
O O4 0.134362 0.125568 0.500000
O O5 0.195874 0.170949 0.234514
O O6 0.176566 0.082078 0.234315
O O7 0.000000 0.133071 0.249062
O O8 0.830607 0.655147 0.789354
O O9 0.000000 0.600057 0.822660
O O10 0.824295 0.587268 0.000000
O O11 0.500000 0.112084 0.500000
O O12 0.500000 0.138254 0.795835
O O13 0.609204 0.064395 0.711437
O O14 0.265504 0.201925 0.500000
O O15 0.390842 0.215529 0.256479
O O16 0.206361 0.260832 0.284596
O O17 0.500000 0.205211 0.000000
O O18 0.000000 0.288711 0.254136
O O19 0.129417 0.279654 0.000000
O O20 0.248679 0.000000 0.226214
O O21 0.312126 0.058263 0.000000
#
# Coordination Sequence:
#
# PCOD8200123 Si02
#       8
#     4   8   8   4   8   4   8   8
#     4   9  16  24  38  62  92 133 185 229 270 318
#     4  10  22  39  57  79 108 139 171 207 250 303
#     4   8  15  27  41  61  94 133 176 225 269 314
#     4  12  23  39  62  85 106 132 166 206 253 307
#     4  11  22  36  56  81 105 135 172 212 258 310
#     4  12  24  39  59  80 106 137 166 205 257 308
#     4   9  18  32  50  74 104 140 181 221 263 313
#     4  11  24  40  59  83 107 134 169 208 253 303
#
# _framework density 17.822354000000001
#
# number of rings (size 3 to 8) (size 9 to 14) (size 15 to 20)
#    0.000    1.923    1.538    3.923    1.077    4.615 
#    0.000    3.077    0.000    0.000    0.000    0.000 
#    0.000    0.000    0.000    1.385    0.000    8.923 
#
# Total GULP energy -644733.771709 kJ/mol
# GULP energy per Si atom -12398.726379 kJ/mol
# Density = 1.778179 g / cm^3
# Si number density = 17.822354 Si / 1000 Ang^3
#
#
#
# Elastic Constant Matrix: (Units=GPa)
#
#
# Indices 1 2 3 4 5 6 
#
# 1 95.4488 44.0739 30.0831 0.0000 0.0000 0.0000
# 2 44.0739 105.5649 49.7625 0.0000 0.0000 0.0000
# 3 30.0831 49.7625 81.7390 0.0000 0.0000 0.0000
# 4 0.0000 0.0000 0.0000 29.5926 0.0000 0.0000
# 5 0.0000 0.0000 0.0000 0.0000 21.1160 0.0000
# 6 0.0000 0.0000 0.0000 0.0000 0.0000 8.4176
#
#
#
# Elastic Compliance Matrix: (Units=1/GPa)
#
#
# Indices 1 2 3 4 5 6 
#
# 1 0.013234 -0.004529 -0.002113 0.000000 0.000000 0.000000
# 2 -0.004529 0.014836 -0.007365 0.000000 0.000000 0.000000
# 3 -0.002113 -0.007365 0.017496 0.000000 0.000000 0.000000
# 4 0.000000 0.000000 0.000000 0.033792 0.000000 0.000000
# 5 0.000000 0.000000 0.000000 0.000000 0.047357 0.000000
# 6 0.000000 0.000000 0.000000 0.000000 0.000000 0.118798
#
#
# Mechanical properties :
#
#
# Convention : Reuss Voigt Hill
#
# Bulk Modulus (GPa) = 56.97843 58.95462 57.96653
# Shear Modulus (GPa) = 17.89687 22.41411 20.15549
#
# Velocity S-wave (km/s) = 3.17232 3.55017 3.36655
# Velocity P-wave (km/s) = 6.74224 7.06794 6.90701
#
# Compressibility (1/GPa) = 0.01755050
#
# Stress axis : x y z
#
# Youngs Moduli (GPa) = 75.56145 67.40557 57.15705
#
# Poissons Ratio (x) = 0.30529 0.12080
# Poissons Ratio (y) = 0.34223 0.42096
# Poissons Ratio (z) = 0.15969 0.49644
#
# Static dielectric constant tensor:
#      x y z
#    x 3.060240 0.000000 0.000000 
#    y 0.000000 3.273020 0.000000 
#    z 0.000000 0.000000 3.484570 
# 
# 
# High freq. dielectric constant tensor:
#      x y z
#    x 1.653830 0.000000 0.000000 
#    y 0.000000 1.682490 0.000000 
#    z 0.000000 0.000000 1.700800 
# 
# From -- ./inp_files/4618.got.cif
#   From: 2010.03.12/outbox.cif.g09.slc.cpg/sg47_3_cif.got.tgz:4618.got - 2010.04.14 03:12:58.
