data_PCOD8200925
_publ_section_title
;
Structure prediction by ZEFSAII (Michael W. Deem and Ramdas Pophale) SiO2 
 PCOD8200925
Probable space group: P M M M
;
_chemical_formula_sum "Si O2"
_cell_formula_units_Z 52
_cell_length_a 9.316290
_cell_length_b 33.807939
_cell_length_c 9.505068
_cell_angle_alpha 90.000000
_cell_angle_beta 90.000000
_cell_angle_gamma 90.000000
_cell_volume 2993.759599
_symmetry_space_group_name_H-M "P M M M"
_symmetry_group_IT_number 47
_symmetry_cell_setting 'orthorhombic'
loop_
_space_group_symop_operation_xyz
x,y,z
-x,-y,z
x,-y,-z
-x,y,-z
-x,-y,-z
x,y,-z
-x,y,z
x,-y,z
loop_
_atom_site_type_symbol
_atom_site_label
_atom_site_fract_x
_atom_site_fract_y
_atom_site_fract_z
Si Si1 0.667238 0.193272 0.663366
Si Si2 0.167331 0.883697 0.336677
Si Si3 0.329097 0.500000 0.839427
Si Si4 0.671204 0.574377 0.659695
Si Si5 0.670442 0.734128 0.157693
Si Si6 0.170593 0.956485 0.841792
Si Si7 0.670838 0.646650 0.841626
O O1 0.697168 0.199913 0.500000
O O2 0.500000 0.187144 0.696156
O O3 0.750110 0.154812 0.719951
O O4 0.731570 0.231905 0.740607
O O5 0.197812 0.890436 0.500000
O O6 0.231556 0.922201 0.258606
O O7 0.000000 0.877578 0.304582
O O8 0.500000 0.500000 0.843991
O O9 0.272007 0.461870 0.754491
O O10 0.269424 0.500000 0.000000
O O11 0.730593 0.571082 0.500000
O O12 0.500000 0.574239 0.656795
O O13 0.731041 0.614590 0.731111
O O14 0.500000 0.734386 0.164483
O O15 0.724989 0.690453 0.204209
O O16 0.723523 0.743257 0.000000
O O17 0.000000 0.956086 0.835995
O O18 0.225330 0.000000 0.792264
O O19 0.224060 0.948132 0.000000
O O20 0.500000 0.645465 0.841223
O O21 0.724861 0.636813 0.000000
#
# Coordination Sequence:
#
# PCOD8200925 Si02
#       7
#     8   8   4   8   8   8   8
#     4   9  17  28  41  57  78 103 129 158 193 231
#     4   9  17  28  42  61  83 105 130 160 192 227
#     4   9  15  21  27  33  45  69  99 131 172 221
#     4   9  15  20  26  37  52  70  96 133 175 217
#     4   8  14  24  37  52  69  90 118 151 185 223
#     4   8  14  25  41  61  83 104 127 158 194 227
#     4   8  13  21  31  42  57  77 102 134 173 215
#
# _framework density 17.369464000000001
#
# number of rings (size 3 to 8) (size 9 to 14) (size 15 to 20)
#    0.000    3.462    0.000    2.077    0.000    4.308 
#    0.000    4.615    0.000    0.462    0.000    3.231 
#    0.000    0.000    0.000    0.000    0.000    0.000 
#
# Total GULP energy -644420.115349 kJ/mol
# GULP energy per Si atom -12392.694526 kJ/mol
# Density = 1.732993 g / cm^3
# Si number density = 17.369464 Si / 1000 Ang^3
#
#
#
# Elastic Constant Matrix: (Units=GPa)
#
#
# Indices 1 2 3 4 5 6 
#
# 1 8.7907 20.2403 13.8517 0.0000 0.0000 0.0000
# 2 20.2403 195.6977 101.8624 0.0000 0.0000 0.0000
# 3 13.8517 101.8624 113.4820 0.0000 0.0000 0.0000
# 4 0.0000 0.0000 0.0000 41.1913 0.0000 0.0000
# 5 0.0000 0.0000 0.0000 0.0000 6.6204 0.0000
# 6 0.0000 0.0000 0.0000 0.0000 0.0000 0.5112
#
#
#
# Elastic Compliance Matrix: (Units=1/GPa)
#
#
# Indices 1 2 3 4 5 6 
#
# 1 0.153482 -0.011492 -0.008419 0.000000 0.000000 0.000000
# 2 -0.011492 0.010451 -0.007979 0.000000 0.000000 0.000000
# 3 -0.008419 -0.007979 0.017001 0.000000 0.000000 0.000000
# 4 0.000000 0.000000 0.000000 0.024277 0.000000 0.000000
# 5 0.000000 0.000000 0.000000 0.000000 0.151049 0.000000
# 6 0.000000 0.000000 0.000000 0.000000 0.000000 1.956327
#
#
# Mechanical properties :
#
#
# Convention : Reuss Voigt Hill
#
# Bulk Modulus (GPa) = 7.99003 65.54214 36.76608
# Shear Modulus (GPa) = 2.07462 21.79898 11.93680
#
# Velocity S-wave (km/s) = 1.09407 3.54647 2.62435
# Velocity P-wave (km/s) = 2.49119 7.38823 5.51325
#
# Compressibility (1/GPa) = 0.12515597
#
# Stress axis : x y z
#
# Youngs Moduli (GPa) = 6.51542 95.68082 58.81951
#
# Poissons Ratio (x) = 1.09958 0.49518
# Poissons Ratio (y) = 0.07488 0.46929
# Poissons Ratio (z) = 0.05485 0.76339
#
# Static dielectric constant tensor:
#      x y z
#    x 2.486140 0.000000 0.000000 
#    y 0.000000 3.745510 0.000000 
#    z 0.000000 0.000000 3.376540 
# 
# 
# High freq. dielectric constant tensor:
#      x y z
#    x 1.582750 0.000000 0.000000 
#    y 0.000000 1.690690 0.000000 
#    z 0.000000 0.000000 1.672320 
# 
# From -- ./inp_files/4835.got.cif
#   From: 2010.03.12/outbox.cif.g09.slc.cpg/sg47_3_cif.got.tgz:4835.got - 2010.04.14 03:12:58.
