data_PCOD8200864
_publ_section_title
;
Structure prediction by ZEFSAII (Michael W. Deem and Ramdas Pophale) SiO2 
 PCOD8200864
Probable space group: P M M M
;
_chemical_formula_sum "Si O2"
_cell_formula_units_Z 40
_cell_length_a 19.347886
_cell_length_b 12.725046
_cell_length_c 9.053513
_cell_angle_alpha 90.000000
_cell_angle_beta 90.000000
_cell_angle_gamma 90.000000
_cell_volume 2228.999701
_symmetry_space_group_name_H-M "P M M M"
_symmetry_group_IT_number 47
_symmetry_cell_setting 'orthorhombic'
loop_
_space_group_symop_operation_xyz
x,y,z
-x,-y,z
x,-y,-z
-x,y,-z
-x,-y,-z
x,y,-z
-x,y,z
x,-y,z
loop_
_atom_site_type_symbol
_atom_site_label
_atom_site_fract_x
_atom_site_fract_y
_atom_site_fract_z
Si Si1 0.813405 0.881381 0.824384
Si Si2 0.577085 0.000000 0.823996
Si Si3 0.577398 0.616680 0.824201
Si Si4 0.082127 0.500000 0.332934
Si Si5 0.920619 0.291097 0.173580
Si Si6 0.333836 0.806593 0.823921
O O1 0.877677 0.810225 0.771693
O O2 0.743368 0.827196 0.763463
O O3 0.821426 0.000000 0.760924
O O4 0.810696 0.887221 0.000000
O O5 0.616748 0.898234 0.764439
O O6 0.500000 0.000000 0.758615
O O7 0.575309 0.000000 0.000000
O O8 0.500000 0.647794 0.770367
O O9 0.596470 0.500000 0.766965
O O10 0.634734 0.697402 0.761531
O O11 0.578224 0.619173 0.000000
O O12 0.109642 0.500000 0.500000
O O13 0.109453 0.604698 0.251897
O O14 0.000000 0.500000 0.325360
O O15 0.000000 0.269951 0.217273
O O16 0.912112 0.309466 0.000000
O O17 0.332799 0.805743 0.000000
#
# Coordination Sequence:
#
# PCOD8200864 Si02
#       6
#     8   4   8   4   8   8
#     4   9  16  26  38  54  81 114 147 186 226 259
#     4   9  14  18  28  44  61  91 138 183 215 247
#     4   8  13  20  28  38  56  86 127 174 216 253
#     4   9  17  31  51  71  91 115 144 183 228 268
#     4   9  17  29  46  68  92 118 150 185 219 261
#     4   9  14  21  30  43  66  96 134 181 219 251
#
# _framework density 17.945269
#
# number of rings (size 3 to 8) (size 9 to 14) (size 15 to 20)
#    0.000    3.200    1.000    1.500    0.000    4.000 
#    1.800    2.000    0.000    0.600    0.000    2.800 
#    0.000    0.000    0.000    0.000    0.000    9.000 
#
# Total GULP energy -495742.560914 kJ/mol
# GULP energy per Si atom -12393.564023 kJ/mol
# Density = 1.790443 g / cm^3
# Si number density = 17.945269 Si / 1000 Ang^3
#
#
#
# Elastic Constant Matrix: (Units=GPa)
#
#
# Indices 1 2 3 4 5 6 
#
# 1 123.5163 93.8242 15.2724 0.0000 0.0000 0.0000
# 2 93.8242 185.3972 20.0077 0.0000 0.0000 0.0000
# 3 15.2724 20.0077 15.7088 0.0000 0.0000 0.0000
# 4 0.0000 0.0000 0.0000 2.7026 0.0000 0.0000
# 5 0.0000 0.0000 0.0000 0.0000 3.0617 0.0000
# 6 0.0000 0.0000 0.0000 0.0000 0.0000 34.1532
#
#
#
# Elastic Compliance Matrix: (Units=1/GPa)
#
#
# Indices 1 2 3 4 5 6 
#
# 1 0.013499 -0.006278 -0.005128 0.000000 0.000000 0.000000
# 2 -0.006278 0.009173 -0.005580 0.000000 0.000000 0.000000
# 3 -0.005128 -0.005580 0.075751 0.000000 0.000000 0.000000
# 4 0.000000 0.000000 0.000000 0.370008 0.000000 0.000000
# 5 0.000000 0.000000 0.000000 0.000000 0.326611 0.000000
# 6 0.000000 0.000000 0.000000 0.000000 0.000000 0.029280
#
#
# Mechanical properties :
#
#
# Convention : Reuss Voigt Hill
#
# Bulk Modulus (GPa) = 15.51554 64.75897 40.13726
# Shear Modulus (GPa) = 5.68326 21.01805 13.35065
#
# Velocity S-wave (km/s) = 1.78154 3.42604 2.73053
# Velocity P-wave (km/s) = 3.59119 7.19830 5.68824
#
# Compressibility (1/GPa) = 0.06445150
#
# Stress axis : x y z
#
# Youngs Moduli (GPa) = 74.07933 109.01384 13.20118
#
# Poissons Ratio (x) = 0.68440 0.06769
# Poissons Ratio (y) = 0.46508 0.07366
# Poissons Ratio (z) = 0.37987 0.60828
#
# Static dielectric constant tensor:
#      x y z
#    x 3.420820 0.000000 0.000000 
#    y 0.000000 3.687590 0.000000 
#    z 0.000000 0.000000 2.546010 
# 
# 
# High freq. dielectric constant tensor:
#      x y z
#    x 1.690030 0.000000 0.000000 
#    y 0.000000 1.710820 0.000000 
#    z 0.000000 0.000000 1.607190 
# 
# From -- ./inp_files/10697.got.cif
#   From: 2010.03.12/outbox.cif.g09.slc.cpg/sg47_6_cif.got.tgz:10697.got - 2010.04.14 03:12:58.
