data_PCOD8200035
_publ_section_title
;
Structure prediction by ZEFSAII (Michael W. Deem and Ramdas Pophale) SiO2 
 PCOD8200035
Probable space group: P M M M
;
_chemical_formula_sum "Si O2"
_cell_formula_units_Z 40
_cell_length_a 8.736766
_cell_length_b 21.566746
_cell_length_c 10.659084
_cell_angle_alpha 90.000000
_cell_angle_beta 90.000000
_cell_angle_gamma 90.000000
_cell_volume 2008.423121
_symmetry_space_group_name_H-M "P M M M"
_symmetry_group_IT_number 47
_symmetry_cell_setting 'orthorhombic'
loop_
_space_group_symop_operation_xyz
x,y,z
-x,-y,z
x,-y,-z
-x,y,-z
-x,-y,-z
x,y,-z
-x,y,z
x,-y,z
loop_
_atom_site_type_symbol
_atom_site_label
_atom_site_fract_x
_atom_site_fract_y
_atom_site_fract_z
Si Si1 0.679688 0.213934 0.142834
Si Si2 0.822409 0.344342 0.197895
Si Si3 0.670108 0.000000 0.647983
Si Si4 0.672692 0.572967 0.000000
Si Si5 0.668884 0.567703 0.645488
Si Si6 0.819024 0.872448 0.355869
O O1 0.500000 0.206002 0.162573
O O2 0.725715 0.284870 0.159380
O O3 0.762715 0.176672 0.253686
O O4 0.725031 0.192637 0.000000
O O5 0.781661 0.372864 0.333402
O O6 0.000000 0.328159 0.181831
O O7 0.767052 0.402910 0.118105
O O8 0.759209 0.061104 0.692013
O O9 0.500000 0.000000 0.707622
O O10 0.659186 0.000000 0.500000
O O11 0.674475 0.500000 0.000000
O O12 0.500000 0.599173 0.000000
O O13 0.646126 0.563841 0.500000
O O14 0.500000 0.579243 0.707621
O O15 0.731065 0.500000 0.692997
O O16 0.762872 0.857538 0.500000
O O17 0.000000 0.873432 0.354465
#
# Coordination Sequence:
#
# PCOD8200035 Si02
#       6
#     8   8   4   4   8   8
#     4  11  24  42  63  85 117 162 208 252 303 363
#     4  12  24  37  57  83 112 146 186 236 295 352
#     4   9  17  33  60  93 128 165 206 250 296 351
#     4  11  23  39  59  81 107 142 187 236 285 345
#     4   9  19  37  59  81 108 145 187 232 287 352
#     4  10  21  38  63  95 129 163 202 251 306 360
#
# _framework density 19.916121
#
# number of rings (size 3 to 8) (size 9 to 14) (size 15 to 20)
#    0.000    1.600    1.000    4.800    0.000    8.400 
#    0.000    1.500    0.000    3.000    0.000    0.000 
#    0.000    0.000    0.000    0.000    0.000    0.000 
#
# Total GULP energy -495622.881210 kJ/mol
# GULP energy per Si atom -12390.572030 kJ/mol
# Density = 1.987079 g / cm^3
# Si number density = 19.916121 Si / 1000 Ang^3
#
#
#
# Elastic Constant Matrix: (Units=GPa)
#
#
# Indices 1 2 3 4 5 6 
#
# 1 80.2522 32.3089 34.4490 0.0000 0.0000 0.0000
# 2 32.3089 96.2109 49.2515 0.0000 0.0000 0.0000
# 3 34.4490 49.2515 90.3858 0.0000 0.0000 0.0000
# 4 0.0000 0.0000 0.0000 20.3736 0.0000 0.0000
# 5 0.0000 0.0000 0.0000 0.0000 35.9475 0.0000
# 6 0.0000 0.0000 0.0000 0.0000 0.0000 31.6958
#
#
#
# Elastic Compliance Matrix: (Units=1/GPa)
#
#
# Indices 1 2 3 4 5 6 
#
# 1 0.015508 -0.003026 -0.004262 0.000000 0.000000 0.000000
# 2 -0.003026 0.015005 -0.007023 0.000000 0.000000 0.000000
# 3 -0.004262 -0.007023 0.016515 0.000000 0.000000 0.000000
# 4 0.000000 0.000000 0.000000 0.049083 0.000000 0.000000
# 5 0.000000 0.000000 0.000000 0.000000 0.027818 0.000000
# 6 0.000000 0.000000 0.000000 0.000000 0.000000 0.031550
#
#
# Mechanical properties :
#
#
# Convention : Reuss Voigt Hill
#
# Bulk Modulus (GPa) = 54.32872 55.42975 54.87924
# Shear Modulus (GPa) = 26.28295 27.65936 26.97116
#
# Velocity S-wave (km/s) = 3.63668 3.73069 3.68399
# Velocity P-wave (km/s) = 6.70611 6.81538 6.76097
#
# Compressibility (1/GPa) = 0.01840647
#
# Stress axis : x y z
#
# Youngs Moduli (GPa) = 64.48089 66.64328 60.55168
#
# Poissons Ratio (x) = 0.20168 0.25806
# Poissons Ratio (y) = 0.19514 0.42525
# Poissons Ratio (z) = 0.27480 0.46804
#
# Static dielectric constant tensor:
#      x y z
#    x 3.699300 0.000000 0.000000 
#    y 0.000000 3.657160 0.000000 
#    z 0.000000 0.000000 2.302350 
# 
# 
# High freq. dielectric constant tensor:
#      x y z
#    x 1.778840 0.000000 0.000000 
#    y 0.000000 1.774950 0.000000 
#    z 0.000000 0.000000 1.776980 
# 
# From -- ./inp_files/15138.got.cif
#   From: 2010.03.12/outbox.cif.g09.slc.cpg/sg47_8_cif.got.tgz:15138.got - 2010.04.14 03:12:58.
