data_PCOD8200596
_publ_section_title
;
Structure prediction by ZEFSAII (Michael W. Deem and Ramdas Pophale) SiO2 
 PCOD8200596
Probable space group: P M M M
;
_chemical_formula_sum "Si O2"
_cell_formula_units_Z 40
_cell_length_a 9.605124
_cell_length_b 25.896487
_cell_length_c 9.293293
_cell_angle_alpha 90.000000
_cell_angle_beta 90.000000
_cell_angle_gamma 90.000000
_cell_volume 2311.604118
_symmetry_space_group_name_H-M "P M M M"
_symmetry_group_IT_number 47
_symmetry_cell_setting 'orthorhombic'
loop_
_space_group_symop_operation_xyz
x,y,z
-x,-y,z
x,-y,-z
-x,y,-z
-x,-y,-z
x,y,-z
-x,y,z
x,-y,z
loop_
_atom_site_type_symbol
_atom_site_label
_atom_site_fract_x
_atom_site_fract_y
_atom_site_fract_z
Si Si1 0.333870 0.403639 0.660403
Si Si2 0.153156 0.200992 0.670290
Si Si3 0.666251 0.500000 0.161251
Si Si4 0.663235 0.000000 0.170403
Si Si5 0.345450 0.709353 0.671750
Si Si6 0.162735 0.084583 0.332269
O O1 0.276315 0.413953 0.500000
O O2 0.500000 0.404096 0.657260
O O3 0.274655 0.448656 0.762127
O O4 0.285259 0.347056 0.717109
O O5 0.146974 0.207308 0.500000
O O6 0.253003 0.244553 0.738126
O O7 0.204381 0.143325 0.707182
O O8 0.000000 0.209848 0.735779
O O9 0.500000 0.500000 0.166048
O O10 0.723496 0.500000 0.000000
O O11 0.737382 0.050080 0.235551
O O12 0.500000 0.000000 0.211582
O O13 0.684234 0.000000 0.000000
O O14 0.349697 0.711876 0.500000
O O15 0.500000 0.717064 0.734654
O O16 0.190559 0.072813 0.500000
O O17 0.000000 0.074100 0.297436
#
# Coordination Sequence:
#
# PCOD8200596 Si02
#       6
#     8   8   4   4   8   8
#     4   8  13  21  33  50  74 104 136 168 202 244
#     4   8  14  25  42  66  93 115 138 175 219 257
#     4   9  15  21  31  49  74 103 134 170 212 253
#     4  11  24  37  48  68  98 127 156 191 230 272
#     4   8  13  21  35  57  83 110 140 171 206 254
#     4   9  18  33  53  75  96 120 154 192 227 269
#
# _framework density 17.304001
#
# number of rings (size 3 to 8) (size 9 to 14) (size 15 to 20)
#    0.000    3.400    0.000    3.300    0.000    4.400 
#    0.000    2.000    0.000    1.200    0.000    3.500 
#    0.000    5.600    0.000    0.000    0.000    0.000 
#
# Total GULP energy -495668.456417 kJ/mol
# GULP energy per Si atom -12391.711410 kJ/mol
# Density = 1.726462 g / cm^3
# Si number density = 17.304001 Si / 1000 Ang^3
#
#
#
# Elastic Constant Matrix: (Units=GPa)
#
#
# Indices 1 2 3 4 5 6 
#
# 1 69.5898 71.6823 35.3377 0.0000 0.0000 0.0000
# 2 71.6823 183.1781 58.4342 0.0000 0.0000 0.0000
# 3 35.3377 58.4342 62.2200 0.0000 0.0000 0.0000
# 4 0.0000 0.0000 0.0000 1.4766 0.0000 0.0000
# 5 0.0000 0.0000 0.0000 0.0000 13.1377 0.0000
# 6 0.0000 0.0000 0.0000 0.0000 0.0000 8.9565
#
#
#
# Elastic Compliance Matrix: (Units=1/GPa)
#
#
# Indices 1 2 3 4 5 6 
#
# 1 0.026337 -0.007902 -0.007537 0.000000 0.000000 0.000000
# 2 -0.007902 0.010165 -0.005059 0.000000 0.000000 0.000000
# 3 -0.007537 -0.005059 0.025103 0.000000 0.000000 0.000000
# 4 0.000000 0.000000 0.000000 0.677231 0.000000 0.000000
# 5 0.000000 0.000000 0.000000 0.000000 0.076117 0.000000
# 6 0.000000 0.000000 0.000000 0.000000 0.000000 0.111651
#
#
# Mechanical properties :
#
#
# Convention : Reuss Voigt Hill
#
# Bulk Modulus (GPa) = 48.51916 71.76625 60.14270
# Shear Modulus (GPa) = 5.13101 14.68309 9.90705
#
# Velocity S-wave (km/s) = 1.72385 2.91613 2.39535
# Velocity P-wave (km/s) = 5.66236 7.27339 6.51784
#
# Compressibility (1/GPa) = 0.02061041
#
# Stress axis : x y z
#
# Youngs Moduli (GPa) = 37.97002 98.37519 39.83537
#
# Poissons Ratio (x) = 0.77736 0.30022
# Poissons Ratio (y) = 0.30004 0.20152
# Poissons Ratio (z) = 0.28616 0.49766
#
# Static dielectric constant tensor:
#      x y z
#    x 3.127110 0.000000 0.000000 
#    y 0.000000 3.613340 0.000000 
#    z 0.000000 0.000000 2.853040 
# 
# 
# High freq. dielectric constant tensor:
#      x y z
#    x 1.629360 0.000000 0.000000 
#    y 0.000000 1.690340 0.000000 
#    z 0.000000 0.000000 1.619970 
# 
# From -- ./inp_files/1880.got.cif
#   From: 2010.03.12/outbox.cif.g09.slc.cpg/sg47_1_cif.got.tgz:1880.got - 2010.04.14 03:12:58.
