data_PCOD8200746
_publ_section_title
;
Structure prediction by ZEFSAII (Michael W. Deem and Ramdas Pophale) SiO2 
 PCOD8200746
Probable space group: P M M M
;
_chemical_formula_sum "Si O2"
_cell_formula_units_Z 56
_cell_length_a 13.586914
_cell_length_b 9.707095
_cell_length_c 29.448416
_cell_angle_alpha 90.000000
_cell_angle_beta 90.000000
_cell_angle_gamma 90.000000
_cell_volume 3883.935830
_symmetry_space_group_name_H-M "P M M M"
_symmetry_group_IT_number 47
_symmetry_cell_setting 'orthorhombic'
loop_
_space_group_symop_operation_xyz
x,y,z
-x,-y,z
x,-y,-z
-x,y,-z
-x,-y,-z
x,y,-z
-x,y,z
x,-y,z
loop_
_atom_site_type_symbol
_atom_site_label
_atom_site_fract_x
_atom_site_fract_y
_atom_site_fract_z
Si Si1 0.270910 0.658871 0.817447
Si Si2 0.387439 0.341305 0.092382
Si Si3 0.610101 0.836393 0.451926
Si Si4 0.769541 0.842558 0.949354
Si Si5 0.617611 0.844857 0.354733
Si Si6 0.887108 0.839423 0.138465
Si Si7 0.613708 0.339853 0.272394
O O1 0.237553 0.500000 0.816330
O O2 0.350357 0.685291 0.856680
O O3 0.174880 0.752257 0.825158
O O4 0.322030 0.703825 0.770786
O O5 0.500000 0.294329 0.089859
O O6 0.374715 0.500000 0.078533
O O7 0.326498 0.251007 0.056862
O O8 0.663494 0.791077 0.500000
O O9 0.500000 0.775918 0.453825
O O10 0.659964 0.790112 0.403955
O O11 0.604859 0.000000 0.449745
O O12 0.853293 0.803242 0.912883
O O13 0.736252 0.000000 0.942588
O O14 0.812403 0.818442 0.000000
O O15 0.500000 0.842359 0.357491
O O16 0.655723 0.744757 0.315208
O O17 0.654562 0.000000 0.344274
O O18 0.000000 0.795338 0.143135
O O19 0.871798 0.000000 0.149146
O O20 0.500000 0.303256 0.262322
O O21 0.625678 0.500000 0.283675
#
# Coordination Sequence:
#
# PCOD8200746 Si02
#       7
#     8   8   8   8   8   8   8
#     4   9  17  29  44  60  77  99 128 157 185 222
#     4   9  17  29  44  60  79 104 132 159 184 212
#     4   7   9  14  25  40  58  83 118 159 196 224
#     4   9  18  31  45  62  83 104 125 149 179 218
#     4   8  13  20  30  46  67  91 123 161 195 225
#     4   9  18  32  48  64  80  97 119 150 187 224
#     4   9  16  25  37  53  75 102 128 155 189 226
#
# _framework density 14.418364
#
# number of rings (size 3 to 8) (size 9 to 14) (size 15 to 20)
#    0.000    3.429    0.000    1.714    0.000    3.714 
#    0.000    2.857    0.000    3.000    0.000    7.000 
#    0.000    0.000    0.000    0.000    0.000    0.714 
#
# Total GULP energy -693858.264585 kJ/mol
# GULP energy per Si atom -12390.326153 kJ/mol
# Density = 1.438555 g / cm^3
# Si number density = 14.418364 Si / 1000 Ang^3
#
#
#
# Elastic Constant Matrix: (Units=GPa)
#
#
# Indices 1 2 3 4 5 6 
#
# 1 68.1566 33.1563 36.9675 0.0000 0.0000 0.0000
# 2 33.1563 46.2953 45.8474 0.0000 0.0000 0.0000
# 3 36.9675 45.8474 126.6844 0.0000 0.0000 0.0000
# 4 0.0000 0.0000 0.0000 18.8484 0.0000 0.0000
# 5 0.0000 0.0000 0.0000 0.0000 8.6238 0.0000
# 6 0.0000 0.0000 0.0000 0.0000 0.0000 18.3648
#
#
#
# Elastic Compliance Matrix: (Units=1/GPa)
#
#
# Indices 1 2 3 4 5 6 
#
# 1 0.022624 -0.015064 -0.001150 0.000000 0.000000 0.000000
# 2 -0.015064 0.043697 -0.011418 0.000000 0.000000 0.000000
# 3 -0.001150 -0.011418 0.012362 0.000000 0.000000 0.000000
# 4 0.000000 0.000000 0.000000 0.053055 0.000000 0.000000
# 5 0.000000 0.000000 0.000000 0.000000 0.115958 0.000000
# 6 0.000000 0.000000 0.000000 0.000000 0.000000 0.054452
#
#
# Mechanical properties :
#
#
# Convention : Reuss Voigt Hill
#
# Bulk Modulus (GPa) = 42.70284 52.56428 47.63356
# Shear Modulus (GPa) = 13.69040 17.51174 15.60107
#
# Velocity S-wave (km/s) = 3.08476 3.48881 3.29299
# Velocity P-wave (km/s) = 6.50914 7.26393 6.89687
#
# Compressibility (1/GPa) = 0.02341764
#
# Stress axis : x y z
#
# Youngs Moduli (GPa) = 44.20030 22.88478 80.89614
#
# Poissons Ratio (x) = 0.34474 0.09304
# Poissons Ratio (y) = 0.66585 0.92369
# Poissons Ratio (z) = 0.05084 0.26130
#
# Static dielectric constant tensor:
#      x y z
#    x 2.462980 0.000000 0.000000 
#    y 0.000000 2.749970 0.000000 
#    z 0.000000 0.000000 3.147220 
# 
# 
# High freq. dielectric constant tensor:
#      x y z
#    x 1.497830 0.000000 0.000000 
#    y 0.000000 1.540460 0.000000 
#    z 0.000000 0.000000 1.559840 
# 
# From -- ./inp_files/8116.got.cif
#   From: 2010.03.12/outbox.cif.g09.slc.cpg/sg47_5_cif.got.tgz:8116.got - 2010.04.14 03:12:58.
