data_PCOD8200528
_publ_section_title
;
Structure prediction by ZEFSAII (Michael W. Deem and Ramdas Pophale) SiO2 
 PCOD8200528
Probable space group: P M M M
;
_chemical_formula_sum "Si O2"
_cell_formula_units_Z 52
_cell_length_a 9.371035
_cell_length_b 26.524448
_cell_length_c 13.791379
_cell_angle_alpha 90.000000
_cell_angle_beta 90.000000
_cell_angle_gamma 90.000000
_cell_volume 3428.006273
_symmetry_space_group_name_H-M "P M M M"
_symmetry_group_IT_number 47
_symmetry_cell_setting 'orthorhombic'
loop_
_space_group_symop_operation_xyz
x,y,z
-x,-y,z
x,-y,-z
-x,y,-z
-x,-y,-z
x,y,-z
-x,y,z
x,-y,z
loop_
_atom_site_type_symbol
_atom_site_label
_atom_site_fract_x
_atom_site_fract_y
_atom_site_fract_z
Si Si1 0.160719 0.944674 0.384759
Si Si2 0.330893 0.647325 0.393120
Si Si3 0.333933 0.850345 0.613285
Si Si4 0.329627 0.251982 0.704593
Si Si5 0.667484 0.407010 0.797574
Si Si6 0.831005 0.500000 0.886747
Si Si7 0.668325 0.697763 0.894197
O O1 0.166852 0.943657 0.500000
O O2 0.259468 0.900220 0.342894
O O3 0.000000 0.935302 0.348479
O O4 0.213841 0.000000 0.348600
O O5 0.270693 0.632966 0.500000
O O6 0.500000 0.651146 0.395535
O O7 0.271571 0.702454 0.362650
O O8 0.288675 0.604937 0.314170
O O9 0.302068 0.843474 0.500000
O O10 0.500000 0.856630 0.634112
O O11 0.269488 0.801376 0.667362
O O12 0.500000 0.251436 0.699912
O O13 0.275163 0.262063 0.814728
O O14 0.500000 0.421005 0.805791
O O15 0.764330 0.451762 0.835279
O O16 0.706113 0.358787 0.862476
O O17 0.000000 0.500000 0.871120
O O18 0.790536 0.500000 0.000000
O O19 0.500000 0.703009 0.900386
O O20 0.737172 0.708795 0.000000
#
# Coordination Sequence:
#
# PCOD8200528 Si02
#       7
#     8   8   8   8   8   4   8
#     4   8  14  24  35  46  65  97 132 160 187 220
#     4   8  13  23  41  64  87 108 131 160 192 226
#     4   9  15  21  32  52  76 100 125 153 184 219
#     4   8  13  20  32  54  82 106 126 152 189 229
#     4   9  17  29  47  68  84 102 132 166 194 224
#     4  11  23  35  46  61  82 106 129 159 204 249
#     4   8  13  22  38  60  82 101 124 156 191 225
#
# _framework density 15.169166000000001
#
# number of rings (size 3 to 8) (size 9 to 14) (size 15 to 20)
#    0.000    3.462    0.000    3.462    0.000    3.385 
#    0.000    1.923    0.000    6.462    0.000    0.000 
#    0.000    0.615    0.000    7.692    0.000    1.538 
#
# Total GULP energy -644273.626071 kJ/mol
# GULP energy per Si atom -12389.877424 kJ/mol
# Density = 1.513464 g / cm^3
# Si number density = 15.169166 Si / 1000 Ang^3
#
#
#
# Elastic Constant Matrix: (Units=GPa)
#
#
# Indices 1 2 3 4 5 6 
#
# 1 32.1017 44.0800 26.0621 0.0000 0.0000 0.0000
# 2 44.0800 134.3210 62.6508 0.0000 0.0000 0.0000
# 3 26.0621 62.6508 111.0221 0.0000 0.0000 0.0000
# 4 0.0000 0.0000 0.0000 12.2583 0.0000 0.0000
# 5 0.0000 0.0000 0.0000 0.0000 8.5547 0.0000
# 6 0.0000 0.0000 0.0000 0.0000 0.0000 -0.2390
#
#
#
# Elastic Compliance Matrix: (Units=1/GPa)
#
#
# Indices 1 2 3 4 5 6 
#
# 1 0.057918 -0.017190 -0.003896 0.000000 0.000000 0.000000
# 2 -0.017190 0.015206 -0.004546 0.000000 0.000000 0.000000
# 3 -0.003896 -0.004546 0.012487 0.000000 0.000000 0.000000
# 4 0.000000 0.000000 0.000000 0.081577 0.000000 0.000000
# 5 0.000000 0.000000 0.000000 0.000000 0.116895 0.000000
# 6 0.000000 0.000000 0.000000 0.000000 0.000000 -4.183759
#
#
# Mechanical properties :
#
#
# Convention : Reuss Voigt Hill
#
# Bulk Modulus (GPa) = 29.11341 60.33675 44.72508
# Shear Modulus (GPa) = -1.30311 13.75826 6.22757
#
# Velocity S-wave (km/s) = -0.92786 3.01489 2.02838
# Velocity P-wave (km/s) = 4.25280 7.20983 5.91895
#
# Compressibility (1/GPa) = 0.03434843
#
# Stress axis : x y z
#
# Youngs Moduli (GPa) = 17.26592 65.76230 80.08364
#
# Poissons Ratio (x) = 1.13044 0.31198
# Poissons Ratio (y) = 0.29680 0.36405
# Poissons Ratio (z) = 0.06726 0.29894
#
# Static dielectric constant tensor:
#      x y z
#    x 2.532700 0.000000 0.000000 
#    y 0.000000 3.097110 0.000000 
#    z 0.000000 0.000000 3.300810 
# 
# 
# High freq. dielectric constant tensor:
#      x y z
#    x 1.534560 0.000000 0.000000 
#    y 0.000000 1.580230 0.000000 
#    z 0.000000 0.000000 1.563440 
# 
# From -- ./inp_files/22026.got.cif
#   From: 2010.03.12/outbox.cif.g09.slc.cpg/sg47_12_cif.got.tgz:22026.got - 2010.04.14 03:12:58.
