data_PCOD8200434
_publ_section_title
;
Structure prediction by ZEFSAII (Michael W. Deem and Ramdas Pophale) SiO2 
 PCOD8200434
Probable space group: P M M M
;
_chemical_formula_sum "Si O2"
_cell_formula_units_Z 36
_cell_length_a 15.240249
_cell_length_b 14.142034
_cell_length_c 9.379843
_cell_angle_alpha 90.000000
_cell_angle_beta 90.000000
_cell_angle_gamma 90.000000
_cell_volume 2021.619923
_symmetry_space_group_name_H-M "P M M M"
_symmetry_group_IT_number 47
_symmetry_cell_setting 'orthorhombic'
loop_
_space_group_symop_operation_xyz
x,y,z
-x,-y,z
x,-y,-z
-x,y,-z
-x,-y,-z
x,y,-z
-x,y,z
x,-y,z
loop_
_atom_site_type_symbol
_atom_site_label
_atom_site_fract_x
_atom_site_fract_y
_atom_site_fract_z
Si Si1 0.900819 0.111295 0.662470
Si Si2 0.000000 0.387766 0.340872
Si Si3 0.399268 0.108278 0.335304
Si Si4 0.748090 0.793039 0.163953
Si Si5 0.835326 0.393841 0.162193
O O1 0.873307 0.134521 0.500000
O O2 0.833996 0.159895 0.769585
O O3 0.000000 0.148561 0.691705
O O4 0.897134 0.000000 0.688775
O O5 0.086865 0.353329 0.260445
O O6 0.000000 0.500000 0.343147
O O7 0.000000 0.344858 0.500000
O O8 0.384304 0.133353 0.500000
O O9 0.500000 0.124527 0.292122
O O10 0.340670 0.176725 0.240844
O O11 0.371823 0.000000 0.306604
O O12 0.754616 0.678891 0.178944
O O13 0.742858 0.824434 0.000000
O O14 0.805372 0.500000 0.207402
O O15 0.870015 0.394635 0.000000
#
# Coordination Sequence:
#
# PCOD8200434 Si02
#       5
#     8   4   8   8   8
#     4   9  19  35  51  68  97 139 177 204 242 302
#     4   9  17  29  47  71  94 121 168 223 261 288
#     4   9  19  37  59  80 103 133 166 200 248 313
#     4  11  22  32  50  79 104 130 169 214 257 299
#     4   9  19  35  50  66  98 141 175 206 251 306
#
# _framework density 17.807500000000001
#
# number of rings (size 3 to 8) (size 9 to 14) (size 15 to 20)
#    0.000    2.556    0.000    3.000    1.556    7.556 
#    0.000    2.222    0.000    0.667    0.000    4.667 
#    0.000    0.000    0.000    0.000    0.000    0.000 
#
# Total GULP energy -446361.394237 kJ/mol
# GULP energy per Si atom -12398.927618 kJ/mol
# Density = 1.776697 g / cm^3
# Si number density = 17.807500 Si / 1000 Ang^3
#
#
#
# Elastic Constant Matrix: (Units=GPa)
#
#
# Indices 1 2 3 4 5 6 
#
# 1 97.1916 52.6596 61.7561 0.0000 0.0000 0.0000
# 2 52.6596 68.6060 50.4866 0.0000 0.0000 0.0000
# 3 61.7561 50.4866 106.9374 0.0000 0.0000 0.0000
# 4 0.0000 0.0000 0.0000 19.7066 0.0000 0.0000
# 5 0.0000 0.0000 0.0000 0.0000 26.1925 0.0000
# 6 0.0000 0.0000 0.0000 0.0000 0.0000 25.9228
#
#
#
# Elastic Compliance Matrix: (Units=1/GPa)
#
#
# Indices 1 2 3 4 5 6 
#
# 1 0.020330 -0.010673 -0.006702 0.000000 0.000000 0.000000
# 2 -0.010673 0.027939 -0.007027 0.000000 0.000000 0.000000
# 3 -0.006702 -0.007027 0.016539 0.000000 0.000000 0.000000
# 4 0.000000 0.000000 0.000000 0.050744 0.000000 0.000000
# 5 0.000000 0.000000 0.000000 0.000000 0.038179 0.000000
# 6 0.000000 0.000000 0.000000 0.000000 0.000000 0.038576
#
#
# Mechanical properties :
#
#
# Convention : Reuss Voigt Hill
#
# Bulk Modulus (GPa) = 62.47985 66.94885 64.71435
# Shear Modulus (GPa) = 20.28849 21.55324 20.92087
#
# Velocity S-wave (km/s) = 3.37905 3.48278 3.43130
# Velocity P-wave (km/s) = 7.09834 7.33829 7.21931
#
# Compressibility (1/GPa) = 0.01600516
#
# Stress axis : x y z
#
# Youngs Moduli (GPa) = 49.18866 35.79209 60.46322
#
# Poissons Ratio (x) = 0.38200 0.40520
# Poissons Ratio (y) = 0.52498 0.42487
# Poissons Ratio (z) = 0.32965 0.25151
#
# Static dielectric constant tensor:
#      x y z
#    x 3.102000 0.000000 0.000000 
#    y 0.000000 3.359850 0.000000 
#    z 0.000000 0.000000 3.376330 
# 
# 
# High freq. dielectric constant tensor:
#      x y z
#    x 1.666450 0.000000 0.000000 
#    y 0.000000 1.690810 0.000000 
#    z 0.000000 0.000000 1.693290 
# 
# From -- ./inp_files/5499.got.cif
#   From: 2010.03.12/outbox.cif.g09.slc.cpg/sg47_3_cif.got.tgz:5499.got - 2010.04.14 03:12:58.
