data_PCOD8200967
_publ_section_title
;
Structure prediction by ZEFSAII (Michael W. Deem and Ramdas Pophale) SiO2 
 PCOD8200967
Probable space group: P M M M
;
_chemical_formula_sum "Si O2"
_cell_formula_units_Z 52
_cell_length_a 30.585322
_cell_length_b 9.589096
_cell_length_c 10.355363
_cell_angle_alpha 90.000000
_cell_angle_beta 90.000000
_cell_angle_gamma 90.000000
_cell_volume 3037.078735
_symmetry_space_group_name_H-M "P M M M"
_symmetry_group_IT_number 47
_symmetry_cell_setting 'orthorhombic'
loop_
_space_group_symop_operation_xyz
x,y,z
-x,-y,z
x,-y,-z
-x,y,-z
-x,-y,-z
x,y,-z
-x,y,z
x,-y,z
loop_
_atom_site_type_symbol
_atom_site_label
_atom_site_fract_x
_atom_site_fract_y
_atom_site_fract_z
Si Si1 0.549021 0.660946 0.737847
Si Si2 0.790023 0.162101 0.648979
Si Si3 0.714922 0.161765 0.850662
Si Si4 0.551415 0.845550 0.500000
Si Si5 0.637381 0.349115 0.852605
Si Si6 0.873558 0.343386 0.347282
Si Si7 0.048697 0.843670 0.653616
O O1 0.500000 0.702043 0.786937
O O2 0.548498 0.500000 0.692953
O O3 0.565973 0.757799 0.622944
O O4 0.585864 0.690931 0.845044
O O5 0.775599 0.192455 0.500000
O O6 0.752780 0.204698 0.750965
O O7 0.830989 0.255496 0.690522
O O8 0.802901 0.000000 0.663726
O O9 0.671154 0.236715 0.796261
O O10 0.704452 0.000000 0.840920
O O11 0.727218 0.201027 0.000000
O O12 0.500000 0.861477 0.500000
O O13 0.573144 0.000000 0.500000
O O14 0.644816 0.500000 0.784188
O O15 0.649578 0.362856 0.000000
O O16 0.877995 0.351654 0.500000
O O17 0.870627 0.500000 0.289257
O O18 0.916072 0.264926 0.288602
O O19 0.051537 0.844372 0.500000
O O20 0.000000 0.797833 0.697916
O O21 0.058997 0.000000 0.704391
#
# Coordination Sequence:
#
# PCOD8200967 Si02
#       7
#     8   8   8   4   8   8   8
#     4   9  17  30  48  68  92 121 150 180 216 261
#     4   9  17  30  47  65  87 115 148 185 225 271
#     4   9  18  33  51  68  89 119 152 186 227 273
#     4   9  17  29  45  65  89 117 149 183 217 253
#     4   9  18  32  49  69  92 117 146 180 220 266
#     4   9  16  24  36  57  85 115 146 184 230 271
#     4   8  13  21  33  50  76 114 156 189 219 263
#
# _framework density 17.121717
#
# number of rings (size 3 to 8) (size 9 to 14) (size 15 to 20)
#    0.000    3.154    0.000    1.154    0.000    4.615 
#    1.385    3.077    0.000    0.000    0.000    4.308 
#    0.000    0.615    0.000    7.077    0.000    9.077 
#
# Total GULP energy -644198.286609 kJ/mol
# GULP energy per Si atom -12388.428589 kJ/mol
# Density = 1.708275 g / cm^3
# Si number density = 17.121717 Si / 1000 Ang^3
#
#
#
# Elastic Constant Matrix: (Units=GPa)
#
#
# Indices 1 2 3 4 5 6 
#
# 1 150.8610 77.6018 39.6696 0.0000 0.0000 0.0000
# 2 77.6018 93.7308 26.4821 0.0000 0.0000 0.0000
# 3 39.6696 26.4821 37.8268 0.0000 0.0000 0.0000
# 4 0.0000 0.0000 0.0000 20.5907 0.0000 0.0000
# 5 0.0000 0.0000 0.0000 0.0000 11.0701 0.0000
# 6 0.0000 0.0000 0.0000 0.0000 0.0000 30.7488
#
#
#
# Elastic Compliance Matrix: (Units=1/GPa)
#
#
# Indices 1 2 3 4 5 6 
#
# 1 0.013117 -0.008693 -0.007670 0.000000 0.000000 0.000000
# 2 -0.008693 0.019060 -0.004228 0.000000 0.000000 0.000000
# 3 -0.007670 -0.004228 0.037440 0.000000 0.000000 0.000000
# 4 0.000000 0.000000 0.000000 0.048566 0.000000 0.000000
# 5 0.000000 0.000000 0.000000 0.000000 0.090333 0.000000
# 6 0.000000 0.000000 0.000000 0.000000 0.000000 0.032522
#
#
# Mechanical properties :
#
#
# Convention : Reuss Voigt Hill
#
# Bulk Modulus (GPa) = 35.16694 63.32507 49.24600
# Shear Modulus (GPa) = 17.14104 21.72627 19.43366
#
# Velocity S-wave (km/s) = 3.16749 3.56607 3.37267
# Velocity P-wave (km/s) = 5.82763 7.34992 6.63260
#
# Compressibility (1/GPa) = 0.02843580
#
# Stress axis : x y z
#
# Youngs Moduli (GPa) = 76.23651 52.46526 26.70944
#
# Poissons Ratio (x) = 0.45607 0.20487
# Poissons Ratio (y) = 0.66271 0.11292
# Poissons Ratio (z) = 0.58476 0.22180
#
# Static dielectric constant tensor:
#      x y z
#    x 3.277980 0.000000 0.000000 
#    y 0.000000 3.577590 0.000000 
#    z 0.000000 0.000000 2.820480 
# 
# 
# High freq. dielectric constant tensor:
#      x y z
#    x 1.662010 0.000000 0.000000 
#    y 0.000000 1.666220 0.000000 
#    z 0.000000 0.000000 1.605690 
# 
# From -- ./inp_files/4589.got.cif
#   From: 2010.03.12/outbox.cif.g09.slc.cpg/sg47_3_cif.got.tgz:4589.got - 2010.04.14 03:12:58.
