data_PCOD8200817
_publ_section_title
;
Structure prediction by ZEFSAII (Michael W. Deem and Ramdas Pophale) SiO2 
 PCOD8200817
Probable space group: P M M M
;
_chemical_formula_sum "Si O2"
_cell_formula_units_Z 52
_cell_length_a 9.334919
_cell_length_b 30.821751
_cell_length_c 12.768962
_cell_angle_alpha 90.000000
_cell_angle_beta 90.000000
_cell_angle_gamma 90.000000
_cell_volume 3673.867219
_symmetry_space_group_name_H-M "P M M M"
_symmetry_group_IT_number 47
_symmetry_cell_setting 'orthorhombic'
loop_
_space_group_symop_operation_xyz
x,y,z
-x,-y,z
x,-y,-z
-x,y,-z
-x,-y,-z
x,y,-z
-x,y,z
x,-y,z
loop_
_atom_site_type_symbol
_atom_site_label
_atom_site_fract_x
_atom_site_fract_y
_atom_site_fract_z
Si Si1 0.161389 0.628547 0.875045
Si Si2 0.159414 0.208622 0.875696
Si Si3 0.661860 0.948479 0.500000
Si Si4 0.660859 0.452009 0.124525
Si Si5 0.338630 0.710891 0.875069
Si Si6 0.832432 0.050352 0.702279
Si Si7 0.829705 0.112888 0.116033
O O1 0.232712 0.584484 0.830176
O O2 0.250703 0.669571 0.832880
O O3 0.000000 0.631612 0.831736
O O4 0.161584 0.628216 0.000000
O O5 0.265102 0.245365 0.830638
O O6 0.219444 0.160837 0.845712
O O7 0.000000 0.216056 0.828895
O O8 0.150357 0.212117 0.000000
O O9 0.500000 0.930111 0.500000
O O10 0.745440 0.931959 0.397516
O O11 0.661751 0.000000 0.500000
O O12 0.500000 0.442607 0.165115
O O13 0.711222 0.500000 0.161731
O O14 0.661385 0.450068 0.000000
O O15 0.500000 0.708397 0.831351
O O16 0.339246 0.711192 0.000000
O O17 0.775128 0.076796 0.802725
O O18 0.000000 0.058424 0.680929
O O19 0.801196 0.000000 0.724541
O O20 0.000000 0.112621 0.109586
O O21 0.767240 0.102375 0.000000
#
# Coordination Sequence:
#
# PCOD8200817 Si02
#       7
#     8   8   4   8   8   8   8
#     4   9  15  20  26  36  48  62  83 112 146 185
#     4   8  13  22  34  45  60  83 107 128 154 193
#     4   9  17  29  43  57  75  99 125 153 185 215
#     4   8  13  20  27  33  43  60  80 104 139 183
#     4   9  15  21  29  40  53  69  92 123 155 185
#     4   9  16  26  42  62  80  98 123 153 180 210
#     4   8  14  24  38  57  79 100 120 144 177 216
#
# _framework density 14.154023
#
# number of rings (size 3 to 8) (size 9 to 14) (size 15 to 20)
#    0.000    3.462    0.000    2.538    0.000    5.231 
#    0.000    3.846    0.000    1.385    0.000    2.154 
#    0.000    0.000    0.000    0.000    0.000    0.000 
#
# Total GULP energy -644418.043439 kJ/mol
# GULP energy per Si atom -12392.654682 kJ/mol
# Density = 1.412181 g / cm^3
# Si number density = 14.154023 Si / 1000 Ang^3
#
#
#
# Elastic Constant Matrix: (Units=GPa)
#
#
# Indices 1 2 3 4 5 6 
#
# 1 90.3320 58.2461 25.5943 0.0000 0.0000 0.0000
# 2 58.2461 113.5076 37.1140 0.0000 0.0000 0.0000
# 3 25.5943 37.1140 40.7864 0.0000 0.0000 0.0000
# 4 0.0000 0.0000 0.0000 0.6706 0.0000 0.0000
# 5 0.0000 0.0000 0.0000 0.0000 5.0417 0.0000
# 6 0.0000 0.0000 0.0000 0.0000 0.0000 18.5869
#
#
#
# Elastic Compliance Matrix: (Units=1/GPa)
#
#
# Indices 1 2 3 4 5 6 
#
# 1 0.016965 -0.007437 -0.003878 0.000000 0.000000 0.000000
# 2 -0.007437 0.015802 -0.009712 0.000000 0.000000 0.000000
# 3 -0.003878 -0.009712 0.035789 0.000000 0.000000 0.000000
# 4 0.000000 0.000000 0.000000 1.491225 0.000000 0.000000
# 5 0.000000 0.000000 0.000000 0.000000 0.198346 0.000000
# 6 0.000000 0.000000 0.000000 0.000000 0.000000 0.053801
#
#
# Mechanical properties :
#
#
# Convention : Reuss Voigt Hill
#
# Bulk Modulus (GPa) = 37.73455 54.05942 45.89699
# Shear Modulus (GPa) = 2.68411 13.10461 7.89436
#
# Velocity S-wave (km/s) = 1.37858 3.04609 2.36423
# Velocity P-wave (km/s) = 5.40849 7.11675 6.32060
#
# Compressibility (1/GPa) = 0.02650091
#
# Stress axis : x y z
#
# Youngs Moduli (GPa) = 58.94604 63.28284 27.94143
#
# Poissons Ratio (x) = 0.47066 0.10836
# Poissons Ratio (y) = 0.43840 0.27137
# Poissons Ratio (z) = 0.22859 0.61461
#
# Static dielectric constant tensor:
#      x y z
#    x 2.863940 0.000000 0.000000 
#    y 0.000000 3.029330 0.000000 
#    z 0.000000 0.000000 2.276940 
# 
# 
# High freq. dielectric constant tensor:
#      x y z
#    x 1.536880 0.000000 0.000000 
#    y 0.000000 1.548180 0.000000 
#    z 0.000000 0.000000 1.454180 
# 
# From -- ./inp_files/15646.got.cif
#   From: 2010.03.12/outbox.cif.g09.slc.cpg/sg47_8_cif.got.tgz:15646.got - 2010.04.14 03:12:58.
