data_PCOD8200398
_publ_section_title
;
Structure prediction by ZEFSAII (Michael W. Deem and Ramdas Pophale) SiO2 
 PCOD8200398
Probable space group: P M M M
;
_chemical_formula_sum "Si O2"
_cell_formula_units_Z 40
_cell_length_a 22.548844
_cell_length_b 10.871967
_cell_length_c 8.948038
_cell_angle_alpha 90.000000
_cell_angle_beta 90.000000
_cell_angle_gamma 90.000000
_cell_volume 2193.614091
_symmetry_space_group_name_H-M "P M M M"
_symmetry_group_IT_number 47
_symmetry_cell_setting 'orthorhombic'
loop_
_space_group_symop_operation_xyz
x,y,z
-x,-y,z
x,-y,-z
-x,y,-z
-x,-y,-z
x,y,-z
-x,y,z
x,-y,z
loop_
_atom_site_type_symbol
_atom_site_label
_atom_site_fract_x
_atom_site_fract_y
_atom_site_fract_z
Si Si1 0.500000 0.140670 0.663391
Si Si2 0.608368 0.743216 0.822364
Si Si3 0.570256 0.500000 0.671045
Si Si4 0.859032 0.141733 0.822971
Si Si5 0.069393 0.638125 0.673650
Si Si6 0.726958 0.864646 0.177212
O O1 0.500000 0.211124 0.500000
O O2 0.441349 0.167831 0.756820
O O3 0.500000 0.000000 0.626282
O O4 0.597826 0.610545 0.759673
O O5 0.674045 0.778737 0.764216
O O6 0.603539 0.746640 0.000000
O O7 0.500000 0.500000 0.685720
O O8 0.590936 0.500000 0.500000
O O9 0.900766 0.247251 0.757073
O O10 0.792316 0.177723 0.770017
O O11 0.874385 0.000000 0.771048
O O12 0.864943 0.147015 0.000000
O O13 0.084124 0.651915 0.500000
O O14 0.090267 0.500000 0.727175
O O15 0.000000 0.650000 0.704415
O O16 0.714185 0.000000 0.241320
O O17 0.726255 0.868340 0.000000
#
# Coordination Sequence:
#
# PCOD8200398 Si02
#       6
#     4   8   4   8   8   8
#     4  11  23  36  51  76 109 137 163 207 268 321
#     4  11  21  35  58  80  99 130 177 221 256 305
#     4  11  23  39  55  71 104 142 167 206 269 326
#     4   9  18  34  56  82 112 143 176 219 270 322
#     4   9  19  36  55  76 108 148 186 225 267 312
#     4   8  16  33  55  79 107 135 165 210 264 309
#
# _framework density 18.234749000000001
#
# number of rings (size 3 to 8) (size 9 to 14) (size 15 to 20)
#    0.000    2.400    1.000    3.600    0.000    3.600 
#    1.800    5.000    0.000    2.400    0.000    0.000 
#    0.000    0.000    0.000    0.000    0.000    0.000 
#
# Total GULP energy -495599.843730 kJ/mol
# GULP energy per Si atom -12389.996093 kJ/mol
# Density = 1.819325 g / cm^3
# Si number density = 18.234749 Si / 1000 Ang^3
#
#
#
# Elastic Constant Matrix: (Units=GPa)
#
#
# Indices 1 2 3 4 5 6 
#
# 1 96.3496 66.8450 39.6368 0.0000 0.0000 0.0000
# 2 66.8450 133.9203 44.8833 0.0000 0.0000 0.0000
# 3 39.6368 44.8833 65.9917 0.0000 0.0000 0.0000
# 4 0.0000 0.0000 0.0000 25.0519 0.0000 0.0000
# 5 0.0000 0.0000 0.0000 0.0000 -8.5505 0.0000
# 6 0.0000 0.0000 0.0000 0.0000 0.0000 49.1933
#
#
#
# Elastic Compliance Matrix: (Units=1/GPa)
#
#
# Indices 1 2 3 4 5 6 
#
# 1 0.017496 -0.006750 -0.005918 0.000000 0.000000 0.000000
# 2 -0.006750 0.012276 -0.004295 0.000000 0.000000 0.000000
# 3 -0.005918 -0.004295 0.021629 0.000000 0.000000 0.000000
# 4 0.000000 0.000000 0.000000 0.039917 0.000000 0.000000
# 5 0.000000 0.000000 0.000000 0.000000 -0.116953 0.000000
# 6 0.000000 0.000000 0.000000 0.000000 0.000000 0.020328
#
#
# Mechanical properties :
#
#
# Convention : Reuss Voigt Hill
#
# Bulk Modulus (GPa) = 57.22302 66.55465 61.88883
# Shear Modulus (GPa) = 145.16263 22.79873 83.98068
#
# Velocity S-wave (km/s) = 8.93199 3.53978 6.79377
# Velocity P-wave (km/s) = 11.73982 7.29964 9.77518
#
# Compressibility (1/GPa) = 0.01747549
#
# Stress axis : x y z
#
# Youngs Moduli (GPa) = 57.15524 81.46244 46.23366
#
# Poissons Ratio (x) = 0.54984 0.27362
# Poissons Ratio (y) = 0.38577 0.19858
# Poissons Ratio (z) = 0.33825 0.34989
#
# Static dielectric constant tensor:
#      x y z
#    x 3.606340 0.000000 0.000000 
#    y 0.000000 3.572260 0.000000 
#    z 0.000000 0.000000 3.215920 
# 
# 
# High freq. dielectric constant tensor:
#      x y z
#    x 1.708070 0.000000 0.000000 
#    y 0.000000 1.716380 0.000000 
#    z 0.000000 0.000000 1.691600 
# 
# From -- ./inp_files/10680.got.cif
#   From: 2010.03.12/outbox.cif.g09.slc.cpg/sg47_6_cif.got.tgz:10680.got - 2010.04.14 03:12:58.
