data_PCOD8200613
_publ_section_title
;
Structure prediction by ZEFSAII (Michael W. Deem and Ramdas Pophale) SiO2 
 PCOD8200613
Probable space group: P M M M
;
_chemical_formula_sum "Si O2"
_cell_formula_units_Z 48
_cell_length_a 30.392416
_cell_length_b 9.399286
_cell_length_c 9.191246
_cell_angle_alpha 90.000000
_cell_angle_beta 90.000000
_cell_angle_gamma 90.000000
_cell_volume 2625.635765
_symmetry_space_group_name_H-M "P M M M"
_symmetry_group_IT_number 47
_symmetry_cell_setting 'orthorhombic'
loop_
_space_group_symop_operation_xyz
x,y,z
-x,-y,z
x,-y,-z
-x,y,-z
-x,-y,-z
x,y,-z
-x,y,z
x,-y,z
loop_
_atom_site_type_symbol
_atom_site_label
_atom_site_fract_x
_atom_site_fract_y
_atom_site_fract_z
Si Si1 0.753564 0.664302 0.671422
Si Si2 0.321053 0.833432 0.168330
Si Si3 0.419611 0.842558 0.172685
Si Si4 0.000000 0.336203 0.328747
Si Si5 0.072393 0.163147 0.832480
Si Si6 0.500000 0.659201 0.826097
Si Si7 0.174051 0.836977 0.832018
O O1 0.753725 0.684032 0.500000
O O2 0.752120 0.500000 0.717471
O O3 0.710967 0.741524 0.733850
O O4 0.797895 0.732493 0.733191
O O5 0.370670 0.792185 0.216542
O O6 0.312350 0.000000 0.194860
O O7 0.312925 0.795564 0.000000
O O8 0.456317 0.736028 0.235590
O O9 0.428953 0.000000 0.235848
O O10 0.422608 0.849306 0.000000
O O11 0.043830 0.264763 0.267502
O O12 0.000000 0.500000 0.281774
O O13 0.000000 0.316799 0.500000
O O14 0.123216 0.197771 0.802781
O O15 0.061949 0.000000 0.792772
O O16 0.060436 0.191753 0.000000
O O17 0.500000 0.500000 0.764655
O O18 0.500000 0.660710 0.000000
O O19 0.184594 0.000000 0.790450
O O20 0.186143 0.810872 0.000000
#
# Coordination Sequence:
#
# PCOD8200613 Si02
#       7
#     8   8   8   4   8   4   8
#     4  11  24  37  49  72 106 139 169 204 250 304
#     4   9  18  33  53  75  97 126 169 215 254 297
#     4   8  14  25  41  62  90 123 157 197 246 294
#     4  11  24  37  50  76 114 149 178 211 252 298
#     4   9  19  37  60  83 105 132 171 217 259 301
#     4   9  15  21  33  59  94 127 158 193 236 290
#     4   9  19  37  60  83 104 129 167 214 259 303
#
# _framework density 18.281286000000001
#
# number of rings (size 3 to 8) (size 9 to 14) (size 15 to 20)
#    0.000    2.667    0.000    3.750    0.000    9.000 
#    0.000    6.667    0.000    0.000    0.000    0.583 
#    0.000    4.667    0.000    0.000    0.000    0.000 
#
# Total GULP energy -595179.676955 kJ/mol
# GULP energy per Si atom -12399.576603 kJ/mol
# Density = 1.823968 g / cm^3
# Si number density = 18.281286 Si / 1000 Ang^3
#
#
#
# Elastic Constant Matrix: (Units=GPa)
#
#
# Indices 1 2 3 4 5 6 
#
# 1 138.4813 88.7248 49.6635 0.0000 0.0000 0.0000
# 2 88.7248 130.3101 56.6233 0.0000 0.0000 0.0000
# 3 49.6635 56.6233 55.8624 0.0000 0.0000 0.0000
# 4 0.0000 0.0000 0.0000 26.7707 0.0000 0.0000
# 5 0.0000 0.0000 0.0000 0.0000 -4.2591 0.0000
# 6 0.0000 0.0000 0.0000 0.0000 0.0000 4.9078
#
#
#
# Elastic Compliance Matrix: (Units=1/GPa)
#
#
# Indices 1 2 3 4 5 6 
#
# 1 0.013491 -0.007102 -0.004795 0.000000 0.000000 0.000000
# 2 -0.007102 0.017453 -0.011377 0.000000 0.000000 0.000000
# 3 -0.004795 -0.011377 0.033696 0.000000 0.000000 0.000000
# 4 0.000000 0.000000 0.000000 0.037354 0.000000 0.000000
# 5 0.000000 0.000000 0.000000 0.000000 -0.234794 0.000000
# 6 0.000000 0.000000 0.000000 0.000000 0.000000 0.203755
#
#
# Mechanical properties :
#
#
# Convention : Reuss Voigt Hill
#
# Bulk Modulus (GPa) = 55.27318 79.40854 67.34086
# Shear Modulus (GPa) = 40.47405 14.12671 27.30038
#
# Velocity S-wave (km/s) = 4.71038 2.78284 3.86858
# Velocity P-wave (km/s) = 7.73848 7.33873 7.54125
#
# Compressibility (1/GPa) = 0.01809196
#
# Stress axis : x y z
#
# Youngs Moduli (GPa) = 74.12193 57.29576 29.67699
#
# Poissons Ratio (x) = 0.40693 0.14231
# Poissons Ratio (y) = 0.52643 0.33763
# Poissons Ratio (z) = 0.35543 0.65185
#
# Static dielectric constant tensor:
#      x y z
#    x 3.532400 0.000000 0.000000 
#    y 0.000000 3.464020 0.000000 
#    z 0.000000 0.000000 3.025290 
# 
# 
# High freq. dielectric constant tensor:
#      x y z
#    x 1.726660 0.000000 0.000000 
#    y 0.000000 1.708380 0.000000 
#    z 0.000000 0.000000 1.673710 
# 
# From -- ./inp_files/2742.got.cif
#   From: 2010.03.12/outbox.cif.g09.slc.cpg/sg47_2_cif.got.tgz:2742.got - 2010.04.14 03:12:58.
