data_PCOD8200855
_publ_section_title
;
Structure prediction by ZEFSAII (Michael W. Deem and Ramdas Pophale) SiO2 
 PCOD8200855
Probable space group: P M M M
;
_chemical_formula_sum "Si O2"
_cell_formula_units_Z 56
_cell_length_a 29.392693
_cell_length_b 9.788492
_cell_length_c 13.617180
_cell_angle_alpha 90.000000
_cell_angle_beta 90.000000
_cell_angle_gamma 90.000000
_cell_volume 3917.800768
_symmetry_space_group_name_H-M "P M M M"
_symmetry_group_IT_number 47
_symmetry_cell_setting 'orthorhombic'
loop_
_space_group_symop_operation_xyz
x,y,z
-x,-y,z
x,-y,-z
-x,y,-z
-x,-y,-z
x,y,-z
-x,y,z
x,-y,z
loop_
_atom_site_type_symbol
_atom_site_label
_atom_site_fract_x
_atom_site_fract_y
_atom_site_fract_z
Si Si1 0.447989 0.158133 0.797059
Si Si2 0.680906 0.340572 0.703053
Si Si3 0.374593 0.343524 0.110393
Si Si4 0.871780 0.347603 0.617096
Si Si5 0.607980 0.844923 0.610067
Si Si6 0.772493 0.338141 0.609163
Si Si7 0.949540 0.847031 0.616783
O O1 0.500000 0.203929 0.808527
O O2 0.417969 0.248304 0.870401
O O3 0.433231 0.185404 0.684624
O O4 0.441474 0.000000 0.825807
O O5 0.674831 0.500000 0.677826
O O6 0.666785 0.308139 0.815499
O O7 0.649527 0.256763 0.628834
O O8 0.733000 0.293342 0.685162
O O9 0.390255 0.500000 0.125131
O O10 0.356780 0.317865 0.000000
O O11 0.874440 0.351540 0.500000
O O12 0.879106 0.500000 0.659547
O O13 0.822011 0.287163 0.647249
O O14 0.911297 0.252314 0.662389
O O15 0.589426 0.821375 0.500000
O O16 0.625669 0.000000 0.624092
O O17 0.761683 0.279330 0.500000
O O18 0.775657 0.500000 0.601648
O O19 0.946486 0.845551 0.500000
O O20 0.000000 0.798006 0.649646
O O21 0.940446 0.000000 0.655764
#
# Coordination Sequence:
#
# PCOD8200855 Si02
#       7
#     8   8   8   8   8   8   8
#     4   9  18  31  45  61  79  99 124 149 174 212
#     4   9  16  27  43  58  73  97 126 151 178 217
#     4   9  18  31  45  61  79  97 119 150 186 219
#     4   8  13  20  29  42  60  81 108 143 177 205
#     4   9  17  28  41  58  80 101 120 147 180 210
#     4   8  13  21  34  52  71  90 115 147 178 208
#     4   8  13  20  28  38  55  81 113 147 178 205
#
# _framework density 14.293733
#
# number of rings (size 3 to 8) (size 9 to 14) (size 15 to 20)
#    0.000    3.429    0.000    1.714    0.000    2.286 
#    0.000    5.000    0.000    2.571    0.000    4.000 
#    0.000    0.000    0.000    0.000    0.000    0.714 
#
# Total GULP energy -693984.273367 kJ/mol
# GULP energy per Si atom -12392.576310 kJ/mol
# Density = 1.426120 g / cm^3
# Si number density = 14.293733 Si / 1000 Ang^3
#
#
#
# Elastic Constant Matrix: (Units=GPa)
#
#
# Indices 1 2 3 4 5 6 
#
# 1 130.2972 47.7797 34.5277 0.0000 0.0000 0.0000
# 2 47.7797 47.8760 21.6172 0.0000 0.0000 0.0000
# 3 34.5277 21.6172 57.6755 0.0000 0.0000 0.0000
# 4 0.0000 0.0000 0.0000 12.8499 0.0000 0.0000
# 5 0.0000 0.0000 0.0000 0.0000 9.4724 0.0000
# 6 0.0000 0.0000 0.0000 0.0000 0.0000 17.3634
#
#
#
# Elastic Compliance Matrix: (Units=1/GPa)
#
#
# Indices 1 2 3 4 5 6 
#
# 1 0.012640 -0.011072 -0.003417 0.000000 0.000000 0.000000
# 2 -0.011072 0.034840 -0.006430 0.000000 0.000000 0.000000
# 3 -0.003417 -0.006430 0.021794 0.000000 0.000000 0.000000
# 4 0.000000 0.000000 0.000000 0.077821 0.000000 0.000000
# 5 0.000000 0.000000 0.000000 0.000000 0.105569 0.000000
# 6 0.000000 0.000000 0.000000 0.000000 0.000000 0.057593
#
#
# Mechanical properties :
#
#
# Convention : Reuss Voigt Hill
#
# Bulk Modulus (GPa) = 36.44834 49.29976 42.87405
# Shear Modulus (GPa) = 13.84111 16.73209 15.28660
#
# Velocity S-wave (km/s) = 3.11518 3.42510 3.27381
# Velocity P-wave (km/s) = 6.20436 7.08570 6.65962
#
# Compressibility (1/GPa) = 0.02743609
#
# Stress axis : x y z
#
# Youngs Moduli (GPa) = 79.11132 28.70235 45.88366
#
# Poissons Ratio (x) = 0.31779 0.15680
# Poissons Ratio (y) = 0.87592 0.29504
# Poissons Ratio (z) = 0.27035 0.18456
#
# Static dielectric constant tensor:
#      x y z
#    x 3.027490 0.000000 0.000000 
#    y 0.000000 2.842990 0.000000 
#    z 0.000000 0.000000 2.519990 
# 
# 
# High freq. dielectric constant tensor:
#      x y z
#    x 1.544240 0.000000 0.000000 
#    y 0.000000 1.539440 0.000000 
#    z 0.000000 0.000000 1.499210 
# 
# From -- ./inp_files/8119.got.cif
#   From: 2010.03.12/outbox.cif.g09.slc.cpg/sg47_5_cif.got.tgz:8119.got - 2010.04.14 03:12:58.
