data_PCOD8200413
_publ_section_title
;
Structure prediction by ZEFSAII (Michael W. Deem and Ramdas Pophale) SiO2 
 PCOD8200413
Probable space group: P M M M
;
_chemical_formula_sum "Si O2"
_cell_formula_units_Z 40
_cell_length_a 10.778566
_cell_length_b 7.750821
_cell_length_c 23.844214
_cell_angle_alpha 90.000000
_cell_angle_beta 90.000000
_cell_angle_gamma 90.000000
_cell_volume 1992.010868
_symmetry_space_group_name_H-M "P M M M"
_symmetry_group_IT_number 47
_symmetry_cell_setting 'orthorhombic'
loop_
_space_group_symop_operation_xyz
x,y,z
-x,-y,z
x,-y,-z
-x,y,-z
-x,-y,-z
x,y,-z
-x,y,z
x,-y,z
loop_
_atom_site_type_symbol
_atom_site_label
_atom_site_fract_x
_atom_site_fract_y
_atom_site_fract_z
Si Si1 0.245429 0.196282 0.122760
Si Si2 0.361704 0.294970 0.436553
Si Si3 0.639329 0.500000 0.938997
Si Si4 0.140705 0.297106 0.233661
Si Si5 0.000000 0.204036 0.937800
Si Si6 0.860551 0.294661 0.640201
O O1 0.344531 0.328050 0.098352
O O2 0.233648 0.204375 0.190317
O O3 0.118781 0.268103 0.095925
O O4 0.278316 0.000000 0.104995
O O5 0.340421 0.230429 0.500000
O O6 0.500000 0.234293 0.416068
O O7 0.356628 0.500000 0.434095
O O8 0.248844 0.217311 0.399209
O O9 0.500000 0.500000 0.956847
O O10 0.711755 0.500000 0.000000
O O11 0.159871 0.500000 0.228616
O O12 0.170988 0.234124 0.296650
O O13 0.000000 0.244462 0.218757
O O14 0.000000 0.000000 0.941268
O O15 0.000000 0.284966 0.000000
O O16 0.861245 0.500000 0.637191
O O17 0.000000 0.229319 0.622898
#
# Coordination Sequence:
#
# PCOD8200413 Si02
#       6
#     8   8   4   8   4   8
#     4  11  21  36  60  86 112 143 179 224 277 333
#     4   8  13  21  33  52  83 123 166 218 278 328
#     4  11  26  45  61  79 107 148 194 231 270 323
#     4   9  16  29  49  74 107 142 173 212 270 335
#     4   9  18  31  51  85 116 133 162 212 272 334
#     4   8  14  23  37  58  87 129 175 214 261 326
#
# _framework density 20.080210999999998
#
# number of rings (size 3 to 8) (size 9 to 14) (size 15 to 20)
#    0.000    2.800    2.000    2.400    0.000    2.400 
#    0.000    5.000    0.000    0.000    0.000    0.000 
#    0.000    0.800    0.000    6.600    0.000    8.000 
#
# Total GULP energy -495597.200409 kJ/mol
# GULP energy per Si atom -12389.930010 kJ/mol
# Density = 2.003451 g / cm^3
# Si number density = 20.080211 Si / 1000 Ang^3
#
#
#
# Elastic Constant Matrix: (Units=GPa)
#
#
# Indices 1 2 3 4 5 6 
#
# 1 112.5958 19.8527 74.0831 0.0000 0.0000 0.0000
# 2 19.8527 62.6733 20.4694 0.0000 0.0000 0.0000
# 3 74.0831 20.4694 138.6294 0.0000 0.0000 0.0000
# 4 0.0000 0.0000 0.0000 5.8353 0.0000 0.0000
# 5 0.0000 0.0000 0.0000 0.0000 15.5233 0.0000
# 6 0.0000 0.0000 0.0000 0.0000 0.0000 3.5742
#
#
#
# Elastic Compliance Matrix: (Units=1/GPa)
#
#
# Indices 1 2 3 4 5 6 
#
# 1 0.013952 -0.002085 -0.007148 0.000000 0.000000 0.000000
# 2 -0.002085 0.017076 -0.001407 0.000000 0.000000 0.000000
# 3 -0.007148 -0.001407 0.011241 0.000000 0.000000 0.000000
# 4 0.000000 0.000000 0.000000 0.171370 0.000000 0.000000
# 5 0.000000 0.000000 0.000000 0.000000 0.064419 0.000000
# 6 0.000000 0.000000 0.000000 0.000000 0.000000 0.279782
#
#
# Mechanical properties :
#
#
# Convention : Reuss Voigt Hill
#
# Bulk Modulus (GPa) = 47.64478 60.30101 53.97289
# Shear Modulus (GPa) = 8.53071 18.28611 13.40841
#
# Velocity S-wave (km/s) = 2.06338 3.02098 2.58687
# Velocity P-wave (km/s) = 5.42729 6.50105 5.98829
#
# Compressibility (1/GPa) = 0.02098866
#
# Stress axis : x y z
#
# Youngs Moduli (GPa) = 71.67395 58.56252 88.95865
#
# Poissons Ratio (x) = 0.12210 0.63589
# Poissons Ratio (y) = 0.14943 0.12518
# Poissons Ratio (z) = 0.51233 0.08241
#
# Static dielectric constant tensor:
#      x y z
#    x 3.717770 0.000000 0.000000 
#    y 0.000000 3.125840 0.000000 
#    z 0.000000 0.000000 3.880740 
# 
# 
# High freq. dielectric constant tensor:
#      x y z
#    x 1.759940 0.000000 0.000000 
#    y 0.000000 1.751080 0.000000 
#    z 0.000000 0.000000 1.788840 
# 
# From -- ./inp_files/30352.got.cif
#   From: 2010.03.12/outbox.cif.g09.slc.cpg/sg47_16_cif.got.tgz:30352.got - 2010.04.14 03:12:58.
