data_PCOD8200415
_publ_section_title
;
Structure prediction by ZEFSAII (Michael W. Deem and Ramdas Pophale) SiO2 
 PCOD8200415
Probable space group: P M M M
;
_chemical_formula_sum "Si O2"
_cell_formula_units_Z 52
_cell_length_a 13.806435
_cell_length_b 8.701786
_cell_length_c 21.974820
_cell_angle_alpha 90.000000
_cell_angle_beta 90.000000
_cell_angle_gamma 90.000000
_cell_volume 2640.069000
_symmetry_space_group_name_H-M "P M M M"
_symmetry_group_IT_number 47
_symmetry_cell_setting 'orthorhombic'
loop_
_space_group_symop_operation_xyz
x,y,z
-x,-y,z
x,-y,-z
-x,y,-z
-x,-y,-z
x,y,-z
-x,y,z
x,-y,z
loop_
_atom_site_type_symbol
_atom_site_label
_atom_site_fract_x
_atom_site_fract_y
_atom_site_fract_z
Si Si1 0.610968 0.818911 0.739643
Si Si2 0.890203 0.818639 0.068418
Si Si3 0.387603 0.168638 0.933675
Si Si4 0.695213 0.318502 0.380479
Si Si5 0.106394 0.317830 0.568250
Si Si6 0.734389 0.324704 0.844278
Si Si7 0.386360 0.826850 0.500000
O O1 0.500000 0.761275 0.754143
O O2 0.640223 0.772052 0.672071
O O3 0.695105 0.751457 0.782718
O O4 0.612979 0.000000 0.746105
O O5 0.827448 0.751408 0.123912
O O6 0.000000 0.768223 0.081563
O O7 0.878901 0.000000 0.070292
O O8 0.860702 0.760508 0.000000
O O9 0.500000 0.185254 0.941043
O O10 0.352273 0.307431 0.892381
O O11 0.361077 0.000000 0.905507
O O12 0.338340 0.180892 0.000000
O O13 0.685348 0.500000 0.368962
O O14 0.808741 0.266335 0.385321
O O15 0.644627 0.272573 0.442546
O O16 0.126712 0.252956 0.500000
O O17 0.106566 0.500000 0.564332
O O18 0.000000 0.260088 0.591047
O O19 0.758321 0.500000 0.830081
O O20 0.500000 0.842892 0.500000
O O21 0.341136 0.000000 0.500000
#
# Coordination Sequence:
#
# PCOD8200415 Si02
#       7
#     8   8   8   8   8   8   4
#     4  11  25  44  62  79 108 155 203 244 293 356
#     4   9  19  38  64  91 119 155 198 241 288 346
#     4   9  18  33  53  77 107 145 187 229 276 335
#     4  11  21  36  60  89 115 145 189 244 300 348
#     4   8  14  28  53  85 118 148 177 213 267 336
#     4  12  24  36  55  84 115 149 189 238 293 345
#     4  11  23  37  54  79 114 154 191 231 288 359
#
# _framework density 19.696453999999999
#
# number of rings (size 3 to 8) (size 9 to 14) (size 15 to 20)
#    0.000    1.923    0.769    5.308    0.000    8.615 
#    0.000    2.308    0.000    5.077    0.000    0.000 
#    0.000    0.000    0.000    0.000    0.000    0.000 
#
# Total GULP energy -644271.945161 kJ/mol
# GULP energy per Si atom -12389.845099 kJ/mol
# Density = 1.965162 g / cm^3
# Si number density = 19.696454 Si / 1000 Ang^3
#
#
#
# Elastic Constant Matrix: (Units=GPa)
#
#
# Indices 1 2 3 4 5 6 
#
# 1 114.2165 25.5079 51.6154 0.0000 0.0000 0.0000
# 2 25.5079 52.1187 25.9232 0.0000 0.0000 0.0000
# 3 51.6154 25.9232 110.2462 0.0000 0.0000 0.0000
# 4 0.0000 0.0000 0.0000 44.0793 0.0000 0.0000
# 5 0.0000 0.0000 0.0000 0.0000 36.7743 0.0000
# 6 0.0000 0.0000 0.0000 0.0000 0.0000 22.1800
#
#
#
# Elastic Compliance Matrix: (Units=1/GPa)
#
#
# Indices 1 2 3 4 5 6 
#
# 1 0.011605 -0.003372 -0.004641 0.000000 0.000000 0.000000
# 2 -0.003372 0.022708 -0.003761 0.000000 0.000000 0.000000
# 3 -0.004641 -0.003761 0.012128 0.000000 0.000000 0.000000
# 4 0.000000 0.000000 0.000000 0.022686 0.000000 0.000000
# 5 0.000000 0.000000 0.000000 0.000000 0.027193 0.000000
# 6 0.000000 0.000000 0.000000 0.000000 0.000000 0.045086
#
#
# Mechanical properties :
#
#
# Convention : Reuss Voigt Hill
#
# Bulk Modulus (GPa) = 43.67900 53.63049 48.65474
# Shear Modulus (GPa) = 28.97141 32.17570 30.57355
#
# Velocity S-wave (km/s) = 3.83939 4.04614 3.94412
# Velocity P-wave (km/s) = 6.47138 7.00828 6.74517
#
# Compressibility (1/GPa) = 0.02289430
#
# Stress axis : x y z
#
# Youngs Moduli (GPa) = 86.16633 44.03770 82.45642
#
# Poissons Ratio (x) = 0.14848 0.38265
# Poissons Ratio (y) = 0.29053 0.31011
# Poissons Ratio (z) = 0.39987 0.16562
#
# Static dielectric constant tensor:
#      x y z
#    x 4.024000 0.000000 0.000000 
#    y 0.000000 3.479920 0.000000 
#    z 0.000000 0.000000 3.630080 
# 
# 
# High freq. dielectric constant tensor:
#      x y z
#    x 1.781650 0.000000 0.000000 
#    y 0.000000 1.746830 0.000000 
#    z 0.000000 0.000000 1.757600 
# 
# From -- ./inp_files/30842.got.cif
#   From: 2010.03.12/outbox.cif.g09.slc.cpg/sg47_16_cif.got.tgz:30842.got - 2010.04.14 03:12:58.
