data_PCOD8200806
_publ_section_title
;
Structure prediction by ZEFSAII (Michael W. Deem and Ramdas Pophale) SiO2 
 PCOD8200806
Probable space group: P M M M
;
_chemical_formula_sum "Si O2"
_cell_formula_units_Z 52
_cell_length_a 9.075909
_cell_length_b 33.609974
_cell_length_c 10.029546
_cell_angle_alpha 90.000000
_cell_angle_beta 90.000000
_cell_angle_gamma 90.000000
_cell_volume 3059.423398
_symmetry_space_group_name_H-M "P M M M"
_symmetry_group_IT_number 47
_symmetry_cell_setting 'orthorhombic'
loop_
_space_group_symop_operation_xyz
x,y,z
-x,-y,z
x,-y,-z
-x,y,-z
-x,-y,-z
x,y,-z
-x,y,z
x,-y,z
loop_
_atom_site_type_symbol
_atom_site_label
_atom_site_fract_x
_atom_site_fract_y
_atom_site_fract_z
Si Si1 0.665911 0.844799 0.158492
Si Si2 0.824949 0.697757 0.649213
Si Si3 0.175380 0.455715 0.149240
Si Si4 0.173721 0.765265 0.153331
Si Si5 0.166517 0.922133 0.840930
Si Si6 0.333517 0.000000 0.841078
Si Si7 0.175363 0.390822 0.649206
O O1 0.500000 0.844807 0.215068
O O2 0.748556 0.805111 0.206104
O O3 0.751413 0.883133 0.215654
O O4 0.664911 0.846722 0.000000
O O5 0.769994 0.708944 0.500000
O O6 0.764038 0.729144 0.756897
O O7 0.768819 0.653482 0.687884
O O8 0.000000 0.698125 0.652022
O O9 0.228205 0.500000 0.191350
O O10 0.244306 0.423148 0.249583
O O11 0.000000 0.454012 0.153506
O O12 0.230739 0.445886 0.000000
O O13 0.000000 0.771301 0.170321
O O14 0.214626 0.756010 0.000000
O O15 0.000000 0.922507 0.786341
O O16 0.250318 0.961032 0.786500
O O17 0.166909 0.921854 0.000000
O O18 0.500000 0.000000 0.786168
O O19 0.333601 0.000000 0.000000
O O20 0.228139 0.401583 0.500000
O O21 0.000000 0.391924 0.656194
#
# Coordination Sequence:
#
# PCOD8200806 Si02
#       7
#     8   8   8   8   8   4   8
#     4   9  16  25  36  50  70  96 124 156 197 241
#     4   8  14  24  36  50  69  92 118 152 196 240
#     4   8  13  19  25  35  54  81 113 149 188 227
#     4   9  16  25  38  56  74  93 123 160 193 230
#     4   9  15  22  32  46  66  94 129 167 203 239
#     4   9  15  21  29  43  65  95 132 169 204 245
#     4   8  13  20  29  41  57  79 110 147 185 226
#
# _framework density 16.996666999999999
#
# number of rings (size 3 to 8) (size 9 to 14) (size 15 to 20)
#    0.000    3.462    0.000    2.538    0.000    5.538 
#    0.000    4.615    0.000    0.462    0.000    0.000 
#    0.000    0.000    0.000    0.692    0.000   15.846 
#
# Total GULP energy -644462.495557 kJ/mol
# GULP energy per Si atom -12393.509530 kJ/mol
# Density = 1.695798 g / cm^3
# Si number density = 16.996667 Si / 1000 Ang^3
#
#
#
# Elastic Constant Matrix: (Units=GPa)
#
#
# Indices 1 2 3 4 5 6 
#
# 1 61.5077 48.1112 21.9130 0.0000 0.0000 0.0000
# 2 48.1112 186.7919 78.0734 0.0000 0.0000 0.0000
# 3 21.9130 78.0734 63.1593 0.0000 0.0000 0.0000
# 4 0.0000 0.0000 0.0000 6.6991 0.0000 0.0000
# 5 0.0000 0.0000 0.0000 0.0000 2.9818 0.0000
# 6 0.0000 0.0000 0.0000 0.0000 0.0000 3.1525
#
#
#
# Elastic Compliance Matrix: (Units=1/GPa)
#
#
# Indices 1 2 3 4 5 6 
#
# 1 0.020404 -0.004751 -0.001206 0.000000 0.000000 0.000000
# 2 -0.004751 0.012183 -0.013411 0.000000 0.000000 0.000000
# 3 -0.001206 -0.013411 0.032829 0.000000 0.000000 0.000000
# 4 0.000000 0.000000 0.000000 0.149274 0.000000 0.000000
# 5 0.000000 0.000000 0.000000 0.000000 0.335369 0.000000
# 6 0.000000 0.000000 0.000000 0.000000 0.000000 0.317204
#
#
# Mechanical properties :
#
#
# Convention : Reuss Voigt Hill
#
# Bulk Modulus (GPa) = 37.48171 67.51711 52.49941
# Shear Modulus (GPa) = 5.46512 13.45745 9.46129
#
# Velocity S-wave (km/s) = 1.79510 2.81689 2.36191
# Velocity P-wave (km/s) = 5.13778 7.09858 6.19623
#
# Compressibility (1/GPa) = 0.02667968
#
# Stress axis : x y z
#
# Youngs Moduli (GPa) = 49.00934 82.08316 30.46073
#
# Poissons Ratio (x) = 0.39002 0.03673
# Poissons Ratio (y) = 0.23287 0.40851
# Poissons Ratio (z) = 0.05909 1.10082
#
# Static dielectric constant tensor:
#      x y z
#    x 2.813870 0.000000 0.000000 
#    y 0.000000 3.549820 0.000000 
#    z 0.000000 0.000000 2.932840 
# 
# 
# High freq. dielectric constant tensor:
#      x y z
#    x 1.611600 0.000000 0.000000 
#    y 0.000000 1.672690 0.000000 
#    z 0.000000 0.000000 1.605580 
# 
# From -- ./inp_files/15470.got.cif
#   From: 2010.03.12/outbox.cif.g09.slc.cpg/sg47_8_cif.got.tgz:15470.got - 2010.04.14 03:12:58.
