data_PCOD8200354
_publ_section_title
;
Structure prediction by ZEFSAII (Michael W. Deem and Ramdas Pophale) SiO2 
 PCOD8200354
Probable space group: P M M M
;
_chemical_formula_sum "Si O2"
_cell_formula_units_Z 52
_cell_length_a 21.957087
_cell_length_b 8.886179
_cell_length_c 14.292612
_cell_angle_alpha 90.000000
_cell_angle_beta 90.000000
_cell_angle_gamma 90.000000
_cell_volume 2788.697351
_symmetry_space_group_name_H-M "P M M M"
_symmetry_group_IT_number 47
_symmetry_cell_setting 'orthorhombic'
loop_
_space_group_symop_operation_xyz
x,y,z
-x,-y,z
x,-y,-z
-x,y,-z
-x,-y,-z
x,y,-z
-x,y,z
x,-y,z
loop_
_atom_site_type_symbol
_atom_site_label
_atom_site_fract_x
_atom_site_fract_y
_atom_site_fract_z
Si Si1 0.890419 0.675791 0.282720
Si Si2 0.000000 0.822718 0.392758
Si Si3 0.432548 0.679082 0.223160
Si Si4 0.754938 0.321304 0.721847
Si Si5 0.072019 0.830949 0.895667
Si Si6 0.680003 0.320726 0.895584
Si Si7 0.642955 0.320918 0.396384
O O1 0.898291 0.500000 0.302205
O O2 0.938961 0.762424 0.345295
O O3 0.822367 0.735089 0.305863
O O4 0.899929 0.708274 0.173279
O O5 0.000000 0.770898 0.500000
O O6 0.000000 0.000000 0.381284
O O7 0.500000 0.745774 0.204253
O O8 0.434530 0.500000 0.222916
O O9 0.385832 0.734962 0.143138
O O10 0.409631 0.734561 0.325496
O O11 0.755193 0.500000 0.726667
O O12 0.732640 0.262494 0.824416
O O13 0.708416 0.264439 0.642248
O O14 0.000000 0.820540 0.890020
O O15 0.092648 0.000000 0.867822
O O16 0.094748 0.791721 0.000000
O O17 0.680265 0.500000 0.898982
O O18 0.690599 0.254259 0.000000
O O19 0.631880 0.252854 0.500000
O O20 0.643245 0.500000 0.400898
#
# Coordination Sequence:
#
# PCOD8200354 Si02
#       7
#     8   4   8   8   8   8   8
#     4  11  21  33  53  79 101 121 154 205 252 286
#     4  11  25  43  58  71  94 129 161 190 236 301
#     4   8  13  19  27  44  68  95 139 193 229 258
#     4   8  16  27  38  58  85 109 138 181 233 282
#     4   9  18  33  52  72  98 132 160 183 224 287
#     4   8  13  22  34  47  72 111 145 175 218 269
#     4   8  13  22  34  46  67 103 140 176 227 283
#
# _framework density 18.646698000000001
#
# number of rings (size 3 to 8) (size 9 to 14) (size 15 to 20)
#    0.000    3.154    0.769    3.000    0.000    2.769 
#    0.000    6.923    0.000    0.000    0.000    0.000 
#    0.000    0.000    0.000    0.000    0.000   49.231 
#
# Total GULP energy -644347.485756 kJ/mol
# GULP energy per Si atom -12391.297803 kJ/mol
# Density = 1.860426 g / cm^3
# Si number density = 18.646698 Si / 1000 Ang^3
#
#
#
# Elastic Constant Matrix: (Units=GPa)
#
#
# Indices 1 2 3 4 5 6 
#
# 1 125.7468 14.1374 38.9199 0.0000 0.0000 0.0000
# 2 14.1374 16.6158 11.2677 0.0000 0.0000 0.0000
# 3 38.9199 11.2677 110.3911 0.0000 0.0000 0.0000
# 4 0.0000 0.0000 0.0000 12.4626 0.0000 0.0000
# 5 0.0000 0.0000 0.0000 0.0000 14.6457 0.0000
# 6 0.0000 0.0000 0.0000 0.0000 0.0000 -0.9407
#
#
#
# Elastic Compliance Matrix: (Units=1/GPa)
#
#
# Indices 1 2 3 4 5 6 
#
# 1 0.009493 -0.006239 -0.002710 0.000000 0.000000 0.000000
# 2 -0.006239 0.068760 -0.004819 0.000000 0.000000 0.000000
# 3 -0.002710 -0.004819 0.010506 0.000000 0.000000 0.000000
# 4 0.000000 0.000000 0.000000 0.080240 0.000000 0.000000
# 5 0.000000 0.000000 0.000000 0.000000 0.068279 0.000000
# 6 0.000000 0.000000 0.000000 0.000000 0.000000 -1.063024
#
#
# Mechanical properties :
#
#
# Convention : Reuss Voigt Hill
#
# Bulk Modulus (GPa) = 16.33371 42.37818 29.35594
# Shear Modulus (GPa) = -6.42836 17.79544 5.68354
#
# Velocity S-wave (km/s) = -1.85875 3.09260 1.74775
# Velocity P-wave (km/s) = 2.04255 5.96058 4.45536
#
# Compressibility (1/GPa) = 0.06122308
#
# Stress axis : x y z
#
# Youngs Moduli (GPa) = 105.34430 14.54338 95.18387
#
# Poissons Ratio (x) = 0.09074 0.25794
# Poissons Ratio (y) = 0.65725 0.45866
# Poissons Ratio (z) = 0.28548 0.07008
#
# Static dielectric constant tensor:
#      x y z
#    x 3.735310 0.000000 0.000000 
#    y 0.000000 2.793930 0.000000 
#    z 0.000000 0.000000 3.829730 
# 
# 
# High freq. dielectric constant tensor:
#      x y z
#    x 1.726870 0.000000 0.000000 
#    y 0.000000 1.653550 0.000000 
#    z 0.000000 0.000000 1.730260 
# 
# From -- ./inp_files/25004.got.cif
#   From: 2010.03.12/outbox.cif.g09.slc.cpg/sg47_13_cif.got.tgz:25004.got - 2010.04.14 03:12:58.
