data_PCOD8200038
_publ_section_title
;
Structure prediction by ZEFSAII (Michael W. Deem and Ramdas Pophale) SiO2 
 PCOD8200038
Probable space group: P M M M
;
_chemical_formula_sum "Si O2"
_cell_formula_units_Z 48
_cell_length_a 8.760028
_cell_length_b 13.576280
_cell_length_c 19.114334
_cell_angle_alpha 90.000000
_cell_angle_beta 90.000000
_cell_angle_gamma 90.000000
_cell_volume 2273.240848
_symmetry_space_group_name_H-M "P M M M"
_symmetry_group_IT_number 47
_symmetry_cell_setting 'orthorhombic'
loop_
_space_group_symop_operation_xyz
x,y,z
-x,-y,z
x,-y,-z
-x,y,-z
-x,-y,-z
x,y,-z
-x,y,z
x,-y,z
loop_
_atom_site_type_symbol
_atom_site_label
_atom_site_fract_x
_atom_site_fract_y
_atom_site_fract_z
Si Si1 0.830538 0.000000 0.138658
Si Si2 0.818352 0.115137 0.500000
Si Si3 0.163619 0.391050 0.000000
Si Si4 0.821579 0.610953 0.290007
Si Si5 0.322794 0.000000 0.282054
Si Si6 0.682198 0.194738 0.640244
Si Si7 0.329325 0.643227 0.854815
Si Si8 0.666588 0.833510 0.923387
O O1 0.803881 0.907828 0.088577
O O2 0.708720 0.000000 0.200308
O O3 0.000000 0.000000 0.169740
O O4 0.752095 0.176168 0.564544
O O5 0.000000 0.120418 0.500000
O O6 0.764095 0.000000 0.500000
O O7 0.262033 0.381354 0.929779
O O8 0.105104 0.500000 0.000000
O O9 0.000000 0.329722 0.000000
O O10 0.786255 0.500000 0.320280
O O11 0.734592 0.698354 0.330724
O O12 0.774793 0.608138 0.208691
O O13 0.000000 0.633705 0.295335
O O14 0.255396 0.898261 0.314143
O O15 0.500000 0.000000 0.297432
O O16 0.500000 0.196865 0.636939
O O17 0.500000 0.598775 0.846074
O O18 0.337066 0.761558 0.856729
O O19 0.500000 0.885675 0.927202
O O20 0.698588 0.781508 0.000000
#
# Coordination Sequence:
#
# PCOD8200038 Si02
#       8
#     4   4   4   8   4   8   8   8
#     4  12  25  35  51  82 114 151 201 253 308 377
#     4  11  23  41  70 107 146 181 211 253 315 384
#     4  11  23  37  55  82 115 150 191 249 322 383
#     4  11  25  44  64  92 133 177 220 269 329 391
#     4  10  22  40  62  92 129 168 206 257 320 377
#     4  11  23  42  70 102 136 174 220 268 314 375
#     4  11  22  39  62  87 113 152 210 267 319 381
#     4  10  21  39  57  75 106 150 197 253 321 386
#
# _framework density 21.115227000000001
#
# number of rings (size 3 to 8) (size 9 to 14) (size 15 to 20)
#    0.000    1.167    1.667    4.500    0.000   12.333 
#    0.000    0.417    0.000    2.500    0.000    0.000 
#    0.000    0.000    0.000    0.000    0.000    0.000 
#
# Total GULP energy -594635.998535 kJ/mol
# GULP energy per Si atom -12388.249969 kJ/mol
# Density = 2.106717 g / cm^3
# Si number density = 21.115227 Si / 1000 Ang^3
#
#
#
# Elastic Constant Matrix: (Units=GPa)
#
#
# Indices 1 2 3 4 5 6 
#
# 1 96.0734 43.8635 28.2928 0.0000 0.0000 0.0000
# 2 43.8635 141.0987 50.2592 0.0000 0.0000 0.0000
# 3 28.2928 50.2592 109.8698 0.0000 0.0000 0.0000
# 4 0.0000 0.0000 0.0000 89.9811 0.0000 0.0000
# 5 0.0000 0.0000 0.0000 0.0000 34.3573 0.0000
# 6 0.0000 0.0000 0.0000 0.0000 0.0000 28.2184
#
#
#
# Elastic Compliance Matrix: (Units=1/GPa)
#
#
# Indices 1 2 3 4 5 6 
#
# 1 0.012393 -0.003244 -0.001707 0.000000 0.000000 0.000000
# 2 -0.003244 0.009316 -0.003426 0.000000 0.000000 0.000000
# 3 -0.001707 -0.003426 0.011109 0.000000 0.000000 0.000000
# 4 0.000000 0.000000 0.000000 0.011113 0.000000 0.000000
# 5 0.000000 0.000000 0.000000 0.000000 0.029106 0.000000
# 6 0.000000 0.000000 0.000000 0.000000 0.000000 0.035438
#
#
# Mechanical properties :
#
#
# Convention : Reuss Voigt Hill
#
# Bulk Modulus (GPa) = 62.25860 65.76366 64.01113
# Shear Modulus (GPa) = 38.28946 45.48646 41.88796
#
# Velocity S-wave (km/s) = 4.26297 4.64637 4.45880
# Velocity P-wave (km/s) = 7.33347 7.74582 7.54247
#
# Compressibility (1/GPa) = 0.01606204
#
# Stress axis : x y z
#
# Youngs Moduli (GPa) = 80.69241 107.33942 90.02061
#
# Poissons Ratio (x) = 0.34826 0.15368
# Poissons Ratio (y) = 0.26180 0.30843
# Poissons Ratio (z) = 0.13775 0.36776
#
# Static dielectric constant tensor:
#      x y z
#    x 3.810670 0.000000 0.000000 
#    y 0.000000 4.238010 0.000000 
#    z 0.000000 0.000000 2.697140 
# 
# 
# High freq. dielectric constant tensor:
#      x y z
#    x 1.833980 0.000000 0.000000 
#    y 0.000000 1.839490 0.000000 
#    z 0.000000 0.000000 1.813830 
# 
# From -- ./inp_files/26606.got.cif
#   From: 2010.03.12/outbox.cif.g09.slc.cpg/sg47_14_cif.got.tgz:26606.got - 2010.04.14 03:12:58.
