data_PCOD8200787
_publ_section_title
;
Structure prediction by ZEFSAII (Michael W. Deem and Ramdas Pophale) SiO2 
 PCOD8200787
Probable space group: P M M M
;
_chemical_formula_sum "Si O2"
_cell_formula_units_Z 48
_cell_length_a 10.147176
_cell_length_b 30.734372
_cell_length_c 10.082694
_cell_angle_alpha 90.000000
_cell_angle_beta 90.000000
_cell_angle_gamma 90.000000
_cell_volume 3144.460356
_symmetry_space_group_name_H-M "P M M M"
_symmetry_group_IT_number 47
_symmetry_cell_setting 'orthorhombic'
loop_
_space_group_symop_operation_xyz
x,y,z
-x,-y,z
x,-y,-z
-x,y,-z
-x,-y,-z
x,y,-z
-x,y,z
x,-y,z
loop_
_atom_site_type_symbol
_atom_site_label
_atom_site_fract_x
_atom_site_fract_y
_atom_site_fract_z
Si Si1 0.146867 0.215474 0.157861
Si Si2 0.852637 0.548592 0.157838
Si Si3 0.843218 0.951389 0.351743
Si Si4 0.352621 0.715112 0.157810
Si Si5 0.647279 0.617846 0.157817
Si Si6 0.843272 0.118815 0.147646
O O1 0.248278 0.250680 0.218747
O O2 0.195474 0.167113 0.198310
O O3 0.000000 0.224892 0.214302
O O4 0.142447 0.218424 0.000000
O O5 0.814036 0.500000 0.205834
O O6 0.750060 0.583252 0.219572
O O7 0.000000 0.560362 0.206992
O O8 0.848224 0.550384 0.000000
O O9 0.792772 0.940243 0.500000
O O10 0.782403 0.916755 0.248248
O O11 0.000000 0.948949 0.348979
O O12 0.797157 0.000000 0.311229
O O13 0.500000 0.726884 0.207507
O O14 0.314272 0.666467 0.205442
O O15 0.348931 0.717200 0.000000
O O16 0.500000 0.606033 0.207146
O O17 0.651569 0.615980 0.000000
O O18 0.000000 0.115393 0.142355
O O19 0.786143 0.110049 0.000000
#
# Coordination Sequence:
#
# PCOD8200787 Si02
#       6
#     8   8   8   8   8   8
#     4   8  13  20  29  41  57  77  99 122 152 191
#     4   8  13  19  24  30  41  57  79 110 147 184
#     4   8  13  20  29  42  62  88 114 137 164 200
#     4   8  13  20  28  38  53  71  91 118 152 190
#     4   8  13  19  25  33  44  59  81 109 143 184
#     4   8  13  20  29  42  61  84 109 136 165 199
#
# _framework density 15.264941
#
# number of rings (size 3 to 8) (size 9 to 14) (size 15 to 20)
#    0.000    4.000    0.000    3.000    0.000    1.333 
#    0.000    6.667    0.000    0.000    0.000    0.000 
#    0.000    1.333    0.000    8.333    0.000    9.667 
#
# Total GULP energy -594640.267570 kJ/mol
# GULP energy per Si atom -12388.338908 kJ/mol
# Density = 1.523020 g / cm^3
# Si number density = 15.264941 Si / 1000 Ang^3
#
#
#
# Elastic Constant Matrix: (Units=GPa)
#
#
# Indices 1 2 3 4 5 6 
#
# 1 72.3392 77.4405 18.4798 0.0000 0.0000 0.0000
# 2 77.4405 153.3546 35.9130 0.0000 0.0000 0.0000
# 3 18.4798 35.9130 24.4838 0.0000 0.0000 0.0000
# 4 0.0000 0.0000 0.0000 1.4737 0.0000 0.0000
# 5 0.0000 0.0000 0.0000 0.0000 1.8802 0.0000
# 6 0.0000 0.0000 0.0000 0.0000 0.0000 8.9896
#
#
#
# Elastic Compliance Matrix: (Units=1/GPa)
#
#
# Indices 1 2 3 4 5 6 
#
# 1 0.030097 -0.015047 -0.000645 0.000000 0.000000 0.000000
# 2 -0.015047 0.017456 -0.014247 0.000000 0.000000 0.000000
# 3 -0.000645 -0.014247 0.062228 0.000000 0.000000 0.000000
# 4 0.000000 0.000000 0.000000 0.678582 0.000000 0.000000
# 5 0.000000 0.000000 0.000000 0.000000 0.531864 0.000000
# 6 0.000000 0.000000 0.000000 0.000000 0.000000 0.111240
#
#
# Mechanical properties :
#
#
# Convention : Reuss Voigt Hill
#
# Bulk Modulus (GPa) = 20.03933 57.09381 38.56657
# Shear Modulus (GPa) = 3.31570 10.35830 6.83700
#
# Velocity S-wave (km/s) = 1.47540 2.60776 2.11863
# Velocity P-wave (km/s) = 4.00732 6.82278 5.59504
#
# Compressibility (1/GPa) = 0.04990188
#
# Stress axis : x y z
#
# Youngs Moduli (GPa) = 33.22620 57.28812 16.06999
#
# Poissons Ratio (x) = 0.86202 0.01037
# Poissons Ratio (y) = 0.49996 0.22895
# Poissons Ratio (z) = 0.02144 0.81618
#
# Static dielectric constant tensor:
#      x y z
#    x 2.909390 0.000000 0.000000 
#    y 0.000000 3.338800 0.000000 
#    z 0.000000 0.000000 2.435810 
# 
# 
# High freq. dielectric constant tensor:
#      x y z
#    x 1.553420 0.000000 0.000000 
#    y 0.000000 1.599230 0.000000 
#    z 0.000000 0.000000 1.507520 
# 
# From -- ./inp_files/16640.got.cif
#   From: 2010.03.12/outbox.cif.g09.slc.cpg/sg47_9_cif.got.tgz:16640.got - 2010.04.14 03:12:58.
