data_PCOD8200149
_publ_section_title
;
Structure prediction by ZEFSAII (Michael W. Deem and Ramdas Pophale) SiO2 
 PCOD8200149
Probable space group: P M M M
;
_chemical_formula_sum "Si O2"
_cell_formula_units_Z 64
_cell_length_a 26.088868
_cell_length_b 9.197156
_cell_length_c 14.388173
_cell_angle_alpha 90.000000
_cell_angle_beta 90.000000
_cell_angle_gamma 90.000000
_cell_volume 3452.346989
_symmetry_space_group_name_H-M "P M M M"
_symmetry_group_IT_number 47
_symmetry_cell_setting 'orthorhombic'
loop_
_space_group_symop_operation_xyz
x,y,z
-x,-y,z
x,-y,-z
-x,y,-z
-x,-y,-z
x,y,-z
-x,y,z
x,-y,z
loop_
_atom_site_type_symbol
_atom_site_label
_atom_site_fract_x
_atom_site_fract_y
_atom_site_fract_z
Si Si1 0.754729 0.831365 0.391075
Si Si2 0.346735 0.827909 0.711404
Si Si3 0.091281 0.329699 0.893372
Si Si4 0.205174 0.341434 0.890003
Si Si5 0.697598 0.170609 0.102443
Si Si6 0.856681 0.331221 0.390367
Si Si7 0.057626 0.166787 0.276800
Si Si8 0.443678 0.826969 0.395074
O O1 0.746096 0.808086 0.500000
O O2 0.703795 0.769299 0.340867
O O3 0.803659 0.740747 0.354681
O O4 0.764212 0.000000 0.366895
O O5 0.344901 0.785495 0.821080
O O6 0.398906 0.759345 0.669494
O O7 0.348111 0.000000 0.697832
O O8 0.078098 0.500000 0.884771
O O9 0.148813 0.298413 0.854385
O O10 0.055579 0.234579 0.826933
O O11 0.083806 0.278791 0.000000
O O12 0.221169 0.500000 0.851223
O O13 0.247712 0.225794 0.859405
O O14 0.200784 0.349228 0.000000
O O15 0.702762 0.000000 0.094932
O O16 0.683647 0.235705 0.000000
O O17 0.862033 0.307885 0.500000
O O18 0.855878 0.500000 0.362554
O O19 0.905399 0.256284 0.343906
O O20 0.000000 0.176708 0.317167
O O21 0.076068 0.000000 0.271860
O O22 0.433818 0.773615 0.500000
O O23 0.500000 0.773035 0.361098
O O24 0.442192 0.000000 0.391477
#
# Coordination Sequence:
#
# PCOD8200149 Si02
#       8
#     8   8   8   8   8   8   8   8
#     4   9  17  30  49  73 100 127 155 193 246 306
#     4   9  16  25  40  64  94 129 165 201 244 294
#     4   9  19  36  57  80 106 137 171 209 255 305
#     4   8  15  29  47  67  92 122 158 199 240 283
#     4   9  17  27  39  60  93 130 164 197 235 283
#     4  10  22  40  60  80 103 132 166 208 259 314
#     4  11  25  41  57  79 105 134 171 214 257 306
#     4   8  13  22  38  61  90 125 165 208 251 294
#
# _framework density 18.538112999999999
#
# number of rings (size 3 to 8) (size 9 to 14) (size 15 to 20)
#    0.000    2.875    0.000    2.250    1.750    4.500 
#    0.000    3.750    0.000    0.375    0.000    2.625 
#    0.000    2.000    0.000   12.000    0.000   11.500 
#
# Total GULP energy -793242.887113 kJ/mol
# GULP energy per Si atom -12394.420111 kJ/mol
# Density = 1.849592 g / cm^3
# Si number density = 18.538113 Si / 1000 Ang^3
#
#
#
# Elastic Constant Matrix: (Units=GPa)
#
#
# Indices 1 2 3 4 5 6 
#
# 1 136.2323 41.3199 61.9742 0.0000 0.0000 0.0000
# 2 41.3199 55.1136 33.6250 0.0000 0.0000 0.0000
# 3 61.9742 33.6250 67.5867 0.0000 0.0000 0.0000
# 4 0.0000 0.0000 0.0000 18.7235 0.0000 0.0000
# 5 0.0000 0.0000 0.0000 0.0000 30.7375 0.0000
# 6 0.0000 0.0000 0.0000 0.0000 0.0000 4.3573
#
#
#
# Elastic Compliance Matrix: (Units=1/GPa)
#
#
# Indices 1 2 3 4 5 6 
#
# 1 0.013065 -0.003570 -0.010204 0.000000 0.000000 0.000000
# 2 -0.003570 0.027027 -0.010173 0.000000 0.000000 0.000000
# 3 -0.010204 -0.010173 0.029214 0.000000 0.000000 0.000000
# 4 0.000000 0.000000 0.000000 0.053409 0.000000 0.000000
# 5 0.000000 0.000000 0.000000 0.000000 0.032534 0.000000
# 6 0.000000 0.000000 0.000000 0.000000 0.000000 0.229498
#
#
# Mechanical properties :
#
#
# Convention : Reuss Voigt Hill
#
# Bulk Modulus (GPa) = 46.70212 59.19677 52.94945
# Shear Modulus (GPa) = 11.36937 18.89789 15.13363
#
# Velocity S-wave (km/s) = 2.47917 3.19628 2.86029
# Velocity P-wave (km/s) = 5.78293 6.75451 6.28751
#
# Compressibility (1/GPa) = 0.02141230
#
# Stress axis : x y z
#
# Youngs Moduli (GPa) = 76.53927 36.99978 34.23017
#
# Poissons Ratio (x) = 0.13207 0.34930
# Poissons Ratio (y) = 0.27321 0.34823
# Poissons Ratio (z) = 0.78103 0.37640
#
# Static dielectric constant tensor:
#      x y z
#    x 3.585760 0.000000 0.000000 
#    y 0.000000 3.189300 0.000000 
#    z 0.000000 0.000000 3.539610 
# 
# 
# High freq. dielectric constant tensor:
#      x y z
#    x 1.708500 0.000000 0.000000 
#    y 0.000000 1.685780 0.000000 
#    z 0.000000 0.000000 1.722150 
# 
# From -- ./inp_files/25595.got.cif
#   From: 2010.03.12/outbox.cif.g09.slc.cpg/sg47_13_cif.got.tgz:25595.got - 2010.04.14 03:12:58.
