data_PCOD8200452
_publ_section_title
;
Structure prediction by ZEFSAII (Michael W. Deem and Ramdas Pophale) SiO2 
 PCOD8200452
Probable space group: P M M M
;
_chemical_formula_sum "Si O2"
_cell_formula_units_Z 64
_cell_length_a 18.642315
_cell_length_b 8.898354
_cell_length_c 20.517619
_cell_angle_alpha 90.000000
_cell_angle_beta 90.000000
_cell_angle_gamma 90.000000
_cell_volume 3403.584068
_symmetry_space_group_name_H-M "P M M M"
_symmetry_group_IT_number 47
_symmetry_cell_setting 'orthorhombic'
loop_
_space_group_symop_operation_xyz
x,y,z
-x,-y,z
x,-y,-z
-x,y,-z
-x,-y,-z
x,y,-z
-x,y,z
x,-y,z
loop_
_atom_site_type_symbol
_atom_site_label
_atom_site_fract_x
_atom_site_fract_y
_atom_site_fract_z
Si Si1 0.419084 0.679411 0.310762
Si Si2 0.672955 0.320902 0.189626
Si Si3 0.835216 0.677856 0.809739
Si Si4 0.325281 0.678689 0.428392
Si Si5 0.082741 0.825585 0.074586
Si Si6 0.836722 0.325227 0.575322
Si Si7 0.419795 0.321164 0.927935
Si Si8 0.916821 0.175411 0.690254
O O1 0.500000 0.742300 0.306817
O O2 0.419767 0.500000 0.311073
O O3 0.373212 0.740725 0.250167
O O4 0.381663 0.742812 0.376215
O O5 0.672079 0.500000 0.189415
O O6 0.753900 0.260824 0.193972
O O7 0.636589 0.255785 0.123981
O O8 0.837229 0.500000 0.805473
O O9 0.868684 0.726707 0.878306
O O10 0.877645 0.741891 0.748851
O O11 0.346210 0.741097 0.500000
O O12 0.327384 0.500000 0.429613
O O13 0.244575 0.728100 0.410118
O O14 0.000000 0.783803 0.086772
O O15 0.095482 0.000000 0.090254
O O16 0.104002 0.789331 0.000000
O O17 0.856556 0.295250 0.500000
O O18 0.845987 0.500000 0.592592
O O19 0.889252 0.229475 0.620182
O O20 0.500000 0.264912 0.910425
O O21 0.418976 0.500000 0.926104
O O22 0.397759 0.264048 0.000000
O O23 0.000000 0.215378 0.695303
O O24 0.902437 0.000000 0.697388
#
# Coordination Sequence:
#
# PCOD8200452 Si02
#       8
#     8   8   8   8   8   8   8   8
#     4   9  15  22  35  56  86 127 167 197 231 283
#     4   9  17  27  39  60  92 126 159 199 246 290
#     4  11  22  34  52  77 104 135 170 211 257 302
#     4   8  14  25  41  63  93 126 157 192 238 290
#     4   9  19  37  58  77 101 134 167 202 250 306
#     4   9  18  34  56  79 104 135 167 202 250 306
#     4   8  13  22  37  57  86 127 165 191 226 285
#     4  11  24  39  54  73 100 134 170 211 257 302
#
# _framework density 18.803705999999998
#
# number of rings (size 3 to 8) (size 9 to 14) (size 15 to 20)
#    0.000    2.750    0.000    3.750    0.000    7.750 
#    0.000    4.375    0.000    0.000    0.000    0.000 
#    0.000   23.500    0.000   22.000    0.000   20.000 
#
# Total GULP energy -793459.361949 kJ/mol
# GULP energy per Si atom -12397.802530 kJ/mol
# Density = 1.876091 g / cm^3
# Si number density = 18.803706 Si / 1000 Ang^3
#
#
#
# Elastic Constant Matrix: (Units=GPa)
#
#
# Indices 1 2 3 4 5 6 
#
# 1 153.0388 45.4693 100.7679 0.0000 0.0000 0.0000
# 2 45.4693 29.0626 35.5437 0.0000 0.0000 0.0000
# 3 100.7679 35.5437 155.5869 0.0000 0.0000 0.0000
# 4 0.0000 0.0000 0.0000 19.0183 0.0000 0.0000
# 5 0.0000 0.0000 0.0000 0.0000 43.1033 0.0000
# 6 0.0000 0.0000 0.0000 0.0000 0.0000 -4.0250
#
#
#
# Elastic Compliance Matrix: (Units=1/GPa)
#
#
# Indices 1 2 3 4 5 6 
#
# 1 0.015696 -0.016825 -0.006322 0.000000 0.000000 0.000000
# 2 -0.016825 0.065784 -0.004132 0.000000 0.000000 0.000000
# 3 -0.006322 -0.004132 0.011466 0.000000 0.000000 0.000000
# 4 0.000000 0.000000 0.000000 0.052581 0.000000 0.000000
# 5 0.000000 0.000000 0.000000 0.000000 0.023200 0.000000
# 6 0.000000 0.000000 0.000000 0.000000 0.000000 -0.248448
#
#
# Mechanical properties :
#
#
# Convention : Reuss Voigt Hill
#
# Bulk Modulus (GPa) = 26.04909 77.91667 51.98288
# Shear Modulus (GPa) = -404.24929 22.01315 -191.11807
#
# Velocity S-wave (km/s) = -14.67823 3.42523 -10.09253
# Velocity P-wave (km/s) = 16.53433 7.56107 10.39746
#
# Compressibility (1/GPa) = 0.03838906
#
# Stress axis : x y z
#
# Youngs Moduli (GPa) = 63.71154 15.20122 87.21693
#
# Poissons Ratio (x) = 0.25576 0.55138
# Poissons Ratio (y) = 1.07192 0.36035
# Poissons Ratio (z) = 0.40278 0.06281
#
# Static dielectric constant tensor:
#      x y z
#    x 3.627290 0.000000 0.000000 
#    y 0.000000 2.888460 0.000000 
#    z 0.000000 0.000000 3.754040 
# 
# 
# High freq. dielectric constant tensor:
#      x y z
#    x 1.736310 0.000000 0.000000 
#    y 0.000000 1.671220 0.000000 
#    z 0.000000 0.000000 1.749180 
# 
# From -- ./inp_files/31324.got.cif
#   From: 2010.03.12/outbox.cif.g09.slc.cpg/sg47_16_cif.got.tgz:31324.got - 2010.04.14 03:12:58.
