data_PCOD8200230
_publ_section_title
;
Structure prediction by ZEFSAII (Michael W. Deem and Ramdas Pophale) SiO2 
 PCOD8200230
Probable space group: P M M M
;
_chemical_formula_sum "Si O2"
_cell_formula_units_Z 64
_cell_length_a 20.353819
_cell_length_b 8.908528
_cell_length_c 19.955653
_cell_angle_alpha 90.000000
_cell_angle_beta 90.000000
_cell_angle_gamma 90.000000
_cell_volume 3618.410218
_symmetry_space_group_name_H-M "P M M M"
_symmetry_group_IT_number 47
_symmetry_cell_setting 'orthorhombic'
loop_
_space_group_symop_operation_xyz
x,y,z
-x,-y,z
x,-y,-z
-x,y,-z
-x,-y,-z
x,y,-z
-x,y,z
x,-y,z
loop_
_atom_site_type_symbol
_atom_site_label
_atom_site_fract_x
_atom_site_fract_y
_atom_site_fract_z
Si Si1 0.684412 0.175953 0.922122
Si Si2 0.807727 0.326425 0.145497
Si Si3 0.775060 0.668295 0.570473
Si Si4 0.573828 0.328132 0.835158
Si Si5 0.075199 0.172480 0.077576
Si Si6 0.620332 0.177186 0.706827
Si Si7 0.760072 0.676418 0.711396
Si Si8 0.381311 0.331223 0.426710
O O1 0.752903 0.230157 0.891686
O O2 0.622721 0.254936 0.888131
O O3 0.678328 0.000000 0.909354
O O4 0.683576 0.217125 0.000000
O O5 0.794865 0.500000 0.129143
O O6 0.879722 0.279892 0.121691
O O7 0.806557 0.295960 0.225228
O O8 0.797229 0.751447 0.500000
O O9 0.802252 0.500000 0.565163
O O10 0.797267 0.736359 0.642826
O O11 0.696868 0.669429 0.574026
O O12 0.500000 0.317088 0.864243
O O13 0.595482 0.500000 0.824177
O O14 0.573993 0.244460 0.763964
O O15 0.000000 0.212760 0.093866
O O16 0.089940 0.000000 0.095553
O O17 0.090653 0.201961 0.000000
O O18 0.693366 0.233743 0.723004
O O19 0.593128 0.227372 0.633836
O O20 0.618677 0.000000 0.710554
O O21 0.742841 0.500000 0.702443
O O22 0.405961 0.272663 0.500000
O O23 0.407422 0.500000 0.415156
#
# Coordination Sequence:
#
# PCOD8200230 Si02
#       8
#     8   8   8   8   8   8   8   8
#     4  11  24  40  58  80 105 132 164 206 257 313
#     4  11  21  32  52  80 110 141 172 211 252 298
#     4   7  10  19  37  60  87 123 164 200 236 283
#     4  11  24  41  59  76  96 127 169 215 261 314
#     4   9  19  36  55  74 101 139 178 215 257 306
#     4  11  20  30  49  74 101 131 164 208 259 309
#     4   9  17  29  45  68 100 134 169 207 249 299
#     4   8  14  26  45  67  94 130 167 203 247 301
#
# _framework density 17.687325000000001
#
# number of rings (size 3 to 8) (size 9 to 14) (size 15 to 20)
#    0.000    2.375    1.250    4.500    0.000    5.000 
#    0.000    1.875    0.000    0.375    0.000    2.625 
#    0.000    0.500    0.000    6.250    0.000    1.125 
#
# Total GULP energy -793063.653458 kJ/mol
# GULP energy per Si atom -12391.619585 kJ/mol
# Density = 1.764707 g / cm^3
# Si number density = 17.687325 Si / 1000 Ang^3
#
#
#
# Elastic Constant Matrix: (Units=GPa)
#
#
# Indices 1 2 3 4 5 6 
#
# 1 61.7696 25.9543 48.2432 0.0000 0.0000 0.0000
# 2 25.9543 83.2108 59.2077 0.0000 0.0000 0.0000
# 3 48.2432 59.2077 146.6152 0.0000 0.0000 0.0000
# 4 0.0000 0.0000 0.0000 21.6216 0.0000 0.0000
# 5 0.0000 0.0000 0.0000 0.0000 13.1558 0.0000
# 6 0.0000 0.0000 0.0000 0.0000 0.0000 21.2781
#
#
#
# Elastic Compliance Matrix: (Units=1/GPa)
#
#
# Indices 1 2 3 4 5 6 
#
# 1 0.022129 -0.002415 -0.006306 0.000000 0.000000 0.000000
# 2 -0.002415 0.017127 -0.006122 0.000000 0.000000 0.000000
# 3 -0.006306 -0.006122 0.011368 0.000000 0.000000 0.000000
# 4 0.000000 0.000000 0.000000 0.046250 0.000000 0.000000
# 5 0.000000 0.000000 0.000000 0.000000 0.076012 0.000000
# 6 0.000000 0.000000 0.000000 0.000000 0.000000 0.046997
#
#
# Mechanical properties :
#
#
# Convention : Reuss Voigt Hill
#
# Bulk Modulus (GPa) = 47.76081 62.04511 54.90296
# Shear Modulus (GPa) = 19.48956 21.75714 20.62335
#
# Velocity S-wave (km/s) = 3.32308 3.51108 3.41837
# Velocity P-wave (km/s) = 6.46415 7.18275 6.83291
#
# Compressibility (1/GPa) = 0.02093767
#
# Stress axis : x y z
#
# Youngs Moduli (GPa) = 45.18893 58.38825 87.96872
#
# Poissons Ratio (x) = 0.14102 0.55475
# Poissons Ratio (y) = 0.10914 0.53851
# Poissons Ratio (z) = 0.28497 0.35743
#
# Static dielectric constant tensor:
#      x y z
#    x 2.846730 0.000000 0.000000 
#    y 0.000000 3.187130 0.000000 
#    z 0.000000 0.000000 3.901840 
# 
# 
# High freq. dielectric constant tensor:
#      x y z
#    x 1.633630 0.000000 0.000000 
#    y 0.000000 1.672310 0.000000 
#    z 0.000000 0.000000 1.707380 
# 
# From -- ./inp_files/31539.got.cif
#   From: 2010.03.12/outbox.cif.g09.slc.cpg/sg47_16_cif.got.tgz:31539.got - 2010.04.14 03:12:58.
