data_PCOD8200116
_publ_section_title
;
Structure prediction by ZEFSAII (Michael W. Deem and Ramdas Pophale) SiO2 
 PCOD8200116
Probable space group: P M M M
;
_chemical_formula_sum "Si O2"
_cell_formula_units_Z 40
_cell_length_a 9.231609
_cell_length_b 13.284359
_cell_length_c 16.575249
_cell_angle_alpha 90.000000
_cell_angle_beta 90.000000
_cell_angle_gamma 90.000000
_cell_volume 2032.722371
_symmetry_space_group_name_H-M "P M M M"
_symmetry_group_IT_number 47
_symmetry_cell_setting 'orthorhombic'
loop_
_space_group_symop_operation_xyz
x,y,z
-x,-y,z
x,-y,-z
-x,y,-z
-x,-y,-z
x,y,-z
-x,y,z
x,-y,z
loop_
_atom_site_type_symbol
_atom_site_label
_atom_site_fract_x
_atom_site_fract_y
_atom_site_fract_z
Si Si1 0.835739 0.114521 0.091896
Si Si2 0.666459 0.709445 0.145329
Si Si3 0.834889 0.500000 0.595269
Si Si4 0.332096 0.684802 0.670945
Si Si5 0.839026 0.382463 0.000000
Si Si6 0.671708 0.111024 0.408522
O O1 0.726607 0.176726 0.147496
O O2 0.000000 0.126137 0.122949
O O3 0.785058 0.000000 0.096047
O O4 0.823542 0.155068 0.000000
O O5 0.500000 0.710061 0.118667
O O6 0.686495 0.664378 0.234098
O O7 0.756300 0.645716 0.081496
O O8 0.827082 0.500000 0.500000
O O9 0.757792 0.399615 0.625687
O O10 0.000000 0.500000 0.626363
O O11 0.500000 0.674940 0.645507
O O12 0.272276 0.796413 0.646981
O O13 0.854702 0.500000 0.000000
O O14 0.000000 0.333026 0.000000
O O15 0.724922 0.130368 0.500000
O O16 0.500000 0.108484 0.405452
O O17 0.729361 0.000000 0.379188
#
# Coordination Sequence:
#
# PCOD8200116 Si02
#       6
#     8   8   4   8   4   8
#     4   9  18  34  56  80 110 153 200 238 278 342
#     4  11  23  37  57  88 119 147 188 246 299 344
#     4  11  25  43  63  88 119 156 199 245 288 339
#     4  10  22  38  59  89 122 156 193 238 294 354
#     4  11  25  43  62  79 102 149 199 236 292 359
#     4   8  14  28  54  86 117 150 188 229 276 337
#
# _framework density 19.678042999999999
#
# number of rings (size 3 to 8) (size 9 to 14) (size 15 to 20)
#    0.000    2.200    1.000    3.000    1.400    5.200 
#    0.000    3.000    0.000    0.600    0.000    2.800 
#    0.000    0.000    0.000    0.000    0.000    0.000 
#
# Total GULP energy -495891.215178 kJ/mol
# GULP energy per Si atom -12397.280379 kJ/mol
# Density = 1.963325 g / cm^3
# Si number density = 19.678043 Si / 1000 Ang^3
#
#
#
# Elastic Constant Matrix: (Units=GPa)
#
#
# Indices 1 2 3 4 5 6 
#
# 1 101.9866 54.9598 48.1234 0.0000 0.0000 0.0000
# 2 54.9598 131.3284 48.5334 0.0000 0.0000 0.0000
# 3 48.1234 48.5334 81.6794 0.0000 0.0000 0.0000
# 4 0.0000 0.0000 0.0000 24.4817 0.0000 0.0000
# 5 0.0000 0.0000 0.0000 0.0000 19.0601 0.0000
# 6 0.0000 0.0000 0.0000 0.0000 0.0000 27.3999
#
#
#
# Elastic Compliance Matrix: (Units=1/GPa)
#
#
# Indices 1 2 3 4 5 6 
#
# 1 0.014959 -0.003848 -0.006527 0.000000 0.000000 0.000000
# 2 -0.003848 0.010747 -0.004119 0.000000 0.000000 0.000000
# 3 -0.006527 -0.004119 0.018536 0.000000 0.000000 0.000000
# 4 0.000000 0.000000 0.000000 0.040847 0.000000 0.000000
# 5 0.000000 0.000000 0.000000 0.000000 0.052466 0.000000
# 6 0.000000 0.000000 0.000000 0.000000 0.000000 0.036497
#
#
# Mechanical properties :
#
#
# Convention : Reuss Voigt Hill
#
# Bulk Modulus (GPa) = 65.55483 68.69194 67.12339
# Shear Modulus (GPa) = 24.02440 25.08018 24.55229
#
# Velocity S-wave (km/s) = 3.49789 3.57392 3.53611
# Velocity P-wave (km/s) = 7.04980 7.21209 7.13141
#
# Compressibility (1/GPa) = 0.01525441
#
# Stress axis : x y z
#
# Youngs Moduli (GPa) = 66.85116 93.04981 53.95020
#
# Poissons Ratio (x) = 0.35806 0.35212
# Poissons Ratio (y) = 0.25725 0.22220
# Poissons Ratio (z) = 0.43632 0.38323
#
# Static dielectric constant tensor:
#      x y z
#    x 3.419340 0.000000 0.000000 
#    y 0.000000 3.892490 0.000000 
#    z 0.000000 0.000000 3.501010 
# 
# 
# High freq. dielectric constant tensor:
#      x y z
#    x 1.744130 0.000000 0.000000 
#    y 0.000000 1.785090 0.000000 
#    z 0.000000 0.000000 1.758700 
# 
# From -- ./inp_files/20729.got.cif
#   From: 2010.03.12/outbox.cif.g09.slc.cpg/sg47_11_cif.got.tgz:20729.got - 2010.04.14 03:12:58.
