data_PCOD8200245
_publ_section_title
;
Structure prediction by ZEFSAII (Michael W. Deem and Ramdas Pophale) SiO2 
 PCOD8200245
Probable space group: P M M M
;
_chemical_formula_sum "Si O2"
_cell_formula_units_Z 44
_cell_length_a 23.800814
_cell_length_b 9.453095
_cell_length_c 10.713672
_cell_angle_alpha 90.000000
_cell_angle_beta 90.000000
_cell_angle_gamma 90.000000
_cell_volume 2410.483589
_symmetry_space_group_name_H-M "P M M M"
_symmetry_group_IT_number 47
_symmetry_cell_setting 'orthorhombic'
loop_
_space_group_symop_operation_xyz
x,y,z
-x,-y,z
x,-y,-z
-x,y,-z
-x,-y,-z
x,y,-z
-x,y,z
x,-y,z
loop_
_atom_site_type_symbol
_atom_site_label
_atom_site_fract_x
_atom_site_fract_y
_atom_site_fract_z
Si Si1 0.742835 0.841178 0.855229
Si Si2 0.563217 0.667700 0.000000
Si Si3 0.933798 0.662760 0.358943
Si Si4 0.871735 0.166585 0.142531
Si Si5 0.439225 0.845923 0.356301
Si Si6 0.358714 0.333324 0.774566
O O1 0.806910 0.795016 0.833415
O O2 0.703282 0.731575 0.783669
O O3 0.733081 0.000000 0.804276
O O4 0.727740 0.834513 0.000000
O O5 0.599277 0.719875 0.117206
O O6 0.559428 0.500000 0.000000
O O7 0.500000 0.732209 0.000000
O O8 0.914881 0.709769 0.500000
O O9 0.916627 0.500000 0.337918
O O10 0.906709 0.754752 0.249038
O O11 0.000000 0.682143 0.347354
O O12 0.882054 0.000000 0.156749
O O13 0.888632 0.212515 0.000000
O O14 0.447943 0.868686 0.500000
O O15 0.500000 0.795251 0.300018
O O16 0.390132 0.729443 0.344704
O O17 0.422712 0.000000 0.297340
O O18 0.351589 0.500000 0.767185
#
# Coordination Sequence:
#
# PCOD8200245 Si02
#       6
#     8   4   8   8   8   8
#     4   9  18  34  53  72 101 139 175 212 256 306
#     4   9  18  30  43  67 103 131 150 189 250 303
#     4   9  19  36  56  80 113 150 184 221 269 322
#     4   9  19  35  55  81 110 142 183 229 273 318
#     4   9  19  36  54  70  92 125 165 208 254 306
#     4  11  20  31  50  75 102 130 163 205 253 307
#
# _framework density 18.253598
#
# number of rings (size 3 to 8) (size 9 to 14) (size 15 to 20)
#    0.000    2.636    0.909    3.273    0.000    3.636 
#    0.000    6.364    0.000    3.273    0.000    0.000 
#    0.000    0.000    0.000    0.000    0.000    0.000 
#
# Total GULP energy -545159.815231 kJ/mol
# GULP energy per Si atom -12389.995801 kJ/mol
# Density = 1.821205 g / cm^3
# Si number density = 18.253598 Si / 1000 Ang^3
#
#
#
# Elastic Constant Matrix: (Units=GPa)
#
#
# Indices 1 2 3 4 5 6 
#
# 1 89.3344 54.6640 52.6702 0.0000 0.0000 0.0000
# 2 54.6640 89.5488 50.3099 0.0000 0.0000 0.0000
# 3 52.6702 50.3099 91.9743 0.0000 0.0000 0.0000
# 4 0.0000 0.0000 0.0000 29.8557 0.0000 0.0000
# 5 0.0000 0.0000 0.0000 0.0000 22.2824 0.0000
# 6 0.0000 0.0000 0.0000 0.0000 0.0000 33.4127
#
#
#
# Elastic Compliance Matrix: (Units=1/GPa)
#
#
# Indices 1 2 3 4 5 6 
#
# 1 0.020663 -0.008612 -0.007122 0.000000 0.000000 0.000000
# 2 -0.008612 0.019711 -0.005850 0.000000 0.000000 0.000000
# 3 -0.007122 -0.005850 0.018151 0.000000 0.000000 0.000000
# 4 0.000000 0.000000 0.000000 0.033494 0.000000 0.000000
# 5 0.000000 0.000000 0.000000 0.000000 0.044879 0.000000
# 6 0.000000 0.000000 0.000000 0.000000 0.000000 0.029929
#
#
# Mechanical properties :
#
#
# Convention : Reuss Voigt Hill
#
# Bulk Modulus (GPa) = 65.11901 65.12730 65.12315
# Shear Modulus (GPa) = 23.24358 24.65770 23.95064
#
# Velocity S-wave (km/s) = 3.57230 3.67937 3.62623
# Velocity P-wave (km/s) = 7.26410 7.33532 7.29980
#
# Compressibility (1/GPa) = 0.01535650
#
# Stress axis : x y z
#
# Youngs Moduli (GPa) = 48.39657 50.73343 55.09327
#
# Poissons Ratio (x) = 0.43692 0.39237
# Poissons Ratio (y) = 0.41679 0.32230
# Poissons Ratio (z) = 0.34468 0.29679
#
# Static dielectric constant tensor:
#      x y z
#    x 3.340020 0.000000 0.000000 
#    y 0.000000 3.229440 0.000000 
#    z 0.000000 0.000000 3.287080 
# 
# 
# High freq. dielectric constant tensor:
#      x y z
#    x 1.707080 0.000000 0.000000 
#    y 0.000000 1.700490 0.000000 
#    z 0.000000 0.000000 1.694680 
# 
# From -- ./inp_files/19462.got.cif
#   From: 2010.03.12/outbox.cif.g09.slc.cpg/sg47_10_cif.got.tgz:19462.got - 2010.04.14 03:12:58.
