data_PCOD8200073
_publ_section_title
;
Structure prediction by ZEFSAII (Michael W. Deem and Ramdas Pophale) SiO2 
 PCOD8200073
Probable space group: P M M M
;
_chemical_formula_sum "Si O2"
_cell_formula_units_Z 36
_cell_length_a 14.418662
_cell_length_b 7.832862
_cell_length_c 14.575142
_cell_angle_alpha 90.000000
_cell_angle_beta 90.000000
_cell_angle_gamma 90.000000
_cell_volume 1646.107642
_symmetry_space_group_name_H-M "P M M M"
_symmetry_group_IT_number 47
_symmetry_cell_setting 'orthorhombic'
loop_
_space_group_symop_operation_xyz
x,y,z
-x,-y,z
x,-y,-z
-x,y,-z
-x,-y,-z
x,y,-z
-x,y,z
x,-y,z
loop_
_atom_site_type_symbol
_atom_site_label
_atom_site_fract_x
_atom_site_fract_y
_atom_site_fract_z
Si Si1 0.902104 0.309398 0.391050
Si Si2 0.229735 0.690580 0.105585
Si Si3 0.395838 0.196138 0.222138
Si Si4 0.896172 0.000000 0.890954
Si Si5 0.297393 0.704141 0.603618
O O1 0.897119 0.319238 0.500000
O O2 0.906047 0.500000 0.350478
O O3 0.804153 0.224914 0.360508
O O4 0.000000 0.215371 0.361662
O O5 0.187280 0.500000 0.116472
O O6 0.325576 0.695005 0.161103
O O7 0.156423 0.829298 0.144074
O O8 0.252979 0.731209 0.000000
O O9 0.500000 0.262542 0.204071
O O10 0.374720 0.218528 0.330144
O O11 0.386636 0.000000 0.193583
O O12 0.000000 0.000000 0.849600
O O13 0.901252 0.000000 0.000000
O O14 0.318681 0.766178 0.500000
O O15 0.297081 0.500000 0.607933
#
# Coordination Sequence:
#
# PCOD8200073 Si02
#       5
#     8   8   8   4   8
#     4   7  10  20  42  71 100 131 170 219 278 342
#     4  10  21  39  65  95 126 161 202 248 302 364
#     4  11  24  40  58  80 112 158 208 259 314 370
#     4   9  18  36  63  95 132 167 199 241 293 355
#     4   9  18  33  54  80 111 149 195 250 308 365
#
# _framework density 21.869774
#
# number of rings (size 3 to 8) (size 9 to 14) (size 15 to 20)
#    0.000    2.778    1.111    2.667    0.000    3.556 
#    0.000    7.778    0.000    2.667    0.000    3.111 
#    0.000    0.000    0.000    0.000    0.000    0.000 
#
# Total GULP energy -445996.692530 kJ/mol
# GULP energy per Si atom -12388.797015 kJ/mol
# Density = 2.182000 g / cm^3
# Si number density = 21.869774 Si / 1000 Ang^3
#
#
#
# Elastic Constant Matrix: (Units=GPa)
#
#
# Indices 1 2 3 4 5 6 
#
# 1 149.7606 50.0561 33.7723 0.0000 0.0000 0.0000
# 2 50.0561 90.3882 20.7439 0.0000 0.0000 0.0000
# 3 33.7723 20.7439 56.6867 0.0000 0.0000 0.0000
# 4 0.0000 0.0000 0.0000 20.7549 0.0000 0.0000
# 5 0.0000 0.0000 0.0000 0.0000 27.8974 0.0000
# 6 0.0000 0.0000 0.0000 0.0000 0.0000 19.8509
#
#
#
# Elastic Compliance Matrix: (Units=1/GPa)
#
#
# Indices 1 2 3 4 5 6 
#
# 1 0.008891 -0.004048 -0.003816 0.000000 0.000000 0.000000
# 2 -0.004048 0.013921 -0.002682 0.000000 0.000000 0.000000
# 3 -0.003816 -0.002682 0.020896 0.000000 0.000000 0.000000
# 4 0.000000 0.000000 0.000000 0.048181 0.000000 0.000000
# 5 0.000000 0.000000 0.000000 0.000000 0.035846 0.000000
# 6 0.000000 0.000000 0.000000 0.000000 0.000000 0.050376
#
#
# Mechanical properties :
#
#
# Convention : Reuss Voigt Hill
#
# Bulk Modulus (GPa) = 44.21818 56.22002 50.21910
# Shear Modulus (GPa) = 24.18495 26.51819 25.35157
#
# Velocity S-wave (km/s) = 3.32906 3.48595 3.40840
# Velocity P-wave (km/s) = 5.91942 6.47804 6.20502
#
# Compressibility (1/GPa) = 0.02261513
#
# Stress axis : x y z
#
# Youngs Moduli (GPa) = 112.47644 71.83533 47.85691
#
# Poissons Ratio (x) = 0.29079 0.18260
# Poissons Ratio (y) = 0.45530 0.12838
# Poissons Ratio (z) = 0.42916 0.19270
#
# Static dielectric constant tensor:
#      x y z
#    x 4.363260 0.000000 0.000000 
#    y 0.000000 3.659310 0.000000 
#    z 0.000000 0.000000 3.670600 
# 
# 
# High freq. dielectric constant tensor:
#      x y z
#    x 1.863530 0.000000 0.000000 
#    y 0.000000 1.834720 0.000000 
#    z 0.000000 0.000000 1.836910 
# 
# From -- ./inp_files/5561.got.cif
#   From: 2010.03.12/outbox.cif.g09.slc.cpg/sg47_3_cif.got.tgz:5561.got - 2010.04.14 03:12:58.
