data_PCOD8200730
_publ_section_title
;
Structure prediction by ZEFSAII (Michael W. Deem and Ramdas Pophale) SiO2 
 PCOD8200730
Probable space group: P M M M
;
_chemical_formula_sum "Si O2"
_cell_formula_units_Z 52
_cell_length_a 12.877740
_cell_length_b 30.437336
_cell_length_c 9.420386
_cell_angle_alpha 90.000000
_cell_angle_beta 90.000000
_cell_angle_gamma 90.000000
_cell_volume 3692.453114
_symmetry_space_group_name_H-M "P M M M"
_symmetry_group_IT_number 47
_symmetry_cell_setting 'orthorhombic'
loop_
_space_group_symop_operation_xyz
x,y,z
-x,-y,z
x,-y,-z
-x,y,-z
-x,-y,-z
x,y,-z
-x,y,z
x,-y,z
loop_
_atom_site_type_symbol
_atom_site_label
_atom_site_fract_x
_atom_site_fract_y
_atom_site_fract_z
Si Si1 0.876524 0.951293 0.340678
Si Si2 0.275925 0.552314 0.337642
Si Si3 0.123846 0.212206 0.660199
Si Si4 0.500000 0.451994 0.667962
Si Si5 0.117823 0.609347 0.167486
Si Si6 0.876111 0.129483 0.160288
Si Si7 0.876544 0.707134 0.157917
O O1 0.836750 0.940902 0.500000
O O2 0.832025 0.915014 0.232366
O O3 0.000000 0.949547 0.339949
O O4 0.838995 0.000000 0.293305
O O5 0.252812 0.565251 0.500000
O O6 0.273057 0.500000 0.318486
O O7 0.390525 0.571129 0.289765
O O8 0.189221 0.573483 0.240295
O O9 0.167251 0.209376 0.500000
O O10 0.165528 0.170829 0.749892
O O11 0.167154 0.256703 0.732718
O O12 0.000000 0.212304 0.658825
O O13 0.500000 0.500000 0.739649
O O14 0.500000 0.458079 0.500000
O O15 0.156456 0.658425 0.208970
O O16 0.000000 0.601948 0.220071
O O17 0.124533 0.602995 0.000000
O O18 0.000000 0.129276 0.159468
O O19 0.833059 0.132447 0.000000
O O20 0.000000 0.709374 0.150979
O O21 0.832515 0.717001 0.000000
#
# Coordination Sequence:
#
# PCOD8200730 Si02
#       7
#     8   8   8   4   8   8   8
#     4   8  13  20  27  33  43  60  81 108 145 187
#     4   9  17  29  45  62  78  98 125 155 183 213
#     4   9  15  21  30  43  56  70  92 124 158 189
#     4   7  12  26  45  61  77  97 121 151 187 217
#     4   9  18  30  41  55  78 105 126 146 178 219
#     4   9  15  20  26  36  49  65  86 113 146 187
#     4   8  14  25  37  46  60  84 110 132 158 196
#
# _framework density 14.082779
#
# number of rings (size 3 to 8) (size 9 to 14) (size 15 to 20)
#    0.000    3.462    0.000    3.231    0.000    5.538 
#    0.000    5.000    0.000    1.385    0.000    0.000 
#    0.000    0.000    0.000    0.000    0.000    0.000 
#
# Total GULP energy -644254.709751 kJ/mol
# GULP energy per Si atom -12389.513649 kJ/mol
# Density = 1.405073 g / cm^3
# Si number density = 14.082779 Si / 1000 Ang^3
#
#
#
# Elastic Constant Matrix: (Units=GPa)
#
#
# Indices 1 2 3 4 5 6 
#
# 1 37.9536 27.7936 23.5184 0.0000 0.0000 0.0000
# 2 27.7936 81.9189 49.9429 0.0000 0.0000 0.0000
# 3 23.5184 49.9429 82.9666 0.0000 0.0000 0.0000
# 4 0.0000 0.0000 0.0000 29.9222 0.0000 0.0000
# 5 0.0000 0.0000 0.0000 0.0000 5.7742 0.0000
# 6 0.0000 0.0000 0.0000 0.0000 0.0000 -0.0199
#
#
#
# Elastic Compliance Matrix: (Units=1/GPa)
#
#
# Indices 1 2 3 4 5 6 
#
# 1 0.036100 -0.009493 -0.004519 0.000000 0.000000 0.000000
# 2 -0.009493 0.021781 -0.010420 0.000000 0.000000 0.000000
# 3 -0.004519 -0.010420 0.019607 0.000000 0.000000 0.000000
# 4 0.000000 0.000000 0.000000 0.033420 0.000000 0.000000
# 5 0.000000 0.000000 0.000000 0.000000 0.173183 0.000000
# 6 0.000000 0.000000 0.000000 0.000000 0.000000-50.296438
#
#
# Mechanical properties :
#
#
# Convention : Reuss Voigt Hill
#
# Bulk Modulus (GPa) = 34.93676 45.03877 39.98776
# Shear Modulus (GPa) = -0.10009 13.90760 6.90375
#
# Velocity S-wave (km/s) = -0.26689 3.14596 2.21651
# Velocity P-wave (km/s) = 4.97665 6.72658 5.91667
#
# Compressibility (1/GPa) = 0.02862315
#
# Stress axis : x y z
#
# Youngs Moduli (GPa) = 27.70092 45.91169 51.00325
#
# Poissons Ratio (x) = 0.43585 0.23047
# Poissons Ratio (y) = 0.26297 0.53147
# Poissons Ratio (z) = 0.12517 0.47841
#
# Static dielectric constant tensor:
#      x y z
#    x 2.266300 0.000000 0.000000 
#    y 0.000000 2.932340 0.000000 
#    z 0.000000 0.000000 2.857300 
# 
# 
# High freq. dielectric constant tensor:
#      x y z
#    x 1.454330 0.000000 0.000000 
#    y 0.000000 1.542030 0.000000 
#    z 0.000000 0.000000 1.540980 
# 
# From -- ./inp_files/4764.got.cif
#   From: 2010.03.12/outbox.cif.g09.slc.cpg/sg47_3_cif.got.tgz:4764.got - 2010.04.14 03:12:58.
