data_PCOD8200775
_publ_section_title
;
Structure prediction by ZEFSAII (Michael W. Deem and Ramdas Pophale) SiO2 
 PCOD8200775
Probable space group: P M M M
;
_chemical_formula_sum "Si O2"
_cell_formula_units_Z 52
_cell_length_a 22.678155
_cell_length_b 9.894258
_cell_length_c 14.723713
_cell_angle_alpha 90.000000
_cell_angle_beta 90.000000
_cell_angle_gamma 90.000000
_cell_volume 3303.758499
_symmetry_space_group_name_H-M "P M M M"
_symmetry_group_IT_number 47
_symmetry_cell_setting 'orthorhombic'
loop_
_space_group_symop_operation_xyz
x,y,z
-x,-y,z
x,-y,-z
-x,y,-z
-x,-y,-z
x,y,-z
-x,y,z
x,-y,z
loop_
_atom_site_type_symbol
_atom_site_label
_atom_site_fract_x
_atom_site_fract_y
_atom_site_fract_z
Si Si1 0.570000 0.349307 0.100172
Si Si2 0.000000 0.338752 0.397398
Si Si3 0.112373 0.339324 0.712279
Si Si4 0.773110 0.657295 0.605662
Si Si5 0.666286 0.153959 0.395680
Si Si6 0.567400 0.155181 0.744828
Si Si7 0.933176 0.660616 0.900565
O O1 0.500000 0.341839 0.097481
O O2 0.590558 0.500000 0.128091
O O3 0.594330 0.242522 0.172688
O O4 0.594901 0.313230 0.000000
O O5 0.057666 0.282467 0.346015
O O6 0.000000 0.500000 0.397390
O O7 0.000000 0.282825 0.500000
O O8 0.110478 0.500000 0.709763
O O9 0.172800 0.289119 0.666721
O O10 0.107203 0.286165 0.816901
O O11 0.788701 0.681797 0.500000
O O12 0.759220 0.500000 0.623652
O O13 0.717241 0.744880 0.636923
O O14 0.650945 0.179543 0.500000
O O15 0.606111 0.186418 0.343256
O O16 0.687302 0.000000 0.378436
O O17 0.500000 0.195526 0.721834
O O18 0.571624 0.000000 0.774984
O O19 0.933215 0.500000 0.899354
O O20 0.000000 0.712238 0.885627
O O21 0.909828 0.711204 0.000000
#
# Coordination Sequence:
#
# PCOD8200775 Si02
#       7
#     8   4   8   8   8   8   8
#     4   8  14  25  41  62  89 118 142 164 199 252
#     4   9  14  18  27  47  76 104 127 158 204 250
#     4   9  14  21  33  52  78 106 133 166 208 245
#     4   9  17  28  42  60  81 107 141 177 209 246
#     4   9  18  32  47  62  83 113 146 176 211 260
#     4   9  17  28  44  67  89 108 137 180 224 260
#     4   8  12  18  29  47  74 107 137 162 196 247
#
# _framework density 15.739648000000001
#
# number of rings (size 3 to 8) (size 9 to 14) (size 15 to 20)
#    0.000    3.308    0.769    1.385    0.000    3.077 
#    0.000    3.077    0.000    0.923    0.000    7.000 
#    0.000    3.077    0.000    1.692    0.000    1.538 
#
# Total GULP energy -644426.538374 kJ/mol
# GULP energy per Si atom -12392.818046 kJ/mol
# Density = 1.570382 g / cm^3
# Si number density = 15.739648 Si / 1000 Ang^3
#
#
#
# Elastic Constant Matrix: (Units=GPa)
#
#
# Indices 1 2 3 4 5 6 
#
# 1 88.5000 40.0039 63.1076 0.0000 0.0000 0.0000
# 2 40.0039 45.2167 40.4577 0.0000 0.0000 0.0000
# 3 63.1076 40.4577 121.5486 0.0000 0.0000 0.0000
# 4 0.0000 0.0000 0.0000 16.9307 0.0000 0.0000
# 5 0.0000 0.0000 0.0000 0.0000 17.3623 0.0000
# 6 0.0000 0.0000 0.0000 0.0000 0.0000 10.7801
#
#
#
# Elastic Compliance Matrix: (Units=1/GPa)
#
#
# Indices 1 2 3 4 5 6 
#
# 1 0.022539 -0.013487 -0.007213 0.000000 0.000000 0.000000
# 2 -0.013487 0.039566 -0.006167 0.000000 0.000000 0.000000
# 3 -0.007213 -0.006167 0.014025 0.000000 0.000000 0.000000
# 4 0.000000 0.000000 0.000000 0.059064 0.000000 0.000000
# 5 0.000000 0.000000 0.000000 0.000000 0.057596 0.000000
# 6 0.000000 0.000000 0.000000 0.000000 0.000000 0.092764
#
#
# Mechanical properties :
#
#
# Convention : Reuss Voigt Hill
#
# Bulk Modulus (GPa) = 44.65161 60.26709 52.45935
# Shear Modulus (GPa) = 14.41942 16.46102 15.44022
#
# Velocity S-wave (km/s) = 3.03003 3.23744 3.13545
# Velocity P-wave (km/s) = 6.37745 7.23518 6.81981
#
# Compressibility (1/GPa) = 0.02239561
#
# Stress axis : x y z
#
# Youngs Moduli (GPa) = 44.36659 25.27418 71.30098
#
# Poissons Ratio (x) = 0.34087 0.51431
# Poissons Ratio (y) = 0.59837 0.43973
# Poissons Ratio (z) = 0.32003 0.15587
#
# Static dielectric constant tensor:
#      x y z
#    x 2.855060 0.000000 0.000000 
#    y 0.000000 2.716680 0.000000 
#    z 0.000000 0.000000 3.355760 
# 
# 
# High freq. dielectric constant tensor:
#      x y z
#    x 1.578360 0.000000 0.000000 
#    y 0.000000 1.561460 0.000000 
#    z 0.000000 0.000000 1.613500 
# 
# From -- ./inp_files/25419.got.cif
#   From: 2010.03.12/outbox.cif.g09.slc.cpg/sg47_13_cif.got.tgz:25419.got - 2010.04.14 03:12:58.
