data_PCOD8200144
_publ_section_title
;
Structure prediction by ZEFSAII (Michael W. Deem and Ramdas Pophale) SiO2 
 PCOD8200144
Probable space group: P M M M
;
_chemical_formula_sum "Si O2"
_cell_formula_units_Z 48
_cell_length_a 9.020692
_cell_length_b 14.785993
_cell_length_c 19.427367
_cell_angle_alpha 90.000000
_cell_angle_beta 90.000000
_cell_angle_gamma 90.000000
_cell_volume 2591.220049
_symmetry_space_group_name_H-M "P M M M"
_symmetry_group_IT_number 47
_symmetry_cell_setting 'orthorhombic'
loop_
_space_group_symop_operation_xyz
x,y,z
-x,-y,z
x,-y,-z
-x,y,-z
-x,-y,-z
x,y,-z
-x,y,z
x,-y,z
loop_
_atom_site_type_symbol
_atom_site_label
_atom_site_fract_x
_atom_site_fract_y
_atom_site_fract_z
Si Si1 0.676584 0.500000 0.418700
Si Si2 0.174741 0.898819 0.220796
Si Si3 0.324529 0.283508 0.191536
Si Si4 0.342045 0.105083 0.500000
Si Si5 0.830815 0.395607 0.920097
Si Si6 0.161038 0.848487 0.630738
Si Si7 0.166212 0.646901 0.325934
O O1 0.500000 0.500000 0.411524
O O2 0.722333 0.500000 0.500000
O O3 0.742296 0.413647 0.379327
O O4 0.265054 0.819652 0.182787
O O5 0.223116 0.895997 0.300675
O O6 0.000000 0.877252 0.213860
O O7 0.211394 0.000000 0.191849
O O8 0.500000 0.280907 0.202569
O O9 0.284176 0.334372 0.121460
O O10 0.251058 0.340423 0.253601
O O11 0.500000 0.154505 0.500000
O O12 0.265707 0.134233 0.431419
O O13 0.361430 0.000000 0.500000
O O14 0.798670 0.500000 0.903310
O O15 0.000000 0.371265 0.899914
O O16 0.803750 0.375593 0.000000
O O17 0.149658 0.742265 0.638526
O O18 0.000000 0.889575 0.613690
O O19 0.000000 0.607034 0.312434
#
# Coordination Sequence:
#
# PCOD8200144 Si02
#       7
#     4   8   8   4   8   8   8
#     4  11  25  41  57  81 110 139 178 233 297 347
#     4   9  18  35  58  81 106 141 188 235 276 328
#     4  11  22  35  56  87 122 153 184 230 285 336
#     4  11  23  33  45  70 101 132 163 205 272 339
#     4   9  19  37  61  87 116 153 194 232 274 329
#     4   9  19  35  54  74  96 128 174 223 269 319
#     4  10  22  40  59  78 103 143 191 231 271 327
#
# _framework density 18.524093000000001
#
# number of rings (size 3 to 8) (size 9 to 14) (size 15 to 20)
#    0.000    2.167    0.000    4.500    2.333    6.333 
#    0.000    0.833    0.000    0.500    0.000    3.500 
#    0.000    0.000    0.000    0.000    0.000    0.000 
#
# Total GULP energy -594975.683430 kJ/mol
# GULP energy per Si atom -12395.326738 kJ/mol
# Density = 1.848193 g / cm^3
# Si number density = 18.524093 Si / 1000 Ang^3
#
#
#
# Elastic Constant Matrix: (Units=GPa)
#
#
# Indices 1 2 3 4 5 6 
#
# 1 116.3526 47.9688 52.8600 0.0000 0.0000 0.0000
# 2 47.9688 92.4061 51.2065 0.0000 0.0000 0.0000
# 3 52.8600 51.2065 84.8962 0.0000 0.0000 0.0000
# 4 0.0000 0.0000 0.0000 -444.0249 0.0000 0.0000
# 5 0.0000 0.0000 0.0000 0.0000 92.2121 0.0000
# 6 0.0000 0.0000 0.0000 0.0000 0.0000 26.3951
#
#
#
# Elastic Compliance Matrix: (Units=1/GPa)
#
#
# Indices 1 2 3 4 5 6 
#
# 1 0.012621 -0.003300 -0.005868 0.000000 0.000000 0.000000
# 2 -0.003300 0.017118 -0.008270 0.000000 0.000000 0.000000
# 3 -0.005868 -0.008270 0.020421 0.000000 0.000000 0.000000
# 4 0.000000 0.000000 0.000000 -0.002252 0.000000 0.000000
# 5 0.000000 0.000000 0.000000 0.000000 0.010845 0.000000
# 6 0.000000 0.000000 0.000000 0.000000 0.000000 0.037886
#
#
# Mechanical properties :
#
#
# Convention : Reuss Voigt Hill
#
# Bulk Modulus (GPa) = 65.42961 66.41397 65.92179
# Shear Modulus (GPa) = 36.60103 -55.64224 -9.52061
#
# Velocity S-wave (km/s) = 4.44989 -5.48662 -2.26952
# Velocity P-wave (km/s) = 7.86130 2.05103 5.36625
#
# Compressibility (1/GPa) = 0.01528360
#
# Stress axis : x y z
#
# Youngs Moduli (GPa) = 79.23392 58.41916 48.96935
#
# Poissons Ratio (x) = 0.19278 0.28735
# Poissons Ratio (y) = 0.26147 0.40498
# Poissons Ratio (z) = 0.46494 0.48313
#
# Static dielectric constant tensor:
#      x y z
#    x 2.846930 0.000000 0.000000 
#    y 0.000000 3.518310 0.000000 
#    z 0.000000 0.000000 2.699790 
# 
# 
# High freq. dielectric constant tensor:
#      x y z
#    x 1.721290 0.000000 0.000000 
#    y 0.000000 1.724400 0.000000 
#    z 0.000000 0.000000 1.702460 
# 
# From -- ./inp_files/21100.got.cif
#   From: 2010.03.12/outbox.cif.g09.slc.cpg/sg47_11_cif.got.tgz:21100.got - 2010.04.14 03:12:58.
