data_PCOD8200977
_publ_section_title
;
Structure prediction by ZEFSAII (Michael W. Deem and Ramdas Pophale) SiO2 
 PCOD8200977
Probable space group: P M M M
;
_chemical_formula_sum "Si O2"
_cell_formula_units_Z 52
_cell_length_a 18.187327
_cell_length_b 9.847673
_cell_length_c 18.857323
_cell_angle_alpha 90.000000
_cell_angle_beta 90.000000
_cell_angle_gamma 90.000000
_cell_volume 3377.400275
_symmetry_space_group_name_H-M "P M M M"
_symmetry_group_IT_number 47
_symmetry_cell_setting 'orthorhombic'
loop_
_space_group_symop_operation_xyz
x,y,z
-x,-y,z
x,-y,-z
-x,y,-z
-x,-y,-z
x,y,-z
-x,y,z
x,-y,z
loop_
_atom_site_type_symbol
_atom_site_label
_atom_site_fract_x
_atom_site_fract_y
_atom_site_fract_z
Si Si1 0.192694 0.150681 0.655481
Si Si2 0.082649 0.661167 0.000000
Si Si3 0.915833 0.655290 0.280956
Si Si4 0.282608 0.848439 0.200053
Si Si5 0.581829 0.838201 0.286552
Si Si6 0.829114 0.656853 0.136987
Si Si7 0.334130 0.838426 0.421864
O O1 0.124544 0.253620 0.660005
O O2 0.234897 0.145070 0.729426
O O3 0.250116 0.203483 0.596309
O O4 0.163004 0.000000 0.636707
O O5 0.126466 0.711520 0.930895
O O6 0.076891 0.500000 0.000000
O O7 0.000000 0.722850 0.000000
O O8 0.907521 0.500000 0.304995
O O9 0.882127 0.677941 0.203581
O O10 0.000000 0.701004 0.277299
O O11 0.363959 0.794168 0.222292
O O12 0.245531 0.744823 0.144533
O O13 0.287014 0.000000 0.166375
O O14 0.500000 0.781338 0.271666
O O15 0.610023 0.779542 0.362518
O O16 0.582081 0.000000 0.290866
O O17 0.805835 0.500000 0.128225
O O18 0.354640 0.781096 0.500000
O O19 0.339179 0.000000 0.421120
#
# Coordination Sequence:
#
# PCOD8200977 Si02
#       7
#     8   4   8   8   8   8   8
#     4   8  14  24  37  53  73  98 127 156 188 227
#     4   9  16  26  41  61  84 107 130 158 193 231
#     4   9  16  25  38  56  75  94 121 159 196 225
#     4   8  14  25  39  55  78 105 130 158 190 222
#     4   8  13  21  35  57  82 105 129 157 191 230
#     4   9  16  26  41  59  78 102 130 156 185 228
#     4   8  13  21  34  53  77 103 128 155 188 227
#
# _framework density 15.396457
#
# number of rings (size 3 to 8) (size 9 to 14) (size 15 to 20)
#    0.000    3.615    0.000    2.308    0.000    2.462 
#    0.000    1.923    0.000    3.231    0.000    3.769 
#    0.000    4.308    0.000   12.000    0.000   12.308 
#
# Total GULP energy -644366.446846 kJ/mol
# GULP energy per Si atom -12391.662439 kJ/mol
# Density = 1.536141 g / cm^3
# Si number density = 15.396457 Si / 1000 Ang^3
#
#
#
# Elastic Constant Matrix: (Units=GPa)
#
#
# Indices 1 2 3 4 5 6 
#
# 1 132.8996 45.3724 49.7538 0.0000 0.0000 0.0000
# 2 45.3724 40.0573 20.5014 0.0000 0.0000 0.0000
# 3 49.7538 20.5014 55.2790 0.0000 0.0000 0.0000
# 4 0.0000 0.0000 0.0000 13.3023 0.0000 0.0000
# 5 0.0000 0.0000 0.0000 0.0000 20.3987 0.0000
# 6 0.0000 0.0000 0.0000 0.0000 0.0000 14.7784
#
#
#
# Elastic Compliance Matrix: (Units=1/GPa)
#
#
# Indices 1 2 3 4 5 6 
#
# 1 0.015200 -0.012608 -0.009005 0.000000 0.000000 0.000000
# 2 -0.012608 0.041271 -0.003958 0.000000 0.000000 0.000000
# 3 -0.009005 -0.003958 0.027663 0.000000 0.000000 0.000000
# 4 0.000000 0.000000 0.000000 0.075175 0.000000 0.000000
# 5 0.000000 0.000000 0.000000 0.000000 0.049023 0.000000
# 6 0.000000 0.000000 0.000000 0.000000 0.000000 0.067666
#
#
# Mechanical properties :
#
#
# Convention : Reuss Voigt Hill
#
# Bulk Modulus (GPa) = 30.31079 51.05455 40.68267
# Shear Modulus (GPa) = 14.78683 17.20309 15.99496
#
# Velocity S-wave (km/s) = 3.10240 3.34629 3.22665
# Velocity P-wave (km/s) = 5.70638 6.93989 6.35315
#
# Compressibility (1/GPa) = 0.03299155
#
# Stress axis : x y z
#
# Youngs Moduli (GPa) = 65.78882 24.22989 36.14960
#
# Poissons Ratio (x) = 0.30550 0.32552
# Poissons Ratio (y) = 0.82949 0.14309
# Poissons Ratio (z) = 0.59242 0.09591
#
# Static dielectric constant tensor:
#      x y z
#    x 3.202620 0.000000 0.000000 
#    y 0.000000 2.786400 0.000000 
#    z 0.000000 0.000000 2.898510 
# 
# 
# High freq. dielectric constant tensor:
#      x y z
#    x 1.587330 0.000000 0.000000 
#    y 0.000000 1.551230 0.000000 
#    z 0.000000 0.000000 1.563160 
# 
# From -- ./inp_files/28170.got.cif
#   From: 2010.03.12/outbox.cif.g09.slc.cpg/sg47_15_cif.got.tgz:28170.got - 2010.04.14 03:12:58.
