data_PCOD8200604
_publ_section_title
;
Structure prediction by ZEFSAII (Michael W. Deem and Ramdas Pophale) SiO2 
 PCOD8200604
Probable space group: P M M M
;
_chemical_formula_sum "Si O2"
_cell_formula_units_Z 44
_cell_length_a 9.682973
_cell_length_b 9.060554
_cell_length_c 28.277515
_cell_angle_alpha 90.000000
_cell_angle_beta 90.000000
_cell_angle_gamma 90.000000
_cell_volume 2480.874044
_symmetry_space_group_name_H-M "P M M M"
_symmetry_group_IT_number 47
_symmetry_cell_setting 'orthorhombic'
loop_
_space_group_symop_operation_xyz
x,y,z
-x,-y,z
x,-y,-z
-x,y,-z
-x,-y,-z
x,y,-z
-x,y,z
x,-y,z
loop_
_atom_site_type_symbol
_atom_site_label
_atom_site_fract_x
_atom_site_fract_y
_atom_site_fract_z
Si Si1 0.341603 0.173726 0.768416
Si Si2 0.847542 0.175192 0.684799
Si Si3 0.160063 0.826991 0.578404
Si Si4 0.341243 0.673634 0.863315
Si Si5 0.844932 0.675455 0.052247
Si Si6 0.660304 0.674693 0.500000
O O1 0.500000 0.216513 0.759793
O O2 0.258498 0.238231 0.723534
O O3 0.284948 0.249989 0.815845
O O4 0.320626 0.000000 0.774053
O O5 0.804703 0.222924 0.631950
O O6 0.000000 0.236742 0.696732
O O7 0.849572 0.000000 0.686683
O O8 0.263744 0.736258 0.546069
O O9 0.000000 0.790923 0.566371
O O10 0.187318 0.000000 0.570737
O O11 0.500000 0.715197 0.872122
O O12 0.319391 0.500000 0.857694
O O13 0.256977 0.739076 0.907837
O O14 0.839408 0.500000 0.052849
O O15 0.000000 0.730091 0.063313
O O16 0.799190 0.731649 0.000000
O O17 0.673004 0.500000 0.500000
O O18 0.500000 0.724655 0.500000
#
# Coordination Sequence:
#
# PCOD8200604 Si02
#       6
#     8   8   8   8   8   4
#     4   9  17  29  45  65  90 120 150 178 214 263
#     4   8  15  29  49  72  94 115 146 189 228 263
#     4   9  18  34  56  78  97 121 158 201 240 279
#     4   9  17  28  42  62  87 113 143 180 219 258
#     4   8  14  25  41  61  84 109 139 178 222 263
#     4  11  24  37  48  70 104 135 162 193 232 280
#
# _framework density 17.735685
#
# number of rings (size 3 to 8) (size 9 to 14) (size 15 to 20)
#    0.000    3.182    0.000    2.182    0.000    4.000 
#    0.000    4.545    0.000    3.818    0.000    3.818 
#    0.000    0.000    0.000    0.000    0.000    0.000 
#
# Total GULP energy -545409.855039 kJ/mol
# GULP energy per Si atom -12395.678524 kJ/mol
# Density = 1.769532 g / cm^3
# Si number density = 17.735685 Si / 1000 Ang^3
#
#
#
# Elastic Constant Matrix: (Units=GPa)
#
#
# Indices 1 2 3 4 5 6 
#
# 1 110.9666 31.9613 104.3063 0.0000 0.0000 0.0000
# 2 31.9613 26.4772 34.6152 0.0000 0.0000 0.0000
# 3 104.3063 34.6152 185.2553 0.0000 0.0000 0.0000
# 4 0.0000 0.0000 0.0000 44.0023 0.0000 0.0000
# 5 0.0000 0.0000 0.0000 0.0000 39.6937 0.0000
# 6 0.0000 0.0000 0.0000 0.0000 0.0000 17.5274
#
#
#
# Elastic Compliance Matrix: (Units=1/GPa)
#
#
# Indices 1 2 3 4 5 6 
#
# 1 0.022490 -0.014018 -0.010043 0.000000 0.000000 0.000000
# 2 -0.014018 0.058714 -0.003078 0.000000 0.000000 0.000000
# 3 -0.010043 -0.003078 0.011628 0.000000 0.000000 0.000000
# 4 0.000000 0.000000 0.000000 0.022726 0.000000 0.000000
# 5 0.000000 0.000000 0.000000 0.000000 0.025193 0.000000
# 6 0.000000 0.000000 0.000000 0.000000 0.000000 0.057053
#
#
# Mechanical properties :
#
#
# Convention : Reuss Voigt Hill
#
# Bulk Modulus (GPa) = 25.93844 73.82942 49.88393
# Shear Modulus (GPa) = 18.87268 30.36578 24.61923
#
# Velocity S-wave (km/s) = 3.26561 4.14228 3.72979
# Velocity P-wave (km/s) = 5.37361 8.03716 6.83636
#
# Compressibility (1/GPa) = 0.03855281
#
# Stress axis : x y z
#
# Youngs Moduli (GPa) = 44.46458 17.03184 85.99918
#
# Poissons Ratio (x) = 0.23874 0.86373
# Poissons Ratio (y) = 0.62328 0.26473
# Poissons Ratio (z) = 0.44658 0.05243
#
# Static dielectric constant tensor:
#      x y z
#    x 3.455050 0.000000 0.000000 
#    y 0.000000 2.845830 0.000000 
#    z 0.000000 0.000000 3.674020 
# 
# 
# High freq. dielectric constant tensor:
#      x y z
#    x 1.684030 0.000000 0.000000 
#    y 0.000000 1.640170 0.000000 
#    z 0.000000 0.000000 1.701310 
# 
# From -- ./inp_files/13584.got.cif
#   From: 2010.03.12/outbox.cif.g09.slc.cpg/sg47_7_cif.got.tgz:13584.got - 2010.04.14 03:12:58.
