data_PCOD8200860
_publ_section_title
;
Structure prediction by ZEFSAII (Michael W. Deem and Ramdas Pophale) SiO2 
 PCOD8200860
Probable space group: P M M M
;
_chemical_formula_sum "Si O2"
_cell_formula_units_Z 56
_cell_length_a 9.829237
_cell_length_b 13.625443
_cell_length_c 29.125988
_cell_angle_alpha 90.000000
_cell_angle_beta 90.000000
_cell_angle_gamma 90.000000
_cell_volume 3900.776830
_symmetry_space_group_name_H-M "P M M M"
_symmetry_group_IT_number 47
_symmetry_cell_setting 'orthorhombic'
loop_
_space_group_symop_operation_xyz
x,y,z
-x,-y,z
x,-y,-z
-x,y,-z
-x,-y,-z
x,y,-z
-x,y,z
x,-y,z
loop_
_atom_site_type_symbol
_atom_site_label
_atom_site_fract_x
_atom_site_fract_y
_atom_site_fract_z
Si Si1 0.657469 0.235304 0.314597
Si Si2 0.155109 0.262866 0.551433
Si Si3 0.842195 0.386654 0.638600
Si Si4 0.338287 0.890894 0.229935
Si Si5 0.651308 0.116867 0.128632
Si Si6 0.655552 0.887274 0.404700
Si Si7 0.847739 0.883283 0.050948
O O1 0.500000 0.268087 0.310637
O O2 0.749456 0.330205 0.324532
O O3 0.713185 0.186471 0.267724
O O4 0.676931 0.154375 0.353843
O O5 0.179205 0.303682 0.500000
O O6 0.190975 0.349187 0.587157
O O7 0.250314 0.168983 0.559158
O O8 0.000000 0.227985 0.558152
O O9 0.802196 0.500000 0.640707
O O10 0.000000 0.369481 0.650965
O O11 0.500000 0.898316 0.231946
O O12 0.293664 0.853507 0.179259
O O13 0.278026 0.000000 0.239696
O O14 0.500000 0.159390 0.120446
O O15 0.748721 0.162398 0.089501
O O16 0.646904 0.000000 0.125498
O O17 0.500000 0.874623 0.420639
O O18 0.699986 0.000000 0.404106
O O19 0.000000 0.844205 0.060184
O O20 0.846451 0.000000 0.054100
O O21 0.799059 0.850583 0.000000
#
# Coordination Sequence:
#
# PCOD8200860 Si02
#       7
#     8   8   8   8   8   8   8
#     4   9  16  27  44  62  78  98 126 156 183 218
#     4   9  18  31  45  61  79  99 125 154 183 218
#     4   9  18  32  47  61  78  98 119 149 189 227
#     4   8  13  22  37  56  77 100 125 154 188 223
#     4   8  13  20  30  45  64  87 118 154 187 218
#     4   9  17  28  42  60  81 105 130 153 179 214
#     4   8  13  20  28  38  56  85 120 157 194 225
#
# _framework density 14.356114
#
# number of rings (size 3 to 8) (size 9 to 14) (size 15 to 20)
#    0.000    3.429    0.000    1.714    0.000    3.429 
#    0.000    5.000    0.000    2.143    0.000    4.000 
#    0.000    0.000    0.000    0.000    0.000    0.714 
#
# Total GULP energy -694097.361792 kJ/mol
# GULP energy per Si atom -12394.595746 kJ/mol
# Density = 1.432344 g / cm^3
# Si number density = 14.356114 Si / 1000 Ang^3
#
#
#
# Elastic Constant Matrix: (Units=GPa)
#
#
# Indices 1 2 3 4 5 6 
#
# 1 58.9074 38.5324 51.7820 0.0000 0.0000 0.0000
# 2 38.5324 75.2671 41.6592 0.0000 0.0000 0.0000
# 3 51.7820 41.6592 117.8227 0.0000 0.0000 0.0000
# 4 0.0000 0.0000 0.0000 9.2931 0.0000 0.0000
# 5 0.0000 0.0000 0.0000 0.0000 20.4725 0.0000
# 6 0.0000 0.0000 0.0000 0.0000 0.0000 17.6792
#
#
#
# Elastic Compliance Matrix: (Units=1/GPa)
#
#
# Indices 1 2 3 4 5 6 
#
# 1 0.034021 -0.011365 -0.010933 0.000000 0.000000 0.000000
# 2 -0.011365 0.020315 -0.002188 0.000000 0.000000 0.000000
# 3 -0.010933 -0.002188 0.014066 0.000000 0.000000 0.000000
# 4 0.000000 0.000000 0.000000 0.107607 0.000000 0.000000
# 5 0.000000 0.000000 0.000000 0.000000 0.048846 0.000000
# 6 0.000000 0.000000 0.000000 0.000000 0.000000 0.056564
#
#
# Mechanical properties :
#
#
# Convention : Reuss Voigt Hill
#
# Bulk Modulus (GPa) = 51.46962 57.32714 54.39838
# Shear Modulus (GPa) = 14.84257 17.49053 16.16655
#
# Velocity S-wave (km/s) = 3.21890 3.49425 3.35940
# Velocity P-wave (km/s) = 7.05301 7.50324 7.28161
#
# Compressibility (1/GPa) = 0.01942894
#
# Stress axis : x y z
#
# Youngs Moduli (GPa) = 29.39365 49.22353 71.09282
#
# Poissons Ratio (x) = 0.55944 0.77729
# Poissons Ratio (y) = 0.33407 0.15556
# Poissons Ratio (z) = 0.32137 0.10771
#
# Static dielectric constant tensor:
#      x y z
#    x 2.852450 0.000000 0.000000 
#    y 0.000000 2.466530 0.000000 
#    z 0.000000 0.000000 3.035460 
# 
# 
# High freq. dielectric constant tensor:
#      x y z
#    x 1.540790 0.000000 0.000000 
#    y 0.000000 1.497560 0.000000 
#    z 0.000000 0.000000 1.550930 
# 
# From -- ./inp_files/16856.got.cif
#   From: 2010.03.12/outbox.cif.g09.slc.cpg/sg47_9_cif.got.tgz:16856.got - 2010.04.14 03:12:58.
