data_PCOD8200400
_publ_section_title
;
Structure prediction by ZEFSAII (Michael W. Deem and Ramdas Pophale) SiO2 
 PCOD8200400
Probable space group: P M M M
;
_chemical_formula_sum "Si O2"
_cell_formula_units_Z 48
_cell_length_a 9.003287
_cell_length_b 28.946413
_cell_length_c 9.830530
_cell_angle_alpha 90.000000
_cell_angle_beta 90.000000
_cell_angle_gamma 90.000000
_cell_volume 2561.962577
_symmetry_space_group_name_H-M "P M M M"
_symmetry_group_IT_number 47
_symmetry_cell_setting 'orthorhombic'
loop_
_space_group_symop_operation_xyz
x,y,z
-x,-y,z
x,-y,-z
-x,y,-z
-x,-y,-z
x,y,-z
-x,y,z
x,-y,z
loop_
_atom_site_type_symbol
_atom_site_label
_atom_site_fract_x
_atom_site_fract_y
_atom_site_fract_z
Si Si1 0.324470 0.947384 0.000000
Si Si2 0.175059 0.051406 0.500000
Si Si3 0.669151 0.806192 0.158274
Si Si4 0.825092 0.106436 0.760997
Si Si5 0.824128 0.373762 0.342287
Si Si6 0.328256 0.553872 0.845429
Si Si7 0.674841 0.700873 0.155145
O O1 0.262035 0.921512 0.872015
O O2 0.500000 0.944199 0.000000
O O3 0.268145 0.000000 0.000000
O O4 0.228295 0.081336 0.374032
O O5 0.000000 0.045662 0.500000
O O6 0.247583 0.000000 0.500000
O O7 0.500000 0.813280 0.205905
O O8 0.775461 0.840024 0.243351
O O9 0.719339 0.753714 0.184869
O O10 0.684842 0.818486 0.000000
O O11 0.000000 0.103885 0.786475
O O12 0.770958 0.374176 0.500000
O O13 0.768386 0.419493 0.265627
O O14 0.760571 0.329338 0.265150
O O15 0.000000 0.372286 0.334281
O O16 0.500000 0.567077 0.824479
O O17 0.301917 0.500000 0.820189
O O18 0.280731 0.567062 0.000000
O O19 0.500000 0.693349 0.173501
O O20 0.719935 0.687485 0.000000
#
# Coordination Sequence:
#
# PCOD8200400 Si02
#       7
#     4   4   8   8   8   8   8
#     4  11  23  37  55  81 113 145 179 227 278 321
#     4   9  20  38  55  75 109 147 181 221 268 321
#     4   9  18  35  58  83 113 142 173 222 280 333
#     4  11  21  35  58  84 109 142 183 225 272 330
#     4  11  24  38  52  79 119 156 189 232 283 331
#     4   9  19  37  61  87 113 145 190 240 285 335
#     4   9  19  37  61  84 106 141 187 231 276 332
#
# _framework density 18.735637000000001
#
# number of rings (size 3 to 8) (size 9 to 14) (size 15 to 20)
#    0.000    2.167    0.833    3.750    0.000    6.667 
#    1.500    5.833    0.000    3.000    0.000    0.000 
#    0.000    0.000    0.000    0.000    0.000    0.000 
#
# Total GULP energy -595143.995599 kJ/mol
# GULP energy per Si atom -12398.833242 kJ/mol
# Density = 1.869299 g / cm^3
# Si number density = 18.735637 Si / 1000 Ang^3
#
#
#
# Elastic Constant Matrix: (Units=GPa)
#
#
# Indices 1 2 3 4 5 6 
#
# 1 57.2823 45.1783 45.9959 0.0000 0.0000 0.0000
# 2 45.1783 134.3200 76.6864 0.0000 0.0000 0.0000
# 3 45.9959 76.6864 145.6352 0.0000 0.0000 0.0000
# 4 0.0000 0.0000 0.0000 35.8840 0.0000 0.0000
# 5 0.0000 0.0000 0.0000 0.0000 34.5086 0.0000
# 6 0.0000 0.0000 0.0000 0.0000 0.0000 25.6976
#
#
#
# Elastic Compliance Matrix: (Units=1/GPa)
#
#
# Indices 1 2 3 4 5 6 
#
# 1 0.026261 -0.005859 -0.005209 0.000000 0.000000 0.000000
# 2 -0.005859 0.011952 -0.004443 0.000000 0.000000 0.000000
# 3 -0.005209 -0.004443 0.010851 0.000000 0.000000 0.000000
# 4 0.000000 0.000000 0.000000 0.027868 0.000000 0.000000
# 5 0.000000 0.000000 0.000000 0.000000 0.028978 0.000000
# 6 0.000000 0.000000 0.000000 0.000000 0.000000 0.038914
#
#
# Mechanical properties :
#
#
# Convention : Reuss Voigt Hill
#
# Bulk Modulus (GPa) = 55.42519 74.77319 65.09919
# Shear Modulus (GPa) = 27.49361 30.50985 29.00173
#
# Velocity S-wave (km/s) = 3.83489 4.03977 3.93866
# Velocity P-wave (km/s) = 7.01822 7.85849 7.45021
#
# Compressibility (1/GPa) = 0.01804234
#
# Stress axis : x y z
#
# Youngs Moduli (GPa) = 38.07952 83.66589 92.15552
#
# Poissons Ratio (x) = 0.49019 0.48002
# Poissons Ratio (y) = 0.22311 0.40947
# Poissons Ratio (z) = 0.19835 0.37175
#
# Static dielectric constant tensor:
#      x y z
#    x 3.296680 0.000000 0.000000 
#    y 0.000000 3.678110 0.000000 
#    z 0.000000 0.000000 3.380590 
# 
# 
# High freq. dielectric constant tensor:
#      x y z
#    x 1.716730 0.000000 0.000000 
#    y 0.000000 1.746510 0.000000 
#    z 0.000000 0.000000 1.721330 
# 
# From -- ./inp_files/2688.got.cif
#   From: 2010.03.12/outbox.cif.g09.slc.cpg/sg47_2_cif.got.tgz:2688.got - 2010.04.14 03:12:58.
