data_PCOD8200128
_publ_section_title
;
Structure prediction by ZEFSAII (Michael W. Deem and Ramdas Pophale) SiO2 
 PCOD8200128
Probable space group: P M M M
;
_chemical_formula_sum "Si O2"
_cell_formula_units_Z 48
_cell_length_a 9.306256
_cell_length_b 14.733440
_cell_length_c 17.350933
_cell_angle_alpha 90.000000
_cell_angle_beta 90.000000
_cell_angle_gamma 90.000000
_cell_volume 2379.041329
_symmetry_space_group_name_H-M "P M M M"
_symmetry_group_IT_number 47
_symmetry_cell_setting 'orthorhombic'
loop_
_space_group_symop_operation_xyz
x,y,z
-x,-y,z
x,-y,-z
-x,y,-z
-x,-y,-z
x,y,-z
-x,y,z
x,-y,z
loop_
_atom_site_type_symbol
_atom_site_label
_atom_site_fract_x
_atom_site_fract_y
_atom_site_fract_z
Si Si1 0.836169 0.400410 0.247454
Si Si2 0.328957 0.723941 0.356475
Si Si3 0.159781 0.000000 0.907666
Si Si4 0.657804 0.836042 0.089738
Si Si5 0.838611 0.338637 0.915160
Si Si6 0.670187 0.397126 0.500000
Si Si7 0.833312 0.896742 0.590040
O O1 0.794589 0.500000 0.280212
O O2 0.730198 0.323312 0.279244
O O3 0.821814 0.409359 0.154367
O O4 0.000000 0.375736 0.270214
O O5 0.500000 0.732316 0.352530
O O6 0.276318 0.658823 0.425845
O O7 0.263876 0.824799 0.363801
O O8 0.241922 0.912983 0.873305
O O9 0.000000 0.000000 0.873074
O O10 0.153632 0.000000 0.000000
O O11 0.500000 0.838019 0.128638
O O12 0.727595 0.739753 0.104220
O O13 0.642555 0.857055 0.000000
O O14 0.000000 0.297786 0.916265
O O15 0.805609 0.382309 0.000000
O O16 0.734411 0.500000 0.500000
O O17 0.500000 0.403043 0.500000
O O18 0.800196 0.885133 0.500000
O O19 0.000000 0.876726 0.607236
O O20 0.794632 0.000000 0.615541
#
# Coordination Sequence:
#
# PCOD8200128 Si02
#       7
#     8   8   4   8   8   4   8
#     4  10  22  39  58  82 113 149 191 240 294 352
#     4  11  21  35  57  85 119 158 197 241 288 336
#     4   9  15  23  39  65  97 131 167 206 253 316
#     4   9  16  26  43  69  99 129 163 208 263 322
#     4   9  18  34  56  79 104 138 182 233 290 351
#     4   9  18  32  50  77 114 154 195 235 276 327
#     4   9  18  34  58  88 122 159 196 236 284 338
#
# _framework density 20.176196000000001
#
# number of rings (size 3 to 8) (size 9 to 14) (size 15 to 20)
#    0.000    2.500    0.833    2.250    0.000    5.333 
#    0.000    2.500    1.833    2.000    0.000    3.500 
#    0.000    0.000    0.000    0.000    0.000    0.000 
#
# Total GULP energy -594917.246492 kJ/mol
# GULP energy per Si atom -12394.109302 kJ/mol
# Density = 2.013027 g / cm^3
# Si number density = 20.176196 Si / 1000 Ang^3
#
#
#
# Elastic Constant Matrix: (Units=GPa)
#
#
# Indices 1 2 3 4 5 6 
#
# 1 119.7260 64.1257 26.9413 0.0000 0.0000 0.0000
# 2 64.1257 128.6906 37.0939 0.0000 0.0000 0.0000
# 3 26.9413 37.0939 74.2012 0.0000 0.0000 0.0000
# 4 0.0000 0.0000 0.0000 21.4949 0.0000 0.0000
# 5 0.0000 0.0000 0.0000 0.0000 19.4671 0.0000
# 6 0.0000 0.0000 0.0000 0.0000 0.0000 25.8202
#
#
#
# Elastic Compliance Matrix: (Units=1/GPa)
#
#
# Indices 1 2 3 4 5 6 
#
# 1 0.011541 -0.005308 -0.001537 0.000000 0.000000 0.000000
# 2 -0.005308 0.011520 -0.003832 0.000000 0.000000 0.000000
# 3 -0.001537 -0.003832 0.015950 0.000000 0.000000 0.000000
# 4 0.000000 0.000000 0.000000 0.046523 0.000000 0.000000
# 5 0.000000 0.000000 0.000000 0.000000 0.051369 0.000000
# 6 0.000000 0.000000 0.000000 0.000000 0.000000 0.038729
#
#
# Mechanical properties :
#
#
# Convention : Reuss Voigt Hill
#
# Bulk Modulus (GPa) = 56.63020 64.32662 60.47841
# Shear Modulus (GPa) = 24.64613 26.32022 25.48317
#
# Velocity S-wave (km/s) = 3.49885 3.61573 3.55777
# Velocity P-wave (km/s) = 6.66719 7.02730 6.84961
#
# Compressibility (1/GPa) = 0.01765842
#
# Stress axis : x y z
#
# Youngs Moduli (GPa) = 86.64623 86.80622 62.69422
#
# Poissons Ratio (x) = 0.46076 0.09636
# Poissons Ratio (y) = 0.45991 0.24023
# Poissons Ratio (z) = 0.13317 0.33262
#
# Static dielectric constant tensor:
#      x y z
#    x 3.633460 0.000000 0.000000 
#    y 0.000000 3.627780 0.000000 
#    z 0.000000 0.000000 3.393690 
# 
# 
# High freq. dielectric constant tensor:
#      x y z
#    x 1.781930 0.000000 0.000000 
#    y 0.000000 1.788080 0.000000 
#    z 0.000000 0.000000 1.757870 
# 
# From -- ./inp_files/26498.got.cif
#   From: 2010.03.12/outbox.cif.g09.slc.cpg/sg47_14_cif.got.tgz:26498.got - 2010.04.14 03:12:58.
