data_PCOD8200324
_publ_section_title
;
Structure prediction by ZEFSAII (Michael W. Deem and Ramdas Pophale) SiO2 
 PCOD8200324
Probable space group: P M M M
;
_chemical_formula_sum "Si O2"
_cell_formula_units_Z 64
_cell_length_a 14.079309
_cell_length_b 9.040968
_cell_length_c 30.891099
_cell_angle_alpha 90.000000
_cell_angle_beta 90.000000
_cell_angle_gamma 90.000000
_cell_volume 3932.145974
_symmetry_space_group_name_H-M "P M M M"
_symmetry_group_IT_number 47
_symmetry_cell_setting 'orthorhombic'
loop_
_space_group_symop_operation_xyz
x,y,z
-x,-y,z
x,-y,-z
-x,y,-z
-x,-y,-z
x,y,-z
-x,y,z
x,-y,z
loop_
_atom_site_type_symbol
_atom_site_label
_atom_site_fract_x
_atom_site_fract_y
_atom_site_fract_z
Si Si1 0.392125 0.330136 0.153788
Si Si2 0.213370 0.174345 0.875910
Si Si3 0.892272 0.826127 0.368826
Si Si4 0.213253 0.174820 0.717194
Si Si5 0.887867 0.329038 0.203304
Si Si6 0.890220 0.330728 0.950032
Si Si7 0.392383 0.669867 0.254734
Si Si8 0.112827 0.332645 0.547147
O O1 0.500000 0.282261 0.143726
O O2 0.375932 0.500000 0.140242
O O3 0.322914 0.224862 0.126691
O O4 0.369126 0.309552 0.204280
O O5 0.151034 0.254045 0.839727
O O6 0.174072 0.219416 0.922698
O O7 0.206550 0.000000 0.869490
O O8 0.829952 0.772842 0.328394
O O9 0.846231 0.762319 0.413011
O O10 0.000000 0.768570 0.361865
O O11 0.890745 0.000000 0.373275
O O12 0.154049 0.252137 0.754643
O O13 0.322697 0.225806 0.717964
O O14 0.206287 0.000000 0.723557
O O15 0.856792 0.500000 0.203250
O O16 0.000000 0.309983 0.204017
O O17 0.869298 0.500000 0.936470
O O18 0.000000 0.293530 0.941410
O O19 0.864488 0.305769 0.000000
O O20 0.500000 0.719223 0.264759
O O21 0.377013 0.500000 0.268232
O O22 0.149086 0.273912 0.500000
O O23 0.147354 0.500000 0.553601
O O24 0.000000 0.323011 0.547692
#
# Coordination Sequence:
#
# PCOD8200324 Si02
#       8
#     8   8   8   8   8   8   8   8
#     4   9  18  34  55  75  97 127 163 202 240 283
#     4  12  23  33  51  79 106 130 157 197 246 290
#     4   9  18  30  42  60  91 129 162 192 232 284
#     4  11  21  32  47  69  97 127 159 199 243 286
#     4  11  23  36  49  66  93 132 172 203 231 273
#     4   9  19  37  59  79 100 131 169 203 235 278
#     4   9  18  33  52  71  92 122 161 202 241 284
#     4   8  14  25  41  61  84 112 153 203 243 274
#
# _framework density 16.276098999999999
#
# number of rings (size 3 to 8) (size 9 to 14) (size 15 to 20)
#    0.000    2.250    1.250    4.125    0.000    5.250 
#    0.000    4.375    0.000    0.375    0.000    2.625 
#    0.000    0.500    0.000    5.500    0.000    4.250 
#
# Total GULP energy -793579.723527 kJ/mol
# GULP energy per Si atom -12399.683180 kJ/mol
# Density = 1.623905 g / cm^3
# Si number density = 16.276099 Si / 1000 Ang^3
#
#
#
# Elastic Constant Matrix: (Units=GPa)
#
#
# Indices 1 2 3 4 5 6 
#
# 1 83.1822 45.3343 50.4117 0.0000 0.0000 0.0000
# 2 45.3343 80.2387 49.5812 0.0000 0.0000 0.0000
# 3 50.4117 49.5812 107.8583 0.0000 0.0000 0.0000
# 4 0.0000 0.0000 0.0000 28.5909 0.0000 0.0000
# 5 0.0000 0.0000 0.0000 0.0000 10.8820 0.0000
# 6 0.0000 0.0000 0.0000 0.0000 0.0000 20.5637
#
#
#
# Elastic Compliance Matrix: (Units=1/GPa)
#
#
# Indices 1 2 3 4 5 6 
#
# 1 0.019580 -0.007553 -0.005679 0.000000 0.000000 0.000000
# 2 -0.007553 0.020321 -0.005811 0.000000 0.000000 0.000000
# 3 -0.005679 -0.005811 0.014597 0.000000 0.000000 0.000000
# 4 0.000000 0.000000 0.000000 0.034976 0.000000 0.000000
# 5 0.000000 0.000000 0.000000 0.000000 0.091895 0.000000
# 6 0.000000 0.000000 0.000000 0.000000 0.000000 0.048629
#
#
# Mechanical properties :
#
#
# Convention : Reuss Voigt Hill
#
# Bulk Modulus (GPa) = 60.93454 62.43707 61.68580
# Shear Modulus (GPa) = 18.27771 20.40411 19.34091
#
# Velocity S-wave (km/s) = 3.35472 3.54450 3.45091
# Velocity P-wave (km/s) = 7.24740 7.42938 7.33896
#
# Compressibility (1/GPa) = 0.01641105
#
# Stress axis : x y z
#
# Youngs Moduli (GPa) = 51.07172 49.20979 68.50617
#
# Poissons Ratio (x) = 0.37170 0.38908
# Poissons Ratio (y) = 0.38576 0.39809
# Poissons Ratio (z) = 0.29006 0.28596
#
# Static dielectric constant tensor:
#      x y z
#    x 3.028960 0.000000 0.000000 
#    y 0.000000 3.061830 0.000000 
#    z 0.000000 0.000000 3.187100 
# 
# 
# High freq. dielectric constant tensor:
#      x y z
#    x 1.608740 0.000000 0.000000 
#    y 0.000000 1.627120 0.000000 
#    z 0.000000 0.000000 1.616630 
# 
# From -- ./inp_files/14325.got.cif
#   From: 2010.03.12/outbox.cif.g09.slc.cpg/sg47_8_cif.got.tgz:14325.got - 2010.04.14 03:12:58.
