data_PCOD8200399
_publ_section_title
;
Structure prediction by ZEFSAII (Michael W. Deem and Ramdas Pophale) SiO2 
 PCOD8200399
Probable space group: P M M M
;
_chemical_formula_sum "Si O2"
_cell_formula_units_Z 44
_cell_length_a 10.203614
_cell_length_b 26.708617
_cell_length_c 9.052681
_cell_angle_alpha 90.000000
_cell_angle_beta 90.000000
_cell_angle_gamma 90.000000
_cell_volume 2467.076624
_symmetry_space_group_name_H-M "P M M M"
_symmetry_group_IT_number 47
_symmetry_cell_setting 'orthorhombic'
loop_
_space_group_symop_operation_xyz
x,y,z
-x,-y,z
x,-y,-z
-x,y,-z
-x,-y,-z
x,y,-z
-x,y,z
x,-y,z
loop_
_atom_site_type_symbol
_atom_site_label
_atom_site_fract_x
_atom_site_fract_y
_atom_site_fract_z
Si Si1 0.500000 0.056116 0.174996
Si Si2 0.760434 0.110873 0.825111
Si Si3 0.848121 0.795510 0.331187
Si Si4 0.149209 0.318831 0.673060
Si Si5 0.654506 0.500000 0.160574
Si Si6 0.000000 0.940810 0.668696
Si Si7 0.351267 0.607967 0.176414
O O1 0.374062 0.086387 0.230342
O O2 0.500000 0.000000 0.242561
O O3 0.500000 0.052584 0.000000
O O4 0.762688 0.168588 0.772956
O O5 0.873144 0.079160 0.750048
O O6 0.777214 0.108707 0.000000
O O7 0.803889 0.802769 0.500000
O O8 0.824698 0.738512 0.281398
O O9 0.000000 0.810171 0.312974
O O10 0.172419 0.326433 0.500000
O O11 0.250977 0.351878 0.762265
O O12 0.000000 0.333730 0.714501
O O13 0.500000 0.500000 0.137157
O O14 0.691075 0.447336 0.240783
O O15 0.723346 0.500000 0.000000
O O16 0.000000 0.921627 0.500000
O O17 0.000000 0.000000 0.677749
O O18 0.500000 0.621271 0.226554
O O19 0.343695 0.606964 0.000000
#
# Coordination Sequence:
#
# PCOD8200399 Si02
#       7
#     4   8   8   8   4   4   8
#     4   9  20  38  55  75 109 143 165 200 259 314
#     4  11  21  35  58  83 105 134 174 217 259 306
#     4   9  18  35  56  75 102 138 173 212 259 310
#     4   9  19  35  53  73 102 141 177 210 256 314
#     4   7  12  26  48  71 100 136 172 211 262 313
#     4  11  23  37  55  81 111 139 171 214 257 302
#     4   9  17  31  52  78 104 134 174 221 265 308
#
# _framework density 17.834873000000002
#
# number of rings (size 3 to 8) (size 9 to 14) (size 15 to 20)
#    0.000    2.636    0.909    3.545    0.000    2.909 
#    1.636    4.545    0.000    7.636    0.000    0.000 
#    0.000    0.000    0.000    0.000    0.000    0.000 
#
# Total GULP energy -545365.848018 kJ/mol
# GULP energy per Si atom -12394.678364 kJ/mol
# Density = 1.779428 g / cm^3
# Si number density = 17.834873 Si / 1000 Ang^3
#
#
#
# Elastic Constant Matrix: (Units=GPa)
#
#
# Indices 1 2 3 4 5 6 
#
# 1 127.7615 80.5017 47.3674 0.0000 0.0000 0.0000
# 2 80.5017 137.5598 47.9437 0.0000 0.0000 0.0000
# 3 47.3674 47.9437 60.4049 0.0000 0.0000 0.0000
# 4 0.0000 0.0000 0.0000 21.4658 0.0000 0.0000
# 5 0.0000 0.0000 0.0000 0.0000 53.1238 0.0000
# 6 0.0000 0.0000 0.0000 0.0000 0.0000 40.8583
#
#
#
# Elastic Compliance Matrix: (Units=1/GPa)
#
#
# Indices 1 2 3 4 5 6 
#
# 1 0.013866 -0.005979 -0.006128 0.000000 0.000000 0.000000
# 2 -0.005979 0.012628 -0.005334 0.000000 0.000000 0.000000
# 3 -0.006128 -0.005334 0.025594 0.000000 0.000000 0.000000
# 4 0.000000 0.000000 0.000000 0.046586 0.000000 0.000000
# 5 0.000000 0.000000 0.000000 0.000000 0.018824 0.000000
# 6 0.000000 0.000000 0.000000 0.000000 0.000000 0.024475
#
#
# Mechanical properties :
#
#
# Convention : Reuss Voigt Hill
#
# Bulk Modulus (GPa) = 58.11970 75.26131 66.69051
# Shear Modulus (GPa) = 27.38379 33.08381 30.23380
#
# Velocity S-wave (km/s) = 3.92268 4.31165 4.12176
# Velocity P-wave (km/s) = 7.29212 8.19010 7.75412
#
# Compressibility (1/GPa) = 0.01720587
#
# Stress axis : x y z
#
# Youngs Moduli (GPa) = 72.11712 79.19136 39.07173
#
# Poissons Ratio (x) = 0.47348 0.23943
# Poissons Ratio (y) = 0.43119 0.20841
# Poissons Ratio (z) = 0.44193 0.42242
#
# Static dielectric constant tensor:
#      x y z
#    x 2.426980 0.000000 0.000000 
#    y 0.000000 3.679350 0.000000 
#    z 0.000000 0.000000 3.076430 
# 
# 
# High freq. dielectric constant tensor:
#      x y z
#    x 1.675650 0.000000 0.000000 
#    y 0.000000 1.708680 0.000000 
#    z 0.000000 0.000000 1.669470 
# 
# From -- ./inp_files/2383.got.cif
#   From: 2010.03.12/outbox.cif.g09.slc.cpg/sg47_2_cif.got.tgz:2383.got - 2010.04.14 03:12:58.
