data_PCOD8200137
_publ_section_title
;
Structure prediction by ZEFSAII (Michael W. Deem and Ramdas Pophale) SiO2 
 PCOD8200137
Probable space group: P M M M
;
_chemical_formula_sum "Si O2"
_cell_formula_units_Z 48
_cell_length_a 14.531472
_cell_length_b 20.712099
_cell_length_c 7.558133
_cell_angle_alpha 90.000000
_cell_angle_beta 90.000000
_cell_angle_gamma 90.000000
_cell_volume 2274.826363
_symmetry_space_group_name_H-M "P M M M"
_symmetry_group_IT_number 47
_symmetry_cell_setting 'orthorhombic'
loop_
_space_group_symop_operation_xyz
x,y,z
-x,-y,z
x,-y,-z
-x,y,-z
-x,-y,-z
x,y,-z
-x,y,z
x,-y,z
loop_
_atom_site_type_symbol
_atom_site_label
_atom_site_fract_x
_atom_site_fract_y
_atom_site_fract_z
Si Si1 0.103102 0.171734 0.789691
Si Si2 0.742468 0.926866 0.202519
Si Si3 0.225952 0.570489 0.794404
Si Si4 0.604275 0.649923 0.799246
Si Si5 0.895924 0.315079 0.790863
Si Si6 0.389812 0.889590 0.500000
Si Si7 0.608560 0.255614 0.500000
O O1 0.176712 0.119295 0.721201
O O2 0.131305 0.243561 0.720033
O O3 0.000000 0.154643 0.720209
O O4 0.101216 0.171643 0.000000
O O5 0.651216 0.921586 0.322696
O O6 0.779670 0.000000 0.212138
O O7 0.716341 0.908578 0.000000
O O8 0.206739 0.500000 0.707127
O O9 0.333678 0.586790 0.767927
O O10 0.166193 0.627978 0.705228
O O11 0.200759 0.566319 0.000000
O O12 0.500000 0.630056 0.752254
O O13 0.641665 0.707602 0.676485
O O14 0.613347 0.675339 0.000000
O O15 0.000000 0.330799 0.736947
O O16 0.882552 0.315115 0.000000
O O17 0.500000 0.898202 0.500000
O O18 0.353393 0.816293 0.500000
O O19 0.500000 0.251674 0.500000
#
# Coordination Sequence:
#
# PCOD8200137 Si02
#       7
#     8   8   8   8   8   4   4
#     4   8  15  30  54  84 116 150 189 235 289 346
#     4  10  22  39  61  90 120 154 195 235 284 346
#     4   9  17  27  43  72 107 145 186 225 273 329
#     4   9  18  33  53  77 108 142 178 228 283 334
#     4   8  14  25  43  70 105 144 184 226 272 324
#     4  11  25  42  60  85 120 157 196 244 288 335
#     4   9  20  37  55  80 107 137 184 230 277 334
#
# _framework density 21.100511000000001
#
# number of rings (size 3 to 8) (size 9 to 14) (size 15 to 20)
#    0.000    3.000    0.000    1.250    2.333    2.667 
#    0.000    8.333    0.000    2.500    0.000    0.583 
#    0.000    1.333    0.000    0.167    0.000    0.000 
#
# Total GULP energy -594837.678069 kJ/mol
# GULP energy per Si atom -12392.451626 kJ/mol
# Density = 2.105249 g / cm^3
# Si number density = 21.100511 Si / 1000 Ang^3
#
#
#
# Elastic Constant Matrix: (Units=GPa)
#
#
# Indices 1 2 3 4 5 6 
#
# 1 126.3859 79.5479 27.4946 0.0000 0.0000 0.0000
# 2 79.5479 166.4143 30.9352 0.0000 0.0000 0.0000
# 3 27.4946 30.9352 66.5346 0.0000 0.0000 0.0000
# 4 0.0000 0.0000 0.0000 11.9212 0.0000 0.0000
# 5 0.0000 0.0000 0.0000 0.0000 8.7889 0.0000
# 6 0.0000 0.0000 0.0000 0.0000 0.0000 29.4691
#
#
#
# Elastic Compliance Matrix: (Units=1/GPa)
#
#
# Indices 1 2 3 4 5 6 
#
# 1 0.011668 -0.005124 -0.002439 0.000000 0.000000 0.000000
# 2 -0.005124 0.008828 -0.001987 0.000000 0.000000 0.000000
# 3 -0.002439 -0.001987 0.016962 0.000000 0.000000 0.000000
# 4 0.000000 0.000000 0.000000 0.083884 0.000000 0.000000
# 5 0.000000 0.000000 0.000000 0.000000 0.113779 0.000000
# 6 0.000000 0.000000 0.000000 0.000000 0.000000 0.033934
#
#
# Mechanical properties :
#
#
# Convention : Reuss Voigt Hill
#
# Bulk Modulus (GPa) = 54.47563 70.58781 62.53172
# Shear Modulus (GPa) = 16.99094 24.79298 20.89196
#
# Velocity S-wave (km/s) = 2.84075 3.43154 3.15003
# Velocity P-wave (km/s) = 6.05253 7.01615 6.55208
#
# Compressibility (1/GPa) = 0.01835683
#
# Stress axis : x y z
#
# Youngs Moduli (GPa) = 85.70459 113.27853 58.95652
#
# Poissons Ratio (x) = 0.58044 0.14381
# Poissons Ratio (y) = 0.43915 0.11715
# Poissons Ratio (z) = 0.20906 0.22509
#
# Static dielectric constant tensor:
#      x y z
#    x 3.810000 0.000000 0.000000 
#    y 0.000000 4.249800 0.000000 
#    z 0.000000 0.000000 3.553900 
# 
# 
# High freq. dielectric constant tensor:
#      x y z
#    x 1.820430 0.000000 0.000000 
#    y 0.000000 1.826850 0.000000 
#    z 0.000000 0.000000 1.800410 
# 
# From -- ./inp_files/7047.got.cif
#   From: 2010.03.12/outbox.cif.g09.slc.cpg/sg47_4_cif.got.tgz:7047.got - 2010.04.14 03:12:58.
