data_PCOD8200479
_publ_section_title
;
Structure prediction by ZEFSAII (Michael W. Deem and Ramdas Pophale) SiO2 
 PCOD8200479
Probable space group: P M M M
;
_chemical_formula_sum "Si O2"
_cell_formula_units_Z 64
_cell_length_a 8.858579
_cell_length_b 15.424491
_cell_length_c 23.948321
_cell_angle_alpha 90.000000
_cell_angle_beta 90.000000
_cell_angle_gamma 90.000000
_cell_volume 3272.276359
_symmetry_space_group_name_H-M "P M M M"
_symmetry_group_IT_number 47
_symmetry_cell_setting 'orthorhombic'
loop_
_space_group_symop_operation_xyz
x,y,z
-x,-y,z
x,-y,-z
-x,y,-z
-x,-y,-z
x,y,-z
-x,y,z
x,-y,z
loop_
_atom_site_type_symbol
_atom_site_label
_atom_site_fract_x
_atom_site_fract_y
_atom_site_fract_z
Si Si1 0.674916 0.344963 0.939942
Si Si2 0.327054 0.900831 0.434995
Si Si3 0.320603 0.404848 0.824026
Si Si4 0.326705 0.142015 0.062660
Si Si5 0.177764 0.244346 0.635089
Si Si6 0.828001 0.097309 0.171906
Si Si7 0.678545 0.242323 0.244744
Si Si8 0.179323 0.596406 0.437358
O O1 0.500000 0.368740 0.943668
O O2 0.747714 0.393847 0.886770
O O3 0.696239 0.243779 0.929518
O O4 0.749550 0.371732 0.000000
O O5 0.295050 0.886523 0.500000
O O6 0.500000 0.877472 0.420650
O O7 0.214864 0.839950 0.401097
O O8 0.293189 0.000000 0.418242
O O9 0.500000 0.394912 0.827536
O O10 0.273495 0.500000 0.801403
O O11 0.256989 0.330822 0.783066
O O12 0.500000 0.116416 0.073921
O O13 0.221737 0.094455 0.107250
O O14 0.280000 0.113369 0.000000
O O15 0.253118 0.233889 0.694542
O O16 0.243217 0.330721 0.604653
O O17 0.000000 0.250953 0.643007
O O18 0.722705 0.160040 0.207713
O O19 0.000000 0.129829 0.176040
O O20 0.812717 0.000000 0.196012
O O21 0.500000 0.244899 0.249582
O O22 0.240524 0.614852 0.500000
O O23 0.231891 0.500000 0.417877
O O24 0.000000 0.600930 0.438329
#
# Coordination Sequence:
#
# PCOD8200479 Si02
#       8
#     8   8   8   8   8   8   8   8
#     4   8  13  24  46  77 109 137 169 213 264 320
#     4   9  19  37  60  86 117 151 184 219 266 327
#     4   9  17  30  51  79 108 139 178 226 278 328
#     4   9  17  32  56  84 112 143 180 220 267 331
#     4  11  22  35  56  85 114 147 189 234 276 321
#     4  11  24  40  58  80 107 140 182 234 287 335
#     4  11  23  40  58  77 107 148 190 233 279 329
#     4   8  15  30  53  82 116 151 185 221 264 319
#
# _framework density 19.558250999999998
#
# number of rings (size 3 to 8) (size 9 to 14) (size 15 to 20)
#    0.000    2.500    1.250    3.000    0.000    3.750 
#    0.000    3.125    0.000    2.250    0.000    4.375 
#    0.000    2.000    0.000    0.000    0.000    0.000 
#
# Total GULP energy -793326.813495 kJ/mol
# GULP energy per Si atom -12395.731461 kJ/mol
# Density = 1.951374 g / cm^3
# Si number density = 19.558251 Si / 1000 Ang^3
#
#
#
# Elastic Constant Matrix: (Units=GPa)
#
#
# Indices 1 2 3 4 5 6 
#
# 1 46.7856 29.1793 29.7654 0.0000 0.0000 0.0000
# 2 29.1793 114.5449 60.0541 0.0000 0.0000 0.0000
# 3 29.7654 60.0541 110.5927 0.0000 0.0000 0.0000
# 4 0.0000 0.0000 0.0000 10.2272 0.0000 0.0000
# 5 0.0000 0.0000 0.0000 0.0000 18.9714 0.0000
# 6 0.0000 0.0000 0.0000 0.0000 0.0000 14.4072
#
#
#
# Elastic Compliance Matrix: (Units=1/GPa)
#
#
# Indices 1 2 3 4 5 6 
#
# 1 0.027243 -0.004328 -0.004982 0.000000 0.000000 0.000000
# 2 -0.004328 0.012892 -0.005836 0.000000 0.000000 0.000000
# 3 -0.004982 -0.005836 0.013552 0.000000 0.000000 0.000000
# 4 0.000000 0.000000 0.000000 0.097778 0.000000 0.000000
# 5 0.000000 0.000000 0.000000 0.000000 0.052711 0.000000
# 6 0.000000 0.000000 0.000000 0.000000 0.000000 0.069410
#
#
# Mechanical properties :
#
#
# Convention : Reuss Voigt Hill
#
# Bulk Modulus (GPa) = 42.74326 56.65785 49.70056
# Shear Modulus (GPa) = 16.04224 18.91613 17.47918
#
# Velocity S-wave (km/s) = 2.86707 3.11331 2.99272
# Velocity P-wave (km/s) = 5.73253 6.47729 6.11625
#
# Compressibility (1/GPa) = 0.02339550
#
# Stress axis : x y z
#
# Youngs Moduli (GPa) = 36.70671 77.56501 73.78872
#
# Poissons Ratio (x) = 0.33569 0.36763
# Poissons Ratio (y) = 0.15886 0.43063
# Poissons Ratio (z) = 0.18288 0.45267
#
# Static dielectric constant tensor:
#      x y z
#    x 3.134700 0.000000 0.000000 
#    y 0.000000 3.701890 0.000000 
#    z 0.000000 0.000000 3.687970 
# 
# 
# High freq. dielectric constant tensor:
#      x y z
#    x 1.716680 0.000000 0.000000 
#    y 0.000000 1.769870 0.000000 
#    z 0.000000 0.000000 1.765580 
# 
# From -- ./inp_files/32105.got.cif
#   From: 2010.03.12/outbox.cif.g09.slc.cpg/sg47_17_cif.got.tgz:32105.got - 2010.04.14 03:12:58.
