data_PCOD8200167
_publ_section_title
;
Structure prediction by ZEFSAII (Michael W. Deem and Ramdas Pophale) SiO2 
 PCOD8200167
Probable space group: P M M M
;
_chemical_formula_sum "Si O2"
_cell_formula_units_Z 40
_cell_length_a 7.797038
_cell_length_b 9.149677
_cell_length_c 27.715040
_cell_angle_alpha 90.000000
_cell_angle_beta 90.000000
_cell_angle_gamma 90.000000
_cell_volume 1977.201465
_symmetry_space_group_name_H-M "P M M M"
_symmetry_group_IT_number 47
_symmetry_cell_setting 'orthorhombic'
loop_
_space_group_symop_operation_xyz
x,y,z
-x,-y,z
x,-y,-z
-x,y,-z
-x,-y,-z
x,y,-z
-x,y,z
x,-y,z
loop_
_atom_site_type_symbol
_atom_site_label
_atom_site_fract_x
_atom_site_fract_y
_atom_site_fract_z
Si Si1 0.299018 0.665019 0.000000
Si Si2 0.800364 0.338363 0.898754
Si Si3 0.700681 0.327188 0.388261
Si Si4 0.000000 0.168310 0.557026
Si Si5 0.200160 0.838721 0.189817
Si Si6 0.701370 0.163712 0.292788
O O1 0.232870 0.741464 0.049464
O O2 0.224561 0.500000 0.000000
O O3 0.500000 0.669529 0.000000
O O4 0.715844 0.500000 0.899867
O O5 0.714262 0.251485 0.854156
O O6 0.000000 0.350975 0.888927
O O7 0.500000 0.288587 0.399097
O O8 0.730185 0.500000 0.390743
O O9 0.759406 0.270392 0.335663
O O10 0.825475 0.248218 0.426078
O O11 0.000000 0.176024 0.500000
O O12 0.000000 0.000000 0.575026
O O13 0.234866 0.766515 0.242165
O O14 0.000000 0.849995 0.180216
O O15 0.284213 0.000000 0.189796
O O16 0.500000 0.152863 0.291745
O O17 0.779784 0.000000 0.300257
#
# Coordination Sequence:
#
# PCOD8200167 Si02
#       6
#     4   8   8   4   8   8
#     4   9  17  29  46  67  88 114 154 203 254 308
#     4   9  17  30  47  66  89 120 159 203 253 312
#     4  10  22  40  62  91 126 161 199 248 304 356
#     4  11  25  43  65  93 123 161 209 252 293 348
#     4   9  18  31  47  70 100 133 169 212 262 317
#     4   9  18  33  53  77 107 146 187 225 272 333
#
# _framework density 20.230615
#
# number of rings (size 3 to 8) (size 9 to 14) (size 15 to 20)
#    0.000    2.600    0.000    1.200    1.400    5.200 
#    0.000    2.500    0.000    3.000    0.000    0.000 
#    0.000    0.000    0.000    0.000    0.000    0.000 
#
# Total GULP energy -495715.731396 kJ/mol
# GULP energy per Si atom -12392.893285 kJ/mol
# Density = 2.018457 g / cm^3
# Si number density = 20.230615 Si / 1000 Ang^3
#
#
#
# Elastic Constant Matrix: (Units=GPa)
#
#
# Indices 1 2 3 4 5 6 
#
# 1 51.1541 33.7081 37.8802 0.0000 0.0000 0.0000
# 2 33.7081 94.2243 65.3259 0.0000 0.0000 0.0000
# 3 37.8802 65.3259 156.1673 0.0000 0.0000 0.0000
# 4 0.0000 0.0000 0.0000 21.8726 0.0000 0.0000
# 5 0.0000 0.0000 0.0000 0.0000 7.4046 0.0000
# 6 0.0000 0.0000 0.0000 0.0000 0.0000 19.2276
#
#
#
# Elastic Compliance Matrix: (Units=1/GPa)
#
#
# Indices 1 2 3 4 5 6 
#
# 1 0.026884 -0.007178 -0.003518 0.000000 0.000000 0.000000
# 2 -0.007178 0.016865 -0.005313 0.000000 0.000000 0.000000
# 3 -0.003518 -0.005313 0.009479 0.000000 0.000000 0.000000
# 4 0.000000 0.000000 0.000000 0.045719 0.000000 0.000000
# 5 0.000000 0.000000 0.000000 0.000000 0.135051 0.000000
# 6 0.000000 0.000000 0.000000 0.000000 0.000000 0.052008
#
#
# Mechanical properties :
#
#
# Convention : Reuss Voigt Hill
#
# Bulk Modulus (GPa) = 47.15150 63.93044 55.54097
# Shear Modulus (GPa) = 15.38000 20.67640 18.02820
#
# Velocity S-wave (km/s) = 2.76023 3.20040 2.98843
# Velocity P-wave (km/s) = 5.78931 6.73247 6.27862
#
# Compressibility (1/GPa) = 0.02120823
#
# Stress axis : x y z
#
# Youngs Moduli (GPa) = 37.19628 59.29495 105.49124
#
# Poissons Ratio (x) = 0.42565 0.37115
# Poissons Ratio (y) = 0.26701 0.56052
# Poissons Ratio (z) = 0.13087 0.31506
#
# Static dielectric constant tensor:
#      x y z
#    x 3.452570 0.000000 0.000000 
#    y 0.000000 3.867810 0.000000 
#    z 0.000000 0.000000 3.975460 
# 
# 
# High freq. dielectric constant tensor:
#      x y z
#    x 1.779900 0.000000 0.000000 
#    y 0.000000 1.762890 0.000000 
#    z 0.000000 0.000000 1.803360 
# 
# From -- ./inp_files/33027.got.cif
#   From: 2010.03.12/outbox.cif.g09.slc.cpg/sg47_17_cif.got.tgz:33027.got - 2010.04.14 03:12:58.
