data_PCOD8200065
_publ_section_title
;
Structure prediction by ZEFSAII (Michael W. Deem and Ramdas Pophale) SiO2 
 PCOD8200065
Probable space group: P M M M
;
_chemical_formula_sum "Si O2"
_cell_formula_units_Z 48
_cell_length_a 19.343859
_cell_length_b 13.910343
_cell_length_c 8.523901
_cell_angle_alpha 90.000000
_cell_angle_beta 90.000000
_cell_angle_gamma 90.000000
_cell_volume 2293.608840
_symmetry_space_group_name_H-M "P M M M"
_symmetry_group_IT_number 47
_symmetry_cell_setting 'orthorhombic'
loop_
_space_group_symop_operation_xyz
x,y,z
-x,-y,z
x,-y,-z
-x,y,-z
-x,-y,-z
x,y,-z
-x,y,z
x,-y,z
loop_
_atom_site_type_symbol
_atom_site_label
_atom_site_fract_x
_atom_site_fract_y
_atom_site_fract_z
Si Si1 0.121760 0.000000 0.825221
Si Si2 0.646116 0.822137 0.317679
Si Si3 0.304837 0.362198 0.819872
Si Si4 0.500000 0.106769 0.685518
Si Si5 0.920483 0.205570 0.317167
Si Si6 0.715482 0.000000 0.178751
Si Si7 0.158314 0.605597 0.315867
Si Si8 0.422754 0.500000 0.185297
O O1 0.097506 0.099740 0.747159
O O2 0.203231 0.000000 0.827539
O O3 0.091097 0.000000 0.000000
O O4 0.650321 0.791709 0.500000
O O5 0.684149 0.749413 0.203126
O O6 0.567268 0.835119 0.260116
O O7 0.689810 0.915482 0.287800
O O8 0.239530 0.396361 0.721012
O O9 0.376757 0.409374 0.759902
O O10 0.290137 0.388493 0.000000
O O11 0.500000 0.094545 0.500000
O O12 0.500000 0.000000 0.761381
O O13 0.904342 0.200036 0.500000
O O14 0.878373 0.297938 0.242765
O O15 0.000000 0.227814 0.281147
O O16 0.685498 0.000000 0.000000
O O17 0.147179 0.611714 0.500000
O O18 0.128653 0.500000 0.258159
O O19 0.500000 0.500000 0.263318
O O20 0.432563 0.500000 0.000000
#
# Coordination Sequence:
#
# PCOD8200065 Si02
#       8
#     4   8   8   4   8   4   8   4
#     4  11  24  40  60  87 122 160 199 244 296 350
#     4  11  22  37  58  82 113 152 193 242 298 355
#     4  11  22  38  60  86 116 153 198 247 296 352
#     4   9  18  36  56  77 110 151 193 241 301 361
#     4  10  22  40  63  92 124 159 199 243 295 357
#     4  11  23  39  57  85 117 150 193 240 283 342
#     4  10  21  39  64  92 123 159 200 248 304 367
#     4   9  20  38  57  79 112 151 192 242 299 349
#
# _framework density 20.927717999999999
#
# number of rings (size 3 to 8) (size 9 to 14) (size 15 to 20)
#    0.000    1.667    1.667    2.750    1.167    6.333 
#    0.000    3.333    0.000    2.000    0.000    2.333 
#    0.000    0.000    0.000    0.000    0.000    0.000 
#
# Total GULP energy -594704.519182 kJ/mol
# GULP energy per Si atom -12389.677483 kJ/mol
# Density = 2.088009 g / cm^3
# Si number density = 20.927718 Si / 1000 Ang^3
#
#
#
# Elastic Constant Matrix: (Units=GPa)
#
#
# Indices 1 2 3 4 5 6 
#
# 1 106.9335 58.5748 24.2015 0.0000 0.0000 0.0000
# 2 58.5748 185.4955 23.0318 0.0000 0.0000 0.0000
# 3 24.2015 23.0318 32.3611 0.0000 0.0000 0.0000
# 4 0.0000 0.0000 0.0000 20.6724 0.0000 0.0000
# 5 0.0000 0.0000 0.0000 0.0000 20.8491 0.0000
# 6 0.0000 0.0000 0.0000 0.0000 0.0000 153.8847
#
#
#
# Elastic Compliance Matrix: (Units=1/GPa)
#
#
# Indices 1 2 3 4 5 6 
#
# 1 0.012703 -0.003106 -0.007289 0.000000 0.000000 0.000000
# 2 -0.003106 0.006673 -0.002426 0.000000 0.000000 0.000000
# 3 -0.007289 -0.002426 0.038079 0.000000 0.000000 0.000000
# 4 0.000000 0.000000 0.000000 0.048374 0.000000 0.000000
# 5 0.000000 0.000000 0.000000 0.000000 0.047964 0.000000
# 6 0.000000 0.000000 0.000000 0.000000 0.000000 0.006498
#
#
# Mechanical properties :
#
#
# Convention : Reuss Voigt Hill
#
# Bulk Modulus (GPa) = 31.43479 59.60070 45.51774
# Shear Modulus (GPa) = 25.44033 53.68003 39.56018
#
# Velocity S-wave (km/s) = 3.49037 5.07010 4.35250
# Velocity P-wave (km/s) = 5.59436 7.92563 6.85976
#
# Compressibility (1/GPa) = 0.03181189
#
# Stress axis : x y z
#
# Youngs Moduli (GPa) = 78.72298 149.85582 26.26092
#
# Poissons Ratio (x) = 0.46548 0.19142
# Poissons Ratio (y) = 0.24453 0.06372
# Poissons Ratio (z) = 0.57382 0.36360
#
# Static dielectric constant tensor:
#      x y z
#    x 3.997550 0.000000 0.000000 
#    y 0.000000 4.223710 0.000000 
#    z 0.000000 0.000000 3.619680 
# 
# 
# High freq. dielectric constant tensor:
#      x y z
#    x 1.823490 0.000000 0.000000 
#    y 0.000000 1.842080 0.000000 
#    z 0.000000 0.000000 1.791790 
# 
# From -- ./inp_files/9292.got.cif
#   From: 2010.03.12/outbox.cif.g09.slc.cpg/sg47_5_cif.got.tgz:9292.got - 2010.04.14 03:12:58.
