data_PCOD8200080
_publ_section_title
;
Structure prediction by ZEFSAII (Michael W. Deem and Ramdas Pophale) SiO2 
 PCOD8200080
Probable space group: P M M M
;
_chemical_formula_sum "Si O2"
_cell_formula_units_Z 52
_cell_length_a 12.617515
_cell_length_b 8.976416
_cell_length_c 26.001527
_cell_angle_alpha 90.000000
_cell_angle_beta 90.000000
_cell_angle_gamma 90.000000
_cell_volume 2944.934600
_symmetry_space_group_name_H-M "P M M M"
_symmetry_group_IT_number 47
_symmetry_cell_setting 'orthorhombic'
loop_
_space_group_symop_operation_xyz
x,y,z
-x,-y,z
x,-y,-z
-x,y,-z
-x,-y,-z
x,y,-z
-x,y,z
x,-y,z
loop_
_atom_site_type_symbol
_atom_site_label
_atom_site_fract_x
_atom_site_fract_y
_atom_site_fract_z
Si Si1 0.500000 0.824799 0.220247
Si Si2 0.617963 0.824190 0.500000
Si Si3 0.308707 0.176056 0.610104
Si Si4 0.122319 0.670665 0.782094
Si Si5 0.121888 0.327911 0.663896
Si Si6 0.379740 0.674826 0.057740
Si Si7 0.296923 0.174092 0.154065
Si Si8 0.500000 0.677219 0.329697
O O1 0.602697 0.777331 0.187969
O O2 0.500000 0.726706 0.270982
O O3 0.500000 0.000000 0.233959
O O4 0.500000 0.753381 0.500000
O O5 0.680269 0.772330 0.550843
O O6 0.606975 0.000000 0.500000
O O7 0.192070 0.222230 0.628132
O O8 0.395515 0.259746 0.643730
O O9 0.325191 0.000000 0.616693
O O10 0.154770 0.500000 0.791695
O O11 0.144075 0.713684 0.723019
O O12 0.189814 0.776020 0.818483
O O13 0.000000 0.696316 0.795768
O O14 0.150637 0.500000 0.653919
O O15 0.000000 0.297152 0.649810
O O16 0.500000 0.731404 0.066023
O O17 0.373839 0.500000 0.066967
O O18 0.302223 0.753938 0.097750
O O19 0.342161 0.714987 0.000000
O O20 0.293895 0.000000 0.146129
O O21 0.500000 0.500000 0.333190
#
# Coordination Sequence:
#
# PCOD8200080 Si02
#       8
#     4   4   8   8   8   8   8   4
#     4  10  22  36  48  74 112 145 173 209 260 319
#     4   9  18  36  57  76 103 141 180 217 263 316
#     4  11  21  36  58  80 104 138 179 222 265 316
#     4   9  19  36  56  76 102 141 183 217 256 313
#     4   9  19  37  58  81 110 141 176 219 267 319
#     4   9  18  33  53  76 103 140 184 221 257 310
#     4  11  21  33  51  78 111 140 172 218 268 314
#     4  12  24  35  51  77 108 140 176 216 268 323
#
# _framework density 17.657437000000002
#
# number of rings (size 3 to 8) (size 9 to 14) (size 15 to 20)
#    0.000    2.077    1.538    3.923    0.000    5.231 
#    0.000    4.615    0.000    2.769    0.000    3.231 
#    0.000    0.000    0.000    0.000    0.000    0.000 
#
# Total GULP energy -644917.093419 kJ/mol
# GULP energy per Si atom -12402.251797 kJ/mol
# Density = 1.761725 g / cm^3
# Si number density = 17.657437 Si / 1000 Ang^3
#
#
#
# Elastic Constant Matrix: (Units=GPa)
#
#
# Indices 1 2 3 4 5 6 
#
# 1 91.1473 37.6645 61.6016 0.0000 0.0000 0.0000
# 2 37.6645 68.7779 56.2409 0.0000 0.0000 0.0000
# 3 61.6016 56.2409 135.0035 0.0000 0.0000 0.0000
# 4 0.0000 0.0000 0.0000 26.1233 0.0000 0.0000
# 5 0.0000 0.0000 0.0000 0.0000 39.6589 0.0000
# 6 0.0000 0.0000 0.0000 0.0000 0.0000 30.7059
#
#
#
# Elastic Compliance Matrix: (Units=1/GPa)
#
#
# Indices 1 2 3 4 5 6 
#
# 1 0.016705 -0.004421 -0.005781 0.000000 0.000000 0.000000
# 2 -0.004421 0.023221 -0.007656 0.000000 0.000000 0.000000
# 3 -0.005781 -0.007656 0.013234 0.000000 0.000000 0.000000
# 4 0.000000 0.000000 0.000000 0.038280 0.000000 0.000000
# 5 0.000000 0.000000 0.000000 0.000000 0.025215 0.000000
# 6 0.000000 0.000000 0.000000 0.000000 0.000000 0.032567
#
#
# Mechanical properties :
#
#
# Convention : Reuss Voigt Hill
#
# Bulk Modulus (GPa) = 57.32459 67.32696 62.32577
# Shear Modulus (GPa) = 26.21172 28.59240 27.40206
#
# Velocity S-wave (km/s) = 3.85705 4.02840 3.94365
# Velocity P-wave (km/s) = 7.23678 7.73625 7.49068
#
# Compressibility (1/GPa) = 0.01744452
#
# Stress axis : x y z
#
# Youngs Moduli (GPa) = 59.86231 43.06358 75.56015
#
# Poissons Ratio (x) = 0.19039 0.43679
# Poissons Ratio (y) = 0.26466 0.57852
# Poissons Ratio (z) = 0.34604 0.32971
#
# Static dielectric constant tensor:
#      x y z
#    x 3.232200 0.000000 0.000000 
#    y 0.000000 3.151040 0.000000 
#    z 0.000000 0.000000 3.378840 
# 
# 
# High freq. dielectric constant tensor:
#      x y z
#    x 1.674950 0.000000 0.000000 
#    y 0.000000 1.678150 0.000000 
#    z 0.000000 0.000000 1.685850 
# 
# From -- ./inp_files/33614.got.cif
#   From: 2010.03.12/outbox.cif.g09.slc.cpg/sg47_17_cif.got.tgz:33614.got - 2010.04.14 03:12:58.
