data_PCOD8200614
_publ_section_title
;
Structure prediction by ZEFSAII (Michael W. Deem and Ramdas Pophale) SiO2 
 PCOD8200614
Probable space group: P M M M
;
_chemical_formula_sum "Si O2"
_cell_formula_units_Z 52
_cell_length_a 8.974626
_cell_length_b 20.202830
_cell_length_c 14.431429
_cell_angle_alpha 90.000000
_cell_angle_beta 90.000000
_cell_angle_gamma 90.000000
_cell_volume 2616.603426
_symmetry_space_group_name_H-M "P M M M"
_symmetry_group_IT_number 47
_symmetry_cell_setting 'orthorhombic'
loop_
_space_group_symop_operation_xyz
x,y,z
-x,-y,z
x,-y,-z
-x,y,-z
-x,-y,-z
x,y,-z
-x,y,z
x,-y,z
loop_
_atom_site_type_symbol
_atom_site_label
_atom_site_fract_x
_atom_site_fract_y
_atom_site_fract_z
Si Si1 0.328669 0.426094 0.724448
Si Si2 0.825006 0.833247 0.393400
Si Si3 0.824464 0.316905 0.397629
Si Si4 0.830228 0.772618 0.893408
Si Si5 0.170665 0.618471 0.895112
Si Si6 0.324418 0.880891 0.782133
Si Si7 0.176666 0.000000 0.108347
O O1 0.500000 0.407232 0.717018
O O2 0.299387 0.500000 0.685004
O O3 0.237518 0.371502 0.670246
O O4 0.278028 0.424683 0.831082
O O5 0.781269 0.849206 0.500000
O O6 0.781019 0.757580 0.368087
O O7 0.734319 0.881148 0.324159
O O8 0.000000 0.844952 0.378804
O O9 0.760617 0.331157 0.500000
O O10 0.000000 0.323440 0.397649
O O11 0.800348 0.695689 0.877520
O O12 0.714455 0.810942 0.828942
O O13 0.000000 0.790578 0.864914
O O14 0.803594 0.792358 0.000000
O O15 0.000000 0.601071 0.872274
O O16 0.209100 0.599379 0.000000
O O17 0.500000 0.893535 0.782038
O O18 0.243485 0.936169 0.842332
O O19 0.000000 0.000000 0.120389
O O20 0.221350 0.000000 0.000000
#
# Coordination Sequence:
#
# PCOD8200614 Si02
#       7
#     8   8   8   8   8   8   4
#     4  11  24  37  49  72 108 147 183 222 277 344
#     4   9  19  38  63  88 114 146 186 230 275 327
#     4   9  19  37  61  86 109 138 182 234 280 323
#     4   9  18  34  56  81 109 142 182 227 275 331
#     4   9  19  36  57  79 102 134 182 236 281 324
#     4  12  24  36  56  88 123 153 183 227 279 328
#     4  11  25  45  66  85 112 157 205 238 268 315
#
# _framework density 19.873092
#
# number of rings (size 3 to 8) (size 9 to 14) (size 15 to 20)
#    0.000    2.077    0.000    5.308    0.000   10.462 
#    0.000    6.538    0.000    2.308    0.000    0.000 
#    0.000    0.000    0.000    0.000    0.000    0.000 
#
# Total GULP energy -644808.591247 kJ/mol
# GULP energy per Si atom -12400.165216 kJ/mol
# Density = 1.982786 g / cm^3
# Si number density = 19.873092 Si / 1000 Ang^3
#
#
#
# Elastic Constant Matrix: (Units=GPa)
#
#
# Indices 1 2 3 4 5 6 
#
# 1 30.4110 10.9077 30.7598 0.0000 0.0000 0.0000
# 2 10.9077 46.1662 38.5796 0.0000 0.0000 0.0000
# 3 30.7598 38.5796 108.6442 0.0000 0.0000 0.0000
# 4 0.0000 0.0000 0.0000 23.1677 0.0000 0.0000
# 5 0.0000 0.0000 0.0000 0.0000 2.3325 0.0000
# 6 0.0000 0.0000 0.0000 0.0000 0.0000 -29.7526
#
#
#
# Elastic Compliance Matrix: (Units=1/GPa)
#
#
# Indices 1 2 3 4 5 6 
#
# 1 0.046078 0.000021 -0.013053 0.000000 0.000000 0.000000
# 2 0.000021 0.030801 -0.010943 0.000000 0.000000 0.000000
# 3 -0.013053 -0.010943 0.016786 0.000000 0.000000 0.000000
# 4 0.000000 0.000000 0.000000 0.043163 0.000000 0.000000
# 5 0.000000 0.000000 0.000000 0.000000 0.428730 0.000000
# 6 0.000000 0.000000 0.000000 0.000000 0.000000 -0.033610
#
#
# Mechanical properties :
#
#
# Convention : Reuss Voigt Hill
#
# Bulk Modulus (GPa) = 21.87501 38.41285 30.14393
# Shear Modulus (GPa) = 8.40141 6.14780 7.27461
#
# Velocity S-wave (km/s) = 2.05833 1.76075 1.91533
# Velocity P-wave (km/s) = 4.08414 4.84816 4.48246
#
# Compressibility (1/GPa) = 0.04571427
#
# Stress axis : x y z
#
# Youngs Moduli (GPa) = 21.70218 32.46656 59.57291
#
# Poissons Ratio (x) = -0.00070 0.77763
# Poissons Ratio (y) = -0.00046 0.65194
# Poissons Ratio (z) = 0.28329 0.35530
#
# Static dielectric constant tensor:
#      x y z
#    x 3.444840 0.000000 0.000000 
#    y 0.000000 3.555910 0.000000 
#    z 0.000000 0.000000 3.927560 
# 
# 
# High freq. dielectric constant tensor:
#      x y z
#    x 1.761130 0.000000 0.000000 
#    y 0.000000 1.767160 0.000000 
#    z 0.000000 0.000000 1.788500 
# 
# From -- ./inp_files/21481.got.cif
#   From: 2010.03.12/outbox.cif.g09.slc.cpg/sg47_11_cif.got.tgz:21481.got - 2010.04.14 03:12:58.
