data_PCOD8200111
_publ_section_title
;
Structure prediction by ZEFSAII (Michael W. Deem and Ramdas Pophale) SiO2 
 PCOD8200111
Probable space group: P M M M
;
_chemical_formula_sum "Si O2"
_cell_formula_units_Z 48
_cell_length_a 8.908973
_cell_length_b 9.981182
_cell_length_c 28.905362
_cell_angle_alpha 90.000000
_cell_angle_beta 90.000000
_cell_angle_gamma 90.000000
_cell_volume 2570.324940
_symmetry_space_group_name_H-M "P M M M"
_symmetry_group_IT_number 47
_symmetry_cell_setting 'orthorhombic'
loop_
_space_group_symop_operation_xyz
x,y,z
-x,-y,z
x,-y,-z
-x,y,-z
-x,-y,-z
x,y,-z
-x,y,z
x,-y,z
loop_
_atom_site_type_symbol
_atom_site_label
_atom_site_fract_x
_atom_site_fract_y
_atom_site_fract_z
Si Si1 0.677038 0.652206 0.774107
Si Si2 0.666336 0.000000 0.553818
Si Si3 0.174606 0.155019 0.700791
Si Si4 0.824601 0.754272 0.597388
Si Si5 0.322017 0.500000 0.446945
Si Si6 0.821636 0.150154 0.948615
Si Si7 0.823891 0.653159 0.870230
O O1 0.500000 0.660651 0.777263
O O2 0.728807 0.500000 0.761724
O O3 0.732716 0.756404 0.736298
O O4 0.743930 0.696483 0.823140
O O5 0.764013 0.873235 0.566642
O O6 0.500000 0.000000 0.577576
O O7 0.640456 0.000000 0.500000
O O8 0.208959 0.214352 0.650602
O O9 0.000000 0.166511 0.713027
O O10 0.226771 0.000000 0.702929
O O11 0.735946 0.624809 0.581773
O O12 0.000000 0.734321 0.588119
O O13 0.500000 0.500000 0.447004
O O14 0.262103 0.500000 0.500000
O O15 0.757218 0.254899 0.911321
O O16 0.000000 0.157546 0.948841
O O17 0.769060 0.000000 0.935282
O O18 0.761738 0.187413 0.000000
O O19 0.787494 0.500000 0.883208
O O20 0.000000 0.676507 0.863309
#
# Coordination Sequence:
#
# PCOD8200111 Si02
#       7
#     8   4   8   8   4   8   8
#     4  10  22  38  56  81 111 145 185 228 276 332
#     4  11  23  39  61  89 121 157 191 229 282 337
#     4  10  22  41  61  84 113 143 180 228 280 332
#     4  11  23  41  63  89 117 150 193 238 283 335
#     4  11  25  43  61  87 123 157 191 233 282 337
#     4   8  14  25  43  70 103 136 173 220 272 324
#     4   9  17  30  49  74 103 137 177 222 273 324
#
# _framework density 18.674683000000002
#
# number of rings (size 3 to 8) (size 9 to 14) (size 15 to 20)
#    0.000    2.167    0.833    2.500    1.167    7.000 
#    0.000    3.333    0.000    0.500    0.000    3.500 
#    0.000    0.000    0.000    0.000    0.000    0.000 
#
# Total GULP energy -595187.850878 kJ/mol
# GULP energy per Si atom -12399.746893 kJ/mol
# Density = 1.863218 g / cm^3
# Si number density = 18.674683 Si / 1000 Ang^3
#
#
#
# Elastic Constant Matrix: (Units=GPa)
#
#
# Indices 1 2 3 4 5 6 
#
# 1 53.4918 40.3483 49.1233 0.0000 0.0000 0.0000
# 2 40.3483 132.4781 73.6738 0.0000 0.0000 0.0000
# 3 49.1233 73.6738 122.9326 0.0000 0.0000 0.0000
# 4 0.0000 0.0000 0.0000 43.2087 0.0000 0.0000
# 5 0.0000 0.0000 0.0000 0.0000 -8.9013 0.0000
# 6 0.0000 0.0000 0.0000 0.0000 0.0000 -4.6403
#
#
#
# Elastic Compliance Matrix: (Units=1/GPa)
#
#
# Indices 1 2 3 4 5 6 
#
# 1 0.030755 -0.003798 -0.010013 0.000000 0.000000 0.000000
# 2 -0.003798 0.011791 -0.005549 0.000000 0.000000 0.000000
# 3 -0.010013 -0.005549 0.015461 0.000000 0.000000 0.000000
# 4 0.000000 0.000000 0.000000 0.023143 0.000000 0.000000
# 5 0.000000 0.000000 0.000000 0.000000 -0.112343 0.000000
# 6 0.000000 0.000000 0.000000 0.000000 0.000000 -0.215502
#
#
# Mechanical properties :
#
#
# Convention : Reuss Voigt Hill
#
# Bulk Modulus (GPa) = 51.84908 70.57704 61.21306
# Shear Modulus (GPa) = -24.80824 15.65056 -4.57884
#
# Velocity S-wave (km/s) = -3.64873 2.89807 -1.56755
# Velocity P-wave (km/s) = 3.17390 7.00524 5.43815
#
# Compressibility (1/GPa) = 0.01928674
#
# Stress axis : x y z
#
# Youngs Moduli (GPa) = 32.51510 84.81111 64.67891
#
# Poissons Ratio (x) = 0.32214 0.64764
# Poissons Ratio (y) = 0.12350 0.35887
# Poissons Ratio (z) = 0.32558 0.47057
#
# Static dielectric constant tensor:
#      x y z
#    x 3.313220 0.000000 0.000000 
#    y 0.000000 3.582950 0.000000 
#    z 0.000000 0.000000 3.683270 
# 
# 
# High freq. dielectric constant tensor:
#      x y z
#    x 1.710160 0.000000 0.000000 
#    y 0.000000 1.735650 0.000000 
#    z 0.000000 0.000000 1.732470 
# 
# From -- ./inp_files/2815.got.cif
#   From: 2010.03.12/outbox.cif.g09.slc.cpg/sg47_2_cif.got.tgz:2815.got - 2010.04.14 03:12:58.
