data_PCOD8200586
_publ_section_title
;
Structure prediction by ZEFSAII (Michael W. Deem and Ramdas Pophale) SiO2 
 PCOD8200586
Probable space group: P M M M
;
_chemical_formula_sum "Si O2"
_cell_formula_units_Z 40
_cell_length_a 8.950846
_cell_length_b 25.916258
_cell_length_c 9.403194
_cell_angle_alpha 90.000000
_cell_angle_beta 90.000000
_cell_angle_gamma 90.000000
_cell_volume 2181.281802
_symmetry_space_group_name_H-M "P M M M"
_symmetry_group_IT_number 47
_symmetry_cell_setting 'orthorhombic'
loop_
_space_group_symop_operation_xyz
x,y,z
-x,-y,z
x,-y,-z
-x,y,-z
-x,-y,-z
x,y,-z
-x,y,z
x,-y,z
loop_
_atom_site_type_symbol
_atom_site_label
_atom_site_fract_x
_atom_site_fract_y
_atom_site_fract_z
Si Si1 0.177194 0.405828 0.342724
Si Si2 0.821412 0.500000 0.159118
Si Si3 0.178540 0.111279 0.338600
Si Si4 0.827331 0.290132 0.666705
Si Si5 0.674804 0.201146 0.835559
Si Si6 0.162554 0.000000 0.667832
O O1 0.242917 0.416469 0.500000
O O2 0.241939 0.448798 0.236093
O O3 0.220794 0.348390 0.291762
O O4 0.000000 0.409814 0.350325
O O5 0.000000 0.500000 0.160274
O O6 0.758171 0.500000 0.000000
O O7 0.228494 0.124894 0.500000
O O8 0.242814 0.152329 0.230396
O O9 0.243106 0.054318 0.292145
O O10 0.000000 0.111040 0.329702
O O11 0.801053 0.280194 0.500000
O O12 0.723808 0.253117 0.757736
O O13 0.000000 0.279831 0.705162
O O14 0.500000 0.193505 0.814391
O O15 0.719708 0.205360 0.000000
O O16 0.139555 0.000000 0.500000
O O17 0.000000 0.000000 0.741965
#
# Coordination Sequence:
#
# PCOD8200586 Si02
#       6
#     8   4   8   8   8   4
#     4   8  14  25  41  62  90 121 151 188 236 285
#     4   9  15  21  33  59  94 127 156 185 222 274
#     4   9  17  32  56  81 101 124 158 199 241 286
#     4   9  18  33  53  75  95 120 161 208 249 290
#     4  11  24  37  47  66  99 135 167 199 240 290
#     4   7  12  26  50  79 104 122 148 193 242 283
#
# _framework density 18.337842999999999
#
# number of rings (size 3 to 8) (size 9 to 14) (size 15 to 20)
#    0.000    3.000    0.000    3.900    0.000    6.800 
#    0.000    3.000    0.000    4.800    0.000    0.700 
#    0.000    5.600    0.000    0.000    0.000    0.000 
#
# Total GULP energy -495696.467202 kJ/mol
# GULP energy per Si atom -12392.411680 kJ/mol
# Density = 1.829610 g / cm^3
# Si number density = 18.337843 Si / 1000 Ang^3
#
#
#
# Elastic Constant Matrix: (Units=GPa)
#
#
# Indices 1 2 3 4 5 6 
#
# 1 25.3988 25.2646 24.1572 0.0000 0.0000 0.0000
# 2 25.2646 167.7871 76.8099 0.0000 0.0000 0.0000
# 3 24.1572 76.8099 95.9075 0.0000 0.0000 0.0000
# 4 0.0000 0.0000 0.0000 2.2636 0.0000 0.0000
# 5 0.0000 0.0000 0.0000 0.0000 19.5811 0.0000
# 6 0.0000 0.0000 0.0000 0.0000 0.0000 -4.7026
#
#
#
# Elastic Compliance Matrix: (Units=1/GPa)
#
#
# Indices 1 2 3 4 5 6 
#
# 1 0.052674 -0.002933 -0.010919 0.000000 0.000000 0.000000
# 2 -0.002933 0.009573 -0.006928 0.000000 0.000000 0.000000
# 3 -0.010919 -0.006928 0.018725 0.000000 0.000000 0.000000
# 4 0.000000 0.000000 0.000000 0.441783 0.000000 0.000000
# 5 0.000000 0.000000 0.000000 0.000000 0.051070 0.000000
# 6 0.000000 0.000000 0.000000 0.000000 0.000000 -0.212646
#
#
# Mechanical properties :
#
#
# Convention : Reuss Voigt Hill
#
# Bulk Modulus (GPa) = 25.37212 60.17296 42.77254
# Shear Modulus (GPa) = 12.02281 14.28585 13.15433
#
# Velocity S-wave (km/s) = 2.56330 2.79415 2.68121
# Velocity P-wave (km/s) = 4.75675 6.57985 5.74113
#
# Compressibility (1/GPa) = 0.03941334
#
# Stress axis : x y z
#
# Youngs Moduli (GPa) = 18.98460 104.45893 53.40344
#
# Poissons Ratio (x) = 0.30639 0.58309
# Poissons Ratio (y) = 0.05568 0.36998
# Poissons Ratio (z) = 0.20728 0.72370
#
# Static dielectric constant tensor:
#      x y z
#    x 2.865040 0.000000 0.000000 
#    y 0.000000 3.816140 0.000000 
#    z 0.000000 0.000000 3.379610 
# 
# 
# High freq. dielectric constant tensor:
#      x y z
#    x 1.656490 0.000000 0.000000 
#    y 0.000000 1.735710 0.000000 
#    z 0.000000 0.000000 1.697310 
# 
# From -- ./inp_files/1757.got.cif
#   From: 2010.03.12/outbox.cif.g09.slc.cpg/sg47_1_cif.got.tgz:1757.got - 2010.04.14 03:12:58.
