data_PCOD8200936
_publ_section_title
;
Structure prediction by ZEFSAII (Michael W. Deem and Ramdas Pophale) SiO2 
 PCOD8200936
Probable space group: P M M M
;
_chemical_formula_sum "Si O2"
_cell_formula_units_Z 36
_cell_length_a 7.711829
_cell_length_b 22.608923
_cell_length_c 11.918918
_cell_angle_alpha 90.000000
_cell_angle_beta 90.000000
_cell_angle_gamma 90.000000
_cell_volume 2078.136631
_symmetry_space_group_name_H-M "P M M M"
_symmetry_group_IT_number 47
_symmetry_cell_setting 'orthorhombic'
loop_
_space_group_symop_operation_xyz
x,y,z
-x,-y,z
x,-y,-z
-x,y,-z
-x,-y,-z
x,y,-z
-x,y,z
x,-y,z
loop_
_atom_site_type_symbol
_atom_site_label
_atom_site_fract_x
_atom_site_fract_y
_atom_site_fract_z
Si Si1 0.206646 0.611582 0.236056
Si Si2 0.807348 0.852260 0.366484
Si Si3 0.500000 0.933317 0.366012
Si Si4 0.793473 0.567263 0.000000
Si Si5 0.206590 0.500000 0.625616
Si Si6 0.794322 0.721147 0.374863
O O1 0.275373 0.602398 0.109276
O O2 0.277113 0.557851 0.311390
O O3 0.280825 0.672670 0.288044
O O4 0.000000 0.612204 0.236890
O O5 0.814721 0.854209 0.500000
O O6 0.671460 0.900301 0.319652
O O7 0.744177 0.786591 0.330449
O O8 0.000000 0.866450 0.318433
O O9 0.500000 0.932727 0.500000
O O10 0.500000 0.000000 0.319308
O O11 0.721967 0.500000 0.000000
O O12 0.000000 0.564766 0.000000
O O13 0.281097 0.500000 0.500000
O O14 0.000000 0.500000 0.624928
O O15 0.717634 0.710013 0.500000
O O16 0.000000 0.716132 0.382141
#
# Coordination Sequence:
#
# PCOD8200936 Si02
#       6
#     8   8   4   4   4   8
#     4   9  14  19  27  39  59  90 126 163 203 247
#     4   8  14  24  36  51  75 106 137 170 205 239
#     4   9  16  24  36  56  80 108 141 168 192 234
#     4   9  14  20  26  36  60  95 127 156 203 261
#     4   9  14  17  23  37  57  83 120 165 205 238
#     4   8  13  21  32  45  63  92 130 167 203 241
#
# _framework density 17.323212000000002
#
# number of rings (size 3 to 8) (size 9 to 14) (size 15 to 20)
#    0.000    3.444    1.111    2.000    0.000    3.111 
#    0.000    2.222    0.000    0.000    0.000    0.000 
#    0.000    1.778    0.000   11.556    0.000   49.667 
#
# Total GULP energy -446105.876937 kJ/mol
# GULP energy per Si atom -12391.829915 kJ/mol
# Density = 1.728378 g / cm^3
# Si number density = 17.323212 Si / 1000 Ang^3
#
#
#
# Elastic Constant Matrix: (Units=GPa)
#
#
# Indices 1 2 3 4 5 6 
#
# 1 48.2514 46.1397 15.0337 0.0000 0.0000 0.0000
# 2 46.1397 172.4417 59.7256 0.0000 0.0000 0.0000
# 3 15.0337 59.7256 97.1990 0.0000 0.0000 0.0000
# 4 0.0000 0.0000 0.0000 7.2585 0.0000 0.0000
# 5 0.0000 0.0000 0.0000 0.0000 -0.4592 0.0000
# 6 0.0000 0.0000 0.0000 0.0000 0.0000 -6.5877
#
#
#
# Elastic Compliance Matrix: (Units=1/GPa)
#
#
# Indices 1 2 3 4 5 6 
#
# 1 0.027860 -0.007574 0.000345 0.000000 0.000000 0.000000
# 2 -0.007574 0.009426 -0.004620 0.000000 0.000000 0.000000
# 3 0.000345 -0.004620 0.013074 0.000000 0.000000 0.000000
# 4 0.000000 0.000000 0.000000 0.137769 0.000000 0.000000
# 5 0.000000 0.000000 0.000000 0.000000 -2.177751 0.000000
# 6 0.000000 0.000000 0.000000 0.000000 0.000000 -0.151797
#
#
# Mechanical properties :
#
#
# Convention : Reuss Voigt Hill
#
# Bulk Modulus (GPa) = 37.50851 62.18781 49.84816
# Shear Modulus (GPa) = -2.37098 13.17520 5.40211
#
# Velocity S-wave (km/s) = -1.17117 2.76080 1.76782
# Velocity P-wave (km/s) = 4.45761 6.79258 5.74498
#
# Compressibility (1/GPa) = 0.02666062
#
# Stress axis : x y z
#
# Youngs Moduli (GPa) = 35.89423 106.09132 76.48795
#
# Poissons Ratio (x) = 0.80351 -0.02637
# Poissons Ratio (y) = 0.27185 0.35341
# Poissons Ratio (z) = -0.01238 0.49019
#
# Static dielectric constant tensor:
#      x y z
#    x 2.946420 0.000000 0.000000 
#    y 0.000000 3.475940 0.000000 
#    z 0.000000 0.000000 3.065980 
# 
# 
# High freq. dielectric constant tensor:
#      x y z
#    x 1.640750 0.000000 0.000000 
#    y 0.000000 1.666480 0.000000 
#    z 0.000000 0.000000 1.613560 
# 
# From -- ./inp_files/15019.got.cif
#   From: 2010.03.12/outbox.cif.g09.slc.cpg/sg47_8_cif.got.tgz:15019.got - 2010.04.14 03:12:58.
