data_PCOD8200941
_publ_section_title
;
Structure prediction by ZEFSAII (Michael W. Deem and Ramdas Pophale) SiO2 
 PCOD8200941
Probable space group: P M M M
;
_chemical_formula_sum "Si O2"
_cell_formula_units_Z 60
_cell_length_a 28.136612
_cell_length_b 9.203550
_cell_length_c 20.508418
_cell_angle_alpha 90.000000
_cell_angle_beta 90.000000
_cell_angle_gamma 90.000000
_cell_volume 5310.792563
_symmetry_space_group_name_H-M "P M M M"
_symmetry_group_IT_number 47
_symmetry_cell_setting 'orthorhombic'
loop_
_space_group_symop_operation_xyz
x,y,z
-x,-y,z
x,-y,-z
-x,y,-z
-x,-y,-z
x,y,-z
-x,y,z
x,-y,z
loop_
_atom_site_type_symbol
_atom_site_label
_atom_site_fract_x
_atom_site_fract_y
_atom_site_fract_z
Si Si1 0.000000 0.164923 0.922293
Si Si2 0.184380 0.164740 0.922243
Si Si3 0.631303 0.168806 0.925299
Si Si4 0.443367 0.337129 0.305870
Si Si5 0.275802 0.664135 0.077579
Si Si6 0.092182 0.335135 0.077694
Si Si7 0.556515 0.163257 0.571770
Si Si8 0.445956 0.830708 0.179186
O O1 0.953804 0.249505 0.895858
O O2 0.000000 0.000000 0.895402
O O3 0.000000 0.162792 0.000000
O O4 0.231131 0.245437 0.894863
O O5 0.138633 0.251800 0.895996
O O6 0.183142 0.000000 0.895459
O O7 0.184645 0.163520 0.000000
O O8 0.675802 0.260262 0.898525
O O9 0.585227 0.211228 0.883445
O O10 0.644515 0.000000 0.918187
O O11 0.619381 0.208207 0.000000
O O12 0.500000 0.333475 0.308299
O O13 0.423634 0.500000 0.302270
O O14 0.422053 0.264486 0.371425
O O15 0.425487 0.252089 0.242133
O O16 0.273669 0.500000 0.104755
O O17 0.273987 0.664357 0.000000
O O18 0.091845 0.500000 0.104628
O O19 0.092065 0.337276 0.000000
O O20 0.572607 0.219967 0.500000
O O21 0.500000 0.163764 0.575673
O O22 0.575405 0.000000 0.582723
O O23 0.500000 0.783787 0.163384
O O24 0.442989 0.000000 0.195478
#
# Coordination Sequence:
#
# PCOD8200941 Si02
#       8
#     4   8   8   8   8   8   8   8
#     4   9  15  21  27  35  49  69  91 111 129 149
#     4   9  15  22  32  44  56  69  85 105 129 158
#     4   9  17  28  40  52  63  74  91 117 148 180
#     4   9  16  24  34  48  65  83 101 120 139 160
#     4   9  16  25  36  48  60  72  85 104 134 171
#     4   9  15  21  28  38  52  69  88 108 129 153
#     4   8  13  21  33  48  65  84 103 120 137 157
#     4   9  17  28  40  51  63  80  99 118 142 174
#
# _framework density 11.297749
#
# number of rings (size 3 to 8) (size 9 to 14) (size 15 to 20)
#    0.000    3.133    0.000    2.200    0.000    8.267 
#    0.000    2.667    0.000    0.000    0.000    3.733 
#    0.000    0.000    0.000    0.000    0.000    0.000 
#
# Total GULP energy -743759.093748 kJ/mol
# GULP energy per Si atom -12395.984896 kJ/mol
# Density = 1.127203 g / cm^3
# Si number density = 11.297749 Si / 1000 Ang^3
#
#
#
# Elastic Constant Matrix: (Units=GPa)
#
#
# Indices 1 2 3 4 5 6 
#
# 1 70.2126 44.5167 25.8126 0.0000 0.0000 0.0000
# 2 44.5167 89.7032 29.3276 0.0000 0.0000 0.0000
# 3 25.8126 29.3276 44.1445 0.0000 0.0000 0.0000
# 4 0.0000 0.0000 0.0000 7.8601 0.0000 0.0000
# 5 0.0000 0.0000 0.0000 0.0000 0.2776 0.0000
# 6 0.0000 0.0000 0.0000 0.0000 0.0000 16.7565
#
#
#
# Elastic Compliance Matrix: (Units=1/GPa)
#
#
# Indices 1 2 3 4 5 6 
#
# 1 0.022496 -0.008768 -0.007329 0.000000 0.000000 0.000000
# 2 -0.008768 0.017658 -0.006605 0.000000 0.000000 0.000000
# 3 -0.007329 -0.006605 0.031326 0.000000 0.000000 0.000000
# 4 0.000000 0.000000 0.000000 0.127225 0.000000 0.000000
# 5 0.000000 0.000000 0.000000 0.000000 3.602650 0.000000
# 6 0.000000 0.000000 0.000000 0.000000 0.000000 0.059678
#
#
# Mechanical properties :
#
#
# Convention : Reuss Voigt Hill
#
# Bulk Modulus (GPa) = 38.34727 44.81935 41.58331
# Shear Modulus (GPa) = 1.27710 11.93904 6.60807
#
# Velocity S-wave (km/s) = 1.06436 3.25432 2.42110
# Velocity P-wave (km/s) = 5.96042 7.34016 6.68597
#
# Compressibility (1/GPa) = 0.02607747
#
# Stress axis : x y z
#
# Youngs Moduli (GPa) = 44.45246 56.63038 31.92207
#
# Poissons Ratio (x) = 0.49652 0.23396
# Poissons Ratio (y) = 0.38975 0.21083
# Poissons Ratio (z) = 0.32580 0.37402
#
# Static dielectric constant tensor:
#      x y z
#    x 2.301850 0.000000 0.000000 
#    y 0.000000 2.584680 0.000000 
#    z 0.000000 0.000000 2.098580 
# 
# 
# High freq. dielectric constant tensor:
#      x y z
#    x 1.403480 0.000000 0.000000 
#    y 0.000000 1.443500 0.000000 
#    z 0.000000 0.000000 1.369400 
# 
# From -- ./inp_files/13535.got.cif
#   From: 2010.03.12/outbox.cif.g09.slc.cpg/sg47_7_cif.got.tgz:13535.got - 2010.04.14 03:12:58.
