data_PCOD8200591
_publ_section_title
;
Structure prediction by ZEFSAII (Michael W. Deem and Ramdas Pophale) SiO2 
 PCOD8200591
Probable space group: P M M M
;
_chemical_formula_sum "Si O2"
_cell_formula_units_Z 44
_cell_length_a 9.302140
_cell_length_b 28.359149
_cell_length_c 9.167738
_cell_angle_alpha 90.000000
_cell_angle_beta 90.000000
_cell_angle_gamma 90.000000
_cell_volume 2418.456383
_symmetry_space_group_name_H-M "P M M M"
_symmetry_group_IT_number 47
_symmetry_cell_setting 'orthorhombic'
loop_
_space_group_symop_operation_xyz
x,y,z
-x,-y,z
x,-y,-z
-x,y,-z
-x,-y,-z
x,y,-z
-x,y,z
x,-y,z
loop_
_atom_site_type_symbol
_atom_site_label
_atom_site_fract_x
_atom_site_fract_y
_atom_site_fract_z
Si Si1 0.668348 0.766250 0.330573
Si Si2 0.834976 0.151662 0.174059
Si Si3 0.829480 0.950144 0.163105
Si Si4 0.165071 0.578797 0.832238
Si Si5 0.664695 0.500000 0.671451
Si Si6 0.833786 0.687467 0.832457
O O1 0.704544 0.771522 0.500000
O O2 0.500000 0.764757 0.300033
O O3 0.733353 0.810275 0.245961
O O4 0.735383 0.717812 0.273423
O O5 0.782062 0.099814 0.234532
O O6 0.000000 0.161763 0.219005
O O7 0.819525 0.153635 0.000000
O O8 0.000000 0.948362 0.154965
O O9 0.781474 0.000000 0.242504
O O10 0.766651 0.951902 0.000000
O O11 0.264234 0.547213 0.731742
O O12 0.202242 0.633103 0.801548
O O13 0.000000 0.568340 0.793386
O O14 0.194814 0.566086 0.000000
O O15 0.500000 0.500000 0.719980
O O16 0.683911 0.500000 0.500000
O O17 0.000000 0.698261 0.798833
O O18 0.799731 0.700383 0.000000
#
# Coordination Sequence:
#
# PCOD8200591 Si02
#       6
#     8   8   8   8   4   8
#     4  11  24  37  48  68 101 138 172 206 246 295
#     4   9  17  30  51  77 100 125 162 206 249 297
#     4   7  10  19  39  69 100 123 147 190 248 299
#     4   9  19  37  60  83 105 131 167 211 255 300
#     4  11  24  37  50  76 114 149 178 209 244 286
#     4   9  19  37  60  83 103 125 161 210 259 305
#
# _framework density 18.193422999999999
#
# number of rings (size 3 to 8) (size 9 to 14) (size 15 to 20)
#    0.000    2.818    0.000    4.364    0.000    8.000 
#    0.000    5.455    0.000    1.091    0.000    6.364 
#    0.000    0.000    0.000    0.000    0.000    0.000 
#
# Total GULP energy -545225.366530 kJ/mol
# GULP energy per Si atom -12391.485603 kJ/mol
# Density = 1.815201 g / cm^3
# Si number density = 18.193423 Si / 1000 Ang^3
#
#
#
# Elastic Constant Matrix: (Units=GPa)
#
#
# Indices 1 2 3 4 5 6 
#
# 1 82.9664 64.8914 46.1158 0.0000 0.0000 0.0000
# 2 64.8914 140.1095 47.3938 0.0000 0.0000 0.0000
# 3 46.1158 47.3938 50.7418 0.0000 0.0000 0.0000
# 4 0.0000 0.0000 0.0000 -4.9951 0.0000 0.0000
# 5 0.0000 0.0000 0.0000 0.0000 28.2879 0.0000
# 6 0.0000 0.0000 0.0000 0.0000 0.0000 -6.7490
#
#
#
# Elastic Compliance Matrix: (Units=1/GPa)
#
#
# Indices 1 2 3 4 5 6 
#
# 1 0.027710 -0.006308 -0.019292 0.000000 0.000000 0.000000
# 2 -0.006308 0.011870 -0.005354 0.000000 0.000000 0.000000
# 3 -0.019292 -0.005354 0.042241 0.000000 0.000000 0.000000
# 4 0.000000 0.000000 0.000000 -0.200198 0.000000 0.000000
# 5 0.000000 0.000000 0.000000 0.000000 0.035351 0.000000
# 6 0.000000 0.000000 0.000000 0.000000 0.000000 -0.148170
#
#
# Mechanical properties :
#
#
# Convention : Reuss Voigt Hill
#
# Bulk Modulus (GPa) = 50.21663 65.62442 57.92052
# Shear Modulus (GPa) = -30.74065 11.00322 -9.86872
#
# Velocity S-wave (km/s) = -4.11500 2.46192 -2.33155
# Velocity P-wave (km/s) = 2.25472 6.65057 4.96558
#
# Compressibility (1/GPa) = 0.01991372
#
# Stress axis : x y z
#
# Youngs Moduli (GPa) = 36.08798 84.24744 23.67365
#
# Poissons Ratio (x) = 0.53144 0.45671
# Poissons Ratio (y) = 0.22765 0.12674
# Poissons Ratio (z) = 0.69620 0.45103
#
# Static dielectric constant tensor:
#      x y z
#    x 3.140730 0.000000 0.000000 
#    y 0.000000 3.842510 0.000000 
#    z 0.000000 0.000000 3.100610 
# 
# 
# High freq. dielectric constant tensor:
#      x y z
#    x 1.679980 0.000000 0.000000 
#    y 0.000000 1.733990 0.000000 
#    z 0.000000 0.000000 1.675250 
# 
# From -- ./inp_files/2176.got.cif
#   From: 2010.03.12/outbox.cif.g09.slc.cpg/sg47_2_cif.got.tgz:2176.got - 2010.04.14 03:12:58.
