data_PCOD8200502
_publ_section_title
;
Structure prediction by ZEFSAII (Michael W. Deem and Ramdas Pophale) SiO2 
 PCOD8200502
Probable space group: P M M M
;
_chemical_formula_sum "Si O2"
_cell_formula_units_Z 52
_cell_length_a 7.951586
_cell_length_b 22.996763
_cell_length_c 14.183031
_cell_angle_alpha 90.000000
_cell_angle_beta 90.000000
_cell_angle_gamma 90.000000
_cell_volume 2593.519526
_symmetry_space_group_name_H-M "P M M M"
_symmetry_group_IT_number 47
_symmetry_cell_setting 'orthorhombic'
loop_
_space_group_symop_operation_xyz
x,y,z
-x,-y,z
x,-y,-z
-x,y,-z
-x,-y,-z
x,y,-z
-x,y,z
x,-y,z
loop_
_atom_site_type_symbol
_atom_site_label
_atom_site_fract_x
_atom_site_fract_y
_atom_site_fract_z
Si Si1 0.186630 0.874574 0.213469
Si Si2 0.500000 0.067394 0.888863
Si Si3 0.303840 0.066563 0.393647
Si Si4 0.800283 0.668214 0.394136
Si Si5 0.690236 0.749653 0.232154
Si Si6 0.197802 0.647459 0.106756
Si Si7 0.198853 0.435803 0.731530
O O1 0.329890 0.904234 0.150576
O O2 0.201001 0.893567 0.322325
O O3 0.195911 0.804994 0.209475
O O4 0.000000 0.892247 0.176462
O O5 0.500000 0.000000 0.859544
O O6 0.500000 0.076451 0.000000
O O7 0.265306 0.087522 0.500000
O O8 0.500000 0.072879 0.370405
O O9 0.247216 0.000000 0.381031
O O10 0.729209 0.673897 0.500000
O O11 0.736829 0.722214 0.332969
O O12 0.733046 0.607462 0.349771
O O13 0.000000 0.668405 0.392727
O O14 0.500000 0.771768 0.236277
O O15 0.710448 0.703675 0.148087
O O16 0.248840 0.590470 0.166543
O O17 0.000000 0.659001 0.114668
O O18 0.256950 0.637103 0.000000
O O19 0.280493 0.500000 0.720490
O O20 0.000000 0.440965 0.723256
#
# Coordination Sequence:
#
# PCOD8200502 Si02
#       7
#     8   4   8   8   8   8   8
#     4  12  24  41  66  94 125 163 205 251 307 365
#     4  11  26  48  69  93 127 161 203 256 304 360
#     4   9  18  35  60  90 125 161 196 237 287 348
#     4   9  18  33  53  79 113 152 194 242 295 350
#     4  11  22  38  57  80 113 149 192 244 295 355
#     4   9  18  33  53  78 108 142 183 236 298 358
#     4   8  14  26  47  78 113 146 185 236 293 354
#
# _framework density 20.049973999999999
#
# number of rings (size 3 to 8) (size 9 to 14) (size 15 to 20)
#    0.000    2.231    1.538    3.231    0.000    4.308 
#    0.000    4.615    0.000    7.385    0.000    8.615 
#    0.000    0.000    0.000    0.000    0.000    0.000 
#
# Total GULP energy -644740.856494 kJ/mol
# GULP energy per Si atom -12398.862625 kJ/mol
# Density = 2.000434 g / cm^3
# Si number density = 20.049974 Si / 1000 Ang^3
#
#
#
# Elastic Constant Matrix: (Units=GPa)
#
#
# Indices 1 2 3 4 5 6 
#
# 1 86.4119 35.6699 35.5376 0.0000 0.0000 0.0000
# 2 35.6699 119.4503 40.6687 0.0000 0.0000 0.0000
# 3 35.5376 40.6687 124.0794 0.0000 0.0000 0.0000
# 4 0.0000 0.0000 0.0000 9.7241 0.0000 0.0000
# 5 0.0000 0.0000 0.0000 0.0000 19.0290 0.0000
# 6 0.0000 0.0000 0.0000 0.0000 0.0000 16.6112
#
#
#
# Elastic Compliance Matrix: (Units=1/GPa)
#
#
# Indices 1 2 3 4 5 6 
#
# 1 0.014125 -0.003197 -0.002998 0.000000 0.000000 0.000000
# 2 -0.003197 0.010147 -0.002410 0.000000 0.000000 0.000000
# 3 -0.002998 -0.002410 0.009708 0.000000 0.000000 0.000000
# 4 0.000000 0.000000 0.000000 0.102837 0.000000 0.000000
# 5 0.000000 0.000000 0.000000 0.000000 0.052551 0.000000
# 6 0.000000 0.000000 0.000000 0.000000 0.000000 0.060200
#
#
# Mechanical properties :
#
#
# Convention : Reuss Voigt Hill
#
# Bulk Modulus (GPa) = 59.63079 61.52154 60.57617
# Shear Modulus (GPa) = 18.35745 23.61054 20.98400
#
# Velocity S-wave (km/s) = 3.02915 3.43532 3.23861
# Velocity P-wave (km/s) = 6.48382 6.81806 6.65304
#
# Compressibility (1/GPa) = 0.01676986
#
# Stress axis : x y z
#
# Youngs Moduli (GPa) = 70.79586 98.55096 103.00976
#
# Poissons Ratio (x) = 0.31511 0.30878
# Poissons Ratio (y) = 0.22636 0.24826
# Poissons Ratio (z) = 0.21222 0.23751
#
# Static dielectric constant tensor:
#      x y z
#    x 3.418890 0.000000 0.000000 
#    y 0.000000 3.712770 0.000000 
#    z 0.000000 0.000000 3.786070 
# 
# 
# High freq. dielectric constant tensor:
#      x y z
#    x 1.766460 0.000000 0.000000 
#    y 0.000000 1.781990 0.000000 
#    z 0.000000 0.000000 1.782250 
# 
# From -- ./inp_files/21376.got.cif
#   From: 2010.03.12/outbox.cif.g09.slc.cpg/sg47_11_cif.got.tgz:21376.got - 2010.04.14 03:12:58.
