data_PCOD8200671
_publ_section_title
;
Structure prediction by ZEFSAII (Michael W. Deem and Ramdas Pophale) SiO2 
 PCOD8200671
Probable space group: P M M M
;
_chemical_formula_sum "Si O2"
_cell_formula_units_Z 60
_cell_length_a 28.671245
_cell_length_b 9.798720
_cell_length_c 13.450844
_cell_angle_alpha 90.000000
_cell_angle_beta 90.000000
_cell_angle_gamma 90.000000
_cell_volume 3778.900314
_symmetry_space_group_name_H-M "P M M M"
_symmetry_group_IT_number 47
_symmetry_cell_setting 'orthorhombic'
loop_
_space_group_symop_operation_xyz
x,y,z
-x,-y,z
x,-y,-z
-x,y,-z
-x,-y,-z
x,y,-z
-x,y,z
x,-y,z
loop_
_atom_site_type_symbol
_atom_site_label
_atom_site_fract_x
_atom_site_fract_y
_atom_site_fract_z
Si Si1 0.944629 0.649741 0.000000
Si Si2 0.947289 0.663485 0.784655
Si Si3 0.776125 0.337989 0.389987
Si Si4 0.552186 0.844062 0.236649
Si Si5 0.690412 0.342035 0.736282
Si Si6 0.598580 0.344134 0.386216
Si Si7 0.358627 0.842572 0.114448
Si Si8 0.119410 0.662193 0.611787
O O1 0.930477 0.721275 0.105793
O O2 0.921492 0.500000 0.000000
O O3 0.000000 0.635007 0.000000
O O4 0.945006 0.500000 0.788450
O O5 0.915104 0.723106 0.695883
O O6 0.000000 0.711712 0.762083
O O7 0.764217 0.280817 0.500000
O O8 0.773281 0.500000 0.393510
O O9 0.738528 0.284628 0.310401
O O10 0.828201 0.290667 0.359815
O O11 0.500000 0.817507 0.195505
O O12 0.560942 0.749739 0.331751
O O13 0.588993 0.807571 0.150465
O O14 0.558220 0.000000 0.271244
O O15 0.694473 0.500000 0.768711
O O16 0.650380 0.320990 0.654854
O O17 0.679619 0.251233 0.832295
O O18 0.599267 0.300178 0.500000
O O19 0.582774 0.500000 0.371880
O O20 0.346335 0.000000 0.135223
O O21 0.356362 0.805205 0.000000
O O22 0.106254 0.714250 0.500000
O O23 0.116137 0.500000 0.612228
#
# Coordination Sequence:
#
# PCOD8200671 Si02
#       8
#     4   8   8   8   8   8   8   8
#     4   7  10  16  24  32  42  66 108 150 185 225
#     4   8  12  17  25  36  53  81 119 160 198 236
#     4   8  13  22  37  55  74  98 128 161 197 239
#     4   9  18  31  45  62  83 106 133 163 195 233
#     4   9  16  27  45  64  81 103 134 170 200 233
#     4   9  17  28  42  61  83 107 136 166 196 234
#     4   9  18  32  48  64  82 105 132 163 201 241
#     4   8  13  19  27  42  64  88 117 156 200 241
#
# _framework density 15.877634
#
# number of rings (size 3 to 8) (size 9 to 14) (size 15 to 20)
#    0.000    3.533    0.000    2.000    0.000    3.200 
#    0.000    4.000    1.467    1.200    0.000    3.733 
#    0.000    0.000    0.000    0.000    0.000    0.667 
#
# Total GULP energy -743439.766546 kJ/mol
# GULP energy per Si atom -12390.662776 kJ/mol
# Density = 1.584150 g / cm^3
# Si number density = 15.877634 Si / 1000 Ang^3
#
#
#
# Elastic Constant Matrix: (Units=GPa)
#
#
# Indices 1 2 3 4 5 6 
#
# 1 101.8896 25.2233 75.1280 0.0000 0.0000 0.0000
# 2 25.2233 28.9801 37.8601 0.0000 0.0000 0.0000
# 3 75.1280 37.8601 144.8383 0.0000 0.0000 0.0000
# 4 0.0000 0.0000 0.0000 16.2911 0.0000 0.0000
# 5 0.0000 0.0000 0.0000 0.0000 21.2798 0.0000
# 6 0.0000 0.0000 0.0000 0.0000 0.0000 6.8134
#
#
#
# Elastic Compliance Matrix: (Units=1/GPa)
#
#
# Indices 1 2 3 4 5 6 
#
# 1 0.016317 -0.004775 -0.007215 0.000000 0.000000 0.000000
# 2 -0.004775 0.053799 -0.011586 0.000000 0.000000 0.000000
# 3 -0.007215 -0.011586 0.013675 0.000000 0.000000 0.000000
# 4 0.000000 0.000000 0.000000 0.061383 0.000000 0.000000
# 5 0.000000 0.000000 0.000000 0.000000 0.046993 0.000000
# 6 0.000000 0.000000 0.000000 0.000000 0.000000 0.146771
#
#
# Mechanical properties :
#
#
# Convention : Reuss Voigt Hill
#
# Bulk Modulus (GPa) = 27.29412 61.34785 44.32099
# Shear Modulus (GPa) = 12.55325 18.04331 15.29828
#
# Velocity S-wave (km/s) = 2.81486 3.37471 3.10742
# Velocity P-wave (km/s) = 5.27183 7.34211 6.39135
#
# Compressibility (1/GPa) = 0.03663793
#
# Stress axis : x y z
#
# Youngs Moduli (GPa) = 61.28599 18.58782 73.12436
#
# Poissons Ratio (x) = 0.08876 0.52762
# Poissons Ratio (y) = 0.29267 0.84720
# Poissons Ratio (z) = 0.44220 0.21535
#
# Static dielectric constant tensor:
#      x y z
#    x 3.099190 0.000000 0.000000 
#    y 0.000000 2.591530 0.000000 
#    z 0.000000 0.000000 3.237850 
# 
# 
# High freq. dielectric constant tensor:
#      x y z
#    x 1.600980 0.000000 0.000000 
#    y 0.000000 1.554320 0.000000 
#    z 0.000000 0.000000 1.613130 
# 
# From -- ./inp_files/19990.got.cif
#   From: 2010.03.12/outbox.cif.g09.slc.cpg/sg47_10_cif.got.tgz:19990.got - 2010.04.14 03:12:58.
