data_PCOD8200883
_publ_section_title
;
Structure prediction by ZEFSAII (Michael W. Deem and Ramdas Pophale) SiO2 
 PCOD8200883
Probable space group: P M M M
;
_chemical_formula_sum "Si O2"
_cell_formula_units_Z 52
_cell_length_a 9.160986
_cell_length_b 33.841209
_cell_length_c 10.072684
_cell_angle_alpha 90.000000
_cell_angle_beta 90.000000
_cell_angle_gamma 90.000000
_cell_volume 3122.721828
_symmetry_space_group_name_H-M "P M M M"
_symmetry_group_IT_number 47
_symmetry_cell_setting 'orthorhombic'
loop_
_space_group_symop_operation_xyz
x,y,z
-x,-y,z
x,-y,-z
-x,y,-z
-x,-y,-z
x,y,-z
-x,y,z
x,-y,z
loop_
_atom_site_type_symbol
_atom_site_label
_atom_site_fract_x
_atom_site_fract_y
_atom_site_fract_z
Si Si1 0.825719 0.608316 0.351693
Si Si2 0.834655 0.000000 0.658251
Si Si3 0.164980 0.153481 0.341756
Si Si4 0.826331 0.544104 0.148502
Si Si5 0.837707 0.304621 0.342219
Si Si6 0.334718 0.076805 0.341736
Si Si7 0.335983 0.229861 0.658403
O O1 0.766160 0.599469 0.500000
O O2 0.759458 0.575640 0.251884
O O3 0.776273 0.652000 0.302682
O O4 0.000000 0.607119 0.353620
O O5 0.750837 0.038542 0.712353
O O6 0.835894 0.000000 0.500000
O O7 0.000000 0.000000 0.712979
O O8 0.164390 0.153303 0.500000
O O9 0.253083 0.115672 0.287449
O O10 0.242613 0.192970 0.287718
O O11 0.000000 0.152054 0.286935
O O12 0.773990 0.500000 0.188402
O O13 0.000000 0.545911 0.152508
O O14 0.771477 0.554418 0.000000
O O15 0.846293 0.302139 0.500000
O O16 0.732732 0.270511 0.285449
O O17 0.000000 0.298040 0.283214
O O18 0.335797 0.076791 0.500000
O O19 0.500000 0.076264 0.287028
O O20 0.335463 0.230050 0.500000
O O21 0.500000 0.226140 0.713227
#
# Coordination Sequence:
#
# PCOD8200883 Si02
#       7
#     8   4   8   8   8   8   8
#     4   8  13  20  30  44  62  87 118 146 172 209
#     4   9  15  21  27  33  41  55  77 107 147 195
#     4   9  15  21  28  37  49  66  88 113 143 184
#     4   8  13  20  29  43  66  94 119 144 178 217
#     4   8  13  21  31  42  58  80 104 129 158 194
#     4   9  15  21  27  34  44  58  79 110 148 189
#     4   9  15  21  29  41  56  73  93 118 150 189
#
# _framework density 16.652138999999998
#
# number of rings (size 3 to 8) (size 9 to 14) (size 15 to 20)
#    0.000    3.462    0.000    3.000    0.000    6.769 
#    0.000    1.538    0.000    0.000    0.000    0.000 
#    0.000    1.231    0.000    7.692    0.000    8.923 
#
# Total GULP energy -644433.755796 kJ/mol
# GULP energy per Si atom -12392.956842 kJ/mol
# Density = 1.661424 g / cm^3
# Si number density = 16.652139 Si / 1000 Ang^3
#
#
#
# Elastic Constant Matrix: (Units=GPa)
#
#
# Indices 1 2 3 4 5 6 
#
# 1 108.2511 71.7930 15.5520 0.0000 0.0000 0.0000
# 2 71.7930 184.6068 39.3280 0.0000 0.0000 0.0000
# 3 15.5520 39.3280 24.5112 0.0000 0.0000 0.0000
# 4 0.0000 0.0000 0.0000 1.2972 0.0000 0.0000
# 5 0.0000 0.0000 0.0000 0.0000 1.7040 0.0000
# 6 0.0000 0.0000 0.0000 0.0000 0.0000 10.5780
#
#
#
# Elastic Compliance Matrix: (Units=1/GPa)
#
#
# Indices 1 2 3 4 5 6 
#
# 1 0.012449 -0.004799 -0.000199 0.000000 0.000000 0.000000
# 2 -0.004799 0.010080 -0.013128 0.000000 0.000000 0.000000
# 3 -0.000199 -0.013128 0.061988 0.000000 0.000000 0.000000
# 4 0.000000 0.000000 0.000000 0.770878 0.000000 0.000000
# 5 0.000000 0.000000 0.000000 0.000000 0.586852 0.000000
# 6 0.000000 0.000000 0.000000 0.000000 0.000000 0.094536
#
#
# Mechanical properties :
#
#
# Convention : Reuss Voigt Hill
#
# Bulk Modulus (GPa) = 20.71896 63.41278 42.06587
# Shear Modulus (GPa) = 3.14639 15.42892 9.28765
#
# Velocity S-wave (km/s) = 1.37607 3.04722 2.36423
# Velocity P-wave (km/s) = 3.87221 7.10945 5.72443
#
# Compressibility (1/GPa) = 0.04826498
#
# Stress axis : x y z
#
# Youngs Moduli (GPa) = 80.32694 99.20519 16.13207
#
# Poissons Ratio (x) = 0.47609 0.00321
# Poissons Ratio (y) = 0.38550 0.21179
# Poissons Ratio (z) = 0.01596 1.30241
#
# Static dielectric constant tensor:
#      x y z
#    x 3.035080 0.000000 0.000000 
#    y 0.000000 3.522910 0.000000 
#    z 0.000000 0.000000 2.482840 
# 
# 
# High freq. dielectric constant tensor:
#      x y z
#    x 1.620160 0.000000 0.000000 
#    y 0.000000 1.663720 0.000000 
#    z 0.000000 0.000000 1.547070 
# 
# From -- ./inp_files/15666.got.cif
#   From: 2010.03.12/outbox.cif.g09.slc.cpg/sg47_8_cif.got.tgz:15666.got - 2010.04.14 03:12:58.
