data_PCOD8200209
_publ_section_title
;
Structure prediction by ZEFSAII (Michael W. Deem and Ramdas Pophale) SiO2 
 PCOD8200209
Probable space group: P M M M
;
_chemical_formula_sum "Si O2"
_cell_formula_units_Z 52
_cell_length_a 12.888036
_cell_length_b 30.023958
_cell_length_c 9.256649
_cell_angle_alpha 90.000000
_cell_angle_beta 90.000000
_cell_angle_gamma 90.000000
_cell_volume 3581.858957
_symmetry_space_group_name_H-M "P M M M"
_symmetry_group_IT_number 47
_symmetry_cell_setting 'orthorhombic'
loop_
_space_group_symop_operation_xyz
x,y,z
-x,-y,z
x,-y,-z
-x,y,-z
-x,-y,-z
x,y,-z
-x,y,z
x,-y,z
loop_
_atom_site_type_symbol
_atom_site_label
_atom_site_fract_x
_atom_site_fract_y
_atom_site_fract_z
Si Si1 0.376760 0.284858 0.660241
Si Si2 0.378195 0.185536 0.332833
Si Si3 0.500000 0.947233 0.331331
Si Si4 0.114087 0.950365 0.828858
Si Si5 0.375985 0.632243 0.838483
Si Si6 0.685622 0.898430 0.827499
Si Si7 0.623327 0.451022 0.662242
O O1 0.332473 0.293509 0.500000
O O2 0.500000 0.287525 0.655236
O O3 0.344659 0.235533 0.713657
O O4 0.331521 0.323102 0.763871
O O5 0.349075 0.176942 0.500000
O O6 0.500000 0.177954 0.309823
O O7 0.318002 0.152319 0.226928
O O8 0.500000 0.932864 0.500000
O O9 0.399626 0.927992 0.252462
O O10 0.500000 0.000000 0.314220
O O11 0.202672 0.916694 0.776384
O O12 0.000000 0.934318 0.774499
O O13 0.137171 0.000000 0.768314
O O14 0.114622 0.952320 0.000000
O O15 0.500000 0.632138 0.834198
O O16 0.330555 0.588119 0.761489
O O17 0.333115 0.631875 0.000000
O O18 0.668834 0.900679 0.000000
O O19 0.664608 0.443683 0.500000
O O20 0.500000 0.448418 0.662864
O O21 0.658491 0.500000 0.719184
#
# Coordination Sequence:
#
# PCOD8200209 Si02
#       7
#     8   8   4   8   8   8   8
#     4   8  14  24  36  46  58  85 119 143 167 212
#     4   9  17  29  42  55  77 107 130 150 186 234
#     4  11  23  35  45  59  85 117 137 153 188 235
#     4   8  15  29  47  65  85 107 130 159 195 231
#     4   9  15  20  27  41  58  75  98 136 182 219
#     4  11  20  29  46  69  86 103 131 166 196 227
#     4   8  13  20  28  36  48  70 100 133 170 217
#
# _framework density 14.517602
#
# number of rings (size 3 to 8) (size 9 to 14) (size 15 to 20)
#    0.000    3.000    0.769    3.462    0.000    4.000 
#    0.000    3.077    0.000    1.846    0.000    5.385 
#    0.000    0.000    0.000    0.000    0.000    0.000 
#
# Total GULP energy -644402.993864 kJ/mol
# GULP energy per Si atom -12392.365267 kJ/mol
# Density = 1.448456 g / cm^3
# Si number density = 14.517602 Si / 1000 Ang^3
#
#
#
# Elastic Constant Matrix: (Units=GPa)
#
#
# Indices 1 2 3 4 5 6 
#
# 1 51.2099 38.6019 27.3732 0.0000 0.0000 0.0000
# 2 38.6019 141.2108 68.7464 0.0000 0.0000 0.0000
# 3 27.3732 68.7464 85.8075 0.0000 0.0000 0.0000
# 4 0.0000 0.0000 0.0000 25.0826 0.0000 0.0000
# 5 0.0000 0.0000 0.0000 0.0000 2.9194 0.0000
# 6 0.0000 0.0000 0.0000 0.0000 0.0000 6.3598
#
#
#
# Elastic Compliance Matrix: (Units=1/GPa)
#
#
# Indices 1 2 3 4 5 6 
#
# 1 0.025477 -0.004931 -0.004177 0.000000 0.000000 0.000000
# 2 -0.004931 0.012564 -0.008493 0.000000 0.000000 0.000000
# 3 -0.004177 -0.008493 0.019791 0.000000 0.000000 0.000000
# 4 0.000000 0.000000 0.000000 0.039868 0.000000 0.000000
# 5 0.000000 0.000000 0.000000 0.000000 0.342542 0.000000
# 6 0.000000 0.000000 0.000000 0.000000 0.000000 0.157237
#
#
# Mechanical properties :
#
#
# Convention : Reuss Voigt Hill
#
# Bulk Modulus (GPa) = 44.18839 60.85236 52.52037
# Shear Modulus (GPa) = 7.80976 16.43947 12.12461
#
# Velocity S-wave (km/s) = 2.32189 3.36874 2.89306
# Velocity P-wave (km/s) = 6.13939 7.55900 6.88588
#
# Compressibility (1/GPa) = 0.02263038
#
# Stress axis : x y z
#
# Youngs Moduli (GPa) = 39.25086 79.59024 50.52852
#
# Poissons Ratio (x) = 0.39247 0.21104
# Poissons Ratio (y) = 0.19355 0.42914
# Poissons Ratio (z) = 0.16394 0.67597
#
# Static dielectric constant tensor:
#      x y z
#    x 2.433610 0.000000 0.000000 
#    y 0.000000 3.138620 0.000000 
#    z 0.000000 0.000000 2.865170 
# 
# 
# High freq. dielectric constant tensor:
#      x y z
#    x 1.477590 0.000000 0.000000 
#    y 0.000000 1.570370 0.000000 
#    z 0.000000 0.000000 1.551880 
# 
# From -- ./inp_files/4812.got.cif
#   From: 2010.03.12/outbox.cif.g09.slc.cpg/sg47_3_cif.got.tgz:4812.got - 2010.04.14 03:12:58.
