data_PCOD8200085
_publ_section_title
;
Structure prediction by ZEFSAII (Michael W. Deem and Ramdas Pophale) SiO2 
 PCOD8200085
Probable space group: P M M M
;
_chemical_formula_sum "Si O2"
_cell_formula_units_Z 56
_cell_length_a 9.112855
_cell_length_b 20.949930
_cell_length_c 14.398820
_cell_angle_alpha 90.000000
_cell_angle_beta 90.000000
_cell_angle_gamma 90.000000
_cell_volume 2748.931633
_symmetry_space_group_name_H-M "P M M M"
_symmetry_group_IT_number 47
_symmetry_cell_setting 'orthorhombic'
loop_
_space_group_symop_operation_xyz
x,y,z
-x,-y,z
x,-y,-z
-x,y,-z
-x,-y,-z
x,y,-z
-x,y,z
x,-y,z
loop_
_atom_site_type_symbol
_atom_site_label
_atom_site_fract_x
_atom_site_fract_y
_atom_site_fract_z
Si Si1 0.672116 0.739545 0.109997
Si Si2 0.824872 0.625993 0.784994
Si Si3 0.162927 0.071355 0.349340
Si Si4 0.324875 0.673380 0.392748
Si Si5 0.344488 0.188552 0.603564
Si Si6 0.827145 0.500000 0.894565
Si Si7 0.164374 0.136766 0.153883
Si Si8 0.340933 0.926947 0.000000
O O1 0.500000 0.732980 0.131666
O O2 0.757514 0.678895 0.147512
O O3 0.738047 0.800062 0.165269
O O4 0.701827 0.748657 0.000000
O O5 0.757799 0.627087 0.680227
O O6 0.776243 0.560763 0.834843
O O7 0.000000 0.633845 0.778508
O O8 0.249080 0.125011 0.405017
O O9 0.158107 0.096011 0.245803
O O10 0.000000 0.067626 0.391045
O O11 0.234232 0.000000 0.356476
O O12 0.276572 0.658157 0.500000
O O13 0.500000 0.665661 0.382340
O O14 0.275581 0.745241 0.357068
O O15 0.380349 0.210534 0.500000
O O16 0.500000 0.172448 0.654232
O O17 0.000000 0.500000 0.905355
O O18 0.759200 0.500000 0.000000
O O19 0.244160 0.088742 0.087181
O O20 0.000000 0.154796 0.120291
O O21 0.500000 0.890240 0.000000
O O22 0.377837 0.000000 0.000000
#
# Coordination Sequence:
#
# PCOD8200085 Si02
#       8
#     8   8   8   8   8   4   8   4
#     4  11  23  38  57  84 119 152 189 243 304 360
#     4  11  22  37  62  92 121 157 202 247 294 346
#     4  10  22  37  51  73 105 140 181 230 286 345
#     4   9  19  38  62  88 121 158 194 239 298 357
#     4   9  19  36  57  80 106 140 183 229 280 341
#     4   9  20  40  62  87 124 168 207 245 288 343
#     4  11  22  37  57  78 104 141 188 238 287 342
#     4  11  23  37  53  75 105 142 183 228 285 349
#
# _framework density 20.371551
#
# number of rings (size 3 to 8) (size 9 to 14) (size 15 to 20)
#    0.000    1.857    0.714    4.071    0.000    7.714 
#    0.000    4.643    0.000    4.714    0.000    0.000 
#    0.000    0.000    0.000    0.000    0.000    0.000 
#
# Total GULP energy -693803.791895 kJ/mol
# GULP energy per Si atom -12389.353427 kJ/mol
# Density = 2.032518 g / cm^3
# Si number density = 20.371551 Si / 1000 Ang^3
#
#
#
# Elastic Constant Matrix: (Units=GPa)
#
#
# Indices 1 2 3 4 5 6 
#
# 1 95.0021 40.4524 41.7303 0.0000 0.0000 0.0000
# 2 40.4524 132.7237 43.4323 0.0000 0.0000 0.0000
# 3 41.7303 43.4323 87.1632 0.0000 0.0000 0.0000
# 4 0.0000 0.0000 0.0000 36.5962 0.0000 0.0000
# 5 0.0000 0.0000 0.0000 0.0000 0.8218 0.0000
# 6 0.0000 0.0000 0.0000 0.0000 0.0000 19.8102
#
#
#
# Elastic Compliance Matrix: (Units=1/GPa)
#
#
# Indices 1 2 3 4 5 6 
#
# 1 0.013977 -0.002474 -0.005459 0.000000 0.000000 0.000000
# 2 -0.002474 0.009440 -0.003520 0.000000 0.000000 0.000000
# 3 -0.005459 -0.003520 0.015840 0.000000 0.000000 0.000000
# 4 0.000000 0.000000 0.000000 0.027325 0.000000 0.000000
# 5 0.000000 0.000000 0.000000 0.000000 1.216852 0.000000
# 6 0.000000 0.000000 0.000000 0.000000 0.000000 0.050479
#
#
# Mechanical properties :
#
#
# Convention : Reuss Voigt Hill
#
# Bulk Modulus (GPa) = 61.15195 62.90210 62.02703
# Shear Modulus (GPa) = 3.67035 24.06392 13.86713
#
# Velocity S-wave (km/s) = 1.34373 3.44066 2.61187
# Velocity P-wave (km/s) = 5.70008 6.83584 6.29363
#
# Compressibility (1/GPa) = 0.01635271
#
# Stress axis : x y z
#
# Youngs Moduli (GPa) = 71.54420 105.93068 63.13071
#
# Poissons Ratio (x) = 0.26204 0.34464
# Poissons Ratio (y) = 0.17698 0.22220
# Poissons Ratio (z) = 0.39058 0.37283
#
# Static dielectric constant tensor:
#      x y z
#    x 3.829880 0.000000 0.000000 
#    y 0.000000 3.720070 0.000000 
#    z 0.000000 0.000000 3.726990 
# 
# 
# High freq. dielectric constant tensor:
#      x y z
#    x 1.791150 0.000000 0.000000 
#    y 0.000000 1.790510 0.000000 
#    z 0.000000 0.000000 1.807040 
# 
# From -- ./inp_files/21632.got.cif
#   From: 2010.03.12/outbox.cif.g09.slc.cpg/sg47_11_cif.got.tgz:21632.got - 2010.04.14 03:12:58.
