data_PCOD8200558
_publ_section_title
;
Structure prediction by ZEFSAII (Michael W. Deem and Ramdas Pophale) SiO2 
 PCOD8200558
Probable space group: P M M M
;
_chemical_formula_sum "Si O2"
_cell_formula_units_Z 40
_cell_length_a 8.873616
_cell_length_b 10.870246
_cell_length_c 22.443388
_cell_angle_alpha 90.000000
_cell_angle_beta 90.000000
_cell_angle_gamma 90.000000
_cell_volume 2164.853046
_symmetry_space_group_name_H-M "P M M M"
_symmetry_group_IT_number 47
_symmetry_cell_setting 'orthorhombic'
loop_
_space_group_symop_operation_xyz
x,y,z
-x,-y,z
x,-y,-z
-x,y,-z
-x,-y,-z
x,y,-z
-x,y,z
x,-y,z
loop_
_atom_site_type_symbol
_atom_site_label
_atom_site_fract_x
_atom_site_fract_y
_atom_site_fract_z
Si Si1 0.164848 0.359066 0.000000
Si Si2 0.179109 0.862808 0.432419
Si Si3 0.169374 0.357009 0.218706
Si Si4 0.177444 0.000000 0.068828
Si Si5 0.323119 0.756888 0.109534
Si Si6 0.179136 0.362395 0.646411
O O1 0.258520 0.331053 0.941217
O O2 0.128203 0.500000 0.000000
O O3 0.000000 0.289391 0.000000
O O4 0.234573 0.843074 0.500000
O O5 0.246928 0.749202 0.393668
O O6 0.000000 0.857881 0.429342
O O7 0.231996 0.000000 0.410237
O O8 0.167680 0.500000 0.203733
O O9 0.286204 0.292281 0.174991
O O10 0.227182 0.334247 0.285837
O O11 0.000000 0.303842 0.209964
O O12 0.245572 0.113174 0.103440
O O13 0.000000 0.000000 0.074799
O O14 0.229392 0.000000 0.000000
O O15 0.500000 0.768128 0.101174
O O16 0.238200 0.500000 0.627217
O O17 0.000000 0.364488 0.641727
#
# Coordination Sequence:
#
# PCOD8200558 Si02
#       6
#     4   8   8   4   8   8
#     4  11  23  38  57  80 105 135 173 213 254 309
#     4   8  13  21  34  56  90 127 162 208 264 314
#     4   9  18  34  53  72 100 137 175 215 257 307
#     4  11  23  41  63  79 100 136 173 204 249 314
#     4  12  24  37  56  80 107 133 165 213 264 309
#     4   8  14  25  41  61  88 126 171 213 254 306
#
# _framework density 18.477004999999998
#
# number of rings (size 3 to 8) (size 9 to 14) (size 15 to 20)
#    0.000    2.400    1.000    4.800    0.000    4.400 
#    1.800    2.000    0.000    0.000    0.000    0.000 
#    0.000    0.800    0.000    6.600    0.000    8.000 
#
# Total GULP energy -495752.809364 kJ/mol
# GULP energy per Si atom -12393.820234 kJ/mol
# Density = 1.843495 g / cm^3
# Si number density = 18.477005 Si / 1000 Ang^3
#
#
#
# Elastic Constant Matrix: (Units=GPa)
#
#
# Indices 1 2 3 4 5 6 
#
# 1 52.1087 25.4954 23.2734 0.0000 0.0000 0.0000
# 2 25.4954 134.3825 79.8512 0.0000 0.0000 0.0000
# 3 23.2734 79.8512 115.6522 0.0000 0.0000 0.0000
# 4 0.0000 0.0000 0.0000 -14.5583 0.0000 0.0000
# 5 0.0000 0.0000 0.0000 0.0000 -2.1004 0.0000
# 6 0.0000 0.0000 0.0000 0.0000 0.0000 -31.3495
#
#
#
# Elastic Compliance Matrix: (Units=1/GPa)
#
#
# Indices 1 2 3 4 5 6 
#
# 1 0.021596 -0.002569 -0.002572 0.000000 0.000000 0.000000
# 2 -0.002569 0.012924 -0.008406 0.000000 0.000000 0.000000
# 3 -0.002572 -0.008406 0.014968 0.000000 0.000000 0.000000
# 4 0.000000 0.000000 0.000000 -0.068689 0.000000 0.000000
# 5 0.000000 0.000000 0.000000 0.000000 -0.476109 0.000000
# 6 0.000000 0.000000 0.000000 0.000000 0.000000 -0.031898
#
#
# Mechanical properties :
#
#
# Convention : Reuss Voigt Hill
#
# Bulk Modulus (GPa) = 44.65536 62.15371 53.40454
# Shear Modulus (GPa) = -10.14922 1.96659 -4.09132
#
# Velocity S-wave (km/s) = -2.34623 1.03279 -1.48966
# Velocity P-wave (km/s) = 4.10862 5.92736 5.09973
#
# Compressibility (1/GPa) = 0.02239373
#
# Stress axis : x y z
#
# Youngs Moduli (GPa) = 46.30398 77.37623 66.80782
#
# Poissons Ratio (x) = 0.19876 0.17185
# Poissons Ratio (y) = 0.11895 0.56160
# Poissons Ratio (z) = 0.11911 0.65044
#
# Static dielectric constant tensor:
#      x y z
#    x 2.998290 0.000000 0.000000 
#    y 0.000000 3.715020 0.000000 
#    z 0.000000 0.000000 3.632120 
# 
# 
# High freq. dielectric constant tensor:
#      x y z
#    x 1.673430 0.000000 0.000000 
#    y 0.000000 1.727110 0.000000 
#    z 0.000000 0.000000 1.713910 
# 
# From -- ./inp_files/29358.got.cif
#   From: 2010.03.12/outbox.cif.g09.slc.cpg/sg47_15_cif.got.tgz:29358.got - 2010.04.14 03:12:58.
