data_PCOD8200705
_publ_section_title
;
Structure prediction by ZEFSAII (Michael W. Deem and Ramdas Pophale) SiO2 
 PCOD8200705
Probable space group: P M M M
;
_chemical_formula_sum "Si O2"
_cell_formula_units_Z 40
_cell_length_a 9.311432
_cell_length_b 18.109475
_cell_length_c 17.683051
_cell_angle_alpha 90.000000
_cell_angle_beta 90.000000
_cell_angle_gamma 90.000000
_cell_volume 2981.807039
_symmetry_space_group_name_H-M "P M M M"
_symmetry_group_IT_number 47
_symmetry_cell_setting 'orthorhombic'
loop_
_space_group_symop_operation_xyz
x,y,z
-x,-y,z
x,-y,-z
-x,y,-z
-x,-y,-z
x,y,-z
-x,y,z
x,-y,z
loop_
_atom_site_type_symbol
_atom_site_label
_atom_site_fract_x
_atom_site_fract_y
_atom_site_fract_z
Si Si1 0.329038 0.000000 0.416905
Si Si2 0.833158 0.415035 0.290893
Si Si3 0.836779 0.588113 0.000000
Si Si4 0.661068 0.842099 0.590386
Si Si5 0.662543 0.412214 0.144202
Si Si6 0.832094 0.297910 0.585567
O O1 0.284470 0.922244 0.376395
O O2 0.500000 0.000000 0.424858
O O3 0.258292 0.000000 0.500000
O O4 0.798700 0.500000 0.309968
O O5 0.739630 0.385787 0.220790
O O6 0.788656 0.368192 0.364275
O O7 0.000000 0.404734 0.269805
O O8 0.752976 0.618733 0.926643
O O9 0.838480 0.500000 0.000000
O O10 0.000000 0.618376 0.000000
O O11 0.665937 0.847164 0.500000
O O12 0.500000 0.825451 0.618465
O O13 0.760304 0.775796 0.619897
O O14 0.500000 0.381095 0.141416
O O15 0.660727 0.500000 0.140828
O O16 0.778796 0.313741 0.500000
O O17 0.000000 0.283657 0.587430
#
# Coordination Sequence:
#
# PCOD8200705 Si02
#       6
#     4   8   4   8   8   8
#     4   7  10  18  33  51  67  83 105 132 163 206
#     4   9  17  28  39  49  64  90 123 155 186 219
#     4   9  15  23  37  55  73  91 109 130 163 212
#     4   8  13  22  36  51  66  85 109 137 171 213
#     4   9  16  25  37  53  71  88 109 141 178 212
#     4   9  17  27  37  50  68  89 117 155 192 220
#
# _framework density 13.414685
#
# number of rings (size 3 to 8) (size 9 to 14) (size 15 to 20)
#    0.000    3.400    0.000    2.100    0.000    4.800 
#    0.000    2.500    0.000    3.000    0.000    5.600 
#    0.000    0.000    0.000    0.000    0.000    1.000 
#
# Total GULP energy -495620.358581 kJ/mol
# GULP energy per Si atom -12390.508965 kJ/mol
# Density = 1.338415 g / cm^3
# Si number density = 13.414685 Si / 1000 Ang^3
#
#
#
# Elastic Constant Matrix: (Units=GPa)
#
#
# Indices 1 2 3 4 5 6 
#
# 1 65.2236 34.1299 41.9423 0.0000 0.0000 0.0000
# 2 34.1299 75.0471 40.5937 0.0000 0.0000 0.0000
# 3 41.9423 40.5937 71.1640 0.0000 0.0000 0.0000
# 4 0.0000 0.0000 0.0000 0.8267 0.0000 0.0000
# 5 0.0000 0.0000 0.0000 0.0000 15.9968 0.0000
# 6 0.0000 0.0000 0.0000 0.0000 0.0000 17.4398
#
#
#
# Elastic Compliance Matrix: (Units=1/GPa)
#
#
# Indices 1 2 3 4 5 6 
#
# 1 0.025976 -0.005108 -0.012396 0.000000 0.000000 0.000000
# 2 -0.005108 0.020276 -0.008555 0.000000 0.000000 0.000000
# 3 -0.012396 -0.008555 0.026238 0.000000 0.000000 0.000000
# 4 0.000000 0.000000 0.000000 1.209568 0.000000 0.000000
# 5 0.000000 0.000000 0.000000 0.000000 0.062513 0.000000
# 6 0.000000 0.000000 0.000000 0.000000 0.000000 0.057340
#
#
# Mechanical properties :
#
#
# Convention : Reuss Voigt Hill
#
# Bulk Modulus (GPa) = 49.08867 49.41851 49.25359
# Shear Modulus (GPa) = 3.42274 13.17059 8.29666
#
# Velocity S-wave (km/s) = 1.59907 3.13677 2.48962
# Velocity P-wave (km/s) = 6.33104 7.07377 6.71268
#
# Compressibility (1/GPa) = 0.02037130
#
# Stress axis : x y z
#
# Youngs Moduli (GPa) = 38.49695 49.32032 38.11308
#
# Poissons Ratio (x) = 0.25195 0.47244
# Poissons Ratio (y) = 0.19666 0.32606
# Poissons Ratio (z) = 0.47720 0.42193
#
# Static dielectric constant tensor:
#      x y z
#    x 2.731880 0.000000 0.000000 
#    y 0.000000 2.680380 0.000000 
#    z 0.000000 0.000000 2.514070 
# 
# 
# High freq. dielectric constant tensor:
#      x y z
#    x 1.511790 0.000000 0.000000 
#    y 0.000000 1.480820 0.000000 
#    z 0.000000 0.000000 1.475180 
# 
# From -- ./inp_files/6645.got.cif
#   From: 2010.03.12/outbox.cif.g09.slc.cpg/sg47_4_cif.got.tgz:6645.got - 2010.04.14 03:12:58.
