data_PCOD8200158
_publ_section_title
;
Structure prediction by ZEFSAII (Michael W. Deem and Ramdas Pophale) SiO2 
 PCOD8200158
Probable space group: P M M M
;
_chemical_formula_sum "Si O2"
_cell_formula_units_Z 40
_cell_length_a 11.576694
_cell_length_b 8.511315
_cell_length_c 20.445825
_cell_angle_alpha 90.000000
_cell_angle_beta 90.000000
_cell_angle_gamma 90.000000
_cell_volume 2014.586211
_symmetry_space_group_name_H-M "P M M M"
_symmetry_group_IT_number 47
_symmetry_cell_setting 'orthorhombic'
loop_
_space_group_symop_operation_xyz
x,y,z
-x,-y,z
x,-y,-z
-x,y,-z
-x,-y,-z
x,y,-z
-x,y,z
x,-y,z
loop_
_atom_site_type_symbol
_atom_site_label
_atom_site_fract_x
_atom_site_fract_y
_atom_site_fract_z
Si Si1 0.867046 0.184639 0.250282
Si Si2 0.000000 0.827870 0.426490
Si Si3 0.775879 0.682445 0.621029
Si Si4 0.261532 0.814834 0.877968
Si Si5 0.629984 0.686913 0.500000
Si Si6 0.863537 0.678126 0.000000
Si Si7 0.500000 0.685279 0.925192
O O1 0.780571 0.229069 0.309551
O O2 0.804671 0.253225 0.185793
O O3 0.000000 0.250919 0.258861
O O4 0.874707 0.000000 0.243776
O O5 0.103475 0.712812 0.412415
O O6 0.000000 0.880128 0.500000
O O7 0.000000 0.000000 0.387656
O O8 0.753337 0.500000 0.634569
O O9 0.684100 0.751546 0.568193
O O10 0.388057 0.741084 0.885526
O O11 0.277332 0.000000 0.873708
O O12 0.180499 0.770612 0.937687
O O13 0.644475 0.500000 0.500000
O O14 0.500000 0.745694 0.500000
O O15 0.814526 0.500000 0.000000
O O16 0.000000 0.678603 0.000000
O O17 0.500000 0.500000 0.927809
O O18 0.500000 0.752399 0.000000
#
# Coordination Sequence:
#
# PCOD8200158 Si02
#       7
#     8   4   8   8   4   4   4
#     4  10  22  40  60  87 125 161 191 237 300 361
#     4  11  21  33  55  85 119 152 187 238 301 353
#     4  11  21  35  60  89 116 151 198 244 291 352
#     4  11  23  40  64  89 119 161 207 248 296 360
#     4   9  20  39  59  82 118 155 194 245 296 347
#     4  11  23  38  59  90 125 157 197 253 310 361
#     4  11  23  41  65  91 122 155 198 255 308 356
#
# _framework density 19.855194000000001
#
# number of rings (size 3 to 8) (size 9 to 14) (size 15 to 20)
#    0.000    1.400    3.000    2.700    0.000    4.000 
#    1.800    0.000    0.000    4.200    0.000    0.000 
#    0.000    0.000    0.000    0.000    0.000    0.000 
#
# Total GULP energy -495721.102291 kJ/mol
# GULP energy per Si atom -12393.027557 kJ/mol
# Density = 1.981000 g / cm^3
# Si number density = 19.855194 Si / 1000 Ang^3
#
#
#
# Elastic Constant Matrix: (Units=GPa)
#
#
# Indices 1 2 3 4 5 6 
#
# 1 135.3450 16.8453 74.0749 0.0000 0.0000 0.0000
# 2 16.8453 33.0696 14.5909 0.0000 0.0000 0.0000
# 3 74.0749 14.5909 174.1693 0.0000 0.0000 0.0000
# 4 0.0000 0.0000 0.0000 28.9532 0.0000 0.0000
# 5 0.0000 0.0000 0.0000 0.0000 6246.9385 0.0000
# 6 0.0000 0.0000 0.0000 0.0000 0.0000 26.1066
#
#
#
# Elastic Compliance Matrix: (Units=1/GPa)
#
#
# Indices 1 2 3 4 5 6 
#
# 1 0.009971 -0.003331 -0.003962 0.000000 0.000000 0.000000
# 2 -0.003331 0.032513 -0.001307 0.000000 0.000000 0.000000
# 3 -0.003962 -0.001307 0.007536 0.000000 0.000000 0.000000
# 4 0.000000 0.000000 0.000000 0.034539 0.000000 0.000000
# 5 0.000000 0.000000 0.000000 0.000000 0.000160 0.000000
# 6 0.000000 0.000000 0.000000 0.000000 0.000000 0.038304
#
#
# Mechanical properties :
#
#
# Convention : Reuss Voigt Hill
#
# Bulk Modulus (GPa) = 30.46910 61.51180 45.99045
# Shear Modulus (GPa) = 33.07677 1276.20452 654.64064
#
# Velocity S-wave (km/s) = 4.08597 25.38014 18.17755
# Velocity P-wave (km/s) = 6.13508 29.83146 21.53550
#
# Compressibility (1/GPa) = 0.03282014
#
# Stress axis : x y z
#
# Youngs Moduli (GPa) = 100.28600 30.75712 132.69625
#
# Poissons Ratio (x) = 0.10246 0.52572
# Poissons Ratio (y) = 0.33409 0.17342
# Poissons Ratio (z) = 0.39732 0.04020
#
# Static dielectric constant tensor:
#      x y z
#    x 3.706490 0.000000 0.000000 
#    y 0.000000 3.472560 0.000000 
#    z 0.000000 0.000000 3.885040 
# 
# 
# High freq. dielectric constant tensor:
#      x y z
#    x 1.771190 0.000000 0.000000 
#    y 0.000000 1.764440 0.000000 
#    z 0.000000 0.000000 1.788510 
# 
# From -- ./inp_files/30369.got.cif
#   From: 2010.03.12/outbox.cif.g09.slc.cpg/sg47_16_cif.got.tgz:30369.got - 2010.04.14 03:12:58.
