data_PCOD8200331
_publ_section_title
;
Structure prediction by ZEFSAII (Michael W. Deem and Ramdas Pophale) SiO2 
 PCOD8200331
Probable space group: P M M M
;
_chemical_formula_sum "Si O2"
_cell_formula_units_Z 52
_cell_length_a 29.127708
_cell_length_b 12.872534
_cell_length_c 8.169106
_cell_angle_alpha 90.000000
_cell_angle_beta 90.000000
_cell_angle_gamma 90.000000
_cell_volume 3062.985150
_symmetry_space_group_name_H-M "P M M M"
_symmetry_group_IT_number 47
_symmetry_cell_setting 'orthorhombic'
loop_
_space_group_symop_operation_xyz
x,y,z
-x,-y,z
x,-y,-z
-x,y,-z
-x,-y,-z
x,y,-z
-x,y,z
x,-y,z
loop_
_atom_site_type_symbol
_atom_site_label
_atom_site_fract_x
_atom_site_fract_y
_atom_site_fract_z
Si Si1 0.621457 0.283419 0.184673
Si Si2 0.613950 0.500000 0.678901
Si Si3 0.720638 0.278403 0.691637
Si Si4 0.552637 0.118560 0.309985
Si Si5 0.052386 0.123724 0.500000
Si Si6 0.204986 0.881652 0.693442
Si Si7 0.277342 0.500000 0.680304
Si Si8 0.893337 0.876884 0.183104
O O1 0.598537 0.394043 0.231818
O O2 0.667103 0.253121 0.284416
O O3 0.583965 0.194129 0.204493
O O4 0.637856 0.290000 0.000000
O O5 0.590853 0.500000 0.500000
O O6 0.668196 0.500000 0.663232
O O7 0.729110 0.287308 0.500000
O O8 0.753111 0.188034 0.762213
O O9 0.735302 0.391178 0.771355
O O10 0.560047 0.143733 0.500000
O O11 0.500000 0.137115 0.259725
O O12 0.566706 0.000000 0.272038
O O13 0.075497 0.168291 0.332154
O O14 0.000000 0.161133 0.500000
O O15 0.056779 0.000000 0.500000
O O16 0.197102 0.869956 0.500000
O O17 0.159110 0.843992 0.784415
O O18 0.217074 0.000000 0.738787
O O19 0.254751 0.500000 0.500000
O O20 0.897744 0.000000 0.186460
O O21 0.908012 0.836370 0.000000
#
# Coordination Sequence:
#
# PCOD8200331 Si02
#       8
#     8   4   8   8   4   8   4   8
#     4  11  21  32  49  75 103 123 147 190 240 284
#     4   9  17  33  54  70  91 125 159 188 223 275
#     4   9  17  29  46  65  88 124 160 188 221 267
#     4   9  19  37  58  74  90 120 160 194 227 276
#     4   9  16  26  40  58  82 113 155 201 234 271
#     4   9  16  27  42  60  85 119 159 195 228 269
#     4   7  12  25  43  62  82 109 151 190 221 260
#     4   9  16  26  40  57  82 117 152 189 235 282
#
# _framework density 16.976901999999999
#
# number of rings (size 3 to 8) (size 9 to 14) (size 15 to 20)
#    0.000    2.846    0.769    3.000    0.000    2.154 
#    0.000    4.231    0.000    2.308    0.000    0.000 
#    0.000    0.000    0.000    1.385    0.000    2.615 
#
# Total GULP energy -644292.930013 kJ/mol
# GULP energy per Si atom -12390.248654 kJ/mol
# Density = 1.693826 g / cm^3
# Si number density = 16.976902 Si / 1000 Ang^3
#
#
#
# Elastic Constant Matrix: (Units=GPa)
#
#
# Indices 1 2 3 4 5 6 
#
# 1 80.0797 50.4882 30.0377 0.0000 0.0000 0.0000
# 2 50.4882 88.8798 27.3027 0.0000 0.0000 0.0000
# 3 30.0377 27.3027 61.9926 0.0000 0.0000 0.0000
# 4 0.0000 0.0000 0.0000 10.2960 0.0000 0.0000
# 5 0.0000 0.0000 0.0000 0.0000 12.5960 0.0000
# 6 0.0000 0.0000 0.0000 0.0000 0.0000 2.1101
#
#
#
# Elastic Compliance Matrix: (Units=1/GPa)
#
#
# Indices 1 2 3 4 5 6 
#
# 1 0.021069 -0.010214 -0.005710 0.000000 0.000000 0.000000
# 2 -0.010214 0.017963 -0.002962 0.000000 0.000000 0.000000
# 3 -0.005710 -0.002962 0.020202 0.000000 0.000000 0.000000
# 4 0.000000 0.000000 0.000000 0.097125 0.000000 0.000000
# 5 0.000000 0.000000 0.000000 0.000000 0.079390 0.000000
# 6 0.000000 0.000000 0.000000 0.000000 0.000000 0.473911
#
#
# Mechanical properties :
#
#
# Convention : Reuss Voigt Hill
#
# Bulk Modulus (GPa) = 46.59506 49.62325 48.10915
# Shear Modulus (GPa) = 6.62613 13.20865 9.91739
#
# Velocity S-wave (km/s) = 1.97775 2.79236 2.41958
# Velocity P-wave (km/s) = 5.72023 6.29997 6.01709
#
# Compressibility (1/GPa) = 0.02146150
#
# Stress axis : x y z
#
# Youngs Moduli (GPa) = 47.46232 55.66893 49.49904
#
# Poissons Ratio (x) = 0.56862 0.28265
# Poissons Ratio (y) = 0.48480 0.14662
# Poissons Ratio (z) = 0.27102 0.16490
#
# Static dielectric constant tensor:
#      x y z
#    x 2.987560 0.000000 0.000000 
#    y 0.000000 3.292810 0.000000 
#    z 0.000000 0.000000 3.199870 
# 
# 
# High freq. dielectric constant tensor:
#      x y z
#    x 1.627280 0.000000 0.000000 
#    y 0.000000 1.628670 0.000000 
#    z 0.000000 0.000000 1.652120 
# 
# From -- ./inp_files/14151.got.cif
#   From: 2010.03.12/outbox.cif.g09.slc.cpg/sg47_8_cif.got.tgz:14151.got - 2010.04.14 03:12:58.
