data_PCOD8200046
_publ_section_title
;
Structure prediction by ZEFSAII (Michael W. Deem and Ramdas Pophale) SiO2 
 PCOD8200046
Probable space group: P M M M
;
_chemical_formula_sum "Si O2"
_cell_formula_units_Z 56
_cell_length_a 21.341952
_cell_length_b 8.938665
_cell_length_c 15.239256
_cell_angle_alpha 90.000000
_cell_angle_beta 90.000000
_cell_angle_gamma 90.000000
_cell_volume 2907.170913
_symmetry_space_group_name_H-M "P M M M"
_symmetry_group_IT_number 47
_symmetry_cell_setting 'orthorhombic'
loop_
_space_group_symop_operation_xyz
x,y,z
-x,-y,z
x,-y,-z
-x,y,-z
-x,-y,-z
x,y,-z
-x,y,z
x,-y,z
loop_
_atom_site_type_symbol
_atom_site_label
_atom_site_fract_x
_atom_site_fract_y
_atom_site_fract_z
Si Si1 0.850717 0.823945 0.250094
Si Si2 0.928332 0.673913 0.899517
Si Si3 0.071465 0.325846 0.399719
Si Si4 0.620457 0.829140 0.597966
Si Si5 0.374850 0.671027 0.098933
Si Si6 0.500000 0.177605 0.152201
Si Si7 0.708031 0.175559 0.242591
Si Si8 0.500000 0.324244 0.340294
O O1 0.883261 0.767667 0.162003
O O2 0.883151 0.765353 0.337523
O O3 0.779151 0.769139 0.250652
O O4 0.854978 0.000000 0.251451
O O5 0.918713 0.500000 0.879121
O O6 0.000000 0.719547 0.880439
O O7 0.910951 0.709991 0.000000
O O8 0.089449 0.289721 0.500000
O O9 0.079700 0.500000 0.379495
O O10 0.000000 0.277596 0.381133
O O11 0.648572 0.812299 0.500000
O O12 0.673580 0.781465 0.666932
O O13 0.561263 0.720018 0.605212
O O14 0.598823 0.000000 0.615453
O O15 0.388494 0.500000 0.126157
O O16 0.438903 0.763016 0.103372
O O17 0.322639 0.737822 0.162161
O O18 0.348752 0.681197 0.000000
O O19 0.500000 0.231805 0.251345
O O20 0.500000 0.000000 0.149622
O O21 0.703324 0.000000 0.223071
O O22 0.500000 0.500000 0.321121
#
# Coordination Sequence:
#
# PCOD8200046 Si02
#       8
#     8   8   8   8   8   4   8   4
#     4  11  23  36  55  86 120 153 192 237 289 345
#     4   9  19  37  60  84 111 148 194 239 286 344
#     4   9  19  37  60  85 114 151 195 240 287 343
#     4  10  21  39  62  84 109 149 196 235 281 344
#     4  11  24  41  62  89 118 148 188 241 293 337
#     4  12  23  38  63  90 118 152 189 231 286 349
#     4  10  23  41  58  80 115 159 197 232 278 340
#     4  12  23  36  59  90 120 146 183 239 292 337
#
# _framework density 19.262712000000001
#
# number of rings (size 3 to 8) (size 9 to 14) (size 15 to 20)
#    0.000    1.714    1.429    3.857    0.000    8.286 
#    0.000    5.714    0.000    0.000    0.000    0.000 
#    0.000    0.000    0.000    0.000    0.000    0.000 
#
# Total GULP energy -694599.241089 kJ/mol
# GULP energy per Si atom -12403.557877 kJ/mol
# Density = 1.921887 g / cm^3
# Si number density = 19.262712 Si / 1000 Ang^3
#
#
#
# Elastic Constant Matrix: (Units=GPa)
#
#
# Indices 1 2 3 4 5 6 
#
# 1 153.6405 65.0957 80.4602 0.0000 0.0000 0.0000
# 2 65.0957 88.0881 51.0940 0.0000 0.0000 0.0000
# 3 80.4602 51.0940 137.3708 0.0000 0.0000 0.0000
# 4 0.0000 0.0000 0.0000 28.0731 0.0000 0.0000
# 5 0.0000 0.0000 0.0000 0.0000 -11.0485 0.0000
# 6 0.0000 0.0000 0.0000 0.0000 0.0000 -26.4486
#
#
#
# Elastic Compliance Matrix: (Units=1/GPa)
#
#
# Indices 1 2 3 4 5 6 
#
# 1 0.011285 -0.005745 -0.004473 0.000000 0.000000 0.000000
# 2 -0.005745 0.017400 -0.003107 0.000000 0.000000 0.000000
# 3 -0.004473 -0.003107 0.011055 0.000000 0.000000 0.000000
# 4 0.000000 0.000000 0.000000 0.035621 0.000000 0.000000
# 5 0.000000 0.000000 0.000000 0.000000 -0.090510 0.000000
# 6 0.000000 0.000000 0.000000 0.000000 0.000000 -0.037809
#
#
# Mechanical properties :
#
#
# Convention : Reuss Voigt Hill
#
# Bulk Modulus (GPa) = 76.39263 85.82213 81.10738
# Shear Modulus (GPa) = -227.84869 10.27851 -108.78509
#
# Velocity S-wave (km/s) = -10.88768 2.31248 -7.52310
# Velocity P-wave (km/s) = 10.87709 7.19585 5.76762
#
# Compressibility (1/GPa) = 0.01309027
#
# Stress axis : x y z
#
# Youngs Moduli (GPa) = 88.60992 57.47182 90.45603
#
# Poissons Ratio (x) = 0.33018 0.40463
# Poissons Ratio (y) = 0.50908 0.28102
# Poissons Ratio (z) = 0.39637 0.17855
#
# Static dielectric constant tensor:
#      x y z
#    x 3.567900 0.000000 0.000000 
#    y 0.000000 3.488570 0.000000 
#    z 0.000000 0.000000 3.741530 
# 
# 
# High freq. dielectric constant tensor:
#      x y z
#    x 1.744450 0.000000 0.000000 
#    y 0.000000 1.748300 0.000000 
#    z 0.000000 0.000000 1.765770 
# 
# From -- ./inp_files/25214.got.cif
#   From: 2010.03.12/outbox.cif.g09.slc.cpg/sg47_13_cif.got.tgz:25214.got - 2010.04.14 03:12:58.
