data_PCOD8200966
_publ_section_title
;
Structure prediction by ZEFSAII (Michael W. Deem and Ramdas Pophale) SiO2 
 PCOD8200966
Probable space group: P M M M
;
_chemical_formula_sum "Si O2"
_cell_formula_units_Z 44
_cell_length_a 9.359225
_cell_length_b 9.214897
_cell_length_c 28.585028
_cell_angle_alpha 90.000000
_cell_angle_beta 90.000000
_cell_angle_gamma 90.000000
_cell_volume 2465.295570
_symmetry_space_group_name_H-M "P M M M"
_symmetry_group_IT_number 47
_symmetry_cell_setting 'orthorhombic'
loop_
_space_group_symop_operation_xyz
x,y,z
-x,-y,z
x,-y,-z
-x,y,-z
-x,-y,-z
x,y,-z
-x,y,z
x,-y,z
loop_
_atom_site_type_symbol
_atom_site_label
_atom_site_fract_x
_atom_site_fract_y
_atom_site_fract_z
Si Si1 0.661550 0.327490 0.000000
Si Si2 0.160409 0.327384 0.448256
Si Si3 0.834002 0.330181 0.910244
Si Si4 0.166227 0.330791 0.272074
Si Si5 0.660648 0.672917 0.361968
Si Si6 0.830176 0.163654 0.818936
O O1 0.744150 0.271034 0.045800
O O2 0.662709 0.500000 0.000000
O O3 0.500000 0.266788 0.000000
O O4 0.211652 0.276859 0.500000
O O5 0.160642 0.500000 0.445773
O O6 0.265552 0.263171 0.408809
O O7 0.000000 0.270450 0.438623
O O8 0.809525 0.500000 0.901530
O O9 0.774808 0.246519 0.864901
O O10 0.000000 0.296639 0.920009
O O11 0.193188 0.500000 0.262819
O O12 0.252493 0.272854 0.316841
O O13 0.226150 0.245098 0.227199
O O14 0.000000 0.299079 0.281328
O O15 0.500000 0.733769 0.359398
O O16 0.661566 0.500000 0.363548
O O17 0.000000 0.166584 0.818728
O O18 0.770686 0.000000 0.819250
#
# Coordination Sequence:
#
# PCOD8200966 Si02
#       6
#     4   8   8   8   8   8
#     4   9  17  29  46  69  94 118 146 179 212 248
#     4   8  13  21  33  50  75 108 142 174 212 259
#     4   9  16  28  48  71  92 115 145 179 214 253
#     4   9  16  27  44  63  83 110 143 177 214 256
#     4   9  16  24  35  54  80 109 142 179 215 252
#     4   9  17  29  46  68  90 111 141 182 221 255
#
# _framework density 17.847757999999999
#
# number of rings (size 3 to 8) (size 9 to 14) (size 15 to 20)
#    0.000    3.182    0.000    1.909    0.000    5.818 
#    0.000    3.182    0.000    9.273    0.000    0.000 
#    0.000    0.727    0.000    8.364    0.000   10.727 
#
# Total GULP energy -545466.321196 kJ/mol
# GULP energy per Si atom -12396.961845 kJ/mol
# Density = 1.780714 g / cm^3
# Si number density = 17.847758 Si / 1000 Ang^3
#
#
#
# Elastic Constant Matrix: (Units=GPa)
#
#
# Indices 1 2 3 4 5 6 
#
# 1 92.2556 25.6162 85.7435 0.0000 0.0000 0.0000
# 2 25.6162 41.8139 48.2999 0.0000 0.0000 0.0000
# 3 85.7435 48.2999 207.3307 0.0000 0.0000 0.0000
# 4 0.0000 0.0000 0.0000 2.3932 0.0000 0.0000
# 5 0.0000 0.0000 0.0000 0.0000 9.5425 0.0000
# 6 0.0000 0.0000 0.0000 0.0000 0.0000 6.2156
#
#
#
# Elastic Compliance Matrix: (Units=1/GPa)
#
#
# Indices 1 2 3 4 5 6 
#
# 1 0.017936 -0.003311 -0.006646 0.000000 0.000000 0.000000
# 2 -0.003311 0.033332 -0.006396 0.000000 0.000000 0.000000
# 3 -0.006646 -0.006396 0.009062 0.000000 0.000000 0.000000
# 4 0.000000 0.000000 0.000000 0.417856 0.000000 0.000000
# 5 0.000000 0.000000 0.000000 0.000000 0.104795 0.000000
# 6 0.000000 0.000000 0.000000 0.000000 0.000000 0.160886
#
#
# Mechanical properties :
#
#
# Convention : Reuss Voigt Hill
#
# Bulk Modulus (GPa) = 36.20078 73.41328 54.80703
# Shear Modulus (GPa) = 6.36311 15.74629 11.05470
#
# Velocity S-wave (km/s) = 1.89023 2.97350 2.49145
# Velocity P-wave (km/s) = 5.00910 7.28089 6.24909
#
# Compressibility (1/GPa) = 0.02762371
#
# Stress axis : x y z
#
# Youngs Moduli (GPa) = 55.75431 30.00157 110.35338
#
# Poissons Ratio (x) = 0.09933 0.73344
# Poissons Ratio (y) = 0.18459 0.70580
# Poissons Ratio (z) = 0.37056 0.19188
#
# Static dielectric constant tensor:
#      x y z
#    x 3.218730 0.000000 0.000000 
#    y 0.000000 2.831950 0.000000 
#    z 0.000000 0.000000 3.620610 
# 
# 
# High freq. dielectric constant tensor:
#      x y z
#    x 1.667600 0.000000 0.000000 
#    y 0.000000 1.632650 0.000000 
#    z 0.000000 0.000000 1.710310 
# 
# From -- ./inp_files/2065.got.cif
#   From: 2010.03.12/outbox.cif.g09.slc.cpg/sg47_2_cif.got.tgz:2065.got - 2010.04.14 03:12:58.
