data_PCOD8200467
_publ_section_title
;
Structure prediction by ZEFSAII (Michael W. Deem and Ramdas Pophale) SiO2 
 PCOD8200467
Probable space group: P M M M
;
_chemical_formula_sum "Si O2"
_cell_formula_units_Z 40
_cell_length_a 8.724022
_cell_length_b 14.423999
_cell_length_c 16.422297
_cell_angle_alpha 90.000000
_cell_angle_beta 90.000000
_cell_angle_gamma 90.000000
_cell_volume 2066.504417
_symmetry_space_group_name_H-M "P M M M"
_symmetry_group_IT_number 47
_symmetry_cell_setting 'orthorhombic'
loop_
_space_group_symop_operation_xyz
x,y,z
-x,-y,z
x,-y,-z
-x,y,-z
-x,-y,-z
x,y,-z
-x,y,z
x,-y,z
loop_
_atom_site_type_symbol
_atom_site_label
_atom_site_fract_x
_atom_site_fract_y
_atom_site_fract_z
Si Si1 0.177265 0.737514 0.723576
Si Si2 0.323838 0.105727 0.172516
Si Si3 0.174763 0.629857 0.000000
Si Si4 0.826434 0.848431 0.000000
Si Si5 0.328188 0.600927 0.836958
Si Si6 0.321055 0.604413 0.594104
O O1 0.251541 0.833735 0.754034
O O2 0.202519 0.665141 0.795604
O O3 0.245891 0.689700 0.642859
O O4 0.000000 0.756503 0.708580
O O5 0.500000 0.134316 0.164097
O O6 0.251533 0.116678 0.082878
O O7 0.303230 0.000000 0.200688
O O8 0.270432 0.587420 0.072831
O O9 0.180208 0.739263 0.000000
O O10 0.000000 0.593709 0.000000
O O11 0.000000 0.885497 0.000000
O O12 0.500000 0.644539 0.833201
O O13 0.331766 0.500000 0.794175
O O14 0.287604 0.624584 0.500000
O O15 0.500000 0.607043 0.613783
O O16 0.259167 0.500000 0.616022
#
# Coordination Sequence:
#
# PCOD8200467 Si02
#       6
#     8   8   4   4   8   8
#     4  12  24  37  57  86 118 151 186 232 290 341
#     4  11  24  41  62  85 110 148 197 245 292 344
#     4  11  22  35  52  77 108 145 186 233 289 341
#     4  11  22  37  58  85 114 147 188 241 303 351
#     4  11  23  37  54  76 106 149 195 235 278 331
#     4   9  19  38  64  92 122 157 194 230 273 331
#
# _framework density 19.356358
#
# number of rings (size 3 to 8) (size 9 to 14) (size 15 to 20)
#    0.000    1.200    2.000    5.400    0.000    9.600 
#    0.000    1.000    0.000    0.600    0.000    4.200 
#    0.000    0.000    0.000    0.000    0.000    0.000 
#
# Total GULP energy -495727.068111 kJ/mol
# GULP energy per Si atom -12393.176703 kJ/mol
# Density = 1.931230 g / cm^3
# Si number density = 19.356358 Si / 1000 Ang^3
#
#
#
# Elastic Constant Matrix: (Units=GPa)
#
#
# Indices 1 2 3 4 5 6 
#
# 1 123.1359 53.8672 52.7141 0.0000 0.0000 0.0000
# 2 53.8672 123.8429 47.6147 0.0000 0.0000 0.0000
# 3 52.7141 47.6147 110.2160 0.0000 0.0000 0.0000
# 4 0.0000 0.0000 0.0000 87.2993 0.0000 0.0000
# 5 0.0000 0.0000 0.0000 0.0000 41.2410 0.0000
# 6 0.0000 0.0000 0.0000 0.0000 0.0000 48.7704
#
#
#
# Elastic Compliance Matrix: (Units=1/GPa)
#
#
# Indices 1 2 3 4 5 6 
#
# 1 0.011292 -0.003400 -0.003932 0.000000 0.000000 0.000000
# 2 -0.003400 0.010707 -0.002999 0.000000 0.000000 0.000000
# 3 -0.003932 -0.002999 0.012249 0.000000 0.000000 0.000000
# 4 0.000000 0.000000 0.000000 0.011455 0.000000 0.000000
# 5 0.000000 0.000000 0.000000 0.000000 0.024248 0.000000
# 6 0.000000 0.000000 0.000000 0.000000 0.000000 0.020504
#
#
# Mechanical properties :
#
#
# Convention : Reuss Voigt Hill
#
# Bulk Modulus (GPa) = 73.60649 73.95410 73.78030
# Shear Modulus (GPa) = 43.23581 48.99540 46.11560
#
# Velocity S-wave (km/s) = 4.73130 5.03659 4.88633
# Velocity P-wave (km/s) = 8.24358 8.49191 8.36867
#
# Compressibility (1/GPa) = 0.01358576
#
# Stress axis : x y z
#
# Youngs Moduli (GPa) = 88.56187 93.39934 81.63686
#
# Poissons Ratio (x) = 0.31753 0.32098
# Poissons Ratio (y) = 0.30109 0.24486
# Poissons Ratio (z) = 0.34821 0.28014
#
# Static dielectric constant tensor:
#      x y z
#    x 3.610390 0.000000 0.000000 
#    y 0.000000 3.733220 0.000000 
#    z 0.000000 0.000000 3.584780 
# 
# 
# High freq. dielectric constant tensor:
#      x y z
#    x 1.759160 0.000000 0.000000 
#    y 0.000000 1.757340 0.000000 
#    z 0.000000 0.000000 1.741830 
# 
# From -- ./inp_files/20707.got.cif
#   From: 2010.03.12/outbox.cif.g09.slc.cpg/sg47_11_cif.got.tgz:20707.got - 2010.04.14 03:12:58.
