data_PCOD8200024
_publ_section_title
;
Structure prediction by ZEFSAII (Michael W. Deem and Ramdas Pophale) SiO2 
 PCOD8200024
Probable space group: P M M M
;
_chemical_formula_sum "Si O2"
_cell_formula_units_Z 56
_cell_length_a 15.909926
_cell_length_b 19.426448
_cell_length_c 8.903455
_cell_angle_alpha 90.000000
_cell_angle_beta 90.000000
_cell_angle_gamma 90.000000
_cell_volume 2751.820665
_symmetry_space_group_name_H-M "P M M M"
_symmetry_group_IT_number 47
_symmetry_cell_setting 'orthorhombic'
loop_
_space_group_symop_operation_xyz
x,y,z
-x,-y,z
x,-y,-z
-x,y,-z
-x,-y,-z
x,y,-z
-x,y,z
x,-y,z
loop_
_atom_site_type_symbol
_atom_site_label
_atom_site_fract_x
_atom_site_fract_y
_atom_site_fract_z
Si Si1 0.756129 0.078795 0.823188
Si Si2 0.093701 0.837997 0.673821
Si Si3 0.842961 0.710880 0.176611
Si Si4 0.098979 0.577247 0.329164
Si Si5 0.593733 0.574775 0.322035
Si Si6 0.671168 0.285652 0.677784
Si Si7 0.406280 0.836584 0.174144
O O1 0.836312 0.113977 0.747463
O O2 0.666463 0.110799 0.772554
O O3 0.754489 0.000000 0.771113
O O4 0.768202 0.086316 0.000000
O O5 0.116158 0.829321 0.500000
O O6 0.090080 0.762079 0.748398
O O7 0.000000 0.870037 0.694934
O O8 0.855954 0.631745 0.222805
O O9 0.753690 0.738481 0.234513
O O10 0.849279 0.717516 0.000000
O O11 0.128520 0.590299 0.500000
O O12 0.124976 0.500000 0.279547
O O13 0.000000 0.586434 0.315348
O O14 0.588314 0.579680 0.500000
O O15 0.500000 0.581991 0.255244
O O16 0.631778 0.500000 0.274151
O O17 0.650123 0.637418 0.262968
O O18 0.685298 0.283385 0.500000
O O19 0.598649 0.232817 0.726539
O O20 0.500000 0.868257 0.200176
O O21 0.393764 0.817490 0.000000
#
# Coordination Sequence:
#
# PCOD8200024 Si02
#       7
#     8   8   8   8   8   8   8
#     4  10  22  41  65  94 128 165 203 243 292 357
#     4  11  24  42  65  92 122 160 205 252 305 363
#     4  12  24  37  56  84 119 157 200 252 309 365
#     4   9  19  37  59  82 111 150 198 251 305 363
#     4   8  15  29  49  75 107 143 188 242 295 346
#     4  11  21  34  56  84 114 153 203 254 303 357
#     4  10  21  38  61  90 125 164 203 246 299 359
#
# _framework density 20.350162000000001
#
# number of rings (size 3 to 8) (size 9 to 14) (size 15 to 20)
#    0.000    1.857    1.429    3.857    0.000    5.714 
#    0.000    5.000    0.000    1.286    0.000    7.000 
#    0.000    0.000    0.000    0.000    0.000    0.000 
#
# Total GULP energy -694289.781656 kJ/mol
# GULP energy per Si atom -12398.031815 kJ/mol
# Density = 2.030384 g / cm^3
# Si number density = 20.350162 Si / 1000 Ang^3
#
#
#
# Elastic Constant Matrix: (Units=GPa)
#
#
# Indices 1 2 3 4 5 6 
#
# 1 117.0406 57.4277 36.0703 0.0000 0.0000 0.0000
# 2 57.4277 138.0275 47.3906 0.0000 0.0000 0.0000
# 3 36.0703 47.3906 63.7030 0.0000 0.0000 0.0000
# 4 0.0000 0.0000 0.0000 30.7156 0.0000 0.0000
# 5 0.0000 0.0000 0.0000 0.0000 27.2461 0.0000
# 6 0.0000 0.0000 0.0000 0.0000 0.0000 28.4185
#
#
#
# Elastic Compliance Matrix: (Units=1/GPa)
#
#
# Indices 1 2 3 4 5 6 
#
# 1 0.011427 -0.003402 -0.003940 0.000000 0.000000 0.000000
# 2 -0.003402 0.010743 -0.006066 0.000000 0.000000 0.000000
# 3 -0.003940 -0.006066 0.022441 0.000000 0.000000 0.000000
# 4 0.000000 0.000000 0.000000 0.032557 0.000000 0.000000
# 5 0.000000 0.000000 0.000000 0.000000 0.036702 0.000000
# 6 0.000000 0.000000 0.000000 0.000000 0.000000 0.035188
#
#
# Mechanical properties :
#
#
# Convention : Reuss Voigt Hill
#
# Bulk Modulus (GPa) = 56.19006 66.72760 61.45883
# Shear Modulus (GPa) = 27.50184 29.13488 28.31836
#
# Velocity S-wave (km/s) = 3.68017 3.78786 3.73440
# Velocity P-wave (km/s) = 6.76238 7.21050 6.99003
#
# Compressibility (1/GPa) = 0.01779674
#
# Stress axis : x y z
#
# Youngs Moduli (GPa) = 87.50926 93.08451 44.56085
#
# Poissons Ratio (x) = 0.31665 0.17556
# Poissons Ratio (y) = 0.29769 0.27030
# Poissons Ratio (z) = 0.34477 0.56463
#
# Static dielectric constant tensor:
#      x y z
#    x 3.751560 0.000000 0.000000 
#    y 0.000000 3.893450 0.000000 
#    z 0.000000 0.000000 3.431000 
# 
# 
# High freq. dielectric constant tensor:
#      x y z
#    x 1.801040 0.000000 0.000000 
#    y 0.000000 1.798020 0.000000 
#    z 0.000000 0.000000 1.771750 
# 
# From -- ./inp_files/7202.got.cif
#   From: 2010.03.12/outbox.cif.g09.slc.cpg/sg47_4_cif.got.tgz:7202.got - 2010.04.14 03:12:58.
