data_PCOD8200566
_publ_section_title
;
Structure prediction by ZEFSAII (Michael W. Deem and Ramdas Pophale) SiO2 
 PCOD8200566
Probable space group: P M M M
;
_chemical_formula_sum "Si O2"
_cell_formula_units_Z 44
_cell_length_a 13.388452
_cell_length_b 18.777964
_cell_length_c 8.826891
_cell_angle_alpha 90.000000
_cell_angle_beta 90.000000
_cell_angle_gamma 90.000000
_cell_volume 2219.149862
_symmetry_space_group_name_H-M "P M M M"
_symmetry_group_IT_number 47
_symmetry_cell_setting 'orthorhombic'
loop_
_space_group_symop_operation_xyz
x,y,z
-x,-y,z
x,-y,-z
-x,y,-z
-x,-y,-z
x,y,-z
-x,y,z
x,-y,z
loop_
_atom_site_type_symbol
_atom_site_label
_atom_site_fract_x
_atom_site_fract_y
_atom_site_fract_z
Si Si1 0.689584 0.157843 0.677961
Si Si2 0.289249 0.581196 0.677098
Si Si3 0.888632 0.822240 0.176817
Si Si4 0.614257 0.293285 0.171862
Si Si5 0.112189 0.343980 0.172650
Si Si6 0.500000 0.084081 0.826654
O O1 0.683075 0.147765 0.500000
O O2 0.800647 0.134977 0.735010
O O3 0.677005 0.240290 0.723378
O O4 0.601533 0.111665 0.750896
O O5 0.309487 0.588623 0.500000
O O6 0.299774 0.500000 0.730843
O O7 0.371659 0.626854 0.767291
O O8 0.179392 0.609943 0.715201
O O9 0.879792 0.738865 0.213915
O O10 0.000000 0.848619 0.227048
O O11 0.874031 0.836872 0.000000
O O12 0.500000 0.270459 0.181081
O O13 0.654024 0.287775 0.000000
O O14 0.000000 0.371323 0.195297
O O15 0.147213 0.356380 0.000000
O O16 0.500000 0.000000 0.812397
O O17 0.500000 0.110220 0.000000
#
# Coordination Sequence:
#
# PCOD8200566 Si02
#       6
#     8   8   8   8   8   4
#     4  12  23  36  62  96 129 162 196 245 304 356
#     4  11  24  38  52  75 109 147 189 244 308 365
#     4   9  18  34  58  88 122 160 204 252 297 351
#     4  11  23  39  60  82 108 146 196 247 292 355
#     4   9  18  33  54  78 105 143 191 243 295 350
#     4  11  25  45  69  97 130 169 208 241 281 343
#
# _framework density 19.827413
#
# number of rings (size 3 to 8) (size 9 to 14) (size 15 to 20)
#    0.000    1.545    2.727    4.091    0.000    4.727 
#    0.000    5.455    0.000    0.545    0.000    3.818 
#    0.000    0.000    0.000    0.000    0.000    0.000 
#
# Total GULP energy -545562.201083 kJ/mol
# GULP energy per Si atom -12399.140934 kJ/mol
# Density = 1.978228 g / cm^3
# Si number density = 19.827413 Si / 1000 Ang^3
#
#
#
# Elastic Constant Matrix: (Units=GPa)
#
#
# Indices 1 2 3 4 5 6 
#
# 1 145.8913 37.7642 64.5283 0.0000 0.0000 0.0000
# 2 37.7642 49.8282 34.4750 0.0000 0.0000 0.0000
# 3 64.5283 34.4750 117.8797 0.0000 0.0000 0.0000
# 4 0.0000 0.0000 0.0000 21.9361 0.0000 0.0000
# 5 0.0000 0.0000 0.0000 0.0000 20.2325 0.0000
# 6 0.0000 0.0000 0.0000 0.0000 0.0000 19.0006
#
#
#
# Elastic Compliance Matrix: (Units=1/GPa)
#
#
# Indices 1 2 3 4 5 6 
#
# 1 0.009844 -0.004679 -0.004020 0.000000 0.000000 0.000000
# 2 -0.004679 0.027384 -0.005447 0.000000 0.000000 0.000000
# 3 -0.004020 -0.005447 0.012277 0.000000 0.000000 0.000000
# 4 0.000000 0.000000 0.000000 0.045587 0.000000 0.000000
# 5 0.000000 0.000000 0.000000 0.000000 0.049425 0.000000
# 6 0.000000 0.000000 0.000000 0.000000 0.000000 0.052630
#
#
# Mechanical properties :
#
#
# Convention : Reuss Voigt Hill
#
# Bulk Modulus (GPa) = 47.14367 65.23714 56.19040
# Shear Modulus (GPa) = 21.50439 24.02262 22.76351
#
# Velocity S-wave (km/s) = 3.29687 3.48456 3.39201
# Velocity P-wave (km/s) = 6.19040 7.01167 6.61379
#
# Compressibility (1/GPa) = 0.02121175
#
# Stress axis : x y z
#
# Youngs Moduli (GPa) = 101.58791 36.51759 81.45314
#
# Poissons Ratio (x) = 0.17087 0.32745
# Poissons Ratio (y) = 0.47533 0.44371
# Poissons Ratio (z) = 0.40839 0.19893
#
# Static dielectric constant tensor:
#      x y z
#    x 3.900430 0.000000 0.000000 
#    y 0.000000 3.322180 0.000000 
#    z 0.000000 0.000000 3.532640 
# 
# 
# High freq. dielectric constant tensor:
#      x y z
#    x 1.795250 0.000000 0.000000 
#    y 0.000000 1.738100 0.000000 
#    z 0.000000 0.000000 1.770300 
# 
# From -- ./inp_files/6182.got.cif
#   From: 2010.03.12/outbox.cif.g09.slc.cpg/sg47_4_cif.got.tgz:6182.got - 2010.04.14 03:12:58.
