data_PCOD8200763
_publ_section_title
;
Structure prediction by ZEFSAII (Michael W. Deem and Ramdas Pophale) SiO2 
 PCOD8200763
Probable space group: P M M M
;
_chemical_formula_sum "Si O2"
_cell_formula_units_Z 56
_cell_length_a 29.345359
_cell_length_b 9.123515
_cell_length_c 13.864325
_cell_angle_alpha 90.000000
_cell_angle_beta 90.000000
_cell_angle_gamma 90.000000
_cell_volume 3711.934871
_symmetry_space_group_name_H-M "P M M M"
_symmetry_group_IT_number 47
_symmetry_cell_setting 'orthorhombic'
loop_
_space_group_symop_operation_xyz
x,y,z
-x,-y,z
x,-y,-z
-x,y,-z
-x,-y,-z
x,y,-z
-x,y,z
x,-y,z
loop_
_atom_site_type_symbol
_atom_site_label
_atom_site_fract_x
_atom_site_fract_y
_atom_site_fract_z
Si Si1 0.911626 0.334572 0.614837
Si Si2 0.000000 0.834310 0.384916
Si Si3 0.361120 0.825488 0.393544
Si Si4 0.821890 0.829162 0.612649
Si Si5 0.729888 0.174138 0.294198
Si Si6 0.317209 0.174359 0.106068
Si Si7 0.591668 0.825729 0.205257
Si Si8 0.500000 0.824914 0.890034
O O1 0.912628 0.332510 0.500000
O O2 0.913040 0.500000 0.654477
O O3 0.955365 0.247960 0.655423
O O4 0.865866 0.256434 0.652137
O O5 0.000000 0.833388 0.500000
O O6 0.000000 0.000000 0.345566
O O7 0.372981 0.762917 0.500000
O O8 0.311231 0.767615 0.361560
O O9 0.399093 0.773282 0.315743
O O10 0.359988 0.000000 0.395623
O O11 0.813764 0.800784 0.500000
O O12 0.778131 0.764083 0.669000
O O13 0.829755 0.000000 0.633674
O O14 0.720682 0.226014 0.183834
O O15 0.731144 0.000000 0.301074
O O16 0.367106 0.231160 0.137973
O O17 0.318289 0.000000 0.103437
O O18 0.305345 0.238025 0.000000
O O19 0.544250 0.761164 0.165359
O O20 0.589928 0.000000 0.201576
O O21 0.500000 0.000000 0.888579
O O22 0.500000 0.768054 0.000000
#
# Coordination Sequence:
#
# PCOD8200763 Si02
#       8
#     8   4   8   8   8   8   8   4
#     4   9  16  24  33  46  66  92 120 149 180 211
#     4   9  15  23  35  49  65  89 124 159 184 207
#     4   8  12  18  26  34  46  65  89 120 158 197
#     4   9  15  22  32  46  64  86 113 144 174 203
#     4   8  13  19  28  42  57  74  98 128 163 202
#     4   8  12  18  27  38  53  72  93 121 161 205
#     4   8  13  18  23  32  44  61  89 122 158 201
#     4   9  14  18  23  29  39  57  84 122 164 203
#
# _framework density 15.08647
#
# number of rings (size 3 to 8) (size 9 to 14) (size 15 to 20)
#    0.000    3.571    0.000    3.214    0.000    6.000 
#    0.000    0.357    0.000    2.143    0.000    0.000 
#    0.000    0.571    0.000    0.643    0.000   15.214 
#
# Total GULP energy -693877.018820 kJ/mol
# GULP energy per Si atom -12390.661050 kJ/mol
# Density = 1.505213 g / cm^3
# Si number density = 15.086470 Si / 1000 Ang^3
#
#
#
# Elastic Constant Matrix: (Units=GPa)
#
#
# Indices 1 2 3 4 5 6 
#
# 1 147.0375 32.8613 60.4789 0.0000 0.0000 0.0000
# 2 32.8613 34.1524 15.4933 0.0000 0.0000 0.0000
# 3 60.4789 15.4933 104.7164 0.0000 0.0000 0.0000
# 4 0.0000 0.0000 0.0000 2.0166 0.0000 0.0000
# 5 0.0000 0.0000 0.0000 0.0000 15.4053 0.0000
# 6 0.0000 0.0000 0.0000 0.0000 0.0000 1.2825
#
#
#
# Elastic Compliance Matrix: (Units=1/GPa)
#
#
# Indices 1 2 3 4 5 6 
#
# 1 0.010620 -0.007971 -0.004954 0.000000 0.000000 0.000000
# 2 -0.007971 0.037370 -0.000925 0.000000 0.000000 0.000000
# 3 -0.004954 -0.000925 0.012548 0.000000 0.000000 0.000000
# 4 0.000000 0.000000 0.000000 0.495873 0.000000 0.000000
# 5 0.000000 0.000000 0.000000 0.000000 0.064913 0.000000
# 6 0.000000 0.000000 0.000000 0.000000 0.000000 0.779719
#
#
# Mechanical properties :
#
#
# Convention : Reuss Voigt Hill
#
# Bulk Modulus (GPa) = 30.45386 55.95259 43.20323
# Shear Modulus (GPa) = 3.47297 15.54574 9.50935
#
# Velocity S-wave (km/s) = 1.51889 3.21353 2.51335
# Velocity P-wave (km/s) = 4.82764 7.13705 6.09277
#
# Compressibility (1/GPa) = 0.03283656
#
# Stress axis : x y z
#
# Youngs Moduli (GPa) = 94.15951 26.75929 79.69460
#
# Poissons Ratio (x) = 0.21330 0.39484
# Poissons Ratio (y) = 0.75057 0.07374
# Poissons Ratio (z) = 0.46650 0.02476
#
# Static dielectric constant tensor:
#      x y z
#    x 3.111800 0.000000 0.000000 
#    y 0.000000 2.393470 0.000000 
#    z 0.000000 0.000000 2.972620 
# 
# 
# High freq. dielectric constant tensor:
#      x y z
#    x 1.579760 0.000000 0.000000 
#    y 0.000000 1.519100 0.000000 
#    z 0.000000 0.000000 1.547710 
# 
# From -- ./inp_files/25834.got.cif
#   From: 2010.03.12/outbox.cif.g09.slc.cpg/sg47_13_cif.got.tgz:25834.got - 2010.04.14 03:12:58.
