data_PCOD8200006
_publ_section_title
;
Structure prediction by ZEFSAII (Michael W. Deem and Ramdas Pophale) SiO2 
 PCOD8200006
Probable space group: P M M M
;
_chemical_formula_sum "Si O2"
_cell_formula_units_Z 48
_cell_length_a 34.908676
_cell_length_b 9.075748
_cell_length_c 7.592966
_cell_angle_alpha 90.000000
_cell_angle_beta 90.000000
_cell_angle_gamma 90.000000
_cell_volume 2405.621304
_symmetry_space_group_name_H-M "P M M M"
_symmetry_group_IT_number 47
_symmetry_cell_setting 'orthorhombic'
loop_
_space_group_symop_operation_xyz
x,y,z
-x,-y,z
x,-y,-z
-x,y,-z
-x,-y,-z
x,y,-z
-x,y,z
x,-y,z
loop_
_atom_site_type_symbol
_atom_site_label
_atom_site_fract_x
_atom_site_fract_y
_atom_site_fract_z
Si Si1 0.540733 0.832865 0.292644
Si Si2 0.754101 0.327848 0.500000
Si Si3 0.165837 0.175399 0.500000
Si Si4 0.042019 0.835367 0.208461
Si Si5 0.305101 0.671285 0.200788
Si Si6 0.621484 0.162864 0.202764
Si Si7 0.116857 0.327583 0.793502
O O1 0.540605 0.828976 0.500000
O O2 0.500000 0.761020 0.225384
O O3 0.580072 0.755149 0.227671
O O4 0.541735 0.000000 0.221447
O O5 0.766118 0.500000 0.500000
O O6 0.790233 0.221990 0.500000
O O7 0.730480 0.287828 0.324344
O O8 0.147438 0.239800 0.678115
O O9 0.161887 0.000000 0.500000
O O10 0.074569 0.722087 0.271300
O O11 0.000000 0.786262 0.280445
O O12 0.051763 0.000000 0.278071
O O13 0.040613 0.837538 0.000000
O O14 0.313889 0.500000 0.207864
O O15 0.343269 0.745935 0.283071
O O16 0.295587 0.721067 0.000000
O O17 0.620327 0.000000 0.291594
O O18 0.630646 0.148389 0.000000
O O19 0.121267 0.500000 0.756415
O O20 0.123573 0.290944 0.000000
#
# Coordination Sequence:
#
# PCOD8200006 Si02
#       7
#     8   4   4   8   8   8   8
#     4   8  14  24  38  60  92 129 166 203 245 293
#     4  10  22  40  60  81 104 135 176 217 264 329
#     4  12  26  42  61  87 118 149 187 237 288 347
#     4   8  14  27  50  81 117 156 197 241 290 342
#     4   9  19  36  56  78 105 135 166 206 260 320
#     4   9  17  28  45  71  98 125 162 208 252 298
#     4  10  21  38  61  87 118 158 199 241 288 338
#
# _framework density 19.953264999999998
#
# number of rings (size 3 to 8) (size 9 to 14) (size 15 to 20)
#    0.000    2.833    0.000    2.250    1.167    3.000 
#    0.000    5.417    0.000    3.000    0.000    3.500 
#    0.000    0.000    0.000    0.000    0.000    0.000 
#
# Total GULP energy -594669.980075 kJ/mol
# GULP energy per Si atom -12388.957918 kJ/mol
# Density = 1.990785 g / cm^3
# Si number density = 19.953265 Si / 1000 Ang^3
#
#
#
# Elastic Constant Matrix: (Units=GPa)
#
#
# Indices 1 2 3 4 5 6 
#
# 1 179.8117 73.2219 54.3988 0.0000 0.0000 0.0000
# 2 73.2219 86.4806 37.5034 0.0000 0.0000 0.0000
# 3 54.3988 37.5034 74.0706 0.0000 0.0000 0.0000
# 4 0.0000 0.0000 0.0000 16.8843 0.0000 0.0000
# 5 0.0000 0.0000 0.0000 0.0000 -28.0022 0.0000
# 6 0.0000 0.0000 0.0000 0.0000 0.0000 20.5879
#
#
#
# Elastic Compliance Matrix: (Units=1/GPa)
#
#
# Indices 1 2 3 4 5 6 
#
# 1 0.009179 -0.006212 -0.003596 0.000000 0.000000 0.000000
# 2 -0.006212 0.019021 -0.005068 0.000000 0.000000 0.000000
# 3 -0.003596 -0.005068 0.018708 0.000000 0.000000 0.000000
# 4 0.000000 0.000000 0.000000 0.059227 0.000000 0.000000
# 5 0.000000 0.000000 0.000000 0.000000 -0.035711 0.000000
# 6 0.000000 0.000000 0.000000 0.000000 0.000000 0.048572
#
#
# Mechanical properties :
#
#
# Convention : Reuss Voigt Hill
#
# Bulk Modulus (GPa) = 58.29253 74.51236 66.40244
# Shear Modulus (GPa) = 32.36952 13.57658 22.97305
#
# Velocity S-wave (km/s) = 4.03211 2.61131 3.39683
# Velocity P-wave (km/s) = 7.13829 6.82030 6.98110
#
# Compressibility (1/GPa) = 0.01715486
#
# Stress axis : x y z
#
# Youngs Moduli (GPa) = 108.94478 52.57313 53.45420
#
# Poissons Ratio (x) = 0.32660 0.19221
# Poissons Ratio (y) = 0.67680 0.27092
# Poissons Ratio (z) = 0.39174 0.26646
#
# Static dielectric constant tensor:
#      x y z
#    x 3.907600 0.000000 0.000000 
#    y 0.000000 3.508090 0.000000 
#    z 0.000000 0.000000 3.604390 
# 
# 
# High freq. dielectric constant tensor:
#      x y z
#    x 1.791780 0.000000 0.000000 
#    y 0.000000 1.739700 0.000000 
#    z 0.000000 0.000000 1.770660 
# 
# From -- ./inp_files/13914.got.cif
#   From: 2010.03.12/outbox.cif.g09.slc.cpg/sg47_7_cif.got.tgz:13914.got - 2010.04.14 03:12:58.
