data_PCOD8200028
_publ_section_title
;
Structure prediction by ZEFSAII (Michael W. Deem and Ramdas Pophale) SiO2 
 PCOD8200028
Probable space group: P M M M
;
_chemical_formula_sum "Si O2"
_cell_formula_units_Z 48
_cell_length_a 15.684398
_cell_length_b 7.796637
_cell_length_c 19.018295
_cell_angle_alpha 90.000000
_cell_angle_beta 90.000000
_cell_angle_gamma 90.000000
_cell_volume 2325.662812
_symmetry_space_group_name_H-M "P M M M"
_symmetry_group_IT_number 47
_symmetry_cell_setting 'orthorhombic'
loop_
_space_group_symop_operation_xyz
x,y,z
-x,-y,z
x,-y,-z
-x,y,-z
-x,-y,-z
x,y,-z
-x,y,z
x,-y,z
loop_
_atom_site_type_symbol
_atom_site_label
_atom_site_fract_x
_atom_site_fract_y
_atom_site_fract_z
Si Si1 0.599055 0.812109 0.676554
Si Si2 0.835863 0.500000 0.423123
Si Si3 0.639292 0.500000 0.576829
Si Si4 0.596265 0.797782 0.831468
Si Si5 0.903018 0.296622 0.822643
Si Si6 0.754608 0.301245 0.077683
Si Si7 0.901105 0.192487 0.667799
O O1 0.500000 0.840841 0.686359
O O2 0.615104 0.671881 0.617652
O O3 0.631408 0.748872 0.753327
O O4 0.639365 0.000000 0.656456
O O5 0.882050 0.500000 0.500000
O O6 0.737502 0.500000 0.436850
O O7 0.854477 0.672420 0.381059
O O8 0.593469 0.500000 0.500000
O O9 0.500000 0.724455 0.844923
O O10 0.662582 0.721735 0.886846
O O11 0.594193 0.000000 0.840006
O O12 0.897375 0.500000 0.814887
O O13 0.834425 0.222684 0.878551
O O14 0.875357 0.214861 0.748740
O O15 0.000000 0.241821 0.843671
O O16 0.773435 0.500000 0.070053
O O17 0.753016 0.215846 0.000000
O O18 0.000000 0.229963 0.658761
O O19 0.876790 0.000000 0.643689
#
# Coordination Sequence:
#
# PCOD8200028 Si02
#       7
#     8   4   4   8   8   8   8
#     4   9  20  39  62  88 116 152 201 250 295 347
#     4  11  25  41  57  85 125 160 191 238 300 358
#     4  11  25  39  57  89 123 158 195 236 298 362
#     4   9  20  38  58  82 111 149 199 247 294 350
#     4   9  18  35  59  85 117 157 199 244 294 351
#     4  10  22  36  54  86 121 155 195 238 294 356
#     4  10  21  38  62  89 114 150 202 250 295 349
#
# _framework density 20.639278000000001
#
# number of rings (size 3 to 8) (size 9 to 14) (size 15 to 20)
#    0.000    2.333    0.833    1.500    3.500    4.667 
#    0.000    6.667    0.000    0.000    0.000    3.500 
#    0.000    0.000    0.000    0.000    0.000    0.000 
#
# Total GULP energy -594883.830467 kJ/mol
# GULP energy per Si atom -12393.413135 kJ/mol
# Density = 2.059230 g / cm^3
# Si number density = 20.639278 Si / 1000 Ang^3
#
#
#
# Elastic Constant Matrix: (Units=GPa)
#
#
# Indices 1 2 3 4 5 6 
#
# 1 85.9982 18.1678 53.7129 0.0000 0.0000 0.0000
# 2 18.1678 75.3872 50.2624 0.0000 0.0000 0.0000
# 3 53.7129 50.2624 141.5695 0.0000 0.0000 0.0000
# 4 0.0000 0.0000 0.0000 1.6323 0.0000 0.0000
# 5 0.0000 0.0000 0.0000 0.0000 -24.4906 0.0000
# 6 0.0000 0.0000 0.0000 0.0000 0.0000 11.5420
#
#
#
# Elastic Compliance Matrix: (Units=1/GPa)
#
#
# Indices 1 2 3 4 5 6 
#
# 1 0.015243 0.000239 -0.005868 0.000000 0.000000 0.000000
# 2 0.000239 0.017382 -0.006262 0.000000 0.000000 0.000000
# 3 -0.005868 -0.006262 0.011513 0.000000 0.000000 0.000000
# 4 0.000000 0.000000 0.000000 0.612632 0.000000 0.000000
# 5 0.000000 0.000000 0.000000 0.000000 -0.040832 0.000000
# 6 0.000000 0.000000 0.000000 0.000000 0.000000 0.086640
#
#
# Mechanical properties :
#
#
# Convention : Reuss Voigt Hill
#
# Bulk Modulus (GPa) = 49.12529 60.80458 54.96493
# Shear Modulus (GPa) = 6.81992 9.79086 8.30539
#
# Velocity S-wave (km/s) = 1.81976 2.18039 2.00818
# Velocity P-wave (km/s) = 5.31685 5.98860 5.66270
#
# Compressibility (1/GPa) = 0.02035611
#
# Stress axis : x y z
#
# Youngs Moduli (GPa) = 65.60483 57.52976 86.85575
#
# Poissons Ratio (x) = -0.01375 0.50968
# Poissons Ratio (y) = -0.01568 0.54389
# Poissons Ratio (z) = 0.38498 0.36025
#
# Static dielectric constant tensor:
#      x y z
#    x 3.879340 0.000000 0.000000 
#    y 0.000000 3.622710 0.000000 
#    z 0.000000 0.000000 4.220050 
# 
# 
# High freq. dielectric constant tensor:
#      x y z
#    x 1.806340 0.000000 0.000000 
#    y 0.000000 1.803460 0.000000 
#    z 0.000000 0.000000 1.804520 
# 
# From -- ./inp_files/27978.got.cif
#   From: 2010.03.12/outbox.cif.g09.slc.cpg/sg47_14_cif.got.tgz:27978.got - 2010.04.14 03:12:58.
