data_PCOD8200998
_publ_section_title
;
Structure prediction by ZEFSAII (Michael W. Deem and Ramdas Pophale) SiO2 
 PCOD8200998
Probable space group: P M M M
;
_chemical_formula_sum "Si O2"
_cell_formula_units_Z 40
_cell_length_a 9.255909
_cell_length_b 17.956523
_cell_length_c 17.863893
_cell_angle_alpha 90.000000
_cell_angle_beta 90.000000
_cell_angle_gamma 90.000000
_cell_volume 2969.049451
_symmetry_space_group_name_H-M "P M M M"
_symmetry_group_IT_number 47
_symmetry_cell_setting 'orthorhombic'
loop_
_space_group_symop_operation_xyz
x,y,z
-x,-y,z
x,-y,-z
-x,y,-z
-x,-y,-z
x,y,-z
-x,y,z
x,-y,z
loop_
_atom_site_type_symbol
_atom_site_label
_atom_site_fract_x
_atom_site_fract_y
_atom_site_fract_z
Si Si1 0.169002 0.288851 0.086661
Si Si2 0.336588 0.142830 0.911020
Si Si3 0.661585 0.588981 0.500000
Si Si4 0.171953 0.417396 0.195584
Si Si5 0.160310 0.588383 0.639738
Si Si6 0.164038 0.000000 0.089329
O O1 0.256801 0.217551 0.115826
O O2 0.226627 0.359689 0.133195
O O3 0.000000 0.273427 0.100266
O O4 0.200580 0.305813 0.000000
O O5 0.500000 0.141134 0.879417
O O6 0.247757 0.072371 0.879608
O O7 0.338605 0.139575 0.000000
O O8 0.664048 0.500000 0.500000
O O9 0.500000 0.620186 0.500000
O O10 0.738730 0.620907 0.425660
O O11 0.233520 0.500000 0.176731
O O12 0.223892 0.390751 0.278207
O O13 0.000000 0.421305 0.196392
O O14 0.151465 0.500000 0.633637
O O15 0.000000 0.622201 0.628881
O O16 0.000000 0.000000 0.119986
O O17 0.162601 0.000000 0.000000
#
# Coordination Sequence:
#
# PCOD8200998 Si02
#       6
#     8   8   4   8   8   4
#     4   9  16  25  37  52  69  90 119 155 189 215
#     4   9  16  25  36  50  69  91 113 138 172 215
#     4   9  15  21  31  49  69  83  99 130 171 212
#     4   8  14  24  37  52  68  88 119 157 189 215
#     4   8  13  22  35  48  63  85 111 137 169 212
#     4   9  15  23  37  55  71  85 105 136 173 212
#
# _framework density 13.472325
#
# number of rings (size 3 to 8) (size 9 to 14) (size 15 to 20)
#    0.000    3.400    0.000    2.400    0.000    5.200 
#    0.000    3.000    0.000    1.800    0.000    2.800 
#    0.000    0.000    0.000    0.000    0.000    1.000 
#
# Total GULP energy -495741.481334 kJ/mol
# GULP energy per Si atom -12393.537033 kJ/mol
# Density = 1.344166 g / cm^3
# Si number density = 13.472325 Si / 1000 Ang^3
#
#
#
# Elastic Constant Matrix: (Units=GPa)
#
#
# Indices 1 2 3 4 5 6 
#
# 1 77.8299 42.8250 34.0415 0.0000 0.0000 0.0000
# 2 42.8250 88.0005 44.4346 0.0000 0.0000 0.0000
# 3 34.0415 44.4346 65.7061 0.0000 0.0000 0.0000
# 4 0.0000 0.0000 0.0000 0.8317 0.0000 0.0000
# 5 0.0000 0.0000 0.0000 0.0000 7.0229 0.0000
# 6 0.0000 0.0000 0.0000 0.0000 0.0000 11.4246
#
#
#
# Elastic Compliance Matrix: (Units=1/GPa)
#
#
# Indices 1 2 3 4 5 6 
#
# 1 0.018718 -0.006396 -0.005372 0.000000 0.000000 0.000000
# 2 -0.006396 0.019442 -0.009834 0.000000 0.000000 0.000000
# 3 -0.005372 -0.009834 0.024653 0.000000 0.000000 0.000000
# 4 0.000000 0.000000 0.000000 1.202376 0.000000 0.000000
# 5 0.000000 0.000000 0.000000 0.000000 0.142391 0.000000
# 6 0.000000 0.000000 0.000000 0.000000 0.000000 0.087530
#
#
# Mechanical properties :
#
#
# Convention : Reuss Voigt Hill
#
# Bulk Modulus (GPa) = 50.99958 52.68207 51.84082
# Shear Modulus (GPa) = 3.23656 11.20488 7.22072
#
# Velocity S-wave (km/s) = 1.55164 2.88704 2.31761
# Velocity P-wave (km/s) = 6.41462 7.09240 6.76201
#
# Compressibility (1/GPa) = 0.01960801
#
# Stress axis : x y z
#
# Youngs Moduli (GPa) = 53.42569 51.43542 40.56375
#
# Poissons Ratio (x) = 0.32901 0.21789
# Poissons Ratio (y) = 0.34174 0.39890
# Poissons Ratio (z) = 0.28698 0.50581
#
# Static dielectric constant tensor:
#      x y z
#    x 2.721090 0.000000 0.000000 
#    y 0.000000 2.595550 0.000000 
#    z 0.000000 0.000000 2.610680 
# 
# 
# High freq. dielectric constant tensor:
#      x y z
#    x 1.507420 0.000000 0.000000 
#    y 0.000000 1.480430 0.000000 
#    z 0.000000 0.000000 1.479060 
# 
# From -- ./inp_files/9373.got.cif
#   From: 2010.03.12/outbox.cif.g09.slc.cpg/sg47_5_cif.got.tgz:9373.got - 2010.04.14 03:12:58.
