data_PCOD8200643
_publ_section_title
;
Structure prediction by ZEFSAII (Michael W. Deem and Ramdas Pophale) SiO2 
 PCOD8200643
Probable space group: P M M M
;
_chemical_formula_sum "Si O2"
_cell_formula_units_Z 28
_cell_length_a 13.978527
_cell_length_b 7.938172
_cell_length_c 13.732647
_cell_angle_alpha 90.000000
_cell_angle_beta 90.000000
_cell_angle_gamma 90.000000
_cell_volume 1523.828777
_symmetry_space_group_name_H-M "P M M M"
_symmetry_group_IT_number 47
_symmetry_cell_setting 'orthorhombic'
loop_
_space_group_symop_operation_xyz
x,y,z
-x,-y,z
x,-y,-z
-x,y,-z
-x,-y,-z
x,y,-z
-x,y,z
x,-y,z
loop_
_atom_site_type_symbol
_atom_site_label
_atom_site_fract_x
_atom_site_fract_y
_atom_site_fract_z
Si Si1 0.891511 0.801781 0.111156
Si Si2 0.290610 0.312742 0.206134
Si Si3 0.608913 0.802648 0.610861
Si Si4 0.394599 0.000000 0.885851
O O1 0.822837 0.706569 0.187222
O O2 0.000000 0.750936 0.136856
O O3 0.876155 0.000000 0.122637
O O4 0.867519 0.748336 0.000000
O O5 0.322203 0.500000 0.172712
O O6 0.316350 0.293380 0.320075
O O7 0.343523 0.171141 0.144419
O O8 0.637523 0.761858 0.500000
O O9 0.500000 0.742454 0.630804
O O10 0.617126 0.000000 0.632725
O O11 0.500000 0.000000 0.838352
O O12 0.400217 0.000000 0.000000
#
# Coordination Sequence:
#
# PCOD8200643 Si02
#       4
#     8   8   8   4
#     4   9  18  35  59  83 109 145 189 236 283 331
#     4  12  23  35  57  85 113 149 188 228 284 341
#     4   9  18  35  59  83 109 145 189 236 283 331
#     4  11  24  40  54  74 112 153 190 234 274 321
#
# _framework density 18.374768
#
# number of rings (size 3 to 8) (size 9 to 14) (size 15 to 20)
#    0.000    1.857    2.857    3.429    0.000    5.714 
#    0.000    4.286    0.000    0.857    0.000    6.000 
#    0.000    0.000    0.000    0.000    0.000    0.000 
#
# Total GULP energy -347130.834076 kJ/mol
# GULP energy per Si atom -12397.529788 kJ/mol
# Density = 1.833295 g / cm^3
# Si number density = 18.374768 Si / 1000 Ang^3
#
#
#
# Elastic Constant Matrix: (Units=GPa)
#
#
# Indices 1 2 3 4 5 6 
#
# 1 126.7681 54.4563 68.1441 0.0000 0.0000 0.0000
# 2 54.4563 113.4674 41.2047 0.0000 0.0000 0.0000
# 3 68.1441 41.2047 92.1176 0.0000 0.0000 0.0000
# 4 0.0000 0.0000 0.0000 6.2038 0.0000 0.0000
# 5 0.0000 0.0000 0.0000 0.0000 36.4469 0.0000
# 6 0.0000 0.0000 0.0000 0.0000 0.0000 3.3772
#
#
#
# Elastic Compliance Matrix: (Units=1/GPa)
#
#
# Indices 1 2 3 4 5 6 
#
# 1 0.014223 -0.003588 -0.008916 0.000000 0.000000 0.000000
# 2 -0.003588 0.011427 -0.002457 0.000000 0.000000 0.000000
# 3 -0.008916 -0.002457 0.018551 0.000000 0.000000 0.000000
# 4 0.000000 0.000000 0.000000 0.161192 0.000000 0.000000
# 5 0.000000 0.000000 0.000000 0.000000 0.027437 0.000000
# 6 0.000000 0.000000 0.000000 0.000000 0.000000 0.296108
#
#
# Mechanical properties :
#
#
# Convention : Reuss Voigt Hill
#
# Bulk Modulus (GPa) = 70.03999 73.32927 71.68463
# Shear Modulus (GPa) = 8.87122 20.44211 14.65666
#
# Velocity S-wave (km/s) = 2.19964 3.33905 2.82734
# Velocity P-wave (km/s) = 6.68217 7.40675 7.05377
#
# Compressibility (1/GPa) = 0.01427756
#
# Stress axis : x y z
#
# Youngs Moduli (GPa) = 70.31017 87.50863 53.90627
#
# Poissons Ratio (x) = 0.31398 0.48065
# Poissons Ratio (y) = 0.25227 0.13247
# Poissons Ratio (z) = 0.62691 0.21504
#
# Static dielectric constant tensor:
#      x y z
#    x 3.550510 0.000000 0.000000 
#    y 0.000000 3.317120 0.000000 
#    z 0.000000 0.000000 3.400520 
# 
# 
# High freq. dielectric constant tensor:
#      x y z
#    x 1.704240 0.000000 0.000000 
#    y 0.000000 1.711700 0.000000 
#    z 0.000000 0.000000 1.701610 
# 
# From -- ./inp_files/23157.got.cif
#   From: 2010.03.12/outbox.cif.g09.slc.cpg/sg47_12_cif.got.tgz:23157.got - 2010.04.14 03:12:58.
