data_PCOD8200133
_publ_section_title
;
Structure prediction by ZEFSAII (Michael W. Deem and Ramdas Pophale) SiO2 
 PCOD8200133
Probable space group: P M M M
;
_chemical_formula_sum "Si O2"
_cell_formula_units_Z 48
_cell_length_a 8.596869
_cell_length_b 28.817567
_cell_length_c 9.987370
_cell_angle_alpha 90.000000
_cell_angle_beta 90.000000
_cell_angle_gamma 90.000000
_cell_volume 2474.279517
_symmetry_space_group_name_H-M "P M M M"
_symmetry_group_IT_number 47
_symmetry_cell_setting 'orthorhombic'
loop_
_space_group_symop_operation_xyz
x,y,z
-x,-y,z
x,-y,-z
-x,y,-z
-x,-y,-z
x,y,-z
-x,y,z
x,-y,z
loop_
_atom_site_type_symbol
_atom_site_label
_atom_site_fract_x
_atom_site_fract_y
_atom_site_fract_z
Si Si1 0.682147 0.447920 0.000000
Si Si2 0.818817 0.601519 0.747768
Si Si3 0.326597 0.554272 0.500000
Si Si4 0.181196 0.228764 0.846696
Si Si5 0.681321 0.303436 0.655019
Si Si6 0.319971 0.129947 0.152728
Si Si7 0.684733 0.051463 0.349993
O O1 0.729033 0.417673 0.125902
O O2 0.757586 0.500000 0.000000
O O3 0.500000 0.454182 0.000000
O O4 0.771841 0.569142 0.626267
O O5 0.776884 0.654454 0.717920
O O6 0.000000 0.597766 0.776365
O O7 0.346441 0.500000 0.500000
O O8 0.500000 0.577331 0.500000
O O9 0.280467 0.258307 0.741889
O O10 0.219072 0.175345 0.818192
O O11 0.000000 0.237876 0.821910
O O12 0.227283 0.241690 0.000000
O O13 0.730013 0.295624 0.500000
O O14 0.500000 0.314779 0.665683
O O15 0.500000 0.140854 0.185921
O O16 0.250244 0.089180 0.245671
O O17 0.301135 0.113473 0.000000
O O18 0.738792 0.065007 0.500000
O O19 0.500000 0.050756 0.342035
O O20 0.748131 0.000000 0.313193
#
# Coordination Sequence:
#
# PCOD8200133 Si02
#       7
#     4   8   4   8   8   8   8
#     4  11  25  45  67  91 123 163 203 243 290 347
#     4  12  25  41  64  93 125 157 196 246 296 348
#     4  11  23  41  65  91 123 163 203 241 288 347
#     4  10  22  39  59  83 114 150 190 237 291 347
#     4  11  24  42  64  88 117 152 193 237 288 351
#     4   9  17  30  49  75 106 139 181 230 281 338
#     4   8  14  25  43  70 104 140 179 227 281 335
#
# _framework density 19.399585999999999
#
# number of rings (size 3 to 8) (size 9 to 14) (size 15 to 20)
#    0.000    1.833    0.833    4.000    1.167    6.333 
#    0.000    3.333    0.000    0.500    0.000    3.500 
#    0.000    0.000    0.000    0.000    0.000    0.000 
#
# Total GULP energy -595254.103462 kJ/mol
# GULP energy per Si atom -12401.127155 kJ/mol
# Density = 1.935543 g / cm^3
# Si number density = 19.399586 Si / 1000 Ang^3
#
#
#
# Elastic Constant Matrix: (Units=GPa)
#
#
# Indices 1 2 3 4 5 6 
#
# 1 56.3294 19.6072 22.8340 0.0000 0.0000 0.0000
# 2 19.6072 107.1196 69.2447 0.0000 0.0000 0.0000
# 3 22.8340 69.2447 136.5413 0.0000 0.0000 0.0000
# 4 0.0000 0.0000 0.0000 43.0962 0.0000 0.0000
# 5 0.0000 0.0000 0.0000 0.0000 -8.7267 0.0000
# 6 0.0000 0.0000 0.0000 0.0000 0.0000 4.7499
#
#
#
# Elastic Compliance Matrix: (Units=1/GPa)
#
#
# Indices 1 2 3 4 5 6 
#
# 1 0.019374 -0.002160 -0.002145 0.000000 0.000000 0.000000
# 2 -0.002160 0.014129 -0.006804 0.000000 0.000000 0.000000
# 3 -0.002145 -0.006804 0.011133 0.000000 0.000000 0.000000
# 4 0.000000 0.000000 0.000000 0.023204 0.000000 0.000000
# 5 0.000000 0.000000 0.000000 0.000000 -0.114591 0.000000
# 6 0.000000 0.000000 0.000000 0.000000 0.000000 0.210531
#
#
# Mechanical properties :
#
#
# Convention : Reuss Voigt Hill
#
# Bulk Modulus (GPa) = 44.60545 58.15138 51.37841
# Shear Modulus (GPa) = 25.84372 20.37751 23.11061
#
# Velocity S-wave (km/s) = 3.65386 3.24452 3.45526
# Velocity P-wave (km/s) = 6.39092 6.63901 6.51615
#
# Compressibility (1/GPa) = 0.02241878
#
# Stress axis : x y z
#
# Youngs Moduli (GPa) = 51.61589 70.77614 89.82284
#
# Poissons Ratio (x) = 0.15287 0.19263
# Poissons Ratio (y) = 0.11149 0.61117
# Poissons Ratio (z) = 0.11069 0.48157
#
# Static dielectric constant tensor:
#      x y z
#    x 3.438960 0.000000 0.000000 
#    y 0.000000 3.681900 0.000000 
#    z 0.000000 0.000000 3.521250 
# 
# 
# High freq. dielectric constant tensor:
#      x y z
#    x 1.742130 0.000000 0.000000 
#    y 0.000000 1.762470 0.000000 
#    z 0.000000 0.000000 1.764780 
# 
# From -- ./inp_files/2641.got.cif
#   From: 2010.03.12/outbox.cif.g09.slc.cpg/sg47_2_cif.got.tgz:2641.got - 2010.04.14 03:12:58.
