data_PCOD8200491
_publ_section_title
;
Structure prediction by ZEFSAII (Michael W. Deem and Ramdas Pophale) SiO2 
 PCOD8200491
Probable space group: P M M M
;
_chemical_formula_sum "Si O2"
_cell_formula_units_Z 48
_cell_length_a 18.769341
_cell_length_b 9.729107
_cell_length_c 13.985621
_cell_angle_alpha 90.000000
_cell_angle_beta 90.000000
_cell_angle_gamma 90.000000
_cell_volume 2553.899243
_symmetry_space_group_name_H-M "P M M M"
_symmetry_group_IT_number 47
_symmetry_cell_setting 'orthorhombic'
loop_
_space_group_symop_operation_xyz
x,y,z
-x,-y,z
x,-y,-z
-x,y,-z
-x,-y,-z
x,y,-z
-x,y,z
x,-y,z
loop_
_atom_site_type_symbol
_atom_site_label
_atom_site_fract_x
_atom_site_fract_y
_atom_site_fract_z
Si Si1 0.292503 0.659109 0.606565
Si Si2 0.417125 0.500000 0.894358
Si Si3 0.417145 0.000000 0.113763
Si Si4 0.659431 0.741911 0.199111
Si Si5 0.918837 0.158577 0.223967
Si Si6 0.125302 0.656376 0.609139
Si Si7 0.190509 0.341439 0.887366
O O1 0.313265 0.710602 0.500000
O O2 0.312977 0.500000 0.618596
O O3 0.335452 0.747070 0.685256
O O4 0.208973 0.678219 0.624124
O O5 0.500000 0.500000 0.910709
O O6 0.396116 0.629220 0.832936
O O7 0.379972 0.500000 0.000000
O O8 0.373627 0.122450 0.158249
O O9 0.500000 0.000000 0.145040
O O10 0.411102 0.000000 0.000000
O O11 0.736817 0.711703 0.157515
O O12 0.915244 0.232114 0.327023
O O13 0.872933 0.244656 0.148418
O O14 0.000000 0.161060 0.187913
O O15 0.891914 0.000000 0.231303
O O16 0.103188 0.683631 0.500000
O O17 0.104422 0.500000 0.638043
O O18 0.177160 0.500000 0.856225
O O19 0.195435 0.327751 0.000000
#
# Coordination Sequence:
#
# PCOD8200491 Si02
#       7
#     8   4   4   8   8   8   8
#     4   9  17  33  60  93 122 151 195 252 306 354
#     4  11  22  36  59  91 124 158 200 247 299 357
#     4  11  26  44  61  89 132 172 202 241 303 371
#     4  12  21  38  64  92 123 161 203 251 302 356
#     4  11  25  41  57  82 121 164 202 248 305 365
#     4   9  18  35  60  88 118 155 201 252 306 360
#     4  11  23  39  62  91 118 150 201 259 309 361
#
# _framework density 18.794791
#
# number of rings (size 3 to 8) (size 9 to 14) (size 15 to 20)
#    0.000    1.500    3.333    3.500    1.167    4.000 
#    0.000    3.750    0.000    3.000    0.000    0.000 
#    0.000    0.000    0.000    0.000    0.000    0.000 
#
# Total GULP energy -595097.537782 kJ/mol
# GULP energy per Si atom -12397.865370 kJ/mol
# Density = 1.875201 g / cm^3
# Si number density = 18.794791 Si / 1000 Ang^3
#
#
#
# Elastic Constant Matrix: (Units=GPa)
#
#
# Indices 1 2 3 4 5 6 
#
# 1 63.4948 37.4833 57.9214 0.0000 0.0000 0.0000
# 2 37.4833 130.0991 65.0291 0.0000 0.0000 0.0000
# 3 57.9214 65.0291 119.6856 0.0000 0.0000 0.0000
# 4 0.0000 0.0000 0.0000 24.4163 0.0000 0.0000
# 5 0.0000 0.0000 0.0000 0.0000 10.0266 0.0000
# 6 0.0000 0.0000 0.0000 0.0000 0.0000 34.1000
#
#
#
# Elastic Compliance Matrix: (Units=1/GPa)
#
#
# Indices 1 2 3 4 5 6 
#
# 1 0.028504 -0.001809 -0.012812 0.000000 0.000000 0.000000
# 2 -0.001809 0.010667 -0.004920 0.000000 0.000000 0.000000
# 3 -0.012812 -0.004920 0.017229 0.000000 0.000000 0.000000
# 4 0.000000 0.000000 0.000000 0.040956 0.000000 0.000000
# 5 0.000000 0.000000 0.000000 0.000000 0.099735 0.000000
# 6 0.000000 0.000000 0.000000 0.000000 0.000000 0.029326
#
#
# Mechanical properties :
#
#
# Convention : Reuss Voigt Hill
#
# Bulk Modulus (GPa) = 57.74215 70.46079 64.10147
# Shear Modulus (GPa) = 18.43173 23.89829 21.16501
#
# Velocity S-wave (km/s) = 3.13498 3.56973 3.35940
# Velocity P-wave (km/s) = 6.62520 7.38658 7.01623
#
# Compressibility (1/GPa) = 0.01731837
#
# Stress axis : x y z
#
# Youngs Moduli (GPa) = 35.08243 93.74721 58.04174
#
# Poissons Ratio (x) = 0.16954 0.74363
# Poissons Ratio (y) = 0.06345 0.28559
# Poissons Ratio (z) = 0.44947 0.46128
#
# Static dielectric constant tensor:
#      x y z
#    x 3.364210 0.000000 0.000000 
#    y 0.000000 3.488420 0.000000 
#    z 0.000000 0.000000 3.735770 
# 
# 
# High freq. dielectric constant tensor:
#      x y z
#    x 1.720720 0.000000 0.000000 
#    y 0.000000 1.725660 0.000000 
#    z 0.000000 0.000000 1.742540 
# 
# From -- ./inp_files/6463.got.cif
#   From: 2010.03.12/outbox.cif.g09.slc.cpg/sg47_4_cif.got.tgz:6463.got - 2010.04.14 03:12:58.
