data_PCOD8200580
_publ_section_title
;
Structure prediction by ZEFSAII (Michael W. Deem and Ramdas Pophale) SiO2 
 PCOD8200580
Probable space group: P M M M
;
_chemical_formula_sum "Si O2"
_cell_formula_units_Z 48
_cell_length_a 17.518343
_cell_length_b 15.871849
_cell_length_c 9.531546
_cell_angle_alpha 90.000000
_cell_angle_beta 90.000000
_cell_angle_gamma 90.000000
_cell_volume 2650.232019
_symmetry_space_group_name_H-M "P M M M"
_symmetry_group_IT_number 47
_symmetry_cell_setting 'orthorhombic'
loop_
_space_group_symop_operation_xyz
x,y,z
-x,-y,z
x,-y,-z
-x,y,-z
-x,-y,-z
x,y,-z
-x,y,z
x,-y,z
loop_
_atom_site_type_symbol
_atom_site_label
_atom_site_fract_x
_atom_site_fract_y
_atom_site_fract_z
Si Si1 0.651912 0.358528 0.344706
Si Si2 0.811032 0.844709 0.332653
Si Si3 0.912616 0.000000 0.332837
Si Si4 0.588952 0.500000 0.153453
Si Si5 0.500000 0.098200 0.843613
Si Si6 0.361778 0.163785 0.661781
Si Si7 0.086755 0.500000 0.667060
Si Si8 0.828206 0.339849 0.339900
O O1 0.627118 0.388283 0.500000
O O2 0.611377 0.415406 0.231725
O O3 0.626897 0.263085 0.321309
O O4 0.741715 0.369094 0.328182
O O5 0.811697 0.839244 0.500000
O O6 0.867910 0.917322 0.276592
O O7 0.723436 0.863357 0.287454
O O8 0.838713 0.753601 0.271214
O O9 0.912295 0.000000 0.500000
O O10 0.000000 0.000000 0.276606
O O11 0.500000 0.500000 0.135764
O O12 0.628047 0.500000 0.000000
O O13 0.423760 0.121284 0.760022
O O14 0.500000 0.000000 0.862812
O O15 0.500000 0.139991 0.000000
O O16 0.374648 0.136275 0.500000
O O17 0.099865 0.500000 0.500000
O O18 0.122856 0.414330 0.733028
O O19 0.000000 0.500000 0.712214
O O20 0.855033 0.331943 0.500000
#
# Coordination Sequence:
#
# PCOD8200580 Si02
#       8
#     8   8   4   4   4   8   4   8
#     4   9  18  34  54  72  92 127 173 214 248 288
#     4   8  15  27  43  65  93 126 166 210 249 292
#     4   9  16  24  38  65 101 138 166 193 245 307
#     4  11  24  35  45  69 102 133 162 198 254 307
#     4  11  25  39  51  74 107 136 163 203 266 325
#     4   9  19  35  56  78  97 129 178 220 254 297
#     4   9  15  20  32  58  90 125 158 190 238 293
#     4   8  14  26  42  61  87 119 161 206 243 282
#
# _framework density 18.111621
#
# number of rings (size 3 to 8) (size 9 to 14) (size 15 to 20)
#    0.000    3.000    0.000    3.000    2.333    4.000 
#    0.000    3.333    0.000    0.000    0.000    0.000 
#    0.000    6.667    0.000   14.667    0.000   14.667 
#
# Total GULP energy -594832.712544 kJ/mol
# GULP energy per Si atom -12392.348178 kJ/mol
# Density = 1.807040 g / cm^3
# Si number density = 18.111621 Si / 1000 Ang^3
#
#
#
# Elastic Constant Matrix: (Units=GPa)
#
#
# Indices 1 2 3 4 5 6 
#
# 1 112.7464 78.2864 37.8879 0.0000 0.0000 0.0000
# 2 78.2864 119.6427 37.4181 0.0000 0.0000 0.0000
# 3 37.8879 37.4181 63.8582 0.0000 0.0000 0.0000
# 4 0.0000 0.0000 0.0000 -3.5007 0.0000 0.0000
# 5 0.0000 0.0000 0.0000 0.0000 -13.6918 0.0000
# 6 0.0000 0.0000 0.0000 0.0000 0.0000 15.8018
#
#
#
# Elastic Compliance Matrix: (Units=1/GPa)
#
#
# Indices 1 2 3 4 5 6 
#
# 1 0.017219 -0.009883 -0.004425 0.000000 0.000000 0.000000
# 2 -0.009883 0.015906 -0.003457 0.000000 0.000000 0.000000
# 3 -0.004425 -0.003457 0.020311 0.000000 0.000000 0.000000
# 4 0.000000 0.000000 0.000000 -0.285653 0.000000 0.000000
# 5 0.000000 0.000000 0.000000 0.000000 -0.073037 0.000000
# 6 0.000000 0.000000 0.000000 0.000000 0.000000 0.063284
#
#
# Mechanical properties :
#
#
# Convention : Reuss Voigt Hill
#
# Bulk Modulus (GPa) = 55.84689 67.04801 61.44745
# Shear Modulus (GPa) = -24.94103 9.23219 -7.85442
#
# Velocity S-wave (km/s) = -3.71492 2.26019 -2.08473
# Velocity P-wave (km/s) = 3.53567 6.62653 5.31093
#
# Compressibility (1/GPa) = 0.01790610
#
# Stress axis : x y z
#
# Youngs Moduli (GPa) = 58.07606 62.86945 49.23539
#
# Poissons Ratio (x) = 0.62133 0.21788
# Poissons Ratio (y) = 0.57396 0.17018
# Poissons Ratio (z) = 0.25700 0.21731
#
# Static dielectric constant tensor:
#      x y z
#    x 3.444140 0.000000 0.000000 
#    y 0.000000 3.617700 0.000000 
#    z 0.000000 0.000000 2.899180 
# 
# 
# High freq. dielectric constant tensor:
#      x y z
#    x 1.702480 0.000000 0.000000 
#    y 0.000000 1.718060 0.000000 
#    z 0.000000 0.000000 1.634080 
# 
# From -- ./inp_files/9304.got.cif
#   From: 2010.03.12/outbox.cif.g09.slc.cpg/sg47_5_cif.got.tgz:9304.got - 2010.04.14 03:12:58.
