data_PCOD8200947
_publ_section_title
;
Structure prediction by ZEFSAII (Michael W. Deem and Ramdas Pophale) SiO2 
 PCOD8200947
Probable space group: P M M M
;
_chemical_formula_sum "Si O2"
_cell_formula_units_Z 52
_cell_length_a 9.370657
_cell_length_b 27.904816
_cell_length_c 12.321554
_cell_angle_alpha 90.000000
_cell_angle_beta 90.000000
_cell_angle_gamma 90.000000
_cell_volume 3221.919530
_symmetry_space_group_name_H-M "P M M M"
_symmetry_group_IT_number 47
_symmetry_cell_setting 'orthorhombic'
loop_
_space_group_symop_operation_xyz
x,y,z
-x,-y,z
x,-y,-z
-x,y,-z
-x,-y,-z
x,y,-z
-x,y,z
x,-y,z
loop_
_atom_site_type_symbol
_atom_site_label
_atom_site_fract_x
_atom_site_fract_y
_atom_site_fract_z
Si Si1 0.660229 0.947021 0.129067
Si Si2 0.160608 0.858725 0.870579
Si Si3 0.335258 0.232211 0.875987
Si Si4 0.335367 0.688261 0.705613
Si Si5 0.839552 0.309294 0.500000
Si Si6 0.668374 0.500000 0.120748
Si Si7 0.332892 0.578149 0.290349
Si Si8 0.838411 0.423041 0.500000
O O1 0.500000 0.937371 0.171655
O O2 0.764598 0.906476 0.177350
O O3 0.711952 0.000000 0.166743
O O4 0.660828 0.944491 0.000000
O O5 0.243583 0.811810 0.828887
O O6 0.000000 0.856992 0.825771
O O7 0.163926 0.860089 0.000000
O O8 0.500000 0.217414 0.864752
O O9 0.299304 0.280260 0.810588
O O10 0.294571 0.243304 0.000000
O O11 0.500000 0.692544 0.670974
O O12 0.241972 0.708876 0.606823
O O13 0.297061 0.633492 0.734778
O O14 0.838569 0.366175 0.500000
O O15 0.000000 0.288704 0.500000
O O16 0.500000 0.500000 0.108258
O O17 0.716257 0.452458 0.185947
O O18 0.738198 0.500000 0.000000
O O19 0.500000 0.570742 0.315844
O O20 0.244710 0.558719 0.393575
O O21 0.000000 0.443312 0.500000
#
# Coordination Sequence:
#
# PCOD8200947 Si02
#       8
#     8   8   8   8   4   4   8   4
#     4   8  13  21  33  48  67  96 135 175 213 252
#     4   9  16  24  34  50  74 104 137 174 213 250
#     4   9  17  28  41  58  81 110 143 176 210 249
#     4   9  17  29  46  66  86 110 141 176 212 253
#     4   9  17  29  46  66  87 110 135 169 214 259
#     4   9  18  31  47  68  92 117 144 175 212 253
#     4   9  17  30  48  68  89 112 139 173 213 256
#     4   9  17  30  48  69  90 110 136 171 211 253
#
# _framework density 16.139447000000001
#
# number of rings (size 3 to 8) (size 9 to 14) (size 15 to 20)
#    0.000    3.154    0.000    1.385    0.000    5.538 
#    0.000    6.538    0.000    0.923    0.000    4.308 
#    0.000    0.000    0.000    0.692    0.000   13.692 
#
# Total GULP energy -644614.212832 kJ/mol
# GULP energy per Si atom -12396.427170 kJ/mol
# Density = 1.610271 g / cm^3
# Si number density = 16.139447 Si / 1000 Ang^3
#
#
#
# Elastic Constant Matrix: (Units=GPa)
#
#
# Indices 1 2 3 4 5 6 
#
# 1 86.2580 53.8975 44.6998 0.0000 0.0000 0.0000
# 2 53.8975 108.1724 49.9387 0.0000 0.0000 0.0000
# 3 44.6998 49.9387 86.2847 0.0000 0.0000 0.0000
# 4 0.0000 0.0000 0.0000 1.6722 0.0000 0.0000
# 5 0.0000 0.0000 0.0000 0.0000 11.0234 0.0000
# 6 0.0000 0.0000 0.0000 0.0000 0.0000 13.1655
#
#
#
# Elastic Compliance Matrix: (Units=1/GPa)
#
#
# Indices 1 2 3 4 5 6 
#
# 1 0.018800 -0.006647 -0.005892 0.000000 0.000000 0.000000
# 2 -0.006647 0.014965 -0.005218 0.000000 0.000000 0.000000
# 3 -0.005892 -0.005218 0.017662 0.000000 0.000000 0.000000
# 4 0.000000 0.000000 0.000000 0.598023 0.000000 0.000000
# 5 0.000000 0.000000 0.000000 0.000000 0.090716 0.000000
# 6 0.000000 0.000000 0.000000 0.000000 0.000000 0.075956
#
#
# Mechanical properties :
#
#
# Convention : Reuss Voigt Hill
#
# Bulk Modulus (GPa) = 62.84225 64.19856 63.52040
# Shear Modulus (GPa) = 5.83471 13.98416 9.90943
#
# Velocity S-wave (km/s) = 1.90343 2.94676 2.48057
# Velocity P-wave (km/s) = 6.62211 7.17228 6.90268
#
# Compressibility (1/GPa) = 0.01591286
#
# Stress axis : x y z
#
# Youngs Moduli (GPa) = 53.19210 66.82139 56.61870
#
# Poissons Ratio (x) = 0.44415 0.33361
# Poissons Ratio (y) = 0.35356 0.29544
# Poissons Ratio (z) = 0.31342 0.34867
#
# Static dielectric constant tensor:
#      x y z
#    x 3.144660 0.000000 0.000000 
#    y 0.000000 3.115160 0.000000 
#    z 0.000000 0.000000 2.803100 
# 
# 
# High freq. dielectric constant tensor:
#      x y z
#    x 1.616030 0.000000 0.000000 
#    y 0.000000 1.618100 0.000000 
#    z 0.000000 0.000000 1.573540 
# 
# From -- ./inp_files/15701.got.cif
#   From: 2010.03.12/outbox.cif.g09.slc.cpg/sg47_8_cif.got.tgz:15701.got - 2010.04.14 03:12:58.
