data_PCOD8200559
_publ_section_title
;
Structure prediction by ZEFSAII (Michael W. Deem and Ramdas Pophale) SiO2 
 PCOD8200559
Probable space group: P M M M
;
_chemical_formula_sum "Si O2"
_cell_formula_units_Z 56
_cell_length_a 22.178422
_cell_length_b 8.836016
_cell_length_c 14.738921
_cell_angle_alpha 90.000000
_cell_angle_beta 90.000000
_cell_angle_gamma 90.000000
_cell_volume 2888.370012
_symmetry_space_group_name_H-M "P M M M"
_symmetry_group_IT_number 47
_symmetry_cell_setting 'orthorhombic'
loop_
_space_group_symop_operation_xyz
x,y,z
-x,-y,z
x,-y,-z
-x,y,-z
-x,-y,-z
x,y,-z
-x,y,z
x,-y,z
loop_
_atom_site_type_symbol
_atom_site_label
_atom_site_fract_x
_atom_site_fract_y
_atom_site_fract_z
Si Si1 0.216271 0.675764 0.897853
Si Si2 0.166917 0.821884 0.726064
Si Si3 0.500000 0.677849 0.394445
Si Si4 0.263868 0.327732 0.398879
Si Si5 0.621936 0.827413 0.342234
Si Si6 0.656435 0.172524 0.135745
Si Si7 0.070029 0.325962 0.603069
Si Si8 0.430632 0.678784 0.000000
O O1 0.222272 0.500000 0.874384
O O2 0.169845 0.750262 0.826526
O O3 0.281881 0.748314 0.891656
O O4 0.190997 0.700232 0.000000
O O5 0.224691 0.772779 0.668387
O O6 0.106220 0.773352 0.675015
O O7 0.168023 0.000000 0.737221
O O8 0.500000 0.500000 0.377722
O O9 0.500000 0.719718 0.500000
O O10 0.557522 0.749082 0.346274
O O11 0.235858 0.320569 0.500000
O O12 0.264852 0.500000 0.363275
O O13 0.331517 0.263333 0.405259
O O14 0.647821 0.817259 0.242052
O O15 0.616530 0.000000 0.375909
O O16 0.658977 0.000000 0.102113
O O17 0.600404 0.255520 0.089515
O O18 0.082877 0.271314 0.500000
O O19 0.090251 0.500000 0.613141
O O20 0.000000 0.307001 0.626111
O O21 0.423656 0.500000 0.000000
O O22 0.500000 0.729668 0.000000
#
# Coordination Sequence:
#
# PCOD8200559 Si02
#       8
#     8   8   4   8   8   8   8   4
#     4  11  23  40  64  89 116 154 201 249 301 363
#     4  12  24  37  58  91 128 164 202 248 304 359
#     4  11  25  43  61  80 105 144 191 235 286 351
#     4  11  23  38  58  84 116 155 197 242 293 350
#     4  11  24  40  59  84 111 144 187 237 295 354
#     4  11  23  39  60  85 114 146 184 237 301 360
#     4   9  19  38  64  93 128 172 217 257 299 351
#     4  11  25  41  59  85 113 147 192 237 292 361
#
# _framework density 19.388096999999998
#
# number of rings (size 3 to 8) (size 9 to 14) (size 15 to 20)
#    0.000    1.143    2.143    4.714    1.000    8.857 
#    0.000    0.714    0.000    0.429    0.000    3.000 
#    0.000    0.000    0.000    0.000    0.000    0.000 
#
# Total GULP energy -694645.704934 kJ/mol
# GULP energy per Si atom -12404.387588 kJ/mol
# Density = 1.934397 g / cm^3
# Si number density = 19.388097 Si / 1000 Ang^3
#
#
#
# Elastic Constant Matrix: (Units=GPa)
#
#
# Indices 1 2 3 4 5 6 
#
# 1 90.1716 43.8291 38.1299 0.0000 0.0000 0.0000
# 2 43.8291 132.0583 52.9651 0.0000 0.0000 0.0000
# 3 38.1299 52.9651 105.7224 0.0000 0.0000 0.0000
# 4 0.0000 0.0000 0.0000 17.4574 0.0000 0.0000
# 5 0.0000 0.0000 0.0000 0.0000 33.0417 0.0000
# 6 0.0000 0.0000 0.0000 0.0000 0.0000 18.0401
#
#
#
# Elastic Compliance Matrix: (Units=1/GPa)
#
#
# Indices 1 2 3 4 5 6 
#
# 1 0.014159 -0.003318 -0.003444 0.000000 0.000000 0.000000
# 2 -0.003318 0.010254 -0.003940 0.000000 0.000000 0.000000
# 3 -0.003444 -0.003940 0.012675 0.000000 0.000000 0.000000
# 4 0.000000 0.000000 0.000000 0.057282 0.000000 0.000000
# 5 0.000000 0.000000 0.000000 0.000000 0.030265 0.000000
# 6 0.000000 0.000000 0.000000 0.000000 0.000000 0.055432
#
#
# Mechanical properties :
#
#
# Convention : Reuss Voigt Hill
#
# Bulk Modulus (GPa) = 63.76435 66.42229 65.09332
# Shear Modulus (GPa) = 24.18961 26.57640 25.38301
#
# Velocity S-wave (km/s) = 3.53604 3.70639 3.62222
# Velocity P-wave (km/s) = 7.04495 7.25604 7.15127
#
# Compressibility (1/GPa) = 0.01568274
#
# Stress axis : x y z
#
# Youngs Moduli (GPa) = 70.62558 97.52307 78.89462
#
# Poissons Ratio (x) = 0.32356 0.27175
# Poissons Ratio (y) = 0.23432 0.31088
# Poissons Ratio (z) = 0.24327 0.38429
#
# Static dielectric constant tensor:
#      x y z
#    x 3.446000 0.000000 0.000000 
#    y 0.000000 3.694040 0.000000 
#    z 0.000000 0.000000 3.756900 
# 
# 
# High freq. dielectric constant tensor:
#      x y z
#    x 1.742490 0.000000 0.000000 
#    y 0.000000 1.768350 0.000000 
#    z 0.000000 0.000000 1.762870 
# 
# From -- ./inp_files/25177.got.cif
#   From: 2010.03.12/outbox.cif.g09.slc.cpg/sg47_13_cif.got.tgz:25177.got - 2010.04.14 03:12:58.
