data_PCOD8200349
_publ_section_title
;
Structure prediction by ZEFSAII (Michael W. Deem and Ramdas Pophale) SiO2 
 PCOD8200349
Probable space group: P M M M
;
_chemical_formula_sum "Si O2"
_cell_formula_units_Z 36
_cell_length_a 8.121834
_cell_length_b 21.947688
_cell_length_c 11.889800
_cell_angle_alpha 90.000000
_cell_angle_beta 90.000000
_cell_angle_gamma 90.000000
_cell_volume 2119.421990
_symmetry_space_group_name_H-M "P M M M"
_symmetry_group_IT_number 47
_symmetry_cell_setting 'orthorhombic'
loop_
_space_group_symop_operation_xyz
x,y,z
-x,-y,z
x,-y,-z
-x,y,-z
-x,-y,-z
x,y,-z
-x,y,z
x,-y,z
loop_
_atom_site_type_symbol
_atom_site_label
_atom_site_fract_x
_atom_site_fract_y
_atom_site_fract_z
Si Si1 0.810505 0.611349 0.230470
Si Si2 0.683069 0.858204 0.366706
Si Si3 0.000000 0.930658 0.365927
Si Si4 0.310369 0.567560 0.000000
Si Si5 0.196598 0.500000 0.625351
Si Si6 0.308873 0.719526 0.373068
O O1 0.733786 0.559499 0.311134
O O2 0.786316 0.677205 0.285719
O O3 0.000000 0.597600 0.213968
O O4 0.731783 0.608206 0.107873
O O5 0.677510 0.863947 0.500000
O O6 0.500000 0.877773 0.320637
O O7 0.720689 0.788657 0.333031
O O8 0.832439 0.899377 0.317993
O O9 0.000000 0.926139 0.500000
O O10 0.000000 0.000000 0.324004
O O11 0.222805 0.500000 0.000000
O O12 0.500000 0.554658 0.000000
O O13 0.270509 0.500000 0.500000
O O14 0.000000 0.500000 0.620358
O O15 0.239988 0.710001 0.500000
O O16 0.500000 0.702942 0.370276
#
# Coordination Sequence:
#
# PCOD8200349 Si02
#       6
#     8   8   4   4   4   8
#     4  11  21  33  52  72  92 120 157 201 245 291
#     4   8  15  27  41  59  89 127 162 200 242 283
#     4   9  16  24  38  62  90 124 167 204 232 276
#     4  11  23  39  55  67  89 123 159 196 245 306
#     4   9  18  31  45  68  98 119 144 189 244 291
#     4   9  18  32  48  69  97 127 161 199 243 294
#
# _framework density 16.985762999999999
#
# number of rings (size 3 to 8) (size 9 to 14) (size 15 to 20)
#    0.000    2.556    1.111    3.000    1.556    2.222 
#    0.000    2.222    0.000    2.667    0.000    0.000 
#    0.000    0.000    0.000    2.000    0.000   12.889 
#
# Total GULP energy -446235.622489 kJ/mol
# GULP energy per Si atom -12395.433958 kJ/mol
# Density = 1.694710 g / cm^3
# Si number density = 16.985763 Si / 1000 Ang^3
#
#
#
# Elastic Constant Matrix: (Units=GPa)
#
#
# Indices 1 2 3 4 5 6 
#
# 1 84.3005 53.0065 25.8194 0.0000 0.0000 0.0000
# 2 53.0065 109.3026 37.8310 0.0000 0.0000 0.0000
# 3 25.8194 37.8310 86.1338 0.0000 0.0000 0.0000
# 4 0.0000 0.0000 0.0000 6.2059 0.0000 0.0000
# 5 0.0000 0.0000 0.0000 0.0000 14.6812 0.0000
# 6 0.0000 0.0000 0.0000 0.0000 0.0000 24.6476
#
#
#
# Elastic Compliance Matrix: (Units=1/GPa)
#
#
# Indices 1 2 3 4 5 6 
#
# 1 0.017292 -0.007773 -0.001769 0.000000 0.000000 0.000000
# 2 -0.007773 0.014283 -0.003943 0.000000 0.000000 0.000000
# 3 -0.001769 -0.003943 0.013872 0.000000 0.000000 0.000000
# 4 0.000000 0.000000 0.000000 0.161138 0.000000 0.000000
# 5 0.000000 0.000000 0.000000 0.000000 0.068114 0.000000
# 6 0.000000 0.000000 0.000000 0.000000 0.000000 0.040572
#
#
# Mechanical properties :
#
#
# Convention : Reuss Voigt Hill
#
# Bulk Modulus (GPa) = 54.12536 57.00563 55.56550
# Shear Modulus (GPa) = 14.35123 19.97893 17.16508
#
# Velocity S-wave (km/s) = 2.90987 3.43332 3.18237
# Velocity P-wave (km/s) = 6.57450 7.02500 6.80348
#
# Compressibility (1/GPa) = 0.01847563
#
# Stress axis : x y z
#
# Youngs Moduli (GPa) = 57.83027 70.01090 72.08695
#
# Poissons Ratio (x) = 0.54422 0.12754
# Poissons Ratio (y) = 0.44954 0.28426
# Poissons Ratio (z) = 0.10232 0.27608
#
# Static dielectric constant tensor:
#      x y z
#    x 3.324660 0.000000 0.000000 
#    y 0.000000 3.160770 0.000000 
#    z 0.000000 0.000000 2.860090 
# 
# 
# High freq. dielectric constant tensor:
#      x y z
#    x 1.660580 0.000000 0.000000 
#    y 0.000000 1.648350 0.000000 
#    z 0.000000 0.000000 1.602080 
# 
# From -- ./inp_files/10605.got.cif
#   From: 2010.03.12/outbox.cif.g09.slc.cpg/sg47_6_cif.got.tgz:10605.got - 2010.04.14 03:12:58.
