data_PCOD8200423
_publ_section_title
;
Structure prediction by ZEFSAII (Michael W. Deem and Ramdas Pophale) SiO2 
 PCOD8200423
Probable space group: P M M M
;
_chemical_formula_sum "Si O2"
_cell_formula_units_Z 48
_cell_length_a 18.017973
_cell_length_b 14.576962
_cell_length_c 9.777563
_cell_angle_alpha 90.000000
_cell_angle_beta 90.000000
_cell_angle_gamma 90.000000
_cell_volume 2568.050598
_symmetry_space_group_name_H-M "P M M M"
_symmetry_group_IT_number 47
_symmetry_cell_setting 'orthorhombic'
loop_
_space_group_symop_operation_xyz
x,y,z
-x,-y,z
x,-y,-z
-x,y,-z
-x,-y,-z
x,y,-z
-x,y,z
x,-y,z
loop_
_atom_site_type_symbol
_atom_site_label
_atom_site_fract_x
_atom_site_fract_y
_atom_site_fract_z
Si Si1 0.915110 0.607896 0.653578
Si Si2 0.353079 0.289863 0.758107
Si Si3 0.182813 0.732292 0.836673
Si Si4 0.641211 0.099578 0.653443
Si Si5 0.587198 0.609209 0.500000
Si Si6 0.584584 0.400643 0.000000
Si Si7 0.817378 0.898131 0.347657
O O1 0.888782 0.636758 0.500000
O O2 0.906927 0.500000 0.670871
O O3 0.866412 0.652211 0.772828
O O4 0.000000 0.638423 0.674503
O O5 0.267203 0.289087 0.798158
O O6 0.385416 0.185831 0.743819
O O7 0.367089 0.348867 0.624241
O O8 0.399540 0.339738 0.870967
O O9 0.154875 0.827331 0.767635
O O10 0.172421 0.737528 0.000000
O O11 0.609541 0.110939 0.500000
O O12 0.729262 0.101657 0.648368
O O13 0.614815 0.000000 0.713338
O O14 0.595059 0.500000 0.500000
O O15 0.500000 0.637275 0.500000
O O16 0.627345 0.500000 0.000000
O O17 0.500000 0.426166 0.000000
O O18 0.846335 0.870302 0.500000
O O19 0.846724 0.000000 0.309609
#
# Coordination Sequence:
#
# PCOD8200423 Si02
#       7
#     8   8   8   8   4   4   8
#     4   9  20  39  60  81 108 147 191 233 282 334
#     4  11  21  38  57  85 112 142 188 237 281 329
#     4  11  22  34  53  86 119 149 184 224 275 332
#     4   8  14  28  53  81 107 136 172 222 282 333
#     4  11  24  40  59  81 104 140 193 244 289 335
#     4  11  24  42  59  73 106 156 191 224 281 345
#     4   8  15  29  52  80 110 145 185 228 272 320
#
# _framework density 18.691219
#
# number of rings (size 3 to 8) (size 9 to 14) (size 15 to 20)
#    0.000    2.333    1.667    3.000    2.333    3.667 
#    0.000    1.250    0.000    3.500    0.000    3.500 
#    0.000    0.000    0.000    0.000    0.000    0.000 
#
# Total GULP energy -594779.306635 kJ/mol
# GULP energy per Si atom -12391.235555 kJ/mol
# Density = 1.864868 g / cm^3
# Si number density = 18.691219 Si / 1000 Ang^3
#
#
#
# Elastic Constant Matrix: (Units=GPa)
#
#
# Indices 1 2 3 4 5 6 
#
# 1 42.0166 32.9768 35.9999 0.0000 0.0000 0.0000
# 2 32.9768 144.8563 75.6308 0.0000 0.0000 0.0000
# 3 35.9999 75.6308 157.4943 0.0000 0.0000 0.0000
# 4 0.0000 0.0000 0.0000 90.8308 0.0000 0.0000
# 5 0.0000 0.0000 0.0000 0.0000 26.4592 0.0000
# 6 0.0000 0.0000 0.0000 0.0000 0.0000 -32.3795
#
#
#
# Elastic Compliance Matrix: (Units=1/GPa)
#
#
# Indices 1 2 3 4 5 6 
#
# 1 0.031726 -0.004586 -0.005050 0.000000 0.000000 0.000000
# 2 -0.004586 0.009876 -0.003694 0.000000 0.000000 0.000000
# 3 -0.005050 -0.003694 0.009278 0.000000 0.000000 0.000000
# 4 0.000000 0.000000 0.000000 0.011009 0.000000 0.000000
# 5 0.000000 0.000000 0.000000 0.000000 0.037794 0.000000
# 6 0.000000 0.000000 0.000000 0.000000 0.000000 -0.030884
#
#
# Mechanical properties :
#
#
# Convention : Reuss Voigt Hill
#
# Bulk Modulus (GPa) = 41.28838 70.39802 55.84320
# Shear Modulus (GPa) = 48.29354 30.29940 39.29647
#
# Velocity S-wave (km/s) = 5.08858 4.03059 4.59017
# Velocity P-wave (km/s) = 7.52745 7.70755 7.61803
#
# Compressibility (1/GPa) = 0.02421989
#
# Stress axis : x y z
#
# Youngs Moduli (GPa) = 31.51988 101.25225 107.78405
#
# Poissons Ratio (x) = 0.46434 0.54427
# Poissons Ratio (y) = 0.14455 0.39820
# Poissons Ratio (z) = 0.15916 0.37407
#
# Static dielectric constant tensor:
#      x y z
#    x 3.098580 0.000000 0.000000 
#    y 0.000000 3.938680 0.000000 
#    z 0.000000 0.000000 4.887660 
# 
# 
# High freq. dielectric constant tensor:
#      x y z
#    x 1.688460 0.000000 0.000000 
#    y 0.000000 1.746050 0.000000 
#    z 0.000000 0.000000 1.720440 
# 
# From -- ./inp_files/9218.got.cif
#   From: 2010.03.12/outbox.cif.g09.slc.cpg/sg47_5_cif.got.tgz:9218.got - 2010.04.14 03:12:58.
