data_PCOD8200248
_publ_section_title
;
Structure prediction by ZEFSAII (Michael W. Deem and Ramdas Pophale) SiO2 
 PCOD8200248
Probable space group: P M M M
;
_chemical_formula_sum "Si O2"
_cell_formula_units_Z 32
_cell_length_a 16.380601
_cell_length_b 11.201745
_cell_length_c 10.357252
_cell_angle_alpha 90.000000
_cell_angle_beta 90.000000
_cell_angle_gamma 90.000000
_cell_volume 1900.465793
_symmetry_space_group_name_H-M "P M M M"
_symmetry_group_IT_number 47
_symmetry_cell_setting 'orthorhombic'
loop_
_space_group_symop_operation_xyz
x,y,z
-x,-y,z
x,-y,-z
-x,y,-z
-x,-y,-z
x,y,-z
-x,y,z
x,-y,z
loop_
_atom_site_type_symbol
_atom_site_label
_atom_site_fract_x
_atom_site_fract_y
_atom_site_fract_z
Si Si1 0.097503 0.000000 0.345528
Si Si2 0.322613 0.641749 0.651280
Si Si3 0.093958 0.634458 0.500000
Si Si4 0.833113 0.754645 0.745046
Si Si5 0.096848 0.361740 0.000000
Si Si6 0.500000 0.629745 0.347957
O O1 0.143367 0.891786 0.275174
O O2 0.112933 0.000000 0.500000
O O3 0.000000 0.000000 0.317666
O O4 0.303575 0.662925 0.500000
O O5 0.314043 0.500000 0.682751
O O6 0.263366 0.724677 0.737509
O O7 0.413723 0.691473 0.689220
O O8 0.120601 0.500000 0.500000
O O9 0.126921 0.685304 0.370184
O O10 0.000000 0.661060 0.500000
O O11 0.868296 0.706812 0.877754
O O12 0.124828 0.500000 0.000000
O O13 0.000000 0.352578 0.000000
O O14 0.500000 0.500000 0.281446
O O15 0.500000 0.611153 0.500000
#
# Coordination Sequence:
#
# PCOD8200248 Si02
#       6
#     4   8   4   8   4   4
#     4  11  22  37  55  76 104 139 186 235 268 306
#     4   9  15  27  49  78 106 132 170 219 274 328
#     4  11  20  31  51  76  98 126 170 223 274 314
#     4  12  22  35  54  75 104 143 181 221 264 313
#     4  11  24  39  53  76 110 142 176 223 280 330
#     4   7  12  22  42  74 108 133 156 207 277 332
#
# _framework density 16.837976999999999
#
# number of rings (size 3 to 8) (size 9 to 14) (size 15 to 20)
#    0.000    1.750    2.500    6.000    0.000    2.500 
#    0.000    1.250    0.000    1.500    0.000    7.000 
#    0.000    2.000    0.000    0.000    0.000    0.000 
#
# Total GULP energy -396432.427158 kJ/mol
# GULP energy per Si atom -12388.513349 kJ/mol
# Density = 1.679965 g / cm^3
# Si number density = 16.837977 Si / 1000 Ang^3
#
#
#
# Elastic Constant Matrix: (Units=GPa)
#
#
# Indices 1 2 3 4 5 6 
#
# 1 146.2655 55.5235 43.6730 0.0000 0.0000 0.0000
# 2 55.5235 128.0305 52.5652 0.0000 0.0000 0.0000
# 3 43.6730 52.5652 107.7515 0.0000 0.0000 0.0000
# 4 0.0000 0.0000 0.0000 20.4996 0.0000 0.0000
# 5 0.0000 0.0000 0.0000 0.0000 22.8802 0.0000
# 6 0.0000 0.0000 0.0000 0.0000 0.0000 20.4334
#
#
#
# Elastic Compliance Matrix: (Units=1/GPa)
#
#
# Indices 1 2 3 4 5 6 
#
# 1 0.008538 -0.002853 -0.002068 0.000000 0.000000 0.000000
# 2 -0.002853 0.010720 -0.004073 0.000000 0.000000 0.000000
# 3 -0.002068 -0.004073 0.012106 0.000000 0.000000 0.000000
# 4 0.000000 0.000000 0.000000 0.048781 0.000000 0.000000
# 5 0.000000 0.000000 0.000000 0.000000 0.043706 0.000000
# 6 0.000000 0.000000 0.000000 0.000000 0.000000 0.048940
#
#
# Mechanical properties :
#
#
# Convention : Reuss Voigt Hill
#
# Bulk Modulus (GPa) = 74.77215 76.17451 75.47333
# Shear Modulus (GPa) = 25.60959 28.11502 26.86231
#
# Velocity S-wave (km/s) = 3.90416 4.09068 3.99850
# Velocity P-wave (km/s) = 8.05149 8.22493 8.13867
#
# Compressibility (1/GPa) = 0.01337396
#
# Stress axis : x y z
#
# Youngs Moduli (GPa) = 117.12851 93.27986 82.60288
#
# Poissons Ratio (x) = 0.26616 0.17086
# Poissons Ratio (y) = 0.33420 0.33647
# Poissons Ratio (z) = 0.24228 0.37996
#
# Static dielectric constant tensor:
#      x y z
#    x 3.811370 0.000000 0.000000 
#    y 0.000000 3.618490 0.000000 
#    z 0.000000 0.000000 2.877190 
# 
# 
# High freq. dielectric constant tensor:
#      x y z
#    x 1.666600 0.000000 0.000000 
#    y 0.000000 1.626840 0.000000 
#    z 0.000000 0.000000 1.623100 
# 
# From -- ./inp_files/8611.got.cif
#   From: 2010.03.12/outbox.cif.g09.slc.cpg/sg47_5_cif.got.tgz:8611.got - 2010.04.14 03:12:58.
