data_PCOD8200079
_publ_section_title
;
Structure prediction by ZEFSAII (Michael W. Deem and Ramdas Pophale) SiO2 
 PCOD8200079
Probable space group: P M M M
;
_chemical_formula_sum "Si O2"
_cell_formula_units_Z 64
_cell_length_a 9.331831
_cell_length_b 14.115396
_cell_length_c 27.692492
_cell_angle_alpha 90.000000
_cell_angle_beta 90.000000
_cell_angle_gamma 90.000000
_cell_volume 3647.724000
_symmetry_space_group_name_H-M "P M M M"
_symmetry_group_IT_number 47
_symmetry_cell_setting 'orthorhombic'
loop_
_space_group_symop_operation_xyz
x,y,z
-x,-y,z
x,-y,-z
-x,y,-z
-x,-y,-z
x,y,-z
-x,y,z
x,-y,z
loop_
_atom_site_type_symbol
_atom_site_label
_atom_site_fract_x
_atom_site_fract_y
_atom_site_fract_z
Si Si1 0.841690 0.891843 0.944542
Si Si2 0.837357 0.391667 0.724863
Si Si3 0.831555 0.109557 0.301842
Si Si4 0.166967 0.608164 0.945800
Si Si5 0.667844 0.230705 0.772865
Si Si6 0.332852 0.606462 0.555800
Si Si7 0.161441 0.277108 0.630006
Si Si8 0.333727 0.754042 0.884602
O O1 0.718557 0.844935 0.913453
O O2 0.000000 0.846464 0.935272
O O3 0.847153 0.000000 0.929084
O O4 0.799386 0.879978 0.000000
O O5 0.788691 0.500000 0.728220
O O6 0.728031 0.332082 0.756840
O O7 0.827336 0.358978 0.669746
O O8 0.000000 0.377534 0.743825
O O9 0.746817 0.144282 0.254421
O O10 0.787030 0.175998 0.347376
O O11 0.000000 0.123111 0.291262
O O12 0.793562 0.000000 0.313087
O O13 0.216276 0.500000 0.943059
O O14 0.252213 0.662313 0.904328
O O15 0.000000 0.617919 0.934599
O O16 0.199802 0.647854 0.000000
O O17 0.500000 0.225155 0.760977
O O18 0.700444 0.223731 0.829247
O O19 0.300071 0.626456 0.500000
O O20 0.500000 0.612861 0.566805
O O21 0.278195 0.500000 0.569316
O O22 0.257864 0.690293 0.585470
O O23 0.000000 0.266362 0.610816
O O24 0.500000 0.737125 0.893575
#
# Coordination Sequence:
#
# PCOD8200079 Si02
#       8
#     8   8   8   8   8   8   8   8
#     4   9  19  36  56  76  96 120 154 194 234 282
#     4   9  18  33  52  73  98 129 166 207 247 289
#     4   9  19  37  58  76  96 126 166 212 258 302
#     4   9  19  36  56  76  97 125 165 208 244 283
#     4  10  22  36  48  70 103 132 161 199 243 294
#     4   9  18  31  46  69 105 145 178 206 240 287
#     4   9  17  30  50  76 101 125 161 209 255 296
#     4  11  23  35  49  73 104 133 158 192 242 294
#
# _framework density 17.545186999999999
#
# number of rings (size 3 to 8) (size 9 to 14) (size 15 to 20)
#    0.000    2.625    0.000    3.375    0.000    9.000 
#    0.000    6.875    0.000    0.375    0.000    2.625 
#    0.000    0.000    0.000    0.000    0.000    0.000 
#
# Total GULP energy -793441.336084 kJ/mol
# GULP energy per Si atom -12397.520876 kJ/mol
# Density = 1.750525 g / cm^3
# Si number density = 17.545187 Si / 1000 Ang^3
#
#
#
# Elastic Constant Matrix: (Units=GPa)
#
#
# Indices 1 2 3 4 5 6 
#
# 1 70.9991 46.7278 57.2854 0.0000 0.0000 0.0000
# 2 46.7278 126.7795 56.7453 0.0000 0.0000 0.0000
# 3 57.2854 56.7453 86.1807 0.0000 0.0000 0.0000
# 4 0.0000 0.0000 0.0000 28.3870 0.0000 0.0000
# 5 0.0000 0.0000 0.0000 0.0000 42.4728 0.0000
# 6 0.0000 0.0000 0.0000 0.0000 0.0000 59.1357
#
#
#
# Elastic Compliance Matrix: (Units=1/GPa)
#
#
# Indices 1 2 3 4 5 6 
#
# 1 0.031237 -0.003147 -0.018692 0.000000 0.000000 0.000000
# 2 -0.003147 0.011501 -0.005481 0.000000 0.000000 0.000000
# 3 -0.018692 -0.005481 0.027637 0.000000 0.000000 0.000000
# 4 0.000000 0.000000 0.000000 0.035227 0.000000 0.000000
# 5 0.000000 0.000000 0.000000 0.000000 0.023544 0.000000
# 6 0.000000 0.000000 0.000000 0.000000 0.000000 0.016910
#
#
# Mechanical properties :
#
#
# Convention : Reuss Voigt Hill
#
# Bulk Modulus (GPa) = 63.54852 67.27514 65.41183
# Shear Modulus (GPa) = 24.27882 34.21248 29.24565
#
# Velocity S-wave (km/s) = 3.72397 4.42063 4.08717
# Velocity P-wave (km/s) = 7.40197 8.03014 7.72244
#
# Compressibility (1/GPa) = 0.01573601
#
# Stress axis : x y z
#
# Youngs Moduli (GPa) = 32.01320 86.95071 36.18367
#
# Poissons Ratio (x) = 0.27364 0.67633
# Poissons Ratio (y) = 0.10075 0.19831
# Poissons Ratio (z) = 0.59838 0.47655
#
# Static dielectric constant tensor:
#      x y z
#    x 3.146490 0.000000 0.000000 
#    y 0.000000 3.309900 0.000000 
#    z 0.000000 0.000000 3.120910 
# 
# 
# High freq. dielectric constant tensor:
#      x y z
#    x 1.675710 0.000000 0.000000 
#    y 0.000000 1.680690 0.000000 
#    z 0.000000 0.000000 1.665540 
# 
# From -- ./inp_files/34467.got.cif
#   From: 2010.03.12/outbox.cif.g09.slc.cpg/sg47_18_cif.got.tgz:34467.got - 2010.04.14 03:12:58.
