data_PCOD8200804
_publ_section_title
;
Structure prediction by ZEFSAII (Michael W. Deem and Ramdas Pophale) SiO2 
 PCOD8200804
Probable space group: P M M M
;
_chemical_formula_sum "Si O2"
_cell_formula_units_Z 48
_cell_length_a 30.935552
_cell_length_b 10.024448
_cell_length_c 9.354655
_cell_angle_alpha 90.000000
_cell_angle_beta 90.000000
_cell_angle_gamma 90.000000
_cell_volume 2900.989203
_symmetry_space_group_name_H-M "P M M M"
_symmetry_group_IT_number 47
_symmetry_cell_setting 'orthorhombic'
loop_
_space_group_symop_operation_xyz
x,y,z
-x,-y,z
x,-y,-z
-x,y,-z
-x,-y,-z
x,y,-z
-x,y,z
x,-y,z
loop_
_atom_site_type_symbol
_atom_site_label
_atom_site_fract_x
_atom_site_fract_y
_atom_site_fract_z
Si Si1 0.548105 0.850664 0.670149
Si Si2 0.381306 0.649339 0.329884
Si Si3 0.788639 0.845971 0.332115
Si Si4 0.127446 0.841371 0.839583
Si Si5 0.952155 0.158668 0.660462
Si Si6 0.285118 0.350814 0.330238
O O1 0.549939 0.846309 0.500000
O O2 0.500000 0.808427 0.721417
O O3 0.583536 0.750445 0.737071
O O4 0.558757 0.000000 0.723792
O O5 0.382424 0.656859 0.500000
O O6 0.393061 0.500000 0.279136
O O7 0.333183 0.687796 0.275279
O O8 0.796659 0.824881 0.500000
O O9 0.831132 0.795129 0.250587
O O10 0.748995 0.757427 0.272559
O O11 0.778087 0.000000 0.297672
O O12 0.084175 0.781969 0.766086
O O13 0.125080 0.000000 0.841755
O O14 0.130660 0.784041 0.000000
O O15 0.943318 0.211349 0.500000
O O16 0.000000 0.204529 0.711869
O O17 0.949633 0.000000 0.660170
O O18 0.285046 0.348654 0.500000
O O19 0.272817 0.500000 0.276682
#
# Coordination Sequence:
#
# PCOD8200804 Si02
#       6
#     8   8   8   8   8   8
#     4   8  13  19  25  35  54  81 112 145 181 221
#     4   8  13  20  29  41  57  78 107 145 186 224
#     4   9  16  25  38  55  73  95 125 158 191 230
#     4   9  16  24  34  50  74 102 129 159 195 232
#     4   8  13  21  33  49  71 101 134 164 194 229
#     4   8  14  24  36  50  68  89 116 154 197 234
#
# _framework density 16.54608
#
# number of rings (size 3 to 8) (size 9 to 14) (size 15 to 20)
#    0.000    3.667    0.000    2.500    0.000    3.333 
#    0.000    6.667    0.000    0.500    0.000    0.000 
#    0.000    0.667    0.000    7.667    0.000   10.667 
#
# Total GULP energy -594773.583890 kJ/mol
# GULP energy per Si atom -12391.116331 kJ/mol
# Density = 1.650842 g / cm^3
# Si number density = 16.546080 Si / 1000 Ang^3
#
#
#
# Elastic Constant Matrix: (Units=GPa)
#
#
# Indices 1 2 3 4 5 6 
#
# 1 175.0368 79.4345 43.6324 0.0000 0.0000 0.0000
# 2 79.4345 68.0370 21.5943 0.0000 0.0000 0.0000
# 3 43.6324 21.5943 40.3895 0.0000 0.0000 0.0000
# 4 0.0000 0.0000 0.0000 3.3165 0.0000 0.0000
# 5 0.0000 0.0000 0.0000 0.0000 2.1389 0.0000
# 6 0.0000 0.0000 0.0000 0.0000 0.0000 8.6088
#
#
#
# Elastic Compliance Matrix: (Units=1/GPa)
#
#
# Indices 1 2 3 4 5 6 
#
# 1 0.013855 -0.013760 -0.007610 0.000000 0.000000 0.000000
# 2 -0.013760 0.031368 -0.001906 0.000000 0.000000 0.000000
# 3 -0.007610 -0.001906 0.033999 0.000000 0.000000 0.000000
# 4 0.000000 0.000000 0.000000 0.301519 0.000000 0.000000
# 5 0.000000 0.000000 0.000000 0.000000 0.467534 0.000000
# 6 0.000000 0.000000 0.000000 0.000000 0.000000 0.116161
#
#
# Mechanical properties :
#
#
# Convention : Reuss Voigt Hill
#
# Bulk Modulus (GPa) = 30.60987 63.64287 47.12637
# Shear Modulus (GPa) = 4.89295 12.06631 8.47963
#
# Velocity S-wave (km/s) = 1.72151 2.70340 2.26627
# Velocity P-wave (km/s) = 4.74251 6.94925 5.94909
#
# Compressibility (1/GPa) = 0.03266920
#
# Stress axis : x y z
#
# Youngs Moduli (GPa) = 72.17745 31.87942 29.41248
#
# Poissons Ratio (x) = 0.43867 0.22383
# Poissons Ratio (y) = 0.99318 0.05606
# Poissons Ratio (z) = 0.54928 0.06076
#
# Static dielectric constant tensor:
#      x y z
#    x 3.533130 0.000000 0.000000 
#    y 0.000000 2.957400 0.000000 
#    z 0.000000 0.000000 2.694110 
# 
# 
# High freq. dielectric constant tensor:
#      x y z
#    x 1.653280 0.000000 0.000000 
#    y 0.000000 1.597660 0.000000 
#    z 0.000000 0.000000 1.580040 
# 
# From -- ./inp_files/4455.got.cif
#   From: 2010.03.12/outbox.cif.g09.slc.cpg/sg47_3_cif.got.tgz:4455.got - 2010.04.14 03:12:58.
