data_PCOD8200757
_publ_section_title
;
Structure prediction by ZEFSAII (Michael W. Deem and Ramdas Pophale) SiO2 
 PCOD8200757
Probable space group: P M M M
;
_chemical_formula_sum "Si O2"
_cell_formula_units_Z 56
_cell_length_a 9.379759
_cell_length_b 13.967553
_cell_length_c 29.490399
_cell_angle_alpha 90.000000
_cell_angle_beta 90.000000
_cell_angle_gamma 90.000000
_cell_volume 3863.604439
_symmetry_space_group_name_H-M "P M M M"
_symmetry_group_IT_number 47
_symmetry_cell_setting 'orthorhombic'
loop_
_space_group_symop_operation_xyz
x,y,z
-x,-y,z
x,-y,-z
-x,y,-z
-x,-y,-z
x,y,-z
-x,y,z
x,-y,z
loop_
_atom_site_type_symbol
_atom_site_label
_atom_site_fract_x
_atom_site_fract_y
_atom_site_fract_z
Si Si1 0.330328 0.288875 0.950149
Si Si2 0.330691 0.789849 0.811448
Si Si3 0.669859 0.394122 0.138180
Si Si4 0.330390 0.894798 0.899833
Si Si5 0.839791 0.886056 0.633554
Si Si6 0.339960 0.886138 0.550202
Si Si7 0.333251 0.111458 0.720991
O O1 0.500000 0.292258 0.950980
O O2 0.273995 0.362118 0.911719
O O3 0.279521 0.181052 0.937720
O O4 0.269262 0.316008 0.000000
O O5 0.500000 0.793366 0.810468
O O6 0.278541 0.681503 0.823394
O O7 0.274473 0.861036 0.850542
O O8 0.273299 0.825876 0.762994
O O9 0.500000 0.395312 0.137134
O O10 0.730465 0.500000 0.149337
O O11 0.500000 0.898559 0.898810
O O12 0.267312 0.000000 0.910874
O O13 0.765744 0.843701 0.588235
O O14 0.751718 0.851633 0.677208
O O15 0.000000 0.845373 0.636314
O O16 0.840571 0.000000 0.631530
O O17 0.289145 0.852995 0.500000
O O18 0.500000 0.848533 0.559659
O O19 0.339965 0.000000 0.552721
O O20 0.500000 0.128883 0.712054
O O21 0.303638 0.000000 0.731302
#
# Coordination Sequence:
#
# PCOD8200757 Si02
#       7
#     8   8   8   8   8   8   8
#     4   8  13  18  22  31  47  68  97 128 156 192
#     4   8  13  20  29  41  54  69  96 132 166 200
#     4   8  13  20  28  37  51  71  94 125 164 200
#     4   8  12  17  24  33  47  67  92 126 163 193
#     4   9  16  23  30  43  64  87 111 141 176 210
#     4   8  13  21  32  44  59  83 117 153 181 202
#     4   9  15  22  33  46  60  81 109 140 171 201
#
# _framework density 14.494237
#
# number of rings (size 3 to 8) (size 9 to 14) (size 15 to 20)
#    0.000    3.714    0.000    3.000    0.000    4.286 
#    0.000    4.286    0.000    0.000    0.000    0.000 
#    0.000    0.571    0.000    0.000    0.000   12.143 
#
# Total GULP energy -693748.705768 kJ/mol
# GULP energy per Si atom -12388.369746 kJ/mol
# Density = 1.446125 g / cm^3
# Si number density = 14.494237 Si / 1000 Ang^3
#
#
#
# Elastic Constant Matrix: (Units=GPa)
#
#
# Indices 1 2 3 4 5 6 
#
# 1 34.0029 11.4313 36.5483 0.0000 0.0000 0.0000
# 2 11.4313 71.6812 35.0997 0.0000 0.0000 0.0000
# 3 36.5483 35.0997 129.9030 0.0000 0.0000 0.0000
# 4 0.0000 0.0000 0.0000 10.3744 0.0000 0.0000
# 5 0.0000 0.0000 0.0000 0.0000 1.7536 0.0000
# 6 0.0000 0.0000 0.0000 0.0000 0.0000 2.1216
#
#
#
# Elastic Compliance Matrix: (Units=1/GPa)
#
#
# Indices 1 2 3 4 5 6 
#
# 1 0.042228 -0.001056 -0.011595 0.000000 0.000000 0.000000
# 2 -0.001056 0.016104 -0.004054 0.000000 0.000000 0.000000
# 3 -0.011595 -0.004054 0.012056 0.000000 0.000000 0.000000
# 4 0.000000 0.000000 0.000000 0.096391 0.000000 0.000000
# 5 0.000000 0.000000 0.000000 0.000000 0.570256 0.000000
# 6 0.000000 0.000000 0.000000 0.000000 0.000000 0.471332
#
#
# Mechanical properties :
#
#
# Convention : Reuss Voigt Hill
#
# Bulk Modulus (GPa) = 27.04455 44.63842 35.84149
# Shear Modulus (GPa) = 3.98691 13.01711 8.50201
#
# Velocity S-wave (km/s) = 1.66032 3.00006 2.42457
# Velocity P-wave (km/s) = 4.73021 6.54712 5.71137
#
# Compressibility (1/GPa) = 0.03697603
#
# Stress axis : x y z
#
# Youngs Moduli (GPa) = 23.68110 62.09524 82.94730
#
# Poissons Ratio (x) = 0.06560 0.96180
# Poissons Ratio (y) = 0.02502 0.33628
# Poissons Ratio (z) = 0.27459 0.25174
#
# Static dielectric constant tensor:
#      x y z
#    x 2.404980 0.000000 0.000000 
#    y 0.000000 2.746540 0.000000 
#    z 0.000000 0.000000 3.085770 
# 
# 
# High freq. dielectric constant tensor:
#      x y z
#    x 1.499270 0.000000 0.000000 
#    y 0.000000 1.509550 0.000000 
#    z 0.000000 0.000000 1.560360 
# 
# From -- ./inp_files/8154.got.cif
#   From: 2010.03.12/outbox.cif.g09.slc.cpg/sg47_5_cif.got.tgz:8154.got - 2010.04.14 03:12:58.
