data_PCOD8200557
_publ_section_title
;
Structure prediction by ZEFSAII (Michael W. Deem and Ramdas Pophale) SiO2 
 PCOD8200557
Probable space group: P M M M
;
_chemical_formula_sum "Si O2"
_cell_formula_units_Z 52
_cell_length_a 8.768874
_cell_length_b 21.629216
_cell_length_c 14.005193
_cell_angle_alpha 90.000000
_cell_angle_beta 90.000000
_cell_angle_gamma 90.000000
_cell_volume 2656.279102
_symmetry_space_group_name_H-M "P M M M"
_symmetry_group_IT_number 47
_symmetry_cell_setting 'orthorhombic'
loop_
_space_group_symop_operation_xyz
x,y,z
-x,-y,z
x,-y,-z
-x,y,-z
-x,-y,-z
x,y,-z
-x,y,z
x,-y,z
loop_
_atom_site_type_symbol
_atom_site_label
_atom_site_fract_x
_atom_site_fract_y
_atom_site_fract_z
Si Si1 0.318703 0.687183 0.391365
Si Si2 0.676699 0.353510 0.891686
Si Si3 0.826571 0.927808 0.392184
Si Si4 0.678735 0.567610 0.284189
Si Si5 0.825647 0.000000 0.112758
Si Si6 0.321726 0.882863 0.788429
Si Si7 0.179303 0.245024 0.781462
O O1 0.265488 0.698719 0.500000
O O2 0.500000 0.690903 0.381102
O O3 0.258803 0.619327 0.357845
O O4 0.247371 0.739066 0.322972
O O5 0.500000 0.334455 0.879640
O O6 0.715231 0.411921 0.824495
O O7 0.778481 0.295849 0.860067
O O8 0.716062 0.372071 0.000000
O O9 0.775757 0.913580 0.500000
O O10 0.712578 0.891362 0.323809
O O11 0.000000 0.905565 0.374885
O O12 0.813815 0.000000 0.369555
O O13 0.500000 0.561453 0.299788
O O14 0.754627 0.500000 0.302663
O O15 0.746256 0.061261 0.151200
O O16 0.000000 0.000000 0.147975
O O17 0.812299 0.000000 0.000000
O O18 0.500000 0.879895 0.806761
O O19 0.246418 0.818961 0.821455
O O20 0.000000 0.239368 0.771357
#
# Coordination Sequence:
#
# PCOD8200557 Si02
#       7
#     8   8   8   8   4   8   8
#     4   9  18  34  55  80 113 150 189 234 279 324
#     4   9  18  34  55  79 109 143 181 230 283 332
#     4   9  18  34  57  83 113 147 179 214 259 316
#     4   8  14  26  48  82 118 147 180 224 276 333
#     4  11  25  45  66  87 114 147 183 224 272 331
#     4  12  24  39  61  87 115 146 181 228 281 332
#     4  11  23  38  57  79 107 145 188 233 278 332
#
# _framework density 19.576255
#
# number of rings (size 3 to 8) (size 9 to 14) (size 15 to 20)
#    0.000    2.231    0.769    4.385    0.000    3.385 
#    0.000    3.846    0.000    7.385    0.000    8.615 
#    0.000    0.000    0.000    0.000    0.000    0.000 
#
# Total GULP energy -644760.703060 kJ/mol
# GULP energy per Si atom -12399.244290 kJ/mol
# Density = 1.953170 g / cm^3
# Si number density = 19.576255 Si / 1000 Ang^3
#
#
#
# Elastic Constant Matrix: (Units=GPa)
#
#
# Indices 1 2 3 4 5 6 
#
# 1 88.7202 36.5224 25.3936 0.0000 0.0000 0.0000
# 2 36.5224 112.2547 15.7461 0.0000 0.0000 0.0000
# 3 25.3936 15.7461 74.9259 0.0000 0.0000 0.0000
# 4 0.0000 0.0000 0.0000 33.2992 0.0000 0.0000
# 5 0.0000 0.0000 0.0000 0.0000 25.6892 0.0000
# 6 0.0000 0.0000 0.0000 0.0000 0.0000 4.3093
#
#
#
# Elastic Compliance Matrix: (Units=1/GPa)
#
#
# Indices 1 2 3 4 5 6 
#
# 1 0.014048 -0.004021 -0.003916 0.000000 0.000000 0.000000
# 2 -0.004021 0.010330 -0.000808 0.000000 0.000000 0.000000
# 3 -0.003916 -0.000808 0.014843 0.000000 0.000000 0.000000
# 4 0.000000 0.000000 0.000000 0.030031 0.000000 0.000000
# 5 0.000000 0.000000 0.000000 0.000000 0.038927 0.000000
# 6 0.000000 0.000000 0.000000 0.000000 0.000000 0.232059
#
#
# Mechanical properties :
#
#
# Convention : Reuss Voigt Hill
#
# Bulk Modulus (GPa) = 46.01758 47.91390 46.96574
# Shear Modulus (GPa) = 13.69972 25.87544 19.78758
#
# Velocity S-wave (km/s) = 2.64827 3.63957 3.18275
# Velocity P-wave (km/s) = 5.73663 6.49543 6.12779
#
# Compressibility (1/GPa) = 0.02173082
#
# Stress axis : x y z
#
# Youngs Moduli (GPa) = 71.18692 96.80592 67.36959
#
# Poissons Ratio (x) = 0.38927 0.26381
# Poissons Ratio (y) = 0.28625 0.05444
# Poissons Ratio (z) = 0.27876 0.07823
#
# Static dielectric constant tensor:
#      x y z
#    x 3.328560 0.000000 0.000000 
#    y 0.000000 3.719040 0.000000 
#    z 0.000000 0.000000 3.637730 
# 
# 
# High freq. dielectric constant tensor:
#      x y z
#    x 1.738760 0.000000 0.000000 
#    y 0.000000 1.764600 0.000000 
#    z 0.000000 0.000000 1.764290 
# 
# From -- ./inp_files/21432.got.cif
#   From: 2010.03.12/outbox.cif.g09.slc.cpg/sg47_11_cif.got.tgz:21432.got - 2010.04.14 03:12:58.
