data_PCOD8200385
_publ_section_title
;
Structure prediction by ZEFSAII (Michael W. Deem and Ramdas Pophale) SiO2 
 PCOD8200385
Probable space group: P M M M
;
_chemical_formula_sum "Si O2"
_cell_formula_units_Z 56
_cell_length_a 8.801600
_cell_length_b 22.448228
_cell_length_c 14.813637
_cell_angle_alpha 90.000000
_cell_angle_beta 90.000000
_cell_angle_gamma 90.000000
_cell_volume 2926.883192
_symmetry_space_group_name_H-M "P M M M"
_symmetry_group_IT_number 47
_symmetry_cell_setting 'orthorhombic'
loop_
_space_group_symop_operation_xyz
x,y,z
-x,-y,z
x,-y,-z
-x,y,-z
-x,-y,-z
x,y,-z
-x,y,z
x,-y,z
loop_
_atom_site_type_symbol
_atom_site_label
_atom_site_fract_x
_atom_site_fract_y
_atom_site_fract_z
Si Si1 0.179517 0.931871 0.000000
Si Si2 0.326271 0.121054 0.342092
Si Si3 0.173933 0.234544 0.399218
Si Si4 0.821681 0.000000 0.394781
Si Si5 0.326724 0.845961 0.136118
Si Si6 0.680574 0.433501 0.600996
Si Si7 0.176310 0.720020 0.898452
Si Si8 0.320319 0.671047 0.272831
O O1 0.242787 0.900757 0.910719
O O2 0.000000 0.926691 0.000000
O O3 0.234425 0.000000 0.000000
O O4 0.500000 0.117485 0.375287
O O5 0.232849 0.166779 0.404085
O O6 0.314161 0.145351 0.241706
O O7 0.251149 0.056816 0.347516
O O8 0.188029 0.261506 0.500000
O O9 0.277481 0.270971 0.330190
O O10 0.000000 0.236061 0.365789
O O11 0.781823 0.000000 0.500000
O O12 0.000000 0.000000 0.376737
O O13 0.500000 0.844175 0.103226
O O14 0.250384 0.784477 0.108363
O O15 0.740127 0.417593 0.500000
O O16 0.500000 0.430465 0.600458
O O17 0.735271 0.500000 0.627734
O O18 0.744875 0.386948 0.674551
O O19 0.249447 0.673903 0.827149
O O20 0.000000 0.726623 0.875676
O O21 0.201566 0.694990 0.000000
O O22 0.500000 0.668744 0.262487
#
# Coordination Sequence:
#
# PCOD8200385 Si02
#       8
#     4   8   8   4   8   8   8   8
#     4  11  25  41  59  85 113 145 184 225 284 355
#     4  11  24  40  59  83 108 140 184 233 284 337
#     4  11  23  37  55  81 115 153 189 229 282 342
#     4  11  25  43  61  80 105 142 185 227 278 341
#     4  11  23  39  60  84 110 141 182 234 289 342
#     4   8  15  30  54  86 124 163 200 239 286 341
#     4  11  23  39  60  83 112 151 193 237 292 356
#     4  11  21  34  57  89 120 152 194 243 294 345
#
# _framework density 19.132981999999998
#
# number of rings (size 3 to 8) (size 9 to 14) (size 15 to 20)
#    0.000    1.429    2.143    3.857    1.000    7.143 
#    0.000    0.000    0.000    2.143    0.000    8.000 
#    0.000    0.000    0.000    0.000    0.000    0.000 
#
# Total GULP energy -694530.180122 kJ/mol
# GULP energy per Si atom -12402.324645 kJ/mol
# Density = 1.908943 g / cm^3
# Si number density = 19.132982 Si / 1000 Ang^3
#
#
#
# Elastic Constant Matrix: (Units=GPa)
#
#
# Indices 1 2 3 4 5 6 
#
# 1 86.7593 33.2537 40.5107 0.0000 0.0000 0.0000
# 2 33.2537 120.4481 52.1060 0.0000 0.0000 0.0000
# 3 40.5107 52.1060 108.8416 0.0000 0.0000 0.0000
# 4 0.0000 0.0000 0.0000 35.6429 0.0000 0.0000
# 5 0.0000 0.0000 0.0000 0.0000 27.9976 0.0000
# 6 0.0000 0.0000 0.0000 0.0000 0.0000 0.7440
#
#
#
# Elastic Compliance Matrix: (Units=1/GPa)
#
#
# Indices 1 2 3 4 5 6 
#
# 1 0.014353 -0.002083 -0.004345 0.000000 0.000000 0.000000
# 2 -0.002083 0.010773 -0.004382 0.000000 0.000000 0.000000
# 3 -0.004345 -0.004382 0.012903 0.000000 0.000000 0.000000
# 4 0.000000 0.000000 0.000000 0.028056 0.000000 0.000000
# 5 0.000000 0.000000 0.000000 0.000000 0.035717 0.000000
# 6 0.000000 0.000000 0.000000 0.000000 0.000000 1.344175
#
#
# Mechanical properties :
#
#
# Convention : Reuss Voigt Hill
#
# Bulk Modulus (GPa) = 60.94304 63.08773 62.01539
# Shear Modulus (GPa) = 3.39428 25.55546 14.47487
#
# Velocity S-wave (km/s) = 1.33338 3.65865 2.75351
# Velocity P-wave (km/s) = 5.85594 7.13390 6.52628
#
# Compressibility (1/GPa) = 0.01640876
#
# Stress axis : x y z
#
# Youngs Moduli (GPa) = 69.66981 92.82337 77.50264
#
# Poissons Ratio (x) = 0.19335 0.33676
# Poissons Ratio (y) = 0.14513 0.33963
# Poissons Ratio (z) = 0.30272 0.40677
#
# Static dielectric constant tensor:
#      x y z
#    x 3.523390 0.000000 0.000000 
#    y 0.000000 3.593380 0.000000 
#    z 0.000000 0.000000 3.763560 
# 
# 
# High freq. dielectric constant tensor:
#      x y z
#    x 1.745510 0.000000 0.000000 
#    y 0.000000 1.730660 0.000000 
#    z 0.000000 0.000000 1.752790 
# 
# From -- ./inp_files/21683.got.cif
#   From: 2010.03.12/outbox.cif.g09.slc.cpg/sg47_11_cif.got.tgz:21683.got - 2010.04.14 03:12:58.
