data_PCOD8200562
_publ_section_title
;
Structure prediction by ZEFSAII (Michael W. Deem and Ramdas Pophale) SiO2 
 PCOD8200562
Probable space group: P M M M
;
_chemical_formula_sum "Si O2"
_cell_formula_units_Z 48
_cell_length_a 14.217628
_cell_length_b 8.328418
_cell_length_c 18.754740
_cell_angle_alpha 90.000000
_cell_angle_beta 90.000000
_cell_angle_gamma 90.000000
_cell_volume 2220.755308
_symmetry_space_group_name_H-M "P M M M"
_symmetry_group_IT_number 47
_symmetry_cell_setting 'orthorhombic'
loop_
_space_group_symop_operation_xyz
x,y,z
-x,-y,z
x,-y,-z
-x,y,-z
-x,-y,-z
x,y,-z
-x,y,z
x,-y,z
loop_
_atom_site_type_symbol
_atom_site_label
_atom_site_fract_x
_atom_site_fract_y
_atom_site_fract_z
Si Si1 0.388837 0.000000 0.581882
Si Si2 0.106249 0.810930 0.723480
Si Si3 0.604660 0.685034 0.820513
Si Si4 0.207670 0.185853 0.863547
Si Si5 0.390174 0.677932 0.345203
Si Si6 0.103591 0.686643 0.000000
Si Si7 0.891894 0.688765 0.423246
O O1 0.345739 0.166508 0.614527
O O2 0.500000 0.000000 0.595942
O O3 0.361693 0.000000 0.500000
O O4 0.165062 0.740606 0.790071
O O5 0.156168 0.761413 0.648170
O O6 0.000000 0.741011 0.727954
O O7 0.104894 0.000000 0.728216
O O8 0.500000 0.750736 0.837942
O O9 0.611730 0.500000 0.842464
O O10 0.680376 0.784523 0.865783
O O11 0.627162 0.708273 0.737677
O O12 0.160564 0.268781 0.930157
O O13 0.185185 0.000000 0.869255
O O14 0.500000 0.669662 0.362646
O O15 0.347797 0.500000 0.367652
O O16 0.088882 0.500000 0.000000
O O17 0.000000 0.769751 0.000000
O O18 0.848184 0.747622 0.500000
O O19 0.882997 0.500000 0.418602
O O20 0.000000 0.744503 0.422350
#
# Coordination Sequence:
#
# PCOD8200562 Si02
#       7
#     4   8   8   8   8   4   8
#     4   9  16  24  40  70 104 141 189 244 304 373
#     4   9  18  32  50  77 114 152 190 233 284 345
#     4   9  19  37  60  86 116 151 195 250 305 356
#     4  11  23  38  61  92 122 156 198 245 298 358
#     4   8  15  28  46  70 103 143 187 242 307 365
#     4  11  25  45  68  93 126 167 203 236 284 349
#     4   8  14  25  43  70 104 142 185 234 287 339
#
# _framework density 21.614267000000002
#
# number of rings (size 3 to 8) (size 9 to 14) (size 15 to 20)
#    0.000    2.833    0.000    2.750    1.167    3.667 
#    0.000    5.417    0.000    3.500    0.000    0.000 
#    0.000    0.000    0.000    0.000    0.000    0.000 
#
# Total GULP energy -594779.973911 kJ/mol
# GULP energy per Si atom -12391.249456 kJ/mol
# Density = 2.156507 g / cm^3
# Si number density = 21.614267 Si / 1000 Ang^3
#
#
#
# Elastic Constant Matrix: (Units=GPa)
#
#
# Indices 1 2 3 4 5 6 
#
# 1 82.1866 24.0958 62.8294 0.0000 0.0000 0.0000
# 2 24.0958 91.7965 44.1676 0.0000 0.0000 0.0000
# 3 62.8294 44.1676 161.6017 0.0000 0.0000 0.0000
# 4 0.0000 0.0000 0.0000 36.6491 0.0000 0.0000
# 5 0.0000 0.0000 0.0000 0.0000 27.3828 0.0000
# 6 0.0000 0.0000 0.0000 0.0000 0.0000 13.7201
#
#
#
# Elastic Compliance Matrix: (Units=1/GPa)
#
#
# Indices 1 2 3 4 5 6 
#
# 1 0.017495 -0.001519 -0.006387 0.000000 0.000000 0.000000
# 2 -0.001519 0.012675 -0.002874 0.000000 0.000000 0.000000
# 3 -0.006387 -0.002874 0.009457 0.000000 0.000000 0.000000
# 4 0.000000 0.000000 0.000000 0.027286 0.000000 0.000000
# 5 0.000000 0.000000 0.000000 0.000000 0.036519 0.000000
# 6 0.000000 0.000000 0.000000 0.000000 0.000000 0.072886
#
#
# Mechanical properties :
#
#
# Convention : Reuss Voigt Hill
#
# Bulk Modulus (GPa) = 55.34763 66.41891 60.88327
# Shear Modulus (GPa) = 24.52184 29.18321 26.85252
#
# Velocity S-wave (km/s) = 3.37192 3.67847 3.52852
# Velocity P-wave (km/s) = 6.38924 6.98838 6.69551
#
# Compressibility (1/GPa) = 0.01806762
#
# Stress axis : x y z
#
# Youngs Moduli (GPa) = 57.15778 78.89502 105.74683
#
# Poissons Ratio (x) = 0.11987 0.67538
# Poissons Ratio (y) = 0.08685 0.30386
# Poissons Ratio (z) = 0.36506 0.22671
#
# Static dielectric constant tensor:
#      x y z
#    x 3.734810 0.000000 0.000000 
#    y 0.000000 3.911160 0.000000 
#    z 0.000000 0.000000 3.999310 
# 
# 
# High freq. dielectric constant tensor:
#      x y z
#    x 1.833190 0.000000 0.000000 
#    y 0.000000 1.840930 0.000000 
#    z 0.000000 0.000000 1.838190 
# 
# From -- ./inp_files/28042.got.cif
#   From: 2010.03.12/outbox.cif.g09.slc.cpg/sg47_15_cif.got.tgz:28042.got - 2010.04.14 03:12:58.
