data_PCOD8200703
_publ_section_title
;
Structure prediction by ZEFSAII (Michael W. Deem and Ramdas Pophale) SiO2 
 PCOD8200703
Probable space group: P M M M
;
_chemical_formula_sum "Si O2"
_cell_formula_units_Z 52
_cell_length_a 12.619329
_cell_length_b 9.409019
_cell_length_c 27.990961
_cell_angle_alpha 90.000000
_cell_angle_beta 90.000000
_cell_angle_gamma 90.000000
_cell_volume 3323.520927
_symmetry_space_group_name_H-M "P M M M"
_symmetry_group_IT_number 47
_symmetry_cell_setting 'orthorhombic'
loop_
_space_group_symop_operation_xyz
x,y,z
-x,-y,z
x,-y,-z
-x,y,-z
-x,-y,-z
x,y,-z
-x,y,z
x,-y,z
loop_
_atom_site_type_symbol
_atom_site_label
_atom_site_fract_x
_atom_site_fract_y
_atom_site_fract_z
Si Si1 0.297776 0.835255 0.215727
Si Si2 0.500000 0.339274 0.213568
Si Si3 0.702363 0.833833 0.326190
Si Si4 0.125545 0.844933 0.500000
Si Si5 0.881959 0.169771 0.397569
Si Si6 0.120506 0.834306 0.858389
Si Si7 0.500000 0.660815 0.327062
Si Si8 0.874138 0.340165 0.052395
O O1 0.395304 0.742575 0.195545
O O2 0.273592 0.801439 0.270904
O O3 0.192160 0.793374 0.186918
O O4 0.327943 0.000000 0.208766
O O5 0.500000 0.500000 0.193369
O O6 0.500000 0.338730 0.270299
O O7 0.803289 0.779542 0.356102
O O8 0.602897 0.744518 0.345524
O O9 0.678519 0.000000 0.334301
O O10 0.156368 0.767865 0.449696
O O11 0.000000 0.863411 0.500000
O O12 0.180208 0.000000 0.500000
O O13 0.000000 0.225671 0.384864
O O14 0.883742 0.000000 0.401191
O O15 0.169202 0.759610 0.905452
O O16 0.000000 0.784403 0.847376
O O17 0.123956 0.000000 0.869094
O O18 0.500000 0.500000 0.347122
O O19 0.834361 0.500000 0.062120
O O20 0.000000 0.334593 0.052416
O O21 0.833016 0.288970 0.000000
#
# Coordination Sequence:
#
# PCOD8200703 Si02
#       8
#     8   4   8   4   8   8   4   8
#     4   9  17  28  41  59  85 112 135 165 204 241
#     4   9  17  29  45  61  75  99 141 182 206 234
#     4   9  16  26  42  62  82 106 137 169 200 240
#     4   7  10  18  32  53  83 110 130 161 204 241
#     4   8  13  21  36  60  86 109 133 164 204 245
#     4   9  17  27  39  59  87 115 138 160 194 242
#     4   9  17  29  43  58  78 104 135 172 210 241
#     4   8  14  25  40  57  78 106 140 174 203 231
#
# _framework density 15.646057000000001
#
# number of rings (size 3 to 8) (size 9 to 14) (size 15 to 20)
#    0.000    3.462    0.000    1.846    0.000    3.385 
#    0.000    4.615    0.000    0.923    0.000    8.615 
#    0.000    6.154    0.000    0.000    0.000    0.000 
#
# Total GULP energy -644324.322269 kJ/mol
# GULP energy per Si atom -12390.852351 kJ/mol
# Density = 1.561045 g / cm^3
# Si number density = 15.646057 Si / 1000 Ang^3
#
#
#
# Elastic Constant Matrix: (Units=GPa)
#
#
# Indices 1 2 3 4 5 6 
#
# 1 99.2311 42.6585 61.9412 0.0000 0.0000 0.0000
# 2 42.6585 50.9226 38.6698 0.0000 0.0000 0.0000
# 3 61.9412 38.6698 98.2853 0.0000 0.0000 0.0000
# 4 0.0000 0.0000 0.0000 10.2971 0.0000 0.0000
# 5 0.0000 0.0000 0.0000 0.0000 3.9867 0.0000
# 6 0.0000 0.0000 0.0000 0.0000 0.0000 10.5146
#
#
#
# Elastic Compliance Matrix: (Units=1/GPa)
#
#
# Indices 1 2 3 4 5 6 
#
# 1 0.019674 -0.010076 -0.008435 0.000000 0.000000 0.000000
# 2 -0.010076 0.033165 -0.006699 0.000000 0.000000 0.000000
# 3 -0.008435 -0.006699 0.018126 0.000000 0.000000 0.000000
# 4 0.000000 0.000000 0.000000 0.097115 0.000000 0.000000
# 5 0.000000 0.000000 0.000000 0.000000 0.250833 0.000000
# 6 0.000000 0.000000 0.000000 0.000000 0.000000 0.095106
#
#
# Mechanical properties :
#
#
# Convention : Reuss Voigt Hill
#
# Bulk Modulus (GPa) = 48.67015 59.44199 54.05607
# Shear Modulus (GPa) = 8.75219 11.97099 10.36159
#
# Velocity S-wave (km/s) = 2.36770 2.76907 2.57621
# Velocity P-wave (km/s) = 6.21685 6.94966 6.59344
#
# Compressibility (1/GPa) = 0.02054648
#
# Stress axis : x y z
#
# Youngs Moduli (GPa) = 50.82831 30.15200 55.17068
#
# Poissons Ratio (x) = 0.30382 0.46534
# Poissons Ratio (y) = 0.51215 0.36956
# Poissons Ratio (z) = 0.42871 0.20197
#
# Static dielectric constant tensor:
#      x y z
#    x 2.896520 0.000000 0.000000 
#    y 0.000000 2.858240 0.000000 
#    z 0.000000 0.000000 3.184800 
# 
# 
# High freq. dielectric constant tensor:
#      x y z
#    x 1.575710 0.000000 0.000000 
#    y 0.000000 1.575790 0.000000 
#    z 0.000000 0.000000 1.591960 
# 
# From -- ./inp_files/34573.got.cif
#   From: 2010.03.12/outbox.cif.g09.slc.cpg/sg47_18_cif.got.tgz:34573.got - 2010.04.14 03:12:58.
