data_PCOD8200980
_publ_section_title
;
Structure prediction by ZEFSAII (Michael W. Deem and Ramdas Pophale) SiO2 
 PCOD8200980
Probable space group: P M M M
;
_chemical_formula_sum "Si O2"
_cell_formula_units_Z 52
_cell_length_a 13.891361
_cell_length_b 7.855170
_cell_length_c 28.363151
_cell_angle_alpha 90.000000
_cell_angle_beta 90.000000
_cell_angle_gamma 90.000000
_cell_volume 3094.958736
_symmetry_space_group_name_H-M "P M M M"
_symmetry_group_IT_number 47
_symmetry_cell_setting 'orthorhombic'
loop_
_space_group_symop_operation_xyz
x,y,z
-x,-y,z
x,-y,-z
-x,y,-z
-x,-y,-z
x,y,-z
-x,y,z
x,-y,z
loop_
_atom_site_type_symbol
_atom_site_label
_atom_site_fract_x
_atom_site_fract_y
_atom_site_fract_z
Si Si1 0.886270 0.500000 0.447640
Si Si2 0.104551 0.696405 0.192075
Si Si3 0.393350 0.799552 0.232916
Si Si4 0.288647 0.697418 0.857709
Si Si5 0.204245 0.198950 0.717150
Si Si6 0.887350 0.804205 0.380949
Si Si7 0.391800 0.702589 0.948177
O O1 0.840223 0.500000 0.500000
O O2 0.853507 0.673635 0.421519
O O3 0.000000 0.500000 0.451535
O O4 0.096889 0.500000 0.178899
O O5 0.187790 0.783302 0.159613
O O6 0.132451 0.709294 0.246914
O O7 0.000000 0.783617 0.183285
O O8 0.500000 0.737396 0.248638
O O9 0.369128 0.718278 0.182435
O O10 0.314810 0.743672 0.272354
O O11 0.391321 0.000000 0.226225
O O12 0.270311 0.500000 0.866203
O O13 0.324359 0.781064 0.906940
O O14 0.175147 0.249073 0.664383
O O15 0.191035 0.000000 0.725324
O O16 0.000000 0.781664 0.369001
O O17 0.866353 0.000000 0.396475
O O18 0.500000 0.772462 0.941256
O O19 0.393636 0.500000 0.944316
O O20 0.353021 0.758168 0.000000
#
# Coordination Sequence:
#
# PCOD8200980 Si02
#       7
#     4   8   8   8   8   8   8
#     4   9  18  30  44  64  89 119 151 181 219 262
#     4   9  17  26  37  55  78 104 132 164 201 240
#     4   9  17  28  41  58  83 111 133 159 200 248
#     4   9  16  26  40  56  75 101 132 165 199 239
#     4   9  17  28  41  59  82 108 139 169 199 241
#     4   9  17  28  43  63  87 116 148 182 216 253
#     4   8  13  21  35  55  74  92 121 163 205 243
#
# _framework density 16.801515999999999
#
# number of rings (size 3 to 8) (size 9 to 14) (size 15 to 20)
#    0.000    3.154    0.000    1.385    1.077    2.154 
#    0.000    1.538    0.000    0.923    0.000    5.385 
#    0.000    1.231    0.000   13.692    0.000    8.462 
#
# Total GULP energy -644309.471256 kJ/mol
# GULP energy per Si atom -12390.566755 kJ/mol
# Density = 1.676327 g / cm^3
# Si number density = 16.801516 Si / 1000 Ang^3
#
#
#
# Elastic Constant Matrix: (Units=GPa)
#
#
# Indices 1 2 3 4 5 6 
#
# 1 113.1108 18.6425 65.2511 0.0000 0.0000 0.0000
# 2 18.6425 35.0997 33.9744 0.0000 0.0000 0.0000
# 3 65.2511 33.9744 143.4978 0.0000 0.0000 0.0000
# 4 0.0000 0.0000 0.0000 3.3390 0.0000 0.0000
# 5 0.0000 0.0000 0.0000 0.0000 20.3816 0.0000
# 6 0.0000 0.0000 0.0000 0.0000 0.0000 11.3003
#
#
#
# Elastic Compliance Matrix: (Units=1/GPa)
#
#
# Indices 1 2 3 4 5 6 
#
# 1 0.012039 -0.001421 -0.005138 0.000000 0.000000 0.000000
# 2 -0.001421 0.037128 -0.008144 0.000000 0.000000 0.000000
# 3 -0.005138 -0.008144 0.011233 0.000000 0.000000 0.000000
# 4 0.000000 0.000000 0.000000 0.299493 0.000000 0.000000
# 5 0.000000 0.000000 0.000000 0.000000 0.049064 0.000000
# 6 0.000000 0.000000 0.000000 0.000000 0.000000 0.088493
#
#
# Mechanical properties :
#
#
# Convention : Reuss Voigt Hill
#
# Bulk Modulus (GPa) = 32.26431 58.60491 45.43461
# Shear Modulus (GPa) = 9.30773 18.59354 13.95063
#
# Velocity S-wave (km/s) = 2.35623 3.33026 2.88465
# Velocity P-wave (km/s) = 5.16211 7.05294 6.18026
#
# Compressibility (1/GPa) = 0.03099400
#
# Stress axis : x y z
#
# Youngs Moduli (GPa) = 83.06299 26.93375 89.02129
#
# Poissons Ratio (x) = 0.03828 0.45738
# Poissons Ratio (y) = 0.11804 0.72501
# Poissons Ratio (z) = 0.42677 0.21935
#
# Static dielectric constant tensor:
#      x y z
#    x 3.500200 0.000000 0.000000 
#    y 0.000000 2.998850 0.000000 
#    z 0.000000 0.000000 3.253520 
# 
# 
# High freq. dielectric constant tensor:
#      x y z
#    x 1.629270 0.000000 0.000000 
#    y 0.000000 1.635490 0.000000 
#    z 0.000000 0.000000 1.626770 
# 
# From -- ./inp_files/33776.got.cif
#   From: 2010.03.12/outbox.cif.g09.slc.cpg/sg47_17_cif.got.tgz:33776.got - 2010.04.14 03:12:58.
