data_PCOD8200985
_publ_section_title
;
Structure prediction by ZEFSAII (Michael W. Deem and Ramdas Pophale) SiO2 
 PCOD8200985
Probable space group: P M M M
;
_chemical_formula_sum "Si O2"
_cell_formula_units_Z 44
_cell_length_a 13.594585
_cell_length_b 9.463106
_cell_length_c 21.546836
_cell_angle_alpha 90.000000
_cell_angle_beta 90.000000
_cell_angle_gamma 90.000000
_cell_volume 2771.935787
_symmetry_space_group_name_H-M "P M M M"
_symmetry_group_IT_number 47
_symmetry_cell_setting 'orthorhombic'
loop_
_space_group_symop_operation_xyz
x,y,z
-x,-y,z
x,-y,-z
-x,y,-z
-x,-y,-z
x,y,-z
-x,y,z
x,-y,z
loop_
_atom_site_type_symbol
_atom_site_label
_atom_site_fract_x
_atom_site_fract_y
_atom_site_fract_z
Si Si1 0.700605 0.165596 0.692990
Si Si2 0.109647 0.161686 0.763736
Si Si3 0.389672 0.662655 0.801280
Si Si4 0.888360 0.332239 0.000000
Si Si5 0.389118 0.167739 0.567677
Si Si6 0.198119 0.665479 0.871488
O O1 0.814160 0.199758 0.708852
O O2 0.628937 0.243387 0.740839
O O3 0.680213 0.223292 0.623401
O O4 0.676755 0.000000 0.698023
O O5 0.126633 0.258399 0.823278
O O6 0.000000 0.188259 0.737841
O O7 0.124369 0.000000 0.784879
O O8 0.500000 0.691974 0.826233
O O9 0.376541 0.500000 0.781439
O O10 0.312302 0.700808 0.855986
O O11 0.828653 0.277519 0.060111
O O12 0.891686 0.500000 0.000000
O O13 0.000000 0.272212 0.000000
O O14 0.351975 0.223520 0.500000
O O15 0.500000 0.221797 0.579632
O O16 0.387969 0.000000 0.566839
O O17 0.176308 0.500000 0.866207
#
# Coordination Sequence:
#
# PCOD8200985 Si02
#       6
#     8   8   8   4   8   8
#     4   9  16  26  42  61  79 104 137 166 193 232
#     4   9  17  28  41  59  83 106 129 163 204 237
#     4   9  17  28  41  59  84 108 129 160 200 235
#     4   9  16  26  42  62  80  99 129 169 202 227
#     4   8  13  21  35  57  81 101 126 163 199 228
#     4   9  17  29  44  61  80 104 134 163 194 236
#
# _framework density 15.873384
#
# number of rings (size 3 to 8) (size 9 to 14) (size 15 to 20)
#    0.000    3.182    0.000    1.636    0.000    2.182 
#    0.000    0.909    0.000    5.455    0.000    6.364 
#    0.000    5.818    0.000    9.091    0.000    9.818 
#
# Total GULP energy -545324.161022 kJ/mol
# GULP energy per Si atom -12393.730932 kJ/mol
# Density = 1.583726 g / cm^3
# Si number density = 15.873384 Si / 1000 Ang^3
#
#
#
# Elastic Constant Matrix: (Units=GPa)
#
#
# Indices 1 2 3 4 5 6 
#
# 1 119.7504 23.9320 76.1666 0.0000 0.0000 0.0000
# 2 23.9320 23.2240 26.8351 0.0000 0.0000 0.0000
# 3 76.1666 26.8351 153.2776 0.0000 0.0000 0.0000
# 4 0.0000 0.0000 0.0000 14.9104 0.0000 0.0000
# 5 0.0000 0.0000 0.0000 0.0000 21.5754 0.0000
# 6 0.0000 0.0000 0.0000 0.0000 0.0000 15.9931
#
#
#
# Elastic Compliance Matrix: (Units=1/GPa)
#
#
# Indices 1 2 3 4 5 6 
#
# 1 0.013186 -0.007542 -0.005232 0.000000 0.000000 0.000000
# 2 -0.007542 0.058293 -0.006458 0.000000 0.000000 0.000000
# 3 -0.005232 -0.006458 0.010254 0.000000 0.000000 0.000000
# 4 0.000000 0.000000 0.000000 0.067067 0.000000 0.000000
# 5 0.000000 0.000000 0.000000 0.000000 0.046349 0.000000
# 6 0.000000 0.000000 0.000000 0.000000 0.000000 0.062527
#
#
# Mechanical properties :
#
#
# Convention : Reuss Voigt Hill
#
# Bulk Modulus (GPa) = 23.11097 61.12440 42.11768
# Shear Modulus (GPa) = 16.09977 21.78367 18.94172
#
# Velocity S-wave (km/s) = 3.18820 3.70853 3.45817
# Velocity P-wave (km/s) = 5.30510 7.54511 6.52199
#
# Compressibility (1/GPa) = 0.04326949
#
# Stress axis : x y z
#
# Youngs Moduli (GPa) = 75.84000 17.15468 97.51884
#
# Poissons Ratio (x) = 0.12939 0.51019
# Poissons Ratio (y) = 0.57202 0.62975
# Poissons Ratio (z) = 0.39677 0.11078
#
# Static dielectric constant tensor:
#      x y z
#    x 3.148440 0.000000 0.000000 
#    y 0.000000 2.803150 0.000000 
#    z 0.000000 0.000000 3.247120 
# 
# 
# High freq. dielectric constant tensor:
#      x y z
#    x 1.609770 0.000000 0.000000 
#    y 0.000000 1.582260 0.000000 
#    z 0.000000 0.000000 1.599990 
# 
# From -- ./inp_files/30762.got.cif
#   From: 2010.03.12/outbox.cif.g09.slc.cpg/sg47_16_cif.got.tgz:30762.got - 2010.04.14 03:12:58.
