data_PCOD8200468
_publ_section_title
;
Structure prediction by ZEFSAII (Michael W. Deem and Ramdas Pophale) SiO2 
 PCOD8200468
Probable space group: P M M M
;
_chemical_formula_sum "Si O2"
_cell_formula_units_Z 40
_cell_length_a 8.188510
_cell_length_b 13.713952
_cell_length_c 22.129450
_cell_angle_alpha 90.000000
_cell_angle_beta 90.000000
_cell_angle_gamma 90.000000
_cell_volume 2485.067153
_symmetry_space_group_name_H-M "P M M M"
_symmetry_group_IT_number 47
_symmetry_cell_setting 'orthorhombic'
loop_
_space_group_symop_operation_xyz
x,y,z
-x,-y,z
x,-y,-z
-x,y,-z
-x,-y,-z
x,y,-z
-x,y,z
x,-y,z
loop_
_atom_site_type_symbol
_atom_site_label
_atom_site_fract_x
_atom_site_fract_y
_atom_site_fract_z
Si Si1 0.189073 0.793241 0.371712
Si Si2 0.809662 0.890817 0.248435
Si Si3 0.190392 0.109541 0.000000
Si Si4 0.500000 0.892507 0.570839
Si Si5 0.309262 0.109930 0.876615
Si Si6 0.309690 0.611585 0.430594
O O1 0.238037 0.818527 0.302854
O O2 0.327985 0.842540 0.412467
O O3 0.202509 0.677783 0.385229
O O4 0.000000 0.827278 0.385282
O O5 0.749204 0.840461 0.185910
O O6 0.000000 0.902908 0.244753
O O7 0.732158 0.000000 0.257881
O O8 0.247612 0.163580 0.938102
O O9 0.000000 0.105552 0.000000
O O10 0.267298 0.000000 0.000000
O O11 0.500000 0.897529 0.500000
O O12 0.500000 0.000000 0.600004
O O13 0.500000 0.110693 0.877907
O O14 0.236833 0.000000 0.876140
O O15 0.257647 0.630895 0.500000
O O16 0.500000 0.637088 0.422592
O O17 0.275025 0.500000 0.413011
#
# Coordination Sequence:
#
# PCOD8200468 Si02
#       6
#     8   8   4   4   8   8
#     4  11  22  35  53  74  96 124 159 198 242 291
#     4   9  18  31  44  61  87 120 157 192 227 273
#     4   9  15  23  35  51  77 111 144 185 232 269
#     4  11  24  38  51  69  95 126 161 199 237 279
#     4   9  16  24  37  57  79 108 149 192 228 265
#     4   9  18  34  55  76  97 120 149 190 242 300
#
# _framework density 16.096145
#
# number of rings (size 3 to 8) (size 9 to 14) (size 15 to 20)
#    0.000    2.400    1.000    2.700    1.400    6.800 
#    0.000    2.000    0.000    0.000    0.000    0.000 
#    0.000    0.000    0.000    0.900    0.000   16.900 
#
# Total GULP energy -495558.276247 kJ/mol
# GULP energy per Si atom -12388.956906 kJ/mol
# Density = 1.605951 g / cm^3
# Si number density = 16.096145 Si / 1000 Ang^3
#
#
#
# Elastic Constant Matrix: (Units=GPa)
#
#
# Indices 1 2 3 4 5 6 
#
# 1 50.9387 27.0612 36.8418 0.0000 0.0000 0.0000
# 2 27.0612 56.9480 46.4952 0.0000 0.0000 0.0000
# 3 36.8418 46.4952 133.0746 0.0000 0.0000 0.0000
# 4 0.0000 0.0000 0.0000 7.2314 0.0000 0.0000
# 5 0.0000 0.0000 0.0000 0.0000 29.5741 0.0000
# 6 0.0000 0.0000 0.0000 0.0000 0.0000 16.4223
#
#
#
# Elastic Compliance Matrix: (Units=1/GPa)
#
#
# Indices 1 2 3 4 5 6 
#
# 1 0.027939 -0.009739 -0.004332 0.000000 0.000000 0.000000
# 2 -0.009739 0.027963 -0.007074 0.000000 0.000000 0.000000
# 3 -0.004332 -0.007074 0.011185 0.000000 0.000000 0.000000
# 4 0.000000 0.000000 0.000000 0.138285 0.000000 0.000000
# 5 0.000000 0.000000 0.000000 0.000000 0.033813 0.000000
# 6 0.000000 0.000000 0.000000 0.000000 0.000000 0.060893
#
#
# Mechanical properties :
#
#
# Convention : Reuss Voigt Hill
#
# Bulk Modulus (GPa) = 40.32731 51.30642 45.81687
# Shear Modulus (GPa) = 14.25985 19.34977 16.80481
#
# Velocity S-wave (km/s) = 2.97967 3.47095 3.23465
# Velocity P-wave (km/s) = 6.07835 6.92874 6.51743
#
# Compressibility (1/GPa) = 0.02479709
#
# Stress axis : x y z
#
# Youngs Moduli (GPa) = 35.79271 35.76102 89.40206
#
# Poissons Ratio (x) = 0.34829 0.38729
# Poissons Ratio (y) = 0.34860 0.63241
# Poissons Ratio (z) = 0.15505 0.25297
#
# Static dielectric constant tensor:
#      x y z
#    x 3.075410 0.000000 0.000000 
#    y 0.000000 2.860940 0.000000 
#    z 0.000000 0.000000 3.158160 
# 
# 
# High freq. dielectric constant tensor:
#      x y z
#    x 1.629800 0.000000 0.000000 
#    y 0.000000 1.554540 0.000000 
#    z 0.000000 0.000000 1.626210 
# 
# From -- ./inp_files/29421.got.cif
#   From: 2010.03.12/outbox.cif.g09.slc.cpg/sg47_15_cif.got.tgz:29421.got - 2010.04.14 03:12:58.
