data_PCOD8200099
_publ_section_title
;
Structure prediction by ZEFSAII (Michael W. Deem and Ramdas Pophale) SiO2 
 PCOD8200099
Probable space group: P M M M
;
_chemical_formula_sum "Si O2"
_cell_formula_units_Z 52
_cell_length_a 14.845934
_cell_length_b 9.705004
_cell_length_c 18.911818
_cell_angle_alpha 90.000000
_cell_angle_beta 90.000000
_cell_angle_gamma 90.000000
_cell_volume 2724.811879
_symmetry_space_group_name_H-M "P M M M"
_symmetry_group_IT_number 47
_symmetry_cell_setting 'orthorhombic'
loop_
_space_group_symop_operation_xyz
x,y,z
-x,-y,z
x,-y,-z
-x,y,-z
-x,-y,-z
x,y,-z
-x,y,z
x,-y,z
loop_
_atom_site_type_symbol
_atom_site_label
_atom_site_fract_x
_atom_site_fract_y
_atom_site_fract_z
Si Si1 0.100317 0.000000 0.418265
Si Si2 0.155700 0.344306 0.919488
Si Si3 0.251566 0.217298 0.582216
Si Si4 0.101036 0.156067 0.797985
Si Si5 0.234417 0.346871 0.277973
Si Si6 0.599591 0.000000 0.417729
Si Si7 0.500000 0.836933 0.082954
Si Si8 0.347922 0.653587 0.146680
O O1 0.160308 0.866586 0.400109
O O2 0.081084 0.000000 0.500000
O O3 0.000000 0.000000 0.380751
O O4 0.120897 0.500000 0.905181
O O5 0.101788 0.235458 0.872473
O O6 0.260800 0.334995 0.902341
O O7 0.139181 0.301694 0.000000
O O8 0.252231 0.266490 0.500000
O O9 0.255921 0.342292 0.638089
O O10 0.341370 0.132732 0.601654
O O11 0.159420 0.234245 0.739641
O O12 0.000000 0.152549 0.768950
O O13 0.137889 0.000000 0.807362
O O14 0.198054 0.500000 0.259964
O O15 0.321976 0.318663 0.228931
O O16 0.500000 0.000000 0.380364
O O17 0.582902 0.000000 0.500000
O O18 0.413962 0.771865 0.120739
O O19 0.500000 0.000000 0.095742
O O20 0.500000 0.800731 0.000000
O O21 0.390589 0.500000 0.138944
#
# Coordination Sequence:
#
# PCOD8200099 Si02
#       8
#     4   8   8   8   8   4   4   8
#     4   8  15  29  50  79 113 144 175 222 281 335
#     4   9  18  34  57  82 108 141 179 220 269 324
#     4   9  18  33  55  83 112 145 187 233 281 335
#     4  10  22  37  54  78 107 143 185 226 271 325
#     4  10  22  39  56  77 110 146 182 230 280 332
#     4   8  15  31  54  81 113 142 173 220 274 330
#     4  11  23  37  55  85 116 137 172 226 276 322
#     4   9  19  37  56  75 105 145 183 216 262 326
#
# _framework density 19.083886
#
# number of rings (size 3 to 8) (size 9 to 14) (size 15 to 20)
#    0.000    2.692    0.000    3.000    2.154    6.462 
#    1.385    1.538    0.000    0.000    0.000    5.385 
#    0.000    0.000    0.000    0.000    0.000    0.000 
#
# Total GULP energy -644329.088441 kJ/mol
# GULP energy per Si atom -12390.944008 kJ/mol
# Density = 1.904045 g / cm^3
# Si number density = 19.083886 Si / 1000 Ang^3
#
#
#
# Elastic Constant Matrix: (Units=GPa)
#
#
# Indices 1 2 3 4 5 6 
#
# 1 103.2736 45.0243 25.1638 0.0000 0.0000 0.0000
# 2 45.0243 117.8888 58.8441 0.0000 0.0000 0.0000
# 3 25.1638 58.8441 129.1686 0.0000 0.0000 0.0000
# 4 0.0000 0.0000 0.0000 33.5458 0.0000 0.0000
# 5 0.0000 0.0000 0.0000 0.0000 6.2005 0.0000
# 6 0.0000 0.0000 0.0000 0.0000 0.0000 24.4076
#
#
#
# Elastic Compliance Matrix: (Units=1/GPa)
#
#
# Indices 1 2 3 4 5 6 
#
# 1 0.011627 -0.004284 -0.000313 0.000000 0.000000 0.000000
# 2 -0.004284 0.012558 -0.004886 0.000000 0.000000 0.000000
# 3 -0.000313 -0.004886 0.010029 0.000000 0.000000 0.000000
# 4 0.000000 0.000000 0.000000 0.029810 0.000000 0.000000
# 5 0.000000 0.000000 0.000000 0.000000 0.161277 0.000000
# 6 0.000000 0.000000 0.000000 0.000000 0.000000 0.040971
#
#
# Mechanical properties :
#
#
# Convention : Reuss Voigt Hill
#
# Bulk Modulus (GPa) = 65.59053 67.59949 66.59501
# Shear Modulus (GPa) = 17.22232 27.58404 22.40318
#
# Velocity S-wave (km/s) = 3.00735 3.80598 3.42999
# Velocity P-wave (km/s) = 6.81931 7.40359 7.11745
#
# Compressibility (1/GPa) = 0.01524610
#
# Stress axis : x y z
#
# Youngs Moduli (GPa) = 86.00535 79.63202 99.71254
#
# Poissons Ratio (x) = 0.34116 0.03125
# Poissons Ratio (y) = 0.36847 0.48721
# Poissons Ratio (z) = 0.02695 0.38910
#
# Static dielectric constant tensor:
#      x y z
#    x 3.741650 0.000000 0.000000 
#    y 0.000000 3.417510 0.000000 
#    z 0.000000 0.000000 3.474790 
# 
# 
# High freq. dielectric constant tensor:
#      x y z
#    x 1.731980 0.000000 0.000000 
#    y 0.000000 1.731440 0.000000 
#    z 0.000000 0.000000 1.744820 
# 
# From -- ./inp_files/30935.got.cif
#   From: 2010.03.12/outbox.cif.g09.slc.cpg/sg47_16_cif.got.tgz:30935.got - 2010.04.14 03:12:58.
