data_PCOD8200220
_publ_section_title
;
Structure prediction by ZEFSAII (Michael W. Deem and Ramdas Pophale) SiO2 
 PCOD8200220
Probable space group: P M M M
;
_chemical_formula_sum "Si O2"
_cell_formula_units_Z 40
_cell_length_a 9.160747
_cell_length_b 20.722181
_cell_length_c 14.350211
_cell_angle_alpha 90.000000
_cell_angle_beta 90.000000
_cell_angle_gamma 90.000000
_cell_volume 2724.109988
_symmetry_space_group_name_H-M "P M M M"
_symmetry_group_IT_number 47
_symmetry_cell_setting 'orthorhombic'
loop_
_space_group_symop_operation_xyz
x,y,z
-x,-y,z
x,-y,-z
-x,y,-z
-x,-y,-z
x,y,-z
-x,y,z
x,-y,z
loop_
_atom_site_type_symbol
_atom_site_label
_atom_site_fract_x
_atom_site_fract_y
_atom_site_fract_z
Si Si1 0.673694 0.880158 0.703726
Si Si2 0.161260 0.379020 0.610580
Si Si3 0.831466 0.000000 0.610434
Si Si4 0.337559 0.500000 0.611374
Si Si5 0.170400 0.765085 0.608503
Si Si6 0.327204 0.072266 0.101037
O O1 0.500000 0.886709 0.691124
O O2 0.727463 0.811499 0.667772
O O3 0.722562 0.883681 0.812424
O O4 0.750905 0.936643 0.646829
O O5 0.155003 0.383812 0.500000
O O6 0.263071 0.435260 0.651731
O O7 0.216714 0.307583 0.637894
O O8 0.000000 0.390333 0.651636
O O9 0.821571 0.000000 0.500000
O O10 0.000000 0.000000 0.643343
O O11 0.500000 0.500000 0.650352
O O12 0.332868 0.500000 0.500000
O O13 0.201296 0.777286 0.500000
O O14 0.000000 0.777371 0.630134
O O15 0.500000 0.068850 0.099279
O O16 0.265343 0.000000 0.116754
O O17 0.271127 0.099030 0.000000
#
# Coordination Sequence:
#
# PCOD8200220 Si02
#       6
#     8   8   4   4   8   8
#     4  11  20  30  46  66  81  99 133 175 211 241
#     4   8  14  25  39  52  70 103 143 170 190 231
#     4  11  23  35  44  55  78 112 141 165 200 245
#     4   9  15  21  33  55  79  99 126 171 216 237
#     4   9  18  31  43  56  80 115 146 168 199 244
#     4   8  14  27  46  64  81 100 124 159 206 258
#
# _framework density 14.683693999999999
#
# number of rings (size 3 to 8) (size 9 to 14) (size 15 to 20)
#    0.000    2.800    1.000    3.600    0.000    5.600 
#    0.000    2.000    0.000    3.000    0.000    0.000 
#    0.000    0.000    0.000    0.900    0.000   18.300 
#
# Total GULP energy -495685.672156 kJ/mol
# GULP energy per Si atom -12392.141804 kJ/mol
# Density = 1.465027 g / cm^3
# Si number density = 14.683694 Si / 1000 Ang^3
#
#
#
# Elastic Constant Matrix: (Units=GPa)
#
#
# Indices 1 2 3 4 5 6 
#
# 1 78.5818 59.9326 36.6864 0.0000 0.0000 0.0000
# 2 59.9326 122.8199 45.0420 0.0000 0.0000 0.0000
# 3 36.6864 45.0420 71.5665 0.0000 0.0000 0.0000
# 4 0.0000 0.0000 0.0000 2.2395 0.0000 0.0000
# 5 0.0000 0.0000 0.0000 0.0000 5.9892 0.0000
# 6 0.0000 0.0000 0.0000 0.0000 0.0000 23.8602
#
#
#
# Elastic Compliance Matrix: (Units=1/GPa)
#
#
# Indices 1 2 3 4 5 6 
#
# 1 0.022023 -0.008589 -0.005884 0.000000 0.000000 0.000000
# 2 -0.008589 0.013935 -0.004367 0.000000 0.000000 0.000000
# 3 -0.005884 -0.004367 0.019738 0.000000 0.000000 0.000000
# 4 0.000000 0.000000 0.000000 0.446534 0.000000 0.000000
# 5 0.000000 0.000000 0.000000 0.000000 0.166968 0.000000
# 6 0.000000 0.000000 0.000000 0.000000 0.000000 0.041911
#
#
# Mechanical properties :
#
#
# Convention : Reuss Voigt Hill
#
# Bulk Modulus (GPa) = 55.50745 61.81001 58.65873
# Shear Modulus (GPa) = 6.62433 15.17159 10.89796
#
# Velocity S-wave (km/s) = 2.12630 3.21787 2.72726
# Velocity P-wave (km/s) = 6.62664 7.48278 7.06768
#
# Compressibility (1/GPa) = 0.01801560
#
# Stress axis : x y z
#
# Youngs Moduli (GPa) = 45.40713 71.76303 50.66398
#
# Poissons Ratio (x) = 0.61636 0.29810
# Poissons Ratio (y) = 0.38999 0.22127
# Poissons Ratio (z) = 0.26717 0.31342
#
# Static dielectric constant tensor:
#      x y z
#    x 2.856900 0.000000 0.000000 
#    y 0.000000 2.968270 0.000000 
#    z 0.000000 0.000000 2.808790 
# 
# 
# High freq. dielectric constant tensor:
#      x y z
#    x 1.556130 0.000000 0.000000 
#    y 0.000000 1.559230 0.000000 
#    z 0.000000 0.000000 1.518970 
# 
# From -- ./inp_files/10814.got.cif
#   From: 2010.03.12/outbox.cif.g09.slc.cpg/sg47_6_cif.got.tgz:10814.got - 2010.04.14 03:12:58.
