data_PCOD8200447
_publ_section_title
;
Structure prediction by ZEFSAII (Michael W. Deem and Ramdas Pophale) SiO2 
 PCOD8200447
Probable space group: P M M M
;
_chemical_formula_sum "Si O2"
_cell_formula_units_Z 44
_cell_length_a 21.445469
_cell_length_b 8.660658
_cell_length_c 13.733893
_cell_angle_alpha 90.000000
_cell_angle_beta 90.000000
_cell_angle_gamma 90.000000
_cell_volume 2550.821666
_symmetry_space_group_name_H-M "P M M M"
_symmetry_group_IT_number 47
_symmetry_cell_setting 'orthorhombic'
loop_
_space_group_symop_operation_xyz
x,y,z
-x,-y,z
x,-y,-z
-x,y,-z
-x,-y,-z
x,y,-z
-x,y,z
x,-y,z
loop_
_atom_site_type_symbol
_atom_site_label
_atom_site_fract_x
_atom_site_fract_y
_atom_site_fract_z
Si Si1 0.620670 0.319182 0.209274
Si Si2 0.809850 0.180879 0.707369
Si Si3 0.737211 0.820674 0.109582
Si Si4 0.500000 0.817530 0.889470
Si Si5 0.683901 0.182989 0.610620
Si Si6 0.931860 0.183659 0.610515
O O1 0.609347 0.500000 0.211186
O O2 0.677829 0.280159 0.138099
O O3 0.560012 0.238248 0.168107
O O4 0.633101 0.260670 0.319092
O O5 0.795472 0.220197 0.820284
O O6 0.752939 0.242492 0.640672
O O7 0.876081 0.256144 0.676191
O O8 0.815430 0.000000 0.689880
O O9 0.718440 0.000000 0.122194
O O10 0.757955 0.781994 0.000000
O O11 0.500000 0.000000 0.892201
O O12 0.500000 0.751638 0.000000
O O13 0.670044 0.233411 0.500000
O O14 0.679472 0.000000 0.624037
O O15 0.920093 0.236976 0.500000
O O16 0.000000 0.244476 0.646197
O O17 0.931703 0.000000 0.616583
#
# Coordination Sequence:
#
# PCOD8200447 Si02
#       6
#     8   8   8   4   8   8
#     4  11  22  34  50  74 101 123 147 186 234 278
#     4   8  13  22  38  60  85 116 155 193 227 268
#     4   9  17  30  47  65  87 118 156 194 232 277
#     4  11  23  39  58  75  94 123 157 190 224 269
#     4   9  17  31  51  71  93 125 162 194 225 269
#     4   8  12  17  28  51  84 118 149 184 229 278
#
# _framework density 17.249344000000001
#
# number of rings (size 3 to 8) (size 9 to 14) (size 15 to 20)
#    0.000    2.818    0.000    4.636    0.000    5.818 
#    0.000    0.455    0.000    3.273    0.000    3.818 
#    0.000   11.636    0.000   46.545    0.000   43.636 
#
# Total GULP energy -545350.342988 kJ/mol
# GULP energy per Si atom -12394.325977 kJ/mol
# Density = 1.721008 g / cm^3
# Si number density = 17.249344 Si / 1000 Ang^3
#
#
#
# Elastic Constant Matrix: (Units=GPa)
#
#
# Indices 1 2 3 4 5 6 
#
# 1 141.7328 21.1532 78.7274 0.0000 0.0000 0.0000
# 2 21.1532 37.8105 25.3580 0.0000 0.0000 0.0000
# 3 78.7274 25.3580 150.4963 0.0000 0.0000 0.0000
# 4 0.0000 0.0000 0.0000 9.3368 0.0000 0.0000
# 5 0.0000 0.0000 0.0000 0.0000 23.4348 0.0000
# 6 0.0000 0.0000 0.0000 0.0000 0.0000 -11.5330
#
#
#
# Elastic Compliance Matrix: (Units=1/GPa)
#
#
# Indices 1 2 3 4 5 6 
#
# 1 0.010132 -0.002383 -0.004899 0.000000 0.000000 0.000000
# 2 -0.002383 0.030378 -0.003872 0.000000 0.000000 0.000000
# 3 -0.004899 -0.003872 0.009860 0.000000 0.000000 0.000000
# 4 0.000000 0.000000 0.000000 0.107103 0.000000 0.000000
# 5 0.000000 0.000000 0.000000 0.000000 0.042672 0.000000
# 6 0.000000 0.000000 0.000000 0.000000 0.000000 -0.086708
#
#
# Mechanical properties :
#
#
# Convention : Reuss Voigt Hill
#
# Bulk Modulus (GPa) = 35.63531 64.50186 50.06859
# Shear Modulus (GPa) = 34.45934 17.90112 26.18023
#
# Velocity S-wave (km/s) = 4.47443 3.22496 3.90006
# Velocity P-wave (km/s) = 6.88461 7.16534 7.02638
#
# Compressibility (1/GPa) = 0.02806205
#
# Stress axis : x y z
#
# Youngs Moduli (GPa) = 98.69379 32.91903 101.42220
#
# Poissons Ratio (x) = 0.07845 0.49686
# Poissons Ratio (y) = 0.23519 0.39269
# Poissons Ratio (z) = 0.48349 0.12746
#
# Static dielectric constant tensor:
#      x y z
#    x 4.067740 0.000000 0.000000 
#    y 0.000000 2.836590 0.000000 
#    z 0.000000 0.000000 3.383520 
# 
# 
# High freq. dielectric constant tensor:
#      x y z
#    x 1.660420 0.000000 0.000000 
#    y 0.000000 1.627460 0.000000 
#    z 0.000000 0.000000 1.666880 
# 
# From -- ./inp_files/24907.got.cif
#   From: 2010.03.12/outbox.cif.g09.slc.cpg/sg47_13_cif.got.tgz:24907.got - 2010.04.14 03:12:58.
