data_PCOD8200487
_publ_section_title
;
Structure prediction by ZEFSAII (Michael W. Deem and Ramdas Pophale) SiO2 
 PCOD8200487
Probable space group: P M M M
;
_chemical_formula_sum "Si O2"
_cell_formula_units_Z 48
_cell_length_a 19.014951
_cell_length_b 8.656518
_cell_length_c 15.408091
_cell_angle_alpha 90.000000
_cell_angle_beta 90.000000
_cell_angle_gamma 90.000000
_cell_volume 2536.222095
_symmetry_space_group_name_H-M "P M M M"
_symmetry_group_IT_number 47
_symmetry_cell_setting 'orthorhombic'
loop_
_space_group_symop_operation_xyz
x,y,z
-x,-y,z
x,-y,-z
-x,y,-z
-x,-y,-z
x,y,-z
-x,y,z
x,-y,z
loop_
_atom_site_type_symbol
_atom_site_label
_atom_site_fract_x
_atom_site_fract_y
_atom_site_fract_z
Si Si1 0.827385 0.818057 0.155282
Si Si2 0.079444 0.185068 0.000000
Si Si3 0.821861 0.816504 0.348023
Si Si4 0.329406 0.682412 0.653312
Si Si5 0.417349 0.179728 0.500000
Si Si6 0.579051 0.183910 0.000000
Si Si7 0.331246 0.817018 0.838490
Si Si8 0.078587 0.816276 0.500000
O O1 0.880905 0.746698 0.084899
O O2 0.846539 0.761325 0.252380
O O3 0.747610 0.769112 0.133577
O O4 0.834684 0.000000 0.150181
O O5 0.000000 0.247968 0.000000
O O6 0.080510 0.000000 0.000000
O O7 0.747204 0.744668 0.373117
O O8 0.880594 0.757026 0.414891
O O9 0.812436 0.000000 0.351415
O O10 0.327821 0.500000 0.650255
O O11 0.386195 0.743841 0.585941
O O12 0.352782 0.737706 0.748643
O O13 0.500000 0.209982 0.500000
O O14 0.398457 0.000000 0.500000
O O15 0.617556 0.245114 0.913699
O O16 0.500000 0.248487 0.000000
O O17 0.580860 0.000000 0.000000
O O18 0.336911 0.000000 0.825168
O O19 0.000000 0.746272 0.500000
O O20 0.075251 0.000000 0.500000
#
# Coordination Sequence:
#
# PCOD8200487 Si02
#       8
#     8   4   8   8   4   4   8   4
#     4   8  14  24  39  60  87 123 161 197 243 297
#     4   9  15  21  33  60  96 126 156 205 266 311
#     4   9  17  31  51  72  98 133 172 212 255 306
#     4  11  22  36  56  81 108 137 175 221 264 309
#     4  11  24  41  60  80 104 137 174 211 258 318
#     4   9  17  29  50  79 104 130 170 215 252 297
#     4   9  17  32  53  75 102 136 174 214 258 308
#     4   9  17  28  46  74 102 127 160 207 260 308
#
# _framework density 18.925787
#
# number of rings (size 3 to 8) (size 9 to 14) (size 15 to 20)
#    0.000    2.667    0.000    3.750    0.000    4.667 
#    0.000    5.417    0.000    1.500    0.000    0.000 
#    0.000   10.667    0.000    0.000    0.000    0.000 
#
# Total GULP energy -595111.470020 kJ/mol
# GULP energy per Si atom -12398.155625 kJ/mol
# Density = 1.888271 g / cm^3
# Si number density = 18.925787 Si / 1000 Ang^3
#
#
#
# Elastic Constant Matrix: (Units=GPa)
#
#
# Indices 1 2 3 4 5 6 
#
# 1 149.0193 30.5576 108.5868 0.0000 0.0000 0.0000
# 2 30.5576 49.9091 28.7401 0.0000 0.0000 0.0000
# 3 108.5868 28.7401 149.9846 0.0000 0.0000 0.0000
# 4 0.0000 0.0000 0.0000 2.0585 0.0000 0.0000
# 5 0.0000 0.0000 0.0000 0.0000 23.2342 0.0000
# 6 0.0000 0.0000 0.0000 0.0000 0.0000 4.2207
#
#
#
# Elastic Compliance Matrix: (Units=1/GPa)
#
#
# Indices 1 2 3 4 5 6 
#
# 1 0.014649 -0.003217 -0.009989 0.000000 0.000000 0.000000
# 2 -0.003217 0.023228 -0.002122 0.000000 0.000000 0.000000
# 3 -0.009989 -0.002122 0.014306 0.000000 0.000000 0.000000
# 4 0.000000 0.000000 0.000000 0.485800 0.000000 0.000000
# 5 0.000000 0.000000 0.000000 0.000000 0.043040 0.000000
# 6 0.000000 0.000000 0.000000 0.000000 0.000000 0.236925
#
#
# Mechanical properties :
#
#
# Convention : Reuss Voigt Hill
#
# Bulk Modulus (GPa) = 46.45370 76.07577 61.26474
# Shear Modulus (GPa) = 5.84262 17.97125 11.90693
#
# Velocity S-wave (km/s) = 1.75893 3.08484 2.51098
# Velocity P-wave (km/s) = 5.35944 7.27822 6.39125
#
# Compressibility (1/GPa) = 0.02152681
#
# Stress axis : x y z
#
# Youngs Moduli (GPa) = 68.26289 43.05168 69.89975
#
# Poissons Ratio (x) = 0.13849 0.69826
# Poissons Ratio (y) = 0.21959 0.14833
# Poissons Ratio (z) = 0.68191 0.09136
#
# Static dielectric constant tensor:
#      x y z
#    x 3.622690 0.000000 0.000000 
#    y 0.000000 2.968560 0.000000 
#    z 0.000000 0.000000 3.861610 
# 
# 
# High freq. dielectric constant tensor:
#      x y z
#    x 1.733560 0.000000 0.000000 
#    y 0.000000 1.684690 0.000000 
#    z 0.000000 0.000000 1.753490 
# 
# From -- ./inp_files/24527.got.cif
#   From: 2010.03.12/outbox.cif.g09.slc.cpg/sg47_13_cif.got.tgz:24527.got - 2010.04.14 03:12:58.
