data_PCOD8200333
_publ_section_title
;
Structure prediction by ZEFSAII (Michael W. Deem and Ramdas Pophale) SiO2 
 PCOD8200333
Probable space group: P M M M
;
_chemical_formula_sum "Si O2"
_cell_formula_units_Z 32
_cell_length_a 12.642665
_cell_length_b 13.568029
_cell_length_c 10.311151
_cell_angle_alpha 90.000000
_cell_angle_beta 90.000000
_cell_angle_gamma 90.000000
_cell_volume 1768.734066
_symmetry_space_group_name_H-M "P M M M"
_symmetry_group_IT_number 47
_symmetry_cell_setting 'orthorhombic'
loop_
_space_group_symop_operation_xyz
x,y,z
-x,-y,z
x,-y,-z
-x,y,-z
-x,-y,-z
x,y,-z
-x,y,z
x,-y,z
loop_
_atom_site_type_symbol
_atom_site_label
_atom_site_fract_x
_atom_site_fract_y
_atom_site_fract_z
Si Si1 0.307952 0.259465 0.854910
Si Si2 0.500000 0.608567 0.153336
Si Si3 0.878380 0.382694 0.780510
Si Si4 0.377016 0.114583 0.647020
Si Si5 0.876092 0.393999 0.500000
O O1 0.395853 0.334398 0.800075
O O2 0.197513 0.318478 0.870768
O O3 0.303994 0.169735 0.752885
O O4 0.336148 0.220359 0.000000
O O5 0.500000 0.500000 0.217416
O O6 0.500000 0.598716 0.000000
O O7 0.857490 0.500000 0.794459
O O8 0.848291 0.341445 0.635611
O O9 0.000000 0.360056 0.816845
O O10 0.351555 0.150517 0.500000
O O11 0.500000 0.133669 0.679104
O O12 0.349927 0.000000 0.659277
O O13 0.818428 0.500000 0.500000
O O14 0.000000 0.413992 0.500000
#
# Coordination Sequence:
#
# PCOD8200333 Si02
#       5
#     8   4   8   8   4
#     4  11  21  32  51  79 107 139 175 212 260 313
#     4   9  18  32  46  67 106 146 173 201 246 307
#     4   9  18  32  50  74 106 144 185 222 254 297
#     4   9  19  37  59  80 103 132 169 217 269 318
#     4   7  12  26  46  67  92 127 174 221 257 286
#
# _framework density 18.092037000000001
#
# number of rings (size 3 to 8) (size 9 to 14) (size 15 to 20)
#    0.000    2.750    1.250    3.000    1.750    2.500 
#    0.000    2.500    0.000    1.500    0.000    3.500 
#    0.000    0.000    0.000    0.000    0.000    0.000 
#
# Total GULP energy -396447.242791 kJ/mol
# GULP energy per Si atom -12388.976337 kJ/mol
# Density = 1.805086 g / cm^3
# Si number density = 18.092037 Si / 1000 Ang^3
#
#
#
# Elastic Constant Matrix: (Units=GPa)
#
#
# Indices 1 2 3 4 5 6 
#
# 1 80.4824 36.8967 24.7864 0.0000 0.0000 0.0000
# 2 36.8967 74.2937 44.5092 0.0000 0.0000 0.0000
# 3 24.7864 44.5092 92.5659 0.0000 0.0000 0.0000
# 4 0.0000 0.0000 0.0000 30.0500 0.0000 0.0000
# 5 0.0000 0.0000 0.0000 0.0000 20.9701 0.0000
# 6 0.0000 0.0000 0.0000 0.0000 0.0000 20.7143
#
#
#
# Elastic Compliance Matrix: (Units=1/GPa)
#
#
# Indices 1 2 3 4 5 6 
#
# 1 0.016116 -0.007611 -0.000656 0.000000 0.000000 0.000000
# 2 -0.007611 0.022501 -0.008781 0.000000 0.000000 0.000000
# 3 -0.000656 -0.008781 0.015201 0.000000 0.000000 0.000000
# 4 0.000000 0.000000 0.000000 0.033278 0.000000 0.000000
# 5 0.000000 0.000000 0.000000 0.000000 0.047687 0.000000
# 6 0.000000 0.000000 0.000000 0.000000 0.000000 0.048276
#
#
# Mechanical properties :
#
#
# Convention : Reuss Voigt Hill
#
# Bulk Modulus (GPa) = 50.70464 51.08076 50.89270
# Shear Modulus (GPa) = 22.34849 23.75686 23.05268
#
# Velocity S-wave (km/s) = 3.51845 3.62762 3.57345
# Velocity P-wave (km/s) = 6.67778 6.77062 6.72436
#
# Compressibility (1/GPa) = 0.01972206
#
# Stress axis : x y z
#
# Youngs Moduli (GPa) = 62.04915 44.44291 65.78484
#
# Poissons Ratio (x) = 0.33825 0.04314
# Poissons Ratio (y) = 0.47225 0.57767
# Poissons Ratio (z) = 0.04069 0.39026
#
# Static dielectric constant tensor:
#      x y z
#    x 3.077350 0.000000 0.000000 
#    y 0.000000 3.074300 0.000000 
#    z 0.000000 0.000000 3.537120 
# 
# 
# High freq. dielectric constant tensor:
#      x y z
#    x 1.679150 0.000000 0.000000 
#    y 0.000000 1.667320 0.000000 
#    z 0.000000 0.000000 1.705890 
# 
# From -- ./inp_files/14705.got.cif
#   From: 2010.03.12/outbox.cif.g09.slc.cpg/sg47_8_cif.got.tgz:14705.got - 2010.04.14 03:12:58.
