data_PCOD8200670
_publ_section_title
;
Structure prediction by ZEFSAII (Michael W. Deem and Ramdas Pophale) SiO2 
 PCOD8200670
Probable space group: P M M M
;
_chemical_formula_sum "Si O2"
_cell_formula_units_Z 52
_cell_length_a 9.121274
_cell_length_b 33.559969
_cell_length_c 10.016313
_cell_angle_alpha 90.000000
_cell_angle_beta 90.000000
_cell_angle_gamma 90.000000
_cell_volume 3066.090294
_symmetry_space_group_name_H-M "P M M M"
_symmetry_group_IT_number 47
_symmetry_cell_setting 'orthorhombic'
loop_
_space_group_symop_operation_xyz
x,y,z
-x,-y,z
x,-y,-z
-x,y,-z
-x,-y,-z
x,y,-z
-x,y,z
x,-y,z
loop_
_atom_site_type_symbol
_atom_site_label
_atom_site_fract_x
_atom_site_fract_y
_atom_site_fract_z
Si Si1 0.340011 0.000000 0.341919
Si Si2 0.172339 0.611543 0.347172
Si Si3 0.672387 0.307485 0.347220
Si Si4 0.174183 0.455702 0.149504
Si Si5 0.324080 0.914374 0.650201
Si Si6 0.674324 0.151556 0.149612
Si Si7 0.325762 0.759788 0.850548
O O1 0.260912 0.041935 0.303032
O O2 0.500000 0.000000 0.273237
O O3 0.360012 0.000000 0.500000
O O4 0.210464 0.600948 0.500000
O O5 0.250086 0.652016 0.301836
O O6 0.236551 0.576051 0.255465
O O7 0.000000 0.617278 0.326369
O O8 0.710880 0.296892 0.500000
O O9 0.500000 0.313177 0.326822
O O10 0.736404 0.272035 0.255254
O O11 0.232717 0.500000 0.185877
O O12 0.000000 0.455926 0.156252
O O13 0.225859 0.443975 0.000000
O O14 0.271935 0.904214 0.500000
O O15 0.500000 0.915906 0.655345
O O16 0.258729 0.880625 0.747844
O O17 0.500000 0.150743 0.157606
O O18 0.730806 0.195896 0.187770
O O19 0.726055 0.140631 0.000000
O O20 0.500000 0.759647 0.845855
O O21 0.272262 0.748536 0.000000
#
# Coordination Sequence:
#
# PCOD8200670 Si02
#       7
#     4   8   8   8   8   8   8
#     4   7  10  16  23  31  45  65  91 125 164 205
#     4   9  17  28  42  61  83 104 126 154 188 223
#     4   9  17  28  41  57  77 100 126 156 187 220
#     4   8  14  25  41  61  83 104 127 157 189 217
#     4   8  12  17  25  35  47  67  96 129 166 208
#     4   8  13  20  28  39  56  75  97 131 173 211
#     4   8  14  24  36  49  66  89 116 146 182 222
#
# _framework density 16.959709
#
# number of rings (size 3 to 8) (size 9 to 14) (size 15 to 20)
#    0.000    3.769    0.000    2.308    0.000    1.538 
#    0.000    5.000    0.000    2.769    0.000    3.231 
#    0.000    0.000    0.000    0.000    0.000    0.000 
#
# Total GULP energy -644230.987912 kJ/mol
# GULP energy per Si atom -12389.057460 kJ/mol
# Density = 1.692111 g / cm^3
# Si number density = 16.959709 Si / 1000 Ang^3
#
#
#
# Elastic Constant Matrix: (Units=GPa)
#
#
# Indices 1 2 3 4 5 6 
#
# 1 5.2714 14.6807 10.3098 0.0000 0.0000 0.0000
# 2 14.6807 184.7812 113.5739 0.0000 0.0000 0.0000
# 3 10.3098 113.5739 115.2002 0.0000 0.0000 0.0000
# 4 0.0000 0.0000 0.0000 35.0859 0.0000 0.0000
# 5 0.0000 0.0000 0.0000 0.0000 7.0626 0.0000
# 6 0.0000 0.0000 0.0000 0.0000 0.0000 -3.2427
#
#
#
# Elastic Compliance Matrix: (Units=1/GPa)
#
#
# Indices 1 2 3 4 5 6 
#
# 1 0.245788 -0.015246 -0.006966 0.000000 0.000000 0.000000
# 2 -0.015246 0.014680 -0.013108 0.000000 0.000000 0.000000
# 3 -0.006966 -0.013108 0.022227 0.000000 0.000000 0.000000
# 4 0.000000 0.000000 0.000000 0.028501 0.000000 0.000000
# 5 0.000000 0.000000 0.000000 0.000000 0.141591 0.000000
# 6 0.000000 0.000000 0.000000 0.000000 0.000000 -0.308385
#
#
# Mechanical properties :
#
#
# Convention : Reuss Voigt Hill
#
# Bulk Modulus (GPa) = 4.71577 64.70905 34.71241
# Shear Modulus (GPa) = 17.49915 18.89372 18.19644
#
# Velocity S-wave (km/s) = 3.21566 3.34134 3.27910
# Velocity P-wave (km/s) = 4.07111 7.28858 5.90328
#
# Compressibility (1/GPa) = 0.21205449
#
# Stress axis : x y z
#
# Youngs Moduli (GPa) = 4.06855 68.12008 44.99002
#
# Poissons Ratio (x) = 1.03857 0.31339
# Poissons Ratio (y) = 0.06203 0.58974
# Poissons Ratio (z) = 0.02834 0.89294
#
# Static dielectric constant tensor:
#      x y z
#    x 2.448050 0.000000 0.000000 
#    y 0.000000 3.675040 0.000000 
#    z 0.000000 0.000000 3.321230 
# 
# 
# High freq. dielectric constant tensor:
#      x y z
#    x 1.572250 0.000000 0.000000 
#    y 0.000000 1.669750 0.000000 
#    z 0.000000 0.000000 1.649340 
# 
# From -- ./inp_files/15453.got.cif
#   From: 2010.03.12/outbox.cif.g09.slc.cpg/sg47_8_cif.got.tgz:15453.got - 2010.04.14 03:12:58.
