data_PCOD8200683
_publ_section_title
;
Structure prediction by ZEFSAII (Michael W. Deem and Ramdas Pophale) SiO2 
 PCOD8200683
Probable space group: P M M M
;
_chemical_formula_sum "Si O2"
_cell_formula_units_Z 44
_cell_length_a 13.664224
_cell_length_b 21.819869
_cell_length_c 9.571677
_cell_angle_alpha 90.000000
_cell_angle_beta 90.000000
_cell_angle_gamma 90.000000
_cell_volume 2853.810598
_symmetry_space_group_name_H-M "P M M M"
_symmetry_group_IT_number 47
_symmetry_cell_setting 'orthorhombic'
loop_
_space_group_symop_operation_xyz
x,y,z
-x,-y,z
x,-y,-z
-x,y,-z
-x,-y,-z
x,y,-z
-x,y,z
x,-y,z
loop_
_atom_site_type_symbol
_atom_site_label
_atom_site_fract_x
_atom_site_fract_y
_atom_site_fract_z
Si Si1 0.390118 0.369067 0.833482
Si Si2 0.390445 0.144549 0.340677
Si Si3 0.109861 0.171880 0.160836
Si Si4 0.616291 0.500000 0.153220
Si Si5 0.704068 0.753977 0.836367
Si Si6 0.795976 0.930371 0.662595
O O1 0.500000 0.353240 0.780518
O O2 0.354087 0.435495 0.770810
O O3 0.315495 0.315669 0.785460
O O4 0.391603 0.375136 0.000000
O O5 0.376710 0.166637 0.500000
O O6 0.500000 0.119726 0.314177
O O7 0.371570 0.202283 0.242057
O O8 0.315651 0.089669 0.306175
O O9 0.184416 0.226826 0.200662
O O10 0.129153 0.111656 0.252205
O O11 0.000000 0.195621 0.189974
O O12 0.124056 0.152877 0.000000
O O13 0.500000 0.500000 0.138217
O O14 0.665268 0.500000 0.000000
O O15 0.682114 0.760402 0.000000
O O16 0.821631 0.923583 0.500000
O O17 0.808585 0.000000 0.713222
#
# Coordination Sequence:
#
# PCOD8200683 Si02
#       6
#     8   8   8   4   8   8
#     4   8  12  18  31  53  79 103 126 154 187 220
#     4   9  17  28  41  58  81 106 128 152 186 227
#     4   9  18  31  44  58  77 100 126 159 200 240
#     4   7  10  16  26  46  78 106 124 149 185 219
#     4   9  16  26  41  59  77 100 132 165 193 224
#     4   9  18  31  45  61  79  99 126 158 190 228
#
# _framework density 15.417982
#
# number of rings (size 3 to 8) (size 9 to 14) (size 15 to 20)
#    0.000    3.364    0.000    1.636    0.000    2.545 
#    0.000    3.636    0.000    0.000    0.000    6.364 
#    0.000    8.727    0.000    0.000    0.000   16.091 
#
# Total GULP energy -545188.352990 kJ/mol
# GULP energy per Si atom -12390.644386 kJ/mol
# Density = 1.538289 g / cm^3
# Si number density = 15.417982 Si / 1000 Ang^3
#
#
#
# Elastic Constant Matrix: (Units=GPa)
#
#
# Indices 1 2 3 4 5 6 
#
# 1 84.0903 49.0733 19.8824 0.0000 0.0000 0.0000
# 2 49.0733 139.9383 26.9902 0.0000 0.0000 0.0000
# 3 19.8824 26.9902 24.4738 0.0000 0.0000 0.0000
# 4 0.0000 0.0000 0.0000 7.7076 0.0000 0.0000
# 5 0.0000 0.0000 0.0000 0.0000 16.3091 0.0000
# 6 0.0000 0.0000 0.0000 0.0000 0.0000 16.0661
#
#
#
# Elastic Compliance Matrix: (Units=1/GPa)
#
#
# Indices 1 2 3 4 5 6 
#
# 1 0.016327 -0.004023 -0.008827 0.000000 0.000000 0.000000
# 2 -0.004023 0.010068 -0.007835 0.000000 0.000000 0.000000
# 3 -0.008827 -0.007835 0.056672 0.000000 0.000000 0.000000
# 4 0.000000 0.000000 0.000000 0.129742 0.000000 0.000000
# 5 0.000000 0.000000 0.000000 0.000000 0.061315 0.000000
# 6 0.000000 0.000000 0.000000 0.000000 0.000000 0.062243
#
#
# Mechanical properties :
#
#
# Convention : Reuss Voigt Hill
#
# Bulk Modulus (GPa) = 23.98296 48.93270 36.45783
# Shear Modulus (GPa) = 12.76698 18.18699 15.47699
#
# Velocity S-wave (km/s) = 2.88072 3.43825 3.17176
# Velocity P-wave (km/s) = 5.16272 6.89699 6.09188
#
# Compressibility (1/GPa) = 0.04169627
#
# Stress axis : x y z
#
# Youngs Moduli (GPa) = 61.24893 99.32569 17.64549
#
# Poissons Ratio (x) = 0.39958 0.15576
# Poissons Ratio (y) = 0.24640 0.13825
# Poissons Ratio (z) = 0.54066 0.77820
#
# Static dielectric constant tensor:
#      x y z
#    x 2.891040 0.000000 0.000000 
#    y 0.000000 3.241490 0.000000 
#    z 0.000000 0.000000 2.742050 
# 
# 
# High freq. dielectric constant tensor:
#      x y z
#    x 1.572580 0.000000 0.000000 
#    y 0.000000 1.589460 0.000000 
#    z 0.000000 0.000000 1.562700 
# 
# From -- ./inp_files/6834.got.cif
#   From: 2010.03.12/outbox.cif.g09.slc.cpg/sg47_4_cif.got.tgz:6834.got - 2010.04.14 03:12:58.
