data_PCOD8200036
_publ_section_title
;
Structure prediction by ZEFSAII (Michael W. Deem and Ramdas Pophale) SiO2 
 PCOD8200036
Probable space group: P M M M
;
_chemical_formula_sum "Si O2"
_cell_formula_units_Z 44
_cell_length_a 7.915521
_cell_length_b 18.350225
_cell_length_c 14.959030
_cell_angle_alpha 90.000000
_cell_angle_beta 90.000000
_cell_angle_gamma 90.000000
_cell_volume 2172.822912
_symmetry_space_group_name_H-M "P M M M"
_symmetry_group_IT_number 47
_symmetry_cell_setting 'orthorhombic'
loop_
_space_group_symop_operation_xyz
x,y,z
-x,-y,z
x,-y,-z
-x,y,-z
-x,-y,-z
x,y,-z
-x,y,z
x,-y,z
loop_
_atom_site_type_symbol
_atom_site_label
_atom_site_fract_x
_atom_site_fract_y
_atom_site_fract_z
Si Si1 0.808936 0.084911 0.271797
Si Si2 0.188343 0.680305 0.847716
Si Si3 0.698055 0.582834 0.500000
Si Si4 0.500000 0.086520 0.397055
Si Si5 0.690942 0.414484 0.000000
Si Si6 0.700996 0.416077 0.691445
Si Si7 0.308530 0.832212 0.101537
O O1 0.668773 0.113821 0.343586
O O2 0.795268 0.122817 0.174962
O O3 0.000000 0.099397 0.308499
O O4 0.777947 0.000000 0.255519
O O5 0.217920 0.645507 0.751859
O O6 0.309849 0.747033 0.871812
O O7 0.000000 0.711693 0.854250
O O8 0.213408 0.613253 0.913627
O O9 0.751911 0.500000 0.500000
O O10 0.500000 0.591581 0.500000
O O11 0.764656 0.613837 0.405809
O O12 0.500000 0.117041 0.500000
O O13 0.500000 0.000000 0.401769
O O14 0.697833 0.500000 0.000000
O O15 0.500000 0.385377 0.000000
O O16 0.500000 0.414661 0.701572
O O17 0.761424 0.500000 0.709912
O O18 0.500000 0.860257 0.103892
O O19 0.235561 0.842387 0.000000
#
# Coordination Sequence:
#
# PCOD8200036 Si02
#       7
#     8   8   4   4   4   8   8
#     4  10  21  38  63  96 130 163 204 251 299 356
#     4  12  24  36  53  79 111 146 185 232 291 355
#     4   7  12  26  51  79 101 129 176 227 274 329
#     4   9  18  36  63  95 131 167 204 247 298 352
#     4  11  23  39  57  77 104 141 190 241 287 347
#     4   9  17  32  55  79 104 138 182 231 281 339
#     4  11  23  40  63  85 113 157 204 249 301 364
#
# _framework density 20.250156
#
# number of rings (size 3 to 8) (size 9 to 14) (size 15 to 20)
#    0.000    1.909    1.818    4.091    0.000    5.091 
#    0.000    4.091    2.000    1.636    0.000    0.000 
#    0.000    0.000    0.000    0.000    0.000    0.000 
#
# Total GULP energy -545174.360324 kJ/mol
# GULP energy per Si atom -12390.326371 kJ/mol
# Density = 2.020407 g / cm^3
# Si number density = 20.250156 Si / 1000 Ang^3
#
#
#
# Elastic Constant Matrix: (Units=GPa)
#
#
# Indices 1 2 3 4 5 6 
#
# 1 96.7306 21.0750 44.7604 0.0000 0.0000 0.0000
# 2 21.0750 49.6681 38.8867 0.0000 0.0000 0.0000
# 3 44.7604 38.8867 172.9859 0.0000 0.0000 0.0000
# 4 0.0000 0.0000 0.0000 17.8803 0.0000 0.0000
# 5 0.0000 0.0000 0.0000 0.0000 37.9231 0.0000
# 6 0.0000 0.0000 0.0000 0.0000 0.0000 19.1855
#
#
#
# Elastic Compliance Matrix: (Units=1/GPa)
#
#
# Indices 1 2 3 4 5 6 
#
# 1 0.012168 -0.003274 -0.002412 0.000000 0.000000 0.000000
# 2 -0.003274 0.025315 -0.004844 0.000000 0.000000 0.000000
# 3 -0.002412 -0.004844 0.007494 0.000000 0.000000 0.000000
# 4 0.000000 0.000000 0.000000 0.055927 0.000000 0.000000
# 5 0.000000 0.000000 0.000000 0.000000 0.026369 0.000000
# 6 0.000000 0.000000 0.000000 0.000000 0.000000 0.052123
#
#
# Mechanical properties :
#
#
# Convention : Reuss Voigt Hill
#
# Bulk Modulus (GPa) = 41.81244 58.75876 50.28560
# Shear Modulus (GPa) = 23.98906 29.30860 26.64883
#
# Velocity S-wave (km/s) = 3.44559 3.80850 3.63158
# Velocity P-wave (km/s) = 6.04336 6.95838 6.51695
#
# Compressibility (1/GPa) = 0.02391633
#
# Stress axis : x y z
#
# Youngs Moduli (GPa) = 82.18520 39.50208 133.44291
#
# Poissons Ratio (x) = 0.12934 0.32191
# Poissons Ratio (y) = 0.26909 0.64634
# Poissons Ratio (z) = 0.19826 0.19133
#
# Static dielectric constant tensor:
#      x y z
#    x 3.708900 0.000000 0.000000 
#    y 0.000000 3.319670 0.000000 
#    z 0.000000 0.000000 4.164570 
# 
# 
# High freq. dielectric constant tensor:
#      x y z
#    x 1.787120 0.000000 0.000000 
#    y 0.000000 1.758360 0.000000 
#    z 0.000000 0.000000 1.804130 
# 
# From -- ./inp_files/20976.got.cif
#   From: 2010.03.12/outbox.cif.g09.slc.cpg/sg47_11_cif.got.tgz:20976.got - 2010.04.14 03:12:58.
