data_PCOD8200229
_publ_section_title
;
Structure prediction by ZEFSAII (Michael W. Deem and Ramdas Pophale) SiO2 
 PCOD8200229
Probable space group: P M M M
;
_chemical_formula_sum "Si O2"
_cell_formula_units_Z 52
_cell_length_a 18.480014
_cell_length_b 8.878401
_cell_length_c 17.844181
_cell_angle_alpha 90.000000
_cell_angle_beta 90.000000
_cell_angle_gamma 90.000000
_cell_volume 2927.747859
_symmetry_space_group_name_H-M "P M M M"
_symmetry_group_IT_number 47
_symmetry_cell_setting 'orthorhombic'
loop_
_space_group_symop_operation_xyz
x,y,z
-x,-y,z
x,-y,-z
-x,y,-z
-x,-y,-z
x,y,-z
-x,y,z
x,-y,z
loop_
_atom_site_type_symbol
_atom_site_label
_atom_site_fract_x
_atom_site_fract_y
_atom_site_fract_z
Si Si1 0.577600 0.323640 0.130485
Si Si2 0.914486 0.827484 0.500000
Si Si3 0.267471 0.677019 0.915991
Si Si4 0.318719 0.826567 0.417168
Si Si5 0.378970 0.833670 0.269777
Si Si6 0.787203 0.830974 0.224401
Si Si7 0.826552 0.677968 0.629295
O O1 0.500000 0.262769 0.097660
O O2 0.578570 0.500000 0.119693
O O3 0.649753 0.256563 0.091366
O O4 0.578680 0.285147 0.219029
O O5 0.887267 0.747050 0.575450
O O6 0.000000 0.817621 0.500000
O O7 0.887002 0.000000 0.500000
O O8 0.268992 0.500000 0.899109
O O9 0.211905 0.752595 0.857706
O O10 0.240266 0.712117 0.000000
O O11 0.350658 0.801406 0.500000
O O12 0.383486 0.790486 0.358014
O O13 0.251048 0.717246 0.405575
O O14 0.292684 0.000000 0.405498
O O15 0.294195 0.830402 0.252735
O O16 0.411099 0.000000 0.254079
O O17 0.835340 0.742628 0.285836
O O18 0.817717 0.000000 0.215802
O O19 0.836349 0.500000 0.632848
#
# Coordination Sequence:
#
# PCOD8200229 Si02
#       7
#     8   4   8   8   8   8   8
#     4   9  17  28  41  57  79 112 150 185 228 285
#     4  11  23  37  51  69 101 143 176 199 226 261
#     4   9  17  29  45  67  94 119 147 192 245 291
#     4   9  16  27  44  63  86 112 142 184 233 283
#     4   8  15  26  40  59  78 103 140 184 231 275
#     4   9  17  30  47  65  89 122 156 191 233 283
#     4  11  20  30  47  71  97 125 161 199 233 271
#
# _framework density 17.761092999999999
#
# number of rings (size 3 to 8) (size 9 to 14) (size 15 to 20)
#    0.000    2.692    0.769    3.000    0.000    5.231 
#    0.000    1.538    0.000    0.462    0.000    7.538 
#    0.000    0.615    0.000    6.462    0.000    2.769 
#
# Total GULP energy -644283.155510 kJ/mol
# GULP energy per Si atom -12390.060683 kJ/mol
# Density = 1.772067 g / cm^3
# Si number density = 17.761093 Si / 1000 Ang^3
#
#
#
# Elastic Constant Matrix: (Units=GPa)
#
#
# Indices 1 2 3 4 5 6 
#
# 1 31.6277 20.8811 20.7039 0.0000 0.0000 0.0000
# 2 20.8811 87.6870 45.5340 0.0000 0.0000 0.0000
# 3 20.7039 45.5340 137.8736 0.0000 0.0000 0.0000
# 4 0.0000 0.0000 0.0000 28.2371 0.0000 0.0000
# 5 0.0000 0.0000 0.0000 0.0000 10.5962 0.0000
# 6 0.0000 0.0000 0.0000 0.0000 0.0000 13.4520
#
#
#
# Elastic Compliance Matrix: (Units=1/GPa)
#
#
# Indices 1 2 3 4 5 6 
#
# 1 0.038754 -0.007491 -0.003345 0.000000 0.000000 0.000000
# 2 -0.007491 0.015213 -0.003899 0.000000 0.000000 0.000000
# 3 -0.003345 -0.003899 0.009043 0.000000 0.000000 0.000000
# 4 0.000000 0.000000 0.000000 0.035414 0.000000 0.000000
# 5 0.000000 0.000000 0.000000 0.000000 0.094374 0.000000
# 6 0.000000 0.000000 0.000000 0.000000 0.000000 0.074339
#
#
# Mechanical properties :
#
#
# Convention : Reuss Voigt Hill
#
# Bulk Modulus (GPa) = 29.81712 47.93624 38.87668
# Shear Modulus (GPa) = 16.24499 21.79501 19.02000
#
# Velocity S-wave (km/s) = 3.02758 3.50683 3.27598
# Velocity P-wave (km/s) = 5.38943 6.59130 6.02043
#
# Compressibility (1/GPa) = 0.03353778
#
# Stress axis : x y z
#
# Youngs Moduli (GPa) = 25.80406 65.73365 110.58097
#
# Poissons Ratio (x) = 0.49243 0.36994
# Poissons Ratio (y) = 0.19331 0.43118
# Poissons Ratio (z) = 0.08632 0.25631
#
# Static dielectric constant tensor:
#      x y z
#    x 2.888830 0.000000 0.000000 
#    y 0.000000 3.312320 0.000000 
#    z 0.000000 0.000000 3.649160 
# 
# 
# High freq. dielectric constant tensor:
#      x y z
#    x 1.621570 0.000000 0.000000 
#    y 0.000000 1.682170 0.000000 
#    z 0.000000 0.000000 1.697380 
# 
# From -- ./inp_files/28489.got.cif
#   From: 2010.03.12/outbox.cif.g09.slc.cpg/sg47_15_cif.got.tgz:28489.got - 2010.04.14 03:12:58.
