data_PCOD8200112
_publ_section_title
;
Structure prediction by ZEFSAII (Michael W. Deem and Ramdas Pophale) SiO2 
 PCOD8200112
Probable space group: P M M M
;
_chemical_formula_sum "Si O2"
_cell_formula_units_Z 48
_cell_length_a 29.015049
_cell_length_b 9.687220
_cell_length_c 9.122488
_cell_angle_alpha 90.000000
_cell_angle_beta 90.000000
_cell_angle_gamma 90.000000
_cell_volume 2564.104801
_symmetry_space_group_name_H-M "P M M M"
_symmetry_group_IT_number 47
_symmetry_cell_setting 'orthorhombic'
loop_
_space_group_symop_operation_xyz
x,y,z
-x,-y,z
x,-y,-z
-x,y,-z
-x,-y,-z
x,y,-z
-x,y,z
x,-y,z
loop_
_atom_site_type_symbol
_atom_site_label
_atom_site_fract_x
_atom_site_fract_y
_atom_site_fract_z
Si Si1 0.446532 0.500000 0.174401
Si Si2 0.860201 0.157649 0.827168
Si Si3 0.404164 0.756238 0.329204
Si Si4 0.224985 0.340935 0.826106
Si Si5 0.050337 0.836118 0.335155
Si Si6 0.446956 0.000000 0.838380
Si Si7 0.700687 0.158379 0.330533
O O1 0.500000 0.500000 0.227150
O O2 0.417291 0.624289 0.237156
O O3 0.444522 0.500000 0.000000
O O4 0.819957 0.258115 0.770005
O O5 0.908261 0.218624 0.765772
O O6 0.850670 0.000000 0.773006
O O7 0.863869 0.161220 0.000000
O O8 0.415403 0.734690 0.500000
O O9 0.435903 0.871722 0.261915
O O10 0.351473 0.797042 0.304825
O O11 0.222888 0.500000 0.771507
O O12 0.269125 0.264340 0.761882
O O13 0.228498 0.335115 0.000000
O O14 0.058793 0.783021 0.500000
O O15 0.000000 0.782819 0.279249
O O16 0.050204 0.000000 0.331306
O O17 0.500000 0.000000 0.873102
O O18 0.421960 0.000000 0.000000
O O19 0.714537 0.171035 0.500000
O O20 0.707603 0.000000 0.276845
#
# Coordination Sequence:
#
# PCOD8200112 Si02
#       7
#     4   8   8   8   8   4   8
#     4  11  25  43  61  87 123 157 193 237 282 333
#     4   9  17  30  49  74 105 139 178 225 273 323
#     4  11  23  41  63  88 118 154 194 235 282 339
#     4  10  22  38  56  81 111 145 185 228 276 333
#     4   8  14  25  43  70 103 136 173 220 272 324
#     4  11  23  39  61  91 123 153 189 235 284 333
#     4  10  22  41  61  84 113 143 180 229 280 330
#
# _framework density 18.719985000000001
#
# number of rings (size 3 to 8) (size 9 to 14) (size 15 to 20)
#    0.000    2.167    0.833    2.500    1.167    7.000 
#    0.000    3.333    0.000    0.500    0.000    3.500 
#    0.000    0.000    0.000    0.000    0.000    0.000 
#
# Total GULP energy -595000.061382 kJ/mol
# GULP energy per Si atom -12395.834612 kJ/mol
# Density = 1.867738 g / cm^3
# Si number density = 18.719985 Si / 1000 Ang^3
#
#
#
# Elastic Constant Matrix: (Units=GPa)
#
#
# Indices 1 2 3 4 5 6 
#
# 1 99.9111 49.8840 39.6180 0.0000 0.0000 0.0000
# 2 49.8840 129.3060 34.4926 0.0000 0.0000 0.0000
# 3 39.6180 34.4926 50.3051 0.0000 0.0000 0.0000
# 4 0.0000 0.0000 0.0000 28.3654 0.0000 0.0000
# 5 0.0000 0.0000 0.0000 0.0000 33.8191 0.0000
# 6 0.0000 0.0000 0.0000 0.0000 0.0000 20.7326
#
#
#
# Elastic Compliance Matrix: (Units=1/GPa)
#
#
# Indices 1 2 3 4 5 6 
#
# 1 0.015668 -0.003369 -0.010029 0.000000 0.000000 0.000000
# 2 -0.003369 0.010189 -0.004333 0.000000 0.000000 0.000000
# 3 -0.010029 -0.004333 0.030748 0.000000 0.000000 0.000000
# 4 0.000000 0.000000 0.000000 0.035254 0.000000 0.000000
# 5 0.000000 0.000000 0.000000 0.000000 0.029569 0.000000
# 6 0.000000 0.000000 0.000000 0.000000 0.000000 0.048233
#
#
# Mechanical properties :
#
#
# Convention : Reuss Voigt Hill
#
# Bulk Modulus (GPa) = 47.29785 58.61239 52.95512
# Shear Modulus (GPa) = 23.56573 26.95191 25.25882
#
# Velocity S-wave (km/s) = 3.55188 3.79851 3.67726
# Velocity P-wave (km/s) = 6.49169 7.11451 6.81022
#
# Compressibility (1/GPa) = 0.02114261
#
# Stress axis : x y z
#
# Youngs Moduli (GPa) = 63.82443 98.14334 32.52212
#
# Poissons Ratio (x) = 0.33066 0.32617
# Poissons Ratio (y) = 0.21503 0.14092
# Poissons Ratio (z) = 0.64011 0.42526
#
# Static dielectric constant tensor:
#      x y z
#    x 3.749130 0.000000 0.000000 
#    y 0.000000 3.378720 0.000000 
#    z 0.000000 0.000000 3.473570 
# 
# 
# High freq. dielectric constant tensor:
#      x y z
#    x 1.738010 0.000000 0.000000 
#    y 0.000000 1.714710 0.000000 
#    z 0.000000 0.000000 1.725530 
# 
# From -- ./inp_files/13877.got.cif
#   From: 2010.03.12/outbox.cif.g09.slc.cpg/sg47_7_cif.got.tgz:13877.got - 2010.04.14 03:12:58.
