data_PCOD8200148
_publ_section_title
;
Structure prediction by ZEFSAII (Michael W. Deem and Ramdas Pophale) SiO2 
 PCOD8200148
Probable space group: P M M M
;
_chemical_formula_sum "Si O2"
_cell_formula_units_Z 64
_cell_length_a 23.744351
_cell_length_b 15.198904
_cell_length_c 8.938700
_cell_angle_alpha 90.000000
_cell_angle_beta 90.000000
_cell_angle_gamma 90.000000
_cell_volume 3225.870561
_symmetry_space_group_name_H-M "P M M M"
_symmetry_group_IT_number 47
_symmetry_cell_setting 'orthorhombic'
loop_
_space_group_symop_operation_xyz
x,y,z
-x,-y,z
x,-y,-z
-x,y,-z
-x,-y,-z
x,y,-z
-x,y,z
x,-y,z
loop_
_atom_site_type_symbol
_atom_site_label
_atom_site_fract_x
_atom_site_fract_y
_atom_site_fract_z
Si Si1 0.347075 0.776601 0.175523
Si Si2 0.167353 0.159559 0.824975
Si Si3 0.288516 0.598317 0.826294
Si Si4 0.062947 0.897403 0.669115
Si Si5 0.181203 0.335966 0.321422
Si Si6 0.434475 0.900830 0.326330
Si Si7 0.264062 0.903690 0.668800
Si Si8 0.939055 0.599037 0.322625
O O1 0.332633 0.675259 0.226310
O O2 0.402592 0.819237 0.249000
O O3 0.295870 0.838540 0.221244
O O4 0.356362 0.779549 0.000000
O O5 0.101574 0.155185 0.784352
O O6 0.197087 0.245879 0.759178
O O7 0.201204 0.083358 0.737165
O O8 0.175765 0.152039 0.000000
O O9 0.314993 0.500000 0.802556
O O10 0.229914 0.597943 0.733059
O O11 0.273758 0.614099 0.000000
O O12 0.083028 0.877841 0.500000
O O13 0.000000 0.861640 0.691602
O O14 0.065296 0.000000 0.704813
O O15 0.182320 0.329863 0.500000
O O16 0.117984 0.357055 0.260005
O O17 0.418481 0.897260 0.500000
O O18 0.500000 0.883283 0.299855
O O19 0.419161 0.000000 0.266151
O O20 0.262505 0.865843 0.500000
O O21 0.292874 0.000000 0.668189
O O22 0.935436 0.601034 0.500000
O O23 0.938593 0.500000 0.263049
O O24 0.000000 0.642113 0.272960
#
# Coordination Sequence:
#
# PCOD8200148 Si02
#       8
#     8   8   8   8   8   8   8   8
#     4  11  22  36  58  89 122 157 198 244 290 342
#     4  12  24  36  51  75 108 142 179 228 286 346
#     4  10  22  40  59  81 115 157 196 243 305 361
#     4   9  19  37  58  76  96 129 177 230 283 343
#     4  11  21  34  55  80 105 139 188 239 290 354
#     4   9  19  37  61  90 127 170 208 242 287 341
#     4  11  23  38  57  81 112 151 190 233 287 345
#     4   8  15  29  49  74 101 126 161 218 284 345
#
# _framework density 19.839606
#
# number of rings (size 3 to 8) (size 9 to 14) (size 15 to 20)
#    0.000    1.875    1.250    4.500    0.000    6.750 
#    0.000    2.500    0.000    1.500    0.000    7.000 
#    0.000    0.000    0.000    0.000    0.000    0.000 
#
# Total GULP energy -792947.212761 kJ/mol
# GULP energy per Si atom -12389.800199 kJ/mol
# Density = 1.979445 g / cm^3
# Si number density = 19.839606 Si / 1000 Ang^3
#
#
#
# Elastic Constant Matrix: (Units=GPa)
#
#
# Indices 1 2 3 4 5 6 
#
# 1 102.0157 48.6484 41.9219 0.0000 0.0000 0.0000
# 2 48.6484 111.3618 33.2677 0.0000 0.0000 0.0000
# 3 41.9219 33.2677 65.2950 0.0000 0.0000 0.0000
# 4 0.0000 0.0000 0.0000 23.0461 0.0000 0.0000
# 5 0.0000 0.0000 0.0000 0.0000 28.0568 0.0000
# 6 0.0000 0.0000 0.0000 0.0000 0.0000 30.4741
#
#
#
# Elastic Compliance Matrix: (Units=1/GPa)
#
#
# Indices 1 2 3 4 5 6 
#
# 1 0.014878 -0.004300 -0.007361 0.000000 0.000000 0.000000
# 2 -0.004300 0.011835 -0.003269 0.000000 0.000000 0.000000
# 3 -0.007361 -0.003269 0.021707 0.000000 0.000000 0.000000
# 4 0.000000 0.000000 0.000000 0.043391 0.000000 0.000000
# 5 0.000000 0.000000 0.000000 0.000000 0.035642 0.000000
# 6 0.000000 0.000000 0.000000 0.000000 0.000000 0.032815
#
#
# Mechanical properties :
#
#
# Convention : Reuss Voigt Hill
#
# Bulk Modulus (GPa) = 53.88285 58.48316 56.18300
# Shear Modulus (GPa) = 25.46924 26.63771 26.05348
#
# Velocity S-wave (km/s) = 3.58684 3.66820 3.62775
# Velocity P-wave (km/s) = 6.66124 6.89078 6.77698
#
# Compressibility (1/GPa) = 0.01855878
#
# Stress axis : x y z
#
# Youngs Moduli (GPa) = 67.21243 84.49577 46.06853
#
# Poissons Ratio (x) = 0.36337 0.33912
# Poissons Ratio (y) = 0.28905 0.15059
# Poissons Ratio (z) = 0.49477 0.27620
#
# Static dielectric constant tensor:
#      x y z
#    x 3.741200 0.000000 0.000000 
#    y 0.000000 3.744010 0.000000 
#    z 0.000000 0.000000 3.358250 
# 
# 
# High freq. dielectric constant tensor:
#      x y z
#    x 1.767450 0.000000 0.000000 
#    y 0.000000 1.771780 0.000000 
#    z 0.000000 0.000000 1.753250 
# 
# From -- ./inp_files/12787.got.cif
#   From: 2010.03.12/outbox.cif.g09.slc.cpg/sg47_7_cif.got.tgz:12787.got - 2010.04.14 03:12:58.
