data_PCOD8200344
_publ_section_title
;
Structure prediction by ZEFSAII (Michael W. Deem and Ramdas Pophale) SiO2 
 PCOD8200344
Probable space group: P M M M
;
_chemical_formula_sum "Si O2"
_cell_formula_units_Z 36
_cell_length_a 11.802566
_cell_length_b 7.606174
_cell_length_c 23.891735
_cell_angle_alpha 90.000000
_cell_angle_beta 90.000000
_cell_angle_gamma 90.000000
_cell_volume 2144.817690
_symmetry_space_group_name_H-M "P M M M"
_symmetry_group_IT_number 47
_symmetry_cell_setting 'orthorhombic'
loop_
_space_group_symop_operation_xyz
x,y,z
-x,-y,z
x,-y,-z
-x,y,-z
-x,-y,-z
x,y,-z
-x,y,z
x,-y,z
loop_
_atom_site_type_symbol
_atom_site_label
_atom_site_fract_x
_atom_site_fract_y
_atom_site_fract_z
Si Si1 0.135150 0.804557 0.357886
Si Si2 0.000000 0.295398 0.065585
Si Si3 0.135264 0.500000 0.562926
Si Si4 0.874679 0.791895 0.235153
Si Si5 0.228845 0.199987 0.122248
Si Si6 0.633646 0.500000 0.935535
O O1 0.181504 0.672566 0.405142
O O2 0.174352 0.737440 0.296203
O O3 0.000000 0.809186 0.357802
O O4 0.182611 0.000000 0.370988
O O5 0.890165 0.202615 0.090469
O O6 0.000000 0.500000 0.081274
O O7 0.000000 0.264382 0.000000
O O8 0.183817 0.500000 0.500000
O O9 0.000000 0.500000 0.562372
O O10 0.790212 0.730480 0.185938
O O11 0.000000 0.708628 0.225589
O O12 0.887077 0.000000 0.233314
O O13 0.319899 0.324478 0.093140
O O14 0.275417 0.000000 0.121286
O O15 0.500000 0.500000 0.929550
O O16 0.673091 0.500000 0.000000
#
# Coordination Sequence:
#
# PCOD8200344 Si02
#       6
#     8   4   4   8   8   4
#     4   8  14  24  36  51  77 111 140 175 223 267
#     4  11  21  33  49  76 109 129 144 178 237 303
#     4   9  16  23  30  46  70 103 156 202 219 239
#     4   8  14  26  44  69  96 115 139 178 230 292
#     4  11  21  35  56  78  98 123 154 194 244 294
#     4  11  26  44  55  67  91 125 169 209 234 274
#
# _framework density 16.784642999999999
#
# number of rings (size 3 to 8) (size 9 to 14) (size 15 to 20)
#    0.000    2.556    2.222    2.333    0.000    4.000 
#    0.000    4.444    0.000    0.000    0.000    0.000 
#    0.000    0.000    0.000    0.000    0.000    8.889 
#
# Total GULP energy -446217.803300 kJ/mol
# GULP energy per Si atom -12394.938981 kJ/mol
# Density = 1.674644 g / cm^3
# Si number density = 16.784643 Si / 1000 Ang^3
#
#
#
# Elastic Constant Matrix: (Units=GPa)
#
#
# Indices 1 2 3 4 5 6 
#
# 1 35.3784 21.4277 30.7794 0.0000 0.0000 0.0000
# 2 21.4277 100.5077 69.3081 0.0000 0.0000 0.0000
# 3 30.7794 69.3081 160.7098 0.0000 0.0000 0.0000
# 4 0.0000 0.0000 0.0000 27.4225 0.0000 0.0000
# 5 0.0000 0.0000 0.0000 0.0000 2.2534 0.0000
# 6 0.0000 0.0000 0.0000 0.0000 0.0000 -27.4610
#
#
#
# Elastic Compliance Matrix: (Units=1/GPa)
#
#
# Indices 1 2 3 4 5 6 
#
# 1 0.035036 -0.004045 -0.004966 0.000000 0.000000 0.000000
# 2 -0.004045 0.014628 -0.005534 0.000000 0.000000 0.000000
# 3 -0.004966 -0.005534 0.009560 0.000000 0.000000 0.000000
# 4 0.000000 0.000000 0.000000 0.036466 0.000000 0.000000
# 5 0.000000 0.000000 0.000000 0.000000 0.443782 0.000000
# 6 0.000000 0.000000 0.000000 0.000000 0.000000 -0.036415
#
#
# Mechanical properties :
#
#
# Convention : Reuss Voigt Hill
#
# Bulk Modulus (GPa) = 33.18442 59.95847 46.57144
# Shear Modulus (GPa) = 9.22184 12.11502 10.66843
#
# Velocity S-wave (km/s) = 2.34652 2.68953 2.52386
# Velocity P-wave (km/s) = 5.21106 6.74126 6.02494
#
# Compressibility (1/GPa) = 0.03013462
#
# Stress axis : x y z
#
# Youngs Moduli (GPa) = 28.54203 68.36279 104.60393
#
# Poissons Ratio (x) = 0.27655 0.51942
# Poissons Ratio (y) = 0.11546 0.57884
# Poissons Ratio (z) = 0.14173 0.37830
#
# Static dielectric constant tensor:
#      x y z
#    x 2.547120 0.000000 0.000000 
#    y 0.000000 3.276590 0.000000 
#    z 0.000000 0.000000 3.596010 
# 
# 
# High freq. dielectric constant tensor:
#      x y z
#    x 1.560430 0.000000 0.000000 
#    y 0.000000 1.655720 0.000000 
#    z 0.000000 0.000000 1.661530 
# 
# From -- ./inp_files/32283.got.cif
#   From: 2010.03.12/outbox.cif.g09.slc.cpg/sg47_17_cif.got.tgz:32283.got - 2010.04.14 03:12:58.
