data_PCOD8200466
_publ_section_title
;
Structure prediction by ZEFSAII (Michael W. Deem and Ramdas Pophale) SiO2 
 PCOD8200466
Probable space group: P M M M
;
_chemical_formula_sum "Si O2"
_cell_formula_units_Z 44
_cell_length_a 8.735902
_cell_length_b 14.473405
_cell_length_c 19.137776
_cell_angle_alpha 90.000000
_cell_angle_beta 90.000000
_cell_angle_gamma 90.000000
_cell_volume 2419.746862
_symmetry_space_group_name_H-M "P M M M"
_symmetry_group_IT_number 47
_symmetry_cell_setting 'orthorhombic'
loop_
_space_group_symop_operation_xyz
x,y,z
-x,-y,z
x,-y,-z
-x,y,-z
-x,-y,-z
x,y,-z
-x,y,z
x,-y,z
loop_
_atom_site_type_symbol
_atom_site_label
_atom_site_fract_x
_atom_site_fract_y
_atom_site_fract_z
Si Si1 0.181797 0.605978 0.356468
Si Si2 0.327119 0.600329 0.860060
Si Si3 0.670628 0.390836 0.500000
Si Si4 0.675716 0.894772 0.852591
Si Si5 0.173691 0.846687 0.000000
Si Si6 0.823061 0.738600 0.765719
Si Si7 0.824151 0.371041 0.000000
O O1 0.239376 0.500000 0.340719
O O2 0.239894 0.642162 0.431244
O O3 0.245004 0.682928 0.301571
O O4 0.000000 0.606061 0.355535
O O5 0.500000 0.641524 0.855960
O O6 0.323674 0.500000 0.822558
O O7 0.201331 0.668378 0.828801
O O8 0.271495 0.585798 0.937779
O O9 0.662739 0.500000 0.500000
O O10 0.500000 0.348251 0.500000
O O11 0.500000 0.867623 0.861748
O O12 0.750761 0.882869 0.928701
O O13 0.742303 0.833936 0.788234
O O14 0.697862 0.000000 0.828282
O O15 0.184942 0.738112 0.000000
O O16 0.000000 0.882158 0.000000
O O17 0.000000 0.761090 0.754880
O O18 0.000000 0.405171 0.000000
#
# Coordination Sequence:
#
# PCOD8200466 Si02
#       7
#     8   8   4   8   4   8   4
#     4   9  18  33  53  78 111 148 180 211 250 298
#     4  11  23  36  51  72 100 136 174 213 259 310
#     4   9  17  29  49  79 112 145 182 217 247 288
#     4  11  24  40  58  79 103 134 171 217 276 332
#     4  11  22  37  58  81 100 127 170 223 277 325
#     4  11  22  36  55  79 105 137 176 217 262 311
#     4  11  22  35  52  73  96 129 172 217 263 309
#
# _framework density 18.183719
#
# number of rings (size 3 to 8) (size 9 to 14) (size 15 to 20)
#    0.000    1.545    1.818    3.545    0.000    9.091 
#    0.000    1.818    0.000    0.000    0.000    0.636 
#    0.000    5.091    0.000    0.000    0.000    0.000 
#
# Total GULP energy -545243.878140 kJ/mol
# GULP energy per Si atom -12391.906321 kJ/mol
# Density = 1.814233 g / cm^3
# Si number density = 18.183719 Si / 1000 Ang^3
#
#
#
# Elastic Constant Matrix: (Units=GPa)
#
#
# Indices 1 2 3 4 5 6 
#
# 1 76.1702 35.5009 29.2411 0.0000 0.0000 0.0000
# 2 35.5009 104.0968 47.2221 0.0000 0.0000 0.0000
# 3 29.2411 47.2221 116.4810 0.0000 0.0000 0.0000
# 4 0.0000 0.0000 0.0000 -108.0288 0.0000 0.0000
# 5 0.0000 0.0000 0.0000 0.0000 9.2917 0.0000
# 6 0.0000 0.0000 0.0000 0.0000 0.0000 34.9767
#
#
#
# Elastic Compliance Matrix: (Units=1/GPa)
#
#
# Indices 1 2 3 4 5 6 
#
# 1 0.016065 -0.004472 -0.002220 0.000000 0.000000 0.000000
# 2 -0.004472 0.013016 -0.004154 0.000000 0.000000 0.000000
# 3 -0.002220 -0.004154 0.010827 0.000000 0.000000 0.000000
# 4 0.000000 0.000000 0.000000 -0.009257 0.000000 0.000000
# 5 0.000000 0.000000 0.000000 0.000000 0.107622 0.000000
# 6 0.000000 0.000000 0.000000 0.000000 0.000000 0.028590
#
#
# Mechanical properties :
#
#
# Convention : Reuss Voigt Hill
#
# Bulk Modulus (GPa) = 54.89803 57.85292 56.37548
# Shear Modulus (GPa) = 25.69017 -0.43314 12.62852
#
# Velocity S-wave (km/s) = 3.76282 -0.48859 2.63819
# Velocity P-wave (km/s) = 7.00961 5.61841 6.35221
#
# Compressibility (1/GPa) = 0.01821559
#
# Stress axis : x y z
#
# Youngs Moduli (GPa) = 62.24769 76.82896 92.36561
#
# Poissons Ratio (x) = 0.34355 0.20506
# Poissons Ratio (y) = 0.27835 0.38370
# Poissons Ratio (z) = 0.13819 0.31916
#
# Static dielectric constant tensor:
#      x y z
#    x 3.439540 0.000000 0.000000 
#    y 0.000000 3.361020 0.000000 
#    z 0.000000 0.000000 3.448630 
# 
# 
# High freq. dielectric constant tensor:
#      x y z
#    x 1.712860 0.000000 0.000000 
#    y 0.000000 1.691600 0.000000 
#    z 0.000000 0.000000 1.688170 
# 
# From -- ./inp_files/26418.got.cif
#   From: 2010.03.12/outbox.cif.g09.slc.cpg/sg47_14_cif.got.tgz:26418.got - 2010.04.14 03:12:58.
