data_PCOD8200040
_publ_section_title
;
Structure prediction by ZEFSAII (Michael W. Deem and Ramdas Pophale) SiO2 
 PCOD8200040
Probable space group: P M M M
;
_chemical_formula_sum "Si O2"
_cell_formula_units_Z 56
_cell_length_a 8.694413
_cell_length_b 14.995098
_cell_length_c 22.350806
_cell_angle_alpha 90.000000
_cell_angle_beta 90.000000
_cell_angle_gamma 90.000000
_cell_volume 2913.954482
_symmetry_space_group_name_H-M "P M M M"
_symmetry_group_IT_number 47
_symmetry_cell_setting 'orthorhombic'
loop_
_space_group_symop_operation_xyz
x,y,z
-x,-y,z
x,-y,-z
-x,y,-z
-x,-y,-z
x,y,-z
-x,y,z
x,-y,z
loop_
_atom_site_type_symbol
_atom_site_label
_atom_site_fract_x
_atom_site_fract_y
_atom_site_fract_z
Si Si1 0.680726 0.335342 0.878501
Si Si2 0.820942 0.900760 0.715515
Si Si3 0.320415 0.000000 0.070782
Si Si4 0.317006 0.400017 0.566832
Si Si5 0.819334 0.850210 0.850036
Si Si6 0.823718 0.599077 0.766027
Si Si7 0.319093 0.274795 0.670789
Si Si8 0.181932 0.602012 0.000000
O O1 0.500000 0.351180 0.881203
O O2 0.719707 0.238203 0.854099
O O3 0.757477 0.405644 0.833130
O O4 0.751866 0.347198 0.943356
O O5 0.782515 0.892361 0.785604
O O6 0.738185 0.826815 0.674624
O O7 0.000000 0.887609 0.704547
O O8 0.767969 0.000000 0.695105
O O9 0.236908 0.914019 0.097342
O O10 0.500000 0.000000 0.087981
O O11 0.296629 0.000000 0.000000
O O12 0.260007 0.375221 0.500000
O O13 0.500000 0.399187 0.569204
O O14 0.259072 0.500000 0.583808
O O15 0.249217 0.326700 0.612980
O O16 0.000000 0.830353 0.857879
O O17 0.808381 0.500000 0.738154
O O18 0.727809 0.670779 0.729307
O O19 0.000000 0.630976 0.767321
O O20 0.500000 0.272523 0.666296
O O21 0.238054 0.500000 0.000000
O O22 0.000000 0.609246 0.000000
#
# Coordination Sequence:
#
# PCOD8200040 Si02
#       8
#     8   8   4   8   8   8   8   4
#     4  12  25  40  60  85 112 142 184 238 290 337
#     4  10  21  39  60  81 110 150 193 236 288 351
#     4  11  25  41  59  85 117 145 182 239 297 348
#     4   8  15  30  53  83 122 164 200 237 286 345
#     4  11  22  40  62  82 109 147 190 231 284 353
#     4  11  23  38  56  80 115 156 192 229 282 348
#     4  11  21  33  56  90 120 149 193 246 297 345
#     4  11  25  45  65  82 105 144 189 229 279 347
#
# _framework density 19.217869
#
# number of rings (size 3 to 8) (size 9 to 14) (size 15 to 20)
#    0.000    1.429    2.143    4.286    1.000    5.429 
#    0.000    0.000    0.000    2.143    0.000    8.000 
#    0.000    0.000    0.000    0.000    0.000    0.000 
#
# Total GULP energy -694467.836221 kJ/mol
# GULP energy per Si atom -12401.211361 kJ/mol
# Density = 1.917413 g / cm^3
# Si number density = 19.217869 Si / 1000 Ang^3
#
#
#
# Elastic Constant Matrix: (Units=GPa)
#
#
# Indices 1 2 3 4 5 6 
#
# 1 52.5271 41.6970 25.6387 0.0000 0.0000 0.0000
# 2 41.6970 128.8601 56.2286 0.0000 0.0000 0.0000
# 3 25.6387 56.2286 111.4948 0.0000 0.0000 0.0000
# 4 0.0000 0.0000 0.0000 35.4550 0.0000 0.0000
# 5 0.0000 0.0000 0.0000 0.0000 9.4956 0.0000
# 6 0.0000 0.0000 0.0000 0.0000 0.0000 5.0456
#
#
#
# Elastic Compliance Matrix: (Units=1/GPa)
#
#
# Indices 1 2 3 4 5 6 
#
# 1 0.026043 -0.007454 -0.002229 0.000000 0.000000 0.000000
# 2 -0.007454 0.012084 -0.004380 0.000000 0.000000 0.000000
# 3 -0.002229 -0.004380 0.011690 0.000000 0.000000 0.000000
# 4 0.000000 0.000000 0.000000 0.028205 0.000000 0.000000
# 5 0.000000 0.000000 0.000000 0.000000 0.105312 0.000000
# 6 0.000000 0.000000 0.000000 0.000000 0.000000 0.198194
#
#
# Mechanical properties :
#
#
# Convention : Reuss Voigt Hill
#
# Bulk Modulus (GPa) = 46.10356 60.00119 53.05238
# Shear Modulus (GPa) = 11.99368 21.28707 16.64037
#
# Velocity S-wave (km/s) = 2.50089 3.33178 2.94578
# Velocity P-wave (km/s) = 5.69046 6.78899 6.26385
#
# Compressibility (1/GPa) = 0.02169030
#
# Stress axis : x y z
#
# Youngs Moduli (GPa) = 38.39741 82.75673 85.53965
#
# Poissons Ratio (x) = 0.61690 0.19070
# Poissons Ratio (y) = 0.28623 0.37465
# Poissons Ratio (z) = 0.08560 0.36246
#
# Static dielectric constant tensor:
#      x y z
#    x 3.427090 0.000000 0.000000 
#    y 0.000000 3.630890 0.000000 
#    z 0.000000 0.000000 3.599140 
# 
# 
# High freq. dielectric constant tensor:
#      x y z
#    x 1.741790 0.000000 0.000000 
#    y 0.000000 1.756930 0.000000 
#    z 0.000000 0.000000 1.735710 
# 
# From -- ./inp_files/11356.got.cif
#   From: 2010.03.12/outbox.cif.g09.slc.cpg/sg47_6_cif.got.tgz:11356.got - 2010.04.14 03:12:58.
