data_PCOD8200780
_publ_section_title
;
Structure prediction by ZEFSAII (Michael W. Deem and Ramdas Pophale) SiO2 
 PCOD8200780
Probable space group: P M M M
;
_chemical_formula_sum "Si O2"
_cell_formula_units_Z 44
_cell_length_a 9.559796
_cell_length_b 16.963307
_cell_length_c 15.164180
_cell_angle_alpha 90.000000
_cell_angle_beta 90.000000
_cell_angle_gamma 90.000000
_cell_volume 2459.110690
_symmetry_space_group_name_H-M "P M M M"
_symmetry_group_IT_number 47
_symmetry_cell_setting 'orthorhombic'
loop_
_space_group_symop_operation_xyz
x,y,z
-x,-y,z
x,-y,-z
-x,y,-z
-x,-y,-z
x,y,-z
-x,y,z
x,-y,z
loop_
_atom_site_type_symbol
_atom_site_label
_atom_site_fract_x
_atom_site_fract_y
_atom_site_fract_z
Si Si1 0.840628 0.592797 0.839630
Si Si2 0.832692 0.410169 0.500000
Si Si3 0.833409 0.000000 0.399295
Si Si4 0.165831 0.682858 0.332142
Si Si5 0.656901 0.406106 0.000000
Si Si6 0.166980 0.853741 0.283221
Si Si7 0.833908 0.089578 0.096523
O O1 0.828576 0.500000 0.826490
O O2 0.785828 0.633420 0.751807
O O3 0.000000 0.616841 0.862654
O O4 0.740197 0.625245 0.915602
O O5 0.775778 0.500000 0.500000
O O6 0.772368 0.362349 0.416534
O O7 0.000000 0.411901 0.500000
O O8 0.777607 0.923344 0.346733
O O9 0.775833 0.000000 0.500000
O O10 0.000000 0.000000 0.400905
O O11 0.224129 0.771827 0.323682
O O12 0.000000 0.684918 0.339448
O O13 0.655389 0.500000 0.000000
O O14 0.500000 0.371842 0.000000
O O15 0.223310 0.862610 0.181932
O O16 0.000000 0.854658 0.281570
O O17 0.000000 0.091682 0.098128
O O18 0.781592 0.000000 0.106647
O O19 0.782381 0.122886 0.000000
#
# Coordination Sequence:
#
# PCOD8200780 Si02
#       7
#     8   4   4   8   4   8   8
#     4   9  16  28  44  62  88 120 150 182 225 269
#     4   9  16  26  38  51  70 100 142 187 224 261
#     4   9  16  22  31  43  63 101 140 175 216 264
#     4   9  17  25  36  55  78 107 143 185 225 262
#     4   9  17  29  47  69  89 114 151 188 222 269
#     4   9  15  23  31  45  68  95 135 178 212 255
#     4   8  12  19  30  40  53  80 119 159 197 240
#
# _framework density 17.892645999999999
#
# number of rings (size 3 to 8) (size 9 to 14) (size 15 to 20)
#    0.000    3.182    0.909    1.364    1.273    3.273 
#    1.636    0.000    0.000    0.000    0.000    0.636 
#    0.000    3.636    0.000    1.636    0.000    2.727 
#
# Total GULP energy -545215.889034 kJ/mol
# GULP energy per Si atom -12391.270205 kJ/mol
# Density = 1.785192 g / cm^3
# Si number density = 17.892646 Si / 1000 Ang^3
#
#
#
# Elastic Constant Matrix: (Units=GPa)
#
#
# Indices 1 2 3 4 5 6 
#
# 1 28.0531 15.1123 29.2922 0.0000 0.0000 0.0000
# 2 15.1123 106.5862 88.7189 0.0000 0.0000 0.0000
# 3 29.2922 88.7189 199.4408 0.0000 0.0000 0.0000
# 4 0.0000 0.0000 0.0000 16.4920 0.0000 0.0000
# 5 0.0000 0.0000 0.0000 0.0000 -0.7516 0.0000
# 6 0.0000 0.0000 0.0000 0.0000 0.0000 2.5282
#
#
#
# Elastic Compliance Matrix: (Units=1/GPa)
#
#
# Indices 1 2 3 4 5 6 
#
# 1 0.042218 -0.001310 -0.005618 0.000000 0.000000 0.000000
# 2 -0.001310 0.014939 -0.006453 0.000000 0.000000 0.000000
# 3 -0.005618 -0.006453 0.008710 0.000000 0.000000 0.000000
# 4 0.000000 0.000000 0.000000 0.060635 0.000000 0.000000
# 5 0.000000 0.000000 0.000000 0.000000 -1.330479 0.000000
# 6 0.000000 0.000000 0.000000 0.000000 0.000000 0.395539
#
#
# Mechanical properties :
#
#
# Convention : Reuss Voigt Hill
#
# Bulk Modulus (GPa) = 25.57179 66.70300 46.13740
# Shear Modulus (GPa) = -6.50500 17.05083 5.27292
#
# Velocity S-wave (km/s) = -1.90879 3.09034 1.71854
# Velocity P-wave (km/s) = 3.07650 7.07772 5.45706
#
# Compressibility (1/GPa) = 0.03910559
#
# Stress axis : x y z
#
# Youngs Moduli (GPa) = 23.68636 66.93814 114.81337
#
# Poissons Ratio (x) = 0.08766 0.64504
# Poissons Ratio (y) = 0.03102 0.74091
# Poissons Ratio (z) = 0.13307 0.43196
#
# Static dielectric constant tensor:
#      x y z
#    x 2.516930 0.000000 0.000000 
#    y 0.000000 3.361360 0.000000 
#    z 0.000000 0.000000 3.752620 
# 
# 
# High freq. dielectric constant tensor:
#      x y z
#    x 1.591320 0.000000 0.000000 
#    y 0.000000 1.687730 0.000000 
#    z 0.000000 0.000000 1.714950 
# 
# From -- ./inp_files/20987.got.cif
#   From: 2010.03.12/outbox.cif.g09.slc.cpg/sg47_11_cif.got.tgz:20987.got - 2010.04.14 03:12:58.
