data_PCOD8200022
_publ_section_title
;
Structure prediction by ZEFSAII (Michael W. Deem and Ramdas Pophale) SiO2 
 PCOD8200022
Probable space group: P M M M
;
_chemical_formula_sum "Si O2"
_cell_formula_units_Z 48
_cell_length_a 8.873097
_cell_length_b 16.890055
_cell_length_c 15.967714
_cell_angle_alpha 90.000000
_cell_angle_beta 90.000000
_cell_angle_gamma 90.000000
_cell_volume 2393.034933
_symmetry_space_group_name_H-M "P M M M"
_symmetry_group_IT_number 47
_symmetry_cell_setting 'orthorhombic'
loop_
_space_group_symop_operation_xyz
x,y,z
-x,-y,z
x,-y,-z
-x,y,-z
-x,-y,-z
x,y,-z
-x,y,z
x,-y,z
loop_
_atom_site_type_symbol
_atom_site_label
_atom_site_fract_x
_atom_site_fract_y
_atom_site_fract_z
Si Si1 0.830715 0.500000 0.598393
Si Si2 0.678007 0.500000 0.093710
Si Si3 0.672800 0.177360 0.406329
Si Si4 0.326137 0.343929 0.664495
Si Si5 0.822756 0.819105 0.091643
Si Si6 0.175579 0.654554 0.835025
Si Si7 0.178744 0.089945 0.252971
O O1 0.841225 0.500000 0.500000
O O2 0.740863 0.576676 0.626661
O O3 0.000000 0.500000 0.637127
O O4 0.500000 0.500000 0.093883
O O5 0.733922 0.576982 0.140922
O O6 0.743860 0.500000 0.000000
O O7 0.725049 0.152418 0.500000
O O8 0.500000 0.153205 0.391404
O O9 0.691307 0.272218 0.400684
O O10 0.770356 0.132491 0.337555
O O11 0.500000 0.358707 0.688528
O O12 0.230941 0.317188 0.744743
O O13 0.788187 0.725885 0.101620
O O14 0.752049 0.868938 0.168914
O O15 0.000000 0.833871 0.092487
O O16 0.757719 0.845172 0.000000
O O17 0.000000 0.634053 0.833129
O O18 0.000000 0.094991 0.250340
O O19 0.236584 0.000000 0.254013
#
# Coordination Sequence:
#
# PCOD8200022 Si02
#       7
#     4   4   8   8   8   8   8
#     4  11  24  39  56  83 117 153 196 244 295 350
#     4  11  24  39  54  79 117 157 200 248 297 348
#     4  10  22  40  62  87 117 157 201 243 292 353
#     4  11  22  38  60  84 115 154 199 246 295 350
#     4   9  18  34  58  88 120 154 193 238 290 349
#     4  11  21  36  59  84 115 154 199 246 294 348
#     4  10  21  38  61  90 122 153 191 243 299 355
#
# _framework density 20.058211
#
# number of rings (size 3 to 8) (size 9 to 14) (size 15 to 20)
#    0.000    1.667    1.667    3.000    0.000    4.667 
#    0.000    3.333    0.000    1.500    0.000    1.167 
#    0.000    0.000    0.000    0.000    0.000    0.000 
#
# Total GULP energy -595173.770314 kJ/mol
# GULP energy per Si atom -12399.453548 kJ/mol
# Density = 2.001256 g / cm^3
# Si number density = 20.058211 Si / 1000 Ang^3
#
#
#
# Elastic Constant Matrix: (Units=GPa)
#
#
# Indices 1 2 3 4 5 6 
#
# 1 41.0777 36.4887 16.5969 0.0000 0.0000 0.0000
# 2 36.4887 119.5010 56.2671 0.0000 0.0000 0.0000
# 3 16.5969 56.2671 140.4773 0.0000 0.0000 0.0000
# 4 0.0000 0.0000 0.0000 21.2663 0.0000 0.0000
# 5 0.0000 0.0000 0.0000 0.0000 23.7390 0.0000
# 6 0.0000 0.0000 0.0000 0.0000 0.0000 18.3755
#
#
#
# Elastic Compliance Matrix: (Units=1/GPa)
#
#
# Indices 1 2 3 4 5 6 
#
# 1 0.033408 -0.010281 0.000171 0.000000 0.000000 0.000000
# 2 -0.010281 0.013477 -0.004184 0.000000 0.000000 0.000000
# 3 0.000171 -0.004184 0.008774 0.000000 0.000000 0.000000
# 4 0.000000 0.000000 0.000000 0.047023 0.000000 0.000000
# 5 0.000000 0.000000 0.000000 0.000000 0.042125 0.000000
# 6 0.000000 0.000000 0.000000 0.000000 0.000000 0.054420
#
#
# Mechanical properties :
#
#
# Convention : Reuss Voigt Hill
#
# Bulk Modulus (GPa) = 36.93919 57.75126 47.34523
# Shear Modulus (GPa) = 21.11147 25.45639 23.28393
#
# Velocity S-wave (km/s) = 3.24776 3.56634 3.41077
# Velocity P-wave (km/s) = 5.70262 6.76851 6.25830
#
# Compressibility (1/GPa) = 0.02707152
#
# Stress axis : x y z
#
# Youngs Moduli (GPa) = 29.93320 74.19899 113.97255
#
# Poissons Ratio (x) = 0.76287 -0.01950
# Poissons Ratio (y) = 0.30775 0.47680
# Poissons Ratio (z) = -0.00512 0.31041
#
# Static dielectric constant tensor:
#      x y z
#    x 3.511910 0.000000 0.000000 
#    y 0.000000 3.549000 0.000000 
#    z 0.000000 0.000000 3.992170 
# 
# 
# High freq. dielectric constant tensor:
#      x y z
#    x 1.764020 0.000000 0.000000 
#    y 0.000000 1.785900 0.000000 
#    z 0.000000 0.000000 1.798550 
# 
# From -- ./inp_files/21085.got.cif
#   From: 2010.03.12/outbox.cif.g09.slc.cpg/sg47_11_cif.got.tgz:21085.got - 2010.04.14 03:12:58.
