data_PCOD8200716
_publ_section_title
;
Structure prediction by ZEFSAII (Michael W. Deem and Ramdas Pophale) SiO2 
 PCOD8200716
Probable space group: P M M M
;
_chemical_formula_sum "Si O2"
_cell_formula_units_Z 52
_cell_length_a 9.131675
_cell_length_b 9.822331
_cell_length_c 33.900773
_cell_angle_alpha 90.000000
_cell_angle_beta 90.000000
_cell_angle_gamma 90.000000
_cell_volume 3040.707271
_symmetry_space_group_name_H-M "P M M M"
_symmetry_group_IT_number 47
_symmetry_cell_setting 'orthorhombic'
loop_
_space_group_symop_operation_xyz
x,y,z
-x,-y,z
x,-y,-z
-x,y,-z
-x,-y,-z
x,y,-z
-x,y,z
x,-y,z
loop_
_atom_site_type_symbol
_atom_site_label
_atom_site_fract_x
_atom_site_fract_y
_atom_site_fract_z
Si Si1 0.326025 0.652580 0.956298
Si Si2 0.159929 0.661232 0.500000
Si Si3 0.665121 0.837971 0.267135
Si Si4 0.327996 0.842796 0.113045
Si Si5 0.165170 0.162057 0.808811
Si Si6 0.824878 0.652969 0.584622
Si Si7 0.171748 0.157232 0.654720
O O1 0.500000 0.657897 0.956321
O O2 0.272672 0.500000 0.945756
O O3 0.265138 0.757978 0.924007
O O4 0.268470 0.693634 0.000000
O O5 0.140183 0.500000 0.500000
O O6 0.239583 0.700725 0.458502
O O7 0.000000 0.731292 0.500000
O O8 0.500000 0.780982 0.266919
O O9 0.750251 0.778602 0.229209
O O10 0.746293 0.788175 0.306542
O O11 0.665430 0.000000 0.265418
O O12 0.500000 0.820116 0.119551
O O13 0.246949 0.787832 0.151893
O O14 0.291605 0.000000 0.104749
O O15 0.000000 0.218922 0.808722
O O16 0.165615 0.000000 0.807173
O O17 0.771412 0.500000 0.595001
O O18 0.767749 0.756145 0.617868
O O19 0.000000 0.655896 0.582077
O O20 0.000000 0.179665 0.661598
O O21 0.208172 0.000000 0.646205
#
# Coordination Sequence:
#
# PCOD8200716 Si02
#       7
#     8   4   8   8   8   8   8
#     4   8  14  25  41  61  85 113 143 172 203 241
#     4   7  10  18  33  53  76 103 136 168 196 233
#     4   9  16  26  41  60  82 109 139 168 199 240
#     4   9  16  25  40  64  89 109 134 172 211 242
#     4   9  16  26  41  61  85 111 137 167 205 246
#     4   8  13  22  37  56  79 108 138 166 199 241
#     4   9  16  25  38  59  85 108 132 166 206 242
#
# _framework density 17.101284
#
# number of rings (size 3 to 8) (size 9 to 14) (size 15 to 20)
#    0.000    3.462    0.000    2.308    0.000    4.000 
#    0.000    1.923    0.000    4.615    0.000    3.769 
#    0.000    4.308    0.000    0.000    0.000    0.000 
#
# Total GULP energy -644373.026121 kJ/mol
# GULP energy per Si atom -12391.788964 kJ/mol
# Density = 1.706236 g / cm^3
# Si number density = 17.101284 Si / 1000 Ang^3
#
#
#
# Elastic Constant Matrix: (Units=GPa)
#
#
# Indices 1 2 3 4 5 6 
#
# 1 55.8014 22.2336 54.9664 0.0000 0.0000 0.0000
# 2 22.2336 50.8398 67.6994 0.0000 0.0000 0.0000
# 3 54.9664 67.6994 203.1832 0.0000 0.0000 0.0000
# 4 0.0000 0.0000 0.0000 12.4821 0.0000 0.0000
# 5 0.0000 0.0000 0.0000 0.0000 17.6437 0.0000
# 6 0.0000 0.0000 0.0000 0.0000 0.0000 6.2468
#
#
#
# Elastic Compliance Matrix: (Units=1/GPa)
#
#
# Indices 1 2 3 4 5 6 
#
# 1 0.024760 -0.003431 -0.005555 0.000000 0.000000 0.000000
# 2 -0.003431 0.035833 -0.011011 0.000000 0.000000 0.000000
# 3 -0.005555 -0.011011 0.010093 0.000000 0.000000 0.000000
# 4 0.000000 0.000000 0.000000 0.080114 0.000000 0.000000
# 5 0.000000 0.000000 0.000000 0.000000 0.056678 0.000000
# 6 0.000000 0.000000 0.000000 0.000000 0.000000 0.160081
#
#
# Mechanical properties :
#
#
# Convention : Reuss Voigt Hill
#
# Bulk Modulus (GPa) = 32.58226 66.62480 49.60353
# Shear Modulus (GPa) = 11.96793 18.26952 15.11872
#
# Velocity S-wave (km/s) = 2.64829 3.27205 2.97656
# Velocity P-wave (km/s) = 5.33340 7.30196 6.39389
#
# Compressibility (1/GPa) = 0.03069155
#
# Stress axis : x y z
#
# Youngs Moduli (GPa) = 40.38844 27.90755 99.07619
#
# Poissons Ratio (x) = 0.09575 0.55036
# Poissons Ratio (y) = 0.13857 1.09093
# Poissons Ratio (z) = 0.22436 0.30729
#
# Static dielectric constant tensor:
#      x y z
#    x 2.881490 0.000000 0.000000 
#    y 0.000000 2.881250 0.000000 
#    z 0.000000 0.000000 3.657280 
# 
# 
# High freq. dielectric constant tensor:
#      x y z
#    x 1.619080 0.000000 0.000000 
#    y 0.000000 1.611860 0.000000 
#    z 0.000000 0.000000 1.681300 
# 
# From -- ./inp_files/34310.got.cif
#   From: 2010.03.12/outbox.cif.g09.slc.cpg/sg47_18_cif.got.tgz:34310.got - 2010.04.14 03:12:58.
