data_PCOD8200277
_publ_section_title
;
Structure prediction by ZEFSAII (Michael W. Deem and Ramdas Pophale) SiO2 
 PCOD8200277
Probable space group: P M M M
;
_chemical_formula_sum "Si O2"
_cell_formula_units_Z 52
_cell_length_a 27.970916
_cell_length_b 13.959253
_cell_length_c 7.984366
_cell_angle_alpha 90.000000
_cell_angle_beta 90.000000
_cell_angle_gamma 90.000000
_cell_volume 3117.520401
_symmetry_space_group_name_H-M "P M M M"
_symmetry_group_IT_number 47
_symmetry_cell_setting 'orthorhombic'
loop_
_space_group_symop_operation_xyz
x,y,z
-x,-y,z
x,-y,-z
-x,y,-z
-x,-y,-z
x,y,-z
-x,y,z
x,-y,z
loop_
_atom_site_type_symbol
_atom_site_label
_atom_site_fract_x
_atom_site_fract_y
_atom_site_fract_z
Si Si1 0.854872 0.291058 0.689187
Si Si2 0.282909 0.791249 0.801405
Si Si3 0.553192 0.113214 0.500000
Si Si4 0.764855 0.395246 0.807246
Si Si5 0.380848 0.112692 0.806072
Si Si6 0.946312 0.391246 0.802958
Si Si7 0.189159 0.894156 0.198558
O O1 0.838901 0.306043 0.500000
O O2 0.819212 0.356832 0.797242
O O3 0.909623 0.321022 0.712557
O O4 0.851084 0.179309 0.738154
O O5 0.272007 0.683725 0.730296
O O6 0.334194 0.829814 0.744319
O O7 0.241330 0.861375 0.734375
O O8 0.280541 0.789233 0.000000
O O9 0.500000 0.158262 0.500000
O O10 0.578730 0.145630 0.326513
O O11 0.550096 0.000000 0.500000
O O12 0.759502 0.500000 0.718654
O O13 0.752450 0.408439 0.000000
O O14 0.370049 0.000000 0.791701
O O15 0.395265 0.137512 0.000000
O O16 0.936218 0.500000 0.745728
O O17 0.000000 0.361358 0.750310
O O18 0.939715 0.381796 0.000000
O O19 0.178177 0.000000 0.270284
O O20 0.188825 0.895406 0.000000
#
# Coordination Sequence:
#
# PCOD8200277 Si02
#       7
#     8   8   4   8   8   8   8
#     4  11  21  30  43  66  96 123 144 175 222 272
#     4   8  14  26  44  66  89 113 147 187 226 267
#     4   9  18  30  42  62  91 121 157 193 227 276
#     4   9  17  30  47  64  87 122 157 186 218 262
#     4   9  16  27  44  64  89 121 153 190 234 276
#     4   9  18  33  52  70  86 109 146 188 224 263
#     4   9  17  31  50  67  86 117 155 190 220 257
#
# _framework density 16.679922999999999
#
# number of rings (size 3 to 8) (size 9 to 14) (size 15 to 20)
#    0.000    2.846    0.000    3.692    0.000    5.231 
#    5.538    2.308    0.000    0.462    0.000    3.231 
#    0.000    1.231    0.000    6.000    0.000    0.154 
#
# Total GULP energy -644414.778518 kJ/mol
# GULP energy per Si atom -12392.591895 kJ/mol
# Density = 1.664196 g / cm^3
# Si number density = 16.679923 Si / 1000 Ang^3
#
#
#
# Elastic Constant Matrix: (Units=GPa)
#
#
# Indices 1 2 3 4 5 6 
#
# 1 116.7947 62.0620 32.5010 0.0000 0.0000 0.0000
# 2 62.0620 118.9634 25.8355 0.0000 0.0000 0.0000
# 3 32.5010 25.8355 49.8254 0.0000 0.0000 0.0000
# 4 0.0000 0.0000 0.0000 2.9291 0.0000 0.0000
# 5 0.0000 0.0000 0.0000 0.0000 11.3018 0.0000
# 6 0.0000 0.0000 0.0000 0.0000 0.0000 19.6076
#
#
#
# Elastic Compliance Matrix: (Units=1/GPa)
#
#
# Indices 1 2 3 4 5 6 
#
# 1 0.013118 -0.005618 -0.005644 0.000000 0.000000 0.000000
# 2 -0.005618 0.011878 -0.002495 0.000000 0.000000 0.000000
# 3 -0.005644 -0.002495 0.025045 0.000000 0.000000 0.000000
# 4 0.000000 0.000000 0.000000 0.341402 0.000000 0.000000
# 5 0.000000 0.000000 0.000000 0.000000 0.088482 0.000000
# 6 0.000000 0.000000 0.000000 0.000000 0.000000 0.051001
#
#
# Mechanical properties :
#
#
# Convention : Reuss Voigt Hill
#
# Bulk Modulus (GPa) = 44.38776 58.48673 51.43724
# Shear Modulus (GPa) = 8.83474 17.78004 13.30739
#
# Velocity S-wave (km/s) = 2.30394 3.26844 2.82762
# Velocity P-wave (km/s) = 5.80920 7.02736 6.44712
#
# Compressibility (1/GPa) = 0.02252873
#
# Stress axis : x y z
#
# Youngs Moduli (GPa) = 76.23323 84.18615 39.92795
#
# Poissons Ratio (x) = 0.47293 0.22534
# Poissons Ratio (y) = 0.42825 0.09961
# Poissons Ratio (z) = 0.43024 0.21003
#
# Static dielectric constant tensor:
#      x y z
#    x 3.154660 0.000000 0.000000 
#    y 0.000000 3.369740 0.000000 
#    z 0.000000 0.000000 2.997950 
# 
# 
# High freq. dielectric constant tensor:
#      x y z
#    x 1.618860 0.000000 0.000000 
#    y 0.000000 1.626710 0.000000 
#    z 0.000000 0.000000 1.634680 
# 
# From -- ./inp_files/13389.got.cif
#   From: 2010.03.12/outbox.cif.g09.slc.cpg/sg47_7_cif.got.tgz:13389.got - 2010.04.14 03:12:58.
