data_PCOD8200189
_publ_section_title
;
Structure prediction by ZEFSAII (Michael W. Deem and Ramdas Pophale) SiO2 
 PCOD8200189
Probable space group: P M M M
;
_chemical_formula_sum "Si O2"
_cell_formula_units_Z 44
_cell_length_a 17.428088
_cell_length_b 12.585246
_cell_length_c 13.582379
_cell_angle_alpha 90.000000
_cell_angle_beta 90.000000
_cell_angle_gamma 90.000000
_cell_volume 2979.115204
_symmetry_space_group_name_H-M "P M M M"
_symmetry_group_IT_number 47
_symmetry_cell_setting 'orthorhombic'
loop_
_space_group_symop_operation_xyz
x,y,z
-x,-y,z
x,-y,-z
-x,y,-z
-x,-y,-z
x,y,-z
-x,y,z
x,-y,z
loop_
_atom_site_type_symbol
_atom_site_label
_atom_site_fract_x
_atom_site_fract_y
_atom_site_fract_z
Si Si1 0.260451 0.874256 0.111271
Si Si2 0.669511 0.123001 0.390255
Si Si3 0.416663 0.875340 0.200563
Si Si4 0.178909 0.806019 0.299493
Si Si5 0.090896 0.000000 0.612506
Si Si6 0.911430 0.378158 0.387066
O O1 0.347352 0.832254 0.132358
O O2 0.200266 0.818518 0.184255
O O3 0.257362 0.000000 0.130817
O O4 0.237659 0.844859 0.000000
O O5 0.640436 0.149401 0.500000
O O6 0.601384 0.150957 0.314932
O O7 0.744826 0.190416 0.365620
O O8 0.693679 0.000000 0.378665
O O9 0.500000 0.823641 0.174059
O O10 0.423340 0.000000 0.184190
O O11 0.140164 0.691827 0.314395
O O12 0.119498 0.895935 0.331620
O O13 0.121170 0.000000 0.500000
O O14 0.000000 0.000000 0.615327
O O15 0.898312 0.342450 0.500000
O O16 0.886732 0.500000 0.372812
O O17 0.000000 0.362626 0.358644
#
# Coordination Sequence:
#
# PCOD8200189 Si02
#       6
#     8   8   8   8   4   8
#     4   9  17  29  43  59  82 114 147 180 219 253
#     4   9  15  22  34  54  83 116 141 166 207 254
#     4   8  14  23  34  53  80 111 148 177 199 239
#     4  11  17  28  43  61  85 113 143 177 210 252
#     4  11  20  26  39  65  88 107 133 167 207 251
#     4   9  18  31  46  65  88 113 139 169 210 257
#
# _framework density 14.769485
#
# number of rings (size 3 to 8) (size 9 to 14) (size 15 to 20)
#    0.000    2.636    1.818    3.818    0.000    2.182 
#    0.000    3.636    0.000    3.273    0.000    1.273 
#    0.000   11.636    0.000   46.545    0.000    1.455 
#
# Total GULP energy -545398.054794 kJ/mol
# GULP energy per Si atom -12395.410336 kJ/mol
# Density = 1.473587 g / cm^3
# Si number density = 14.769485 Si / 1000 Ang^3
#
#
#
# Elastic Constant Matrix: (Units=GPa)
#
#
# Indices 1 2 3 4 5 6 
#
# 1 78.2176 34.1264 39.6662 0.0000 0.0000 0.0000
# 2 34.1264 51.6808 28.9391 0.0000 0.0000 0.0000
# 3 39.6662 28.9391 107.2438 0.0000 0.0000 0.0000
# 4 0.0000 0.0000 0.0000 14.5573 0.0000 0.0000
# 5 0.0000 0.0000 0.0000 0.0000 16.6952 0.0000
# 6 0.0000 0.0000 0.0000 0.0000 0.0000 13.1006
#
#
#
# Elastic Compliance Matrix: (Units=1/GPa)
#
#
# Indices 1 2 3 4 5 6 
#
# 1 0.019592 -0.010460 -0.004424 0.000000 0.000000 0.000000
# 2 -0.010460 0.028378 -0.003789 0.000000 0.000000 0.000000
# 3 -0.004424 -0.003789 0.011983 0.000000 0.000000 0.000000
# 4 0.000000 0.000000 0.000000 0.068694 0.000000 0.000000
# 5 0.000000 0.000000 0.000000 0.000000 0.059897 0.000000
# 6 0.000000 0.000000 0.000000 0.000000 0.000000 0.076332
#
#
# Mechanical properties :
#
#
# Convention : Reuss Voigt Hill
#
# Bulk Modulus (GPa) = 44.23232 49.17841 46.70536
# Shear Modulus (GPa) = 16.14160 17.83134 16.98647
#
# Velocity S-wave (km/s) = 3.30949 3.47841 3.39500
# Velocity P-wave (km/s) = 6.67961 7.03577 6.86000
#
# Compressibility (1/GPa) = 0.02260790
#
# Stress axis : x y z
#
# Youngs Moduli (GPa) = 51.04113 35.23825 83.45004
#
# Poissons Ratio (x) = 0.36859 0.36918
# Poissons Ratio (y) = 0.53389 0.31618
# Poissons Ratio (z) = 0.22580 0.13351
#
# Static dielectric constant tensor:
#      x y z
#    x 2.962470 0.000000 0.000000 
#    y 0.000000 2.446740 0.000000 
#    z 0.000000 0.000000 2.855300 
# 
# 
# High freq. dielectric constant tensor:
#      x y z
#    x 1.568520 0.000000 0.000000 
#    y 0.000000 1.508370 0.000000 
#    z 0.000000 0.000000 1.559780 
# 
# From -- ./inp_files/24565.got.cif
#   From: 2010.03.12/outbox.cif.g09.slc.cpg/sg47_13_cif.got.tgz:24565.got - 2010.04.14 03:12:58.
