data_PCOD8200857
_publ_section_title
;
Structure prediction by ZEFSAII (Michael W. Deem and Ramdas Pophale) SiO2 
 PCOD8200857
Probable space group: P M M M
;
_chemical_formula_sum "Si O2"
_cell_formula_units_Z 48
_cell_length_a 31.178554
_cell_length_b 9.400092
_cell_length_c 9.377374
_cell_angle_alpha 90.000000
_cell_angle_beta 90.000000
_cell_angle_gamma 90.000000
_cell_volume 2748.332738
_symmetry_space_group_name_H-M "P M M M"
_symmetry_group_IT_number 47
_symmetry_cell_setting 'orthorhombic'
loop_
_space_group_symop_operation_xyz
x,y,z
-x,-y,z
x,-y,-z
-x,y,-z
-x,-y,-z
x,y,-z
-x,y,z
x,-y,z
loop_
_atom_site_type_symbol
_atom_site_label
_atom_site_fract_x
_atom_site_fract_y
_atom_site_fract_z
Si Si1 0.952466 0.840361 0.669577
Si Si2 0.627015 0.665620 0.835087
Si Si3 0.452955 0.160227 0.169484
Si Si4 0.207436 0.838857 0.669669
Si Si5 0.289541 0.664520 0.666618
Si Si6 0.126657 0.339232 0.329720
O O1 0.950913 0.839708 0.500000
O O2 0.917076 0.731507 0.730218
O O3 0.000000 0.793161 0.721566
O O4 0.942237 0.000000 0.724227
O O5 0.619341 0.500000 0.812747
O O6 0.584983 0.741613 0.769587
O O7 0.668487 0.718121 0.749248
O O8 0.634213 0.705110 0.000000
O O9 0.500000 0.212476 0.223672
O O10 0.444747 0.000000 0.222484
O O11 0.452439 0.166965 0.000000
O O12 0.206089 0.840242 0.500000
O O13 0.250123 0.759103 0.722814
O O14 0.166527 0.752602 0.729058
O O15 0.206685 0.000000 0.729470
O O16 0.297752 0.687660 0.500000
O O17 0.279134 0.500000 0.700613
O O18 0.126874 0.339888 0.500000
O O19 0.129909 0.500000 0.270973
#
# Coordination Sequence:
#
# PCOD8200857 Si02
#       6
#     8   8   8   8   8   8
#     4   8  13  20  28  38  55  81 113 150 192 235
#     4   9  17  28  43  64  86 106 131 164 199 234
#     4   8  14  25  41  61  84 108 133 162 196 232
#     4   9  16  25  37  52  69  91 123 161 196 231
#     4   9  17  29  43  58  79 106 133 162 198 238
#     4   9  15  21  30  44  62  85 115 153 195 236
#
# _framework density 17.465133999999999
#
# number of rings (size 3 to 8) (size 9 to 14) (size 15 to 20)
#    0.000    3.333    0.000    2.000    0.000    5.333 
#    0.000    3.333    0.000    0.500    0.000    3.500 
#    0.000    0.000    0.000    0.000    0.000    0.833 
#
# Total GULP energy -594939.519234 kJ/mol
# GULP energy per Si atom -12394.573317 kJ/mol
# Density = 1.742538 g / cm^3
# Si number density = 17.465134 Si / 1000 Ang^3
#
#
#
# Elastic Constant Matrix: (Units=GPa)
#
#
# Indices 1 2 3 4 5 6 
#
# 1 198.3427 104.6807 23.4717 0.0000 0.0000 0.0000
# 2 104.6807 122.5139 15.0939 0.0000 0.0000 0.0000
# 3 23.4717 15.0939 11.0823 0.0000 0.0000 0.0000
# 4 0.0000 0.0000 0.0000 7.3899 0.0000 0.0000
# 5 0.0000 0.0000 0.0000 0.0000 -0.1010 0.0000
# 6 0.0000 0.0000 0.0000 0.0000 0.0000 42.0780
#
#
#
# Elastic Compliance Matrix: (Units=1/GPa)
#
#
# Indices 1 2 3 4 5 6 
#
# 1 0.010333 -0.007369 -0.011848 0.000000 0.000000 0.000000
# 2 -0.007369 0.015064 -0.004909 0.000000 0.000000 0.000000
# 3 -0.011848 -0.004909 0.122014 0.000000 0.000000 0.000000
# 4 0.000000 0.000000 0.000000 0.135320 0.000000 0.000000
# 5 0.000000 0.000000 0.000000 0.000000 -9.897263 0.000000
# 6 0.000000 0.000000 0.000000 0.000000 0.000000 0.023765
#
#
# Mechanical properties :
#
#
# Convention : Reuss Voigt Hill
#
# Bulk Modulus (GPa) = 10.08492 68.71461 39.39976
# Shear Modulus (GPa) = -0.52579 22.45288 10.96354
#
# Velocity S-wave (km/s) = -0.54928 3.58939 2.50819
# Velocity P-wave (km/s) = 2.32047 7.52380 5.56741
#
# Compressibility (1/GPa) = 0.09915794
#
# Stress axis : x y z
#
# Youngs Moduli (GPa) = 96.77415 66.38409 8.19581
#
# Poissons Ratio (x) = 0.48922 0.09711
# Poissons Ratio (y) = 0.71317 0.04023
# Poissons Ratio (z) = 1.14661 0.32585
#
# Static dielectric constant tensor:
#      x y z
#    x 3.662580 0.000000 0.000000 
#    y 0.000000 3.397570 0.000000 
#    z 0.000000 0.000000 2.523550 
# 
# 
# High freq. dielectric constant tensor:
#      x y z
#    x 1.694370 0.000000 0.000000 
#    y 0.000000 1.677980 0.000000 
#    z 0.000000 0.000000 1.588520 
# 
# From -- ./inp_files/4703.got.cif
#   From: 2010.03.12/outbox.cif.g09.slc.cpg/sg47_3_cif.got.tgz:4703.got - 2010.04.14 03:12:58.
