data_PCOD8200186
_publ_section_title
;
Structure prediction by ZEFSAII (Michael W. Deem and Ramdas Pophale) SiO2 
 PCOD8200186
Probable space group: P M M M
;
_chemical_formula_sum "Si O2"
_cell_formula_units_Z 53
_cell_length_a 14.858559
_cell_length_b 21.005091
_cell_length_c 9.070253
_cell_angle_alpha 90.000000
_cell_angle_beta 90.000000
_cell_angle_gamma 90.000000
_cell_volume 2830.874795
_symmetry_space_group_name_H-M "P M M M"
_symmetry_group_IT_number 47
_symmetry_cell_setting 'orthorhombic'
loop_
_space_group_symop_operation_xyz
x,y,z
-x,-y,z
x,-y,-z
-x,y,-z
-x,-y,-z
x,y,-z
-x,y,z
x,-y,z
loop_
_atom_site_type_symbol
_atom_site_label
_atom_site_fract_x
_atom_site_fract_y
_atom_site_fract_z
Si Si1 0.898716 0.366671 0.830178
Si Si2 0.819935 0.000000 0.160184
Si Si3 0.395947 0.664093 0.832283
Si Si4 0.235832 0.126499 0.674486
Si Si5 0.396618 0.810107 0.171020
Si Si6 0.737285 0.572136 0.672193
Si Si7 0.104299 0.219804 0.168498
Si Si8 0.000000 0.000000 0.000000
O O1 0.834034 0.411731 0.738802
O O2 0.870120 0.293321 0.810571
O O3 0.000000 0.376879 0.771816
O O4 0.892186 0.386228 0.000000
O O5 0.791618 0.939118 0.252787
O O6 0.927202 0.000000 0.133546
O O7 0.769577 0.000000 0.000000
O O8 0.500000 0.646149 0.815240
O O9 0.379439 0.736823 0.784830
O O10 0.340261 0.617921 0.729223
O O11 0.363818 0.654090 0.000000
O O12 0.235888 0.119294 0.500000
O O13 0.335327 0.145480 0.727910
O O14 0.164474 0.180137 0.720304
O O15 0.500000 0.828740 0.200243
O O16 0.371806 0.820209 0.000000
O O17 0.745226 0.581844 0.500000
O O18 0.711870 0.500000 0.714465
O O19 0.000000 0.207393 0.205219
O O20 0.123554 0.198093 0.000000
#
# Coordination Sequence:
#
# PCOD8200186 Si02
#       8
#     8   4   8   8   8   8   8   1
#     4   9  19  37  58  80 103 135 184 238 282 325
#     4  10  23  43  64  82 110 154 203 237 270 318
#     4   9  19  37  61  86 110 139 184 237 282 324
#     4  12  24  36  55  88 124 152 184 230 283 334
#     4   9  19  38  63  88 113 147 189 232 277 331
#     4  11  24  37  50  74 110 149 184 222 278 346
#     4   9  19  35  57  81 109 144 184 228 277 334
#     4   8  24  44  70  84 102 160 218 240 266 320
#
# _framework density 18.722128000000001
#
# number of rings (size 3 to 8) (size 9 to 14) (size 15 to 20)
#    0.226    1.962    0.000    4.755    1.057    7.849 
#    0.000    6.792    0.000    2.264    0.000    0.000 
#    0.000    0.000    0.000    0.000    0.000    0.000 
#
# Total GULP energy -656752.373765 kJ/mol
# GULP energy per Si atom -12391.554222 kJ/mol
# Density = 1.867952 g / cm^3
# Si number density = 18.722128 Si / 1000 Ang^3
#
#
#
# Elastic Constant Matrix: (Units=GPa)
#
#
# Indices 1 2 3 4 5 6 
#
# 1 101.1045 55.3626 58.4911 0.0000 0.0000 0.0000
# 2 55.3626 82.2799 63.0658 0.0000 0.0000 0.0000
# 3 58.4911 63.0658 116.0719 0.0000 0.0000 0.0000
# 4 0.0000 0.0000 0.0000 53.1678 0.0000 0.0000
# 5 0.0000 0.0000 0.0000 0.0000 -0.3493 0.0000
# 6 0.0000 0.0000 0.0000 0.0000 0.0000 -19.1753
#
#
#
# Elastic Compliance Matrix: (Units=1/GPa)
#
#
# Indices 1 2 3 4 5 6 
#
# 1 0.016654 -0.008180 -0.003948 0.000000 0.000000 0.000000
# 2 -0.008180 0.024845 -0.009377 0.000000 0.000000 0.000000
# 3 -0.003948 -0.009377 0.015700 0.000000 0.000000 0.000000
# 4 0.000000 0.000000 0.000000 0.018808 0.000000 0.000000
# 5 0.000000 0.000000 0.000000 0.000000 -2.862951 0.000000
# 6 0.000000 0.000000 0.000000 0.000000 0.000000 -0.052150
#
#
# Mechanical properties :
#
#
# Convention : Reuss Voigt Hill
#
# Bulk Modulus (GPa) = 70.47767 72.58835 71.53301
# Shear Modulus (GPa) = -1.79124 14.89776 6.55326
#
# Velocity S-wave (km/s) = -0.97920 2.82393 1.87293
# Velocity P-wave (km/s) = 6.03716 7.03480 6.55499
#
# Compressibility (1/GPa) = 0.01418889
#
# Stress axis : x y z
#
# Youngs Moduli (GPa) = 60.04689 40.25008 63.69561
#
# Poissons Ratio (x) = 0.32923 0.25146
# Poissons Ratio (y) = 0.49116 0.59728
# Poissons Ratio (z) = 0.23706 0.37743
#
# Static dielectric constant tensor:
#      x y z
#    x 3.494490 0.000000 0.000000 
#    y 0.000000 3.777210 0.000000 
#    z 0.000000 0.000000 3.335730 
# 
# 
# High freq. dielectric constant tensor:
#      x y z
#    x 1.739620 0.000000 0.000000 
#    y 0.000000 1.718510 0.000000 
#    z 0.000000 0.000000 1.720560 
# 
# From -- ./inp_files/7122.got.cif
#   From: 2010.03.12/outbox.cif.g09.slc.cpg/sg47_4_cif.got.tgz:7122.got - 2010.04.14 03:12:58.
