data_PCOD8200933
_publ_section_title
;
Structure prediction by ZEFSAII (Michael W. Deem and Ramdas Pophale) SiO2 
 PCOD8200933
Probable space group: P M M M
;
_chemical_formula_sum "Si O2"
_cell_formula_units_Z 56
_cell_length_a 28.951148
_cell_length_b 13.672725
_cell_length_c 9.516609
_cell_angle_alpha 90.000000
_cell_angle_beta 90.000000
_cell_angle_gamma 90.000000
_cell_volume 3767.064832
_symmetry_space_group_name_H-M "P M M M"
_symmetry_group_IT_number 47
_symmetry_cell_setting 'orthorhombic'
loop_
_space_group_symop_operation_xyz
x,y,z
-x,-y,z
x,-y,-z
-x,y,-z
-x,-y,-z
x,y,-z
-x,y,z
x,-y,z
loop_
_atom_site_type_symbol
_atom_site_label
_atom_site_fract_x
_atom_site_fract_y
_atom_site_fract_z
Si Si1 0.595113 0.388800 0.163042
Si Si2 0.640592 0.888479 0.335329
Si Si3 0.222112 0.613118 0.163054
Si Si4 0.686307 0.272510 0.162466
Si Si5 0.448505 0.771554 0.661404
Si Si6 0.865233 0.616408 0.658384
Si Si7 0.051300 0.383676 0.842359
O O1 0.592061 0.500000 0.214728
O O2 0.646581 0.351084 0.194517
O O3 0.557902 0.326238 0.248209
O O4 0.582773 0.379282 0.000000
O O5 0.649893 0.876828 0.500000
O O6 0.678657 0.824883 0.253714
O O7 0.588764 0.853685 0.295049
O O8 0.645624 0.000000 0.286234
O O9 0.233700 0.500000 0.194619
O O10 0.265799 0.677961 0.206784
O O11 0.179609 0.651422 0.256189
O O12 0.209124 0.626797 0.000000
O O13 0.686381 0.241749 0.000000
O O14 0.441636 0.741714 0.500000
O O15 0.500000 0.813618 0.688313
O O16 0.863195 0.657975 0.500000
O O17 0.867304 0.500000 0.657170
O O18 0.910881 0.659440 0.734722
O O19 0.053700 0.500000 0.842057
O O20 0.000000 0.349280 0.795281
O O21 0.061991 0.345706 0.000000
#
# Coordination Sequence:
#
# PCOD8200933 Si02
#       7
#     8   8   8   8   8   8   8
#     4   9  17  29  44  61  82 107 133 160 190 226
#     4   9  18  32  48  64  81 101 125 155 193 235
#     4   9  16  26  40  56  76 103 132 161 194 233
#     4   9  17  29  45  63  80 100 129 162 194 230
#     4   9  18  31  45  62  83 105 130 159 189 224
#     4   9  16  23  31  47  71  97 127 164 203 238
#     4   8  13  21  32  44  60  88 128 170 207 240
#
# _framework density 14.865684
#
# number of rings (size 3 to 8) (size 9 to 14) (size 15 to 20)
#    0.000    3.143    0.000    1.286    0.000    5.714 
#    0.000    4.286    0.000    2.571    0.000    4.000 
#    0.000    0.000    0.000    0.000    0.000    0.714 
#
# Total GULP energy -694266.601256 kJ/mol
# GULP energy per Si atom -12397.617880 kJ/mol
# Density = 1.483185 g / cm^3
# Si number density = 14.865684 Si / 1000 Ang^3
#
#
#
# Elastic Constant Matrix: (Units=GPa)
#
#
# Indices 1 2 3 4 5 6 
#
# 1 115.8243 35.8046 56.6719 0.0000 0.0000 0.0000
# 2 35.8046 72.6648 34.8798 0.0000 0.0000 0.0000
# 3 56.6719 34.8798 69.4090 0.0000 0.0000 0.0000
# 4 0.0000 0.0000 0.0000 18.6408 0.0000 0.0000
# 5 0.0000 0.0000 0.0000 0.0000 24.4991 0.0000
# 6 0.0000 0.0000 0.0000 0.0000 0.0000 9.3636
#
#
#
# Elastic Compliance Matrix: (Units=1/GPa)
#
#
# Indices 1 2 3 4 5 6 
#
# 1 0.014582 -0.001937 -0.010932 0.000000 0.000000 0.000000
# 2 -0.001937 0.018394 -0.007662 0.000000 0.000000 0.000000
# 3 -0.010932 -0.007662 0.027184 0.000000 0.000000 0.000000
# 4 0.000000 0.000000 0.000000 0.053646 0.000000 0.000000
# 5 0.000000 0.000000 0.000000 0.000000 0.040818 0.000000
# 6 0.000000 0.000000 0.000000 0.000000 0.000000 0.106797
#
#
# Mechanical properties :
#
#
# Convention : Reuss Voigt Hill
#
# Bulk Modulus (GPa) = 52.36464 56.95676 54.66070
# Shear Modulus (GPa) = 16.18920 19.20349 17.69634
#
# Velocity S-wave (km/s) = 3.30363 3.59806 3.45398
# Velocity P-wave (km/s) = 7.06071 7.46048 7.26335
#
# Compressibility (1/GPa) = 0.01909686
#
# Stress axis : x y z
#
# Youngs Moduli (GPa) = 68.57896 54.36523 36.78678
#
# Poissons Ratio (x) = 0.10532 0.40216
# Poissons Ratio (y) = 0.13286 0.28185
# Poissons Ratio (z) = 0.74973 0.41653
#
# Static dielectric constant tensor:
#      x y z
#    x 2.981890 0.000000 0.000000 
#    y 0.000000 2.537680 0.000000 
#    z 0.000000 0.000000 2.967140 
# 
# 
# High freq. dielectric constant tensor:
#      x y z
#    x 1.570610 0.000000 0.000000 
#    y 0.000000 1.515450 0.000000 
#    z 0.000000 0.000000 1.572910 
# 
# From -- ./inp_files/8153.got.cif
#   From: 2010.03.12/outbox.cif.g09.slc.cpg/sg47_5_cif.got.tgz:8153.got - 2010.04.14 03:12:58.
