data_PCOD8200807
_publ_section_title
;
Structure prediction by ZEFSAII (Michael W. Deem and Ramdas Pophale) SiO2 
 PCOD8200807
Probable space group: P M M M
;
_chemical_formula_sum "Si O2"
_cell_formula_units_Z 44
_cell_length_a 9.078661
_cell_length_b 28.367740
_cell_length_c 10.034461
_cell_angle_alpha 90.000000
_cell_angle_beta 90.000000
_cell_angle_gamma 90.000000
_cell_volume 2584.286072
_symmetry_space_group_name_H-M "P M M M"
_symmetry_group_IT_number 47
_symmetry_cell_setting 'orthorhombic'
loop_
_space_group_symop_operation_xyz
x,y,z
-x,-y,z
x,-y,-z
-x,y,-z
-x,-y,-z
x,y,-z
-x,y,z
x,-y,z
loop_
_atom_site_type_symbol
_atom_site_label
_atom_site_fract_x
_atom_site_fract_y
_atom_site_fract_z
Si Si1 0.326318 0.814157 0.346748
Si Si2 0.675327 0.447526 0.649163
Si Si3 0.165835 0.091650 0.341603
Si Si4 0.666458 0.000000 0.659097
Si Si5 0.675308 0.629284 0.149127
Si Si6 0.325003 0.734243 0.850865
O O1 0.285324 0.803184 0.500000
O O2 0.500000 0.821287 0.329882
O O3 0.248742 0.861384 0.293965
O O4 0.264118 0.771387 0.256897
O O5 0.730605 0.435824 0.500000
O O6 0.500000 0.445526 0.653474
O O7 0.728200 0.500000 0.691101
O O8 0.744221 0.408978 0.749587
O O9 0.164800 0.089432 0.500000
O O10 0.000000 0.091721 0.284993
O O11 0.250963 0.046151 0.284685
O O12 0.500000 0.000000 0.713468
O O13 0.667296 0.000000 0.500000
O O14 0.500000 0.627992 0.156147
O O15 0.731151 0.681781 0.187654
O O16 0.728016 0.616486 0.000000
O O17 0.500000 0.734670 0.848039
O O18 0.270105 0.747541 0.000000
#
# Coordination Sequence:
#
# PCOD8200807 Si02
#       6
#     8   8   8   4   8   8
#     4   9  16  25  38  57  78  99 128 165 199 233
#     4   8  13  19  25  35  54  81 113 149 189 232
#     4   9  16  25  37  55  81 110 136 163 199 241
#     4   9  15  23  37  57  82 111 140 169 200 234
#     4   8  13  20  29  41  57  79 111 151 191 230
#     4   8  14  24  36  50  69  93 122 158 200 242
#
# _framework density 17.025979
#
# number of rings (size 3 to 8) (size 9 to 14) (size 15 to 20)
#    0.000    3.545    0.000    2.455    0.000    4.364 
#    0.000    5.455    0.000    0.545    0.000    0.636 
#    0.000    5.091    0.000    0.000    0.000    0.909 
#
# Total GULP energy -545283.703321 kJ/mol
# GULP energy per Si atom -12392.811439 kJ/mol
# Density = 1.698723 g / cm^3
# Si number density = 17.025979 Si / 1000 Ang^3
#
#
#
# Elastic Constant Matrix: (Units=GPa)
#
#
# Indices 1 2 3 4 5 6 
#
# 1 40.6670 36.7125 20.3536 0.0000 0.0000 0.0000
# 2 36.7125 183.8282 91.3642 0.0000 0.0000 0.0000
# 3 20.3536 91.3642 81.9080 0.0000 0.0000 0.0000
# 4 0.0000 0.0000 0.0000 12.9900 0.0000 0.0000
# 5 0.0000 0.0000 0.0000 0.0000 3.5104 0.0000
# 6 0.0000 0.0000 0.0000 0.0000 0.0000 1.6728
#
#
#
# Elastic Compliance Matrix: (Units=1/GPa)
#
#
# Indices 1 2 3 4 5 6 
#
# 1 0.030108 -0.005149 -0.001738 0.000000 0.000000 0.000000
# 2 -0.005149 0.013088 -0.013320 0.000000 0.000000 0.000000
# 3 -0.001738 -0.013320 0.027498 0.000000 0.000000 0.000000
# 4 0.000000 0.000000 0.000000 0.076982 0.000000 0.000000
# 5 0.000000 0.000000 0.000000 0.000000 0.284866 0.000000
# 6 0.000000 0.000000 0.000000 0.000000 0.000000 0.597805
#
#
# Mechanical properties :
#
#
# Convention : Reuss Voigt Hill
#
# Bulk Modulus (GPa) = 33.02432 67.02933 50.02682
# Shear Modulus (GPa) = 4.62597 14.16617 9.39607
#
# Velocity S-wave (km/s) = 1.65012 2.88763 2.35173
# Velocity P-wave (km/s) = 4.80303 7.11141 6.06800
#
# Compressibility (1/GPa) = 0.03028072
#
# Stress axis : x y z
#
# Youngs Moduli (GPa) = 33.21349 76.40477 36.36599
#
# Poissons Ratio (x) = 0.39341 0.06321
# Poissons Ratio (y) = 0.17102 0.48438
# Poissons Ratio (z) = 0.05773 1.01769
#
# Static dielectric constant tensor:
#      x y z
#    x 2.693400 0.000000 0.000000 
#    y 0.000000 3.566970 0.000000 
#    z 0.000000 0.000000 3.108300 
# 
# 
# High freq. dielectric constant tensor:
#      x y z
#    x 1.599790 0.000000 0.000000 
#    y 0.000000 1.672100 0.000000 
#    z 0.000000 0.000000 1.624110 
# 
# From -- ./inp_files/15282.got.cif
#   From: 2010.03.12/outbox.cif.g09.slc.cpg/sg47_8_cif.got.tgz:15282.got - 2010.04.14 03:12:58.
