data_PCOD8200824
_publ_section_title
;
Structure prediction by ZEFSAII (Michael W. Deem and Ramdas Pophale) SiO2 
 PCOD8200824
Probable space group: P M M M
;
_chemical_formula_sum "Si O2"
_cell_formula_units_Z 52
_cell_length_a 9.394298
_cell_length_b 33.782572
_cell_length_c 9.250611
_cell_angle_alpha 90.000000
_cell_angle_beta 90.000000
_cell_angle_gamma 90.000000
_cell_volume 2935.806733
_symmetry_space_group_name_H-M "P M M M"
_symmetry_group_IT_number 47
_symmetry_cell_setting 'orthorhombic'
loop_
_space_group_symop_operation_xyz
x,y,z
-x,-y,z
x,-y,-z
-x,y,-z
-x,-y,-z
x,y,-z
-x,y,z
x,-y,z
loop_
_atom_site_type_symbol
_atom_site_label
_atom_site_fract_x
_atom_site_fract_y
_atom_site_fract_z
Si Si1 0.669279 0.456284 0.162362
Si Si2 0.669475 0.230348 0.336592
Si Si3 0.334388 0.846497 0.167434
Si Si4 0.834617 0.923629 0.832234
Si Si5 0.330247 0.693889 0.836368
Si Si6 0.669880 0.382069 0.337258
Si Si7 0.169352 0.000000 0.336778
O O1 0.500000 0.454479 0.162648
O O2 0.719659 0.500000 0.214438
O O3 0.730859 0.422689 0.268490
O O4 0.724866 0.448118 0.000000
O O5 0.728503 0.231794 0.500000
O O6 0.500000 0.231535 0.336058
O O7 0.723290 0.190417 0.259770
O O8 0.729386 0.267900 0.248407
O O9 0.500000 0.854330 0.196065
O O10 0.249797 0.885030 0.219788
O O11 0.304679 0.837006 0.000000
O O12 0.773689 0.960912 0.743636
O O13 0.000000 0.916244 0.799867
O O14 0.807324 0.932581 0.000000
O O15 0.500000 0.694280 0.837166
O O16 0.272843 0.654800 0.755926
O O17 0.271515 0.694354 0.000000
O O18 0.728445 0.378374 0.500000
O O19 0.500000 0.382310 0.336992
O O20 0.227256 0.000000 0.500000
O O21 0.000000 0.000000 0.331191
#
# Coordination Sequence:
#
# PCOD8200824 Si02
#       7
#     8   8   8   8   8   8   4
#     4   8  13  20  27  33  43  62  89 122 164 216
#     4   9  16  25  37  53  73  96 121 150 186 228
#     4   9  17  29  44  62  84 109 136 165 199 240
#     4   9  17  30  48  67  86 110 140 171 201 235
#     4   9  15  22  32  44  59  81 109 140 175 218
#     4   9  15  20  26  37  52  69  93 129 172 217
#     4   9  17  29  46  67  88 110 138 171 204 238
#
# _framework density 17.712339
#
# number of rings (size 3 to 8) (size 9 to 14) (size 15 to 20)
#    0.000    3.154    0.000    2.077    0.000    7.385 
#    0.000    1.923    0.000    2.308    0.000    0.000 
#    0.000    0.000    0.000    0.000    0.000    0.000 
#
# Total GULP energy -644648.075074 kJ/mol
# GULP energy per Si atom -12397.078367 kJ/mol
# Density = 1.767202 g / cm^3
# Si number density = 17.712339 Si / 1000 Ang^3
#
#
#
# Elastic Constant Matrix: (Units=GPa)
#
#
# Indices 1 2 3 4 5 6 
#
# 1 10.5089 22.1400 14.4834 0.0000 0.0000 0.0000
# 2 22.1400 201.1616 110.1460 0.0000 0.0000 0.0000
# 3 14.4834 110.1460 147.2157 0.0000 0.0000 0.0000
# 4 0.0000 0.0000 0.0000 29.2984 0.0000 0.0000
# 5 0.0000 0.0000 0.0000 0.0000 6.4648 0.0000
# 6 0.0000 0.0000 0.0000 0.0000 0.0000 -0.3924
#
#
#
# Elastic Compliance Matrix: (Units=1/GPa)
#
#
# Indices 1 2 3 4 5 6 
#
# 1 0.124874 -0.011887 -0.003392 0.000000 0.000000 0.000000
# 2 -0.011887 0.009552 -0.005978 0.000000 0.000000 0.000000
# 3 -0.003392 -0.005978 0.011599 0.000000 0.000000 0.000000
# 4 0.000000 0.000000 0.000000 0.034132 0.000000 0.000000
# 5 0.000000 0.000000 0.000000 0.000000 0.154684 0.000000
# 6 0.000000 0.000000 0.000000 0.000000 0.000000 -2.548279
#
#
# Mechanical properties :
#
#
# Convention : Reuss Voigt Hill
#
# Bulk Modulus (GPa) = 9.66058 72.49166 41.07612
# Shear Modulus (GPa) = -2.34036 21.21527 9.43746
#
# Velocity S-wave (km/s) = -1.15073 3.46463 2.31079
# Velocity P-wave (km/s) = 1.92365 7.55122 5.51005
#
# Compressibility (1/GPa) = 0.10351344
#
# Stress axis : x y z
#
# Youngs Moduli (GPa) = 8.00805 104.68531 86.21504
#
# Poissons Ratio (x) = 1.24435 0.29243
# Poissons Ratio (y) = 0.09519 0.51536
# Poissons Ratio (z) = 0.02716 0.62577
#
# Static dielectric constant tensor:
#      x y z
#    x 2.493930 0.000000 0.000000 
#    y 0.000000 3.588120 0.000000 
#    z 0.000000 0.000000 3.456940 
# 
# 
# High freq. dielectric constant tensor:
#      x y z
#    x 1.592550 0.000000 0.000000 
#    y 0.000000 1.704990 0.000000 
#    z 0.000000 0.000000 1.692880 
# 
# From -- ./inp_files/4781.got.cif
#   From: 2010.03.12/outbox.cif.g09.slc.cpg/sg47_3_cif.got.tgz:4781.got - 2010.04.14 03:12:58.
