data_PCOD8200632
_publ_section_title
;
Structure prediction by ZEFSAII (Michael W. Deem and Ramdas Pophale) SiO2 
 PCOD8200632
Probable space group: P M M M
;
_chemical_formula_sum "Si O2"
_cell_formula_units_Z 48
_cell_length_a 9.065973
_cell_length_b 8.168556
_cell_length_c 32.673136
_cell_angle_alpha 90.000000
_cell_angle_beta 90.000000
_cell_angle_gamma 90.000000
_cell_volume 2419.638758
_symmetry_space_group_name_H-M "P M M M"
_symmetry_group_IT_number 47
_symmetry_cell_setting 'orthorhombic'
loop_
_space_group_symop_operation_xyz
x,y,z
-x,-y,z
x,-y,-z
-x,y,-z
-x,-y,-z
x,y,-z
-x,y,z
x,-y,z
loop_
_atom_site_type_symbol
_atom_site_label
_atom_site_fract_x
_atom_site_fract_y
_atom_site_fract_z
Si Si1 0.674029 0.810467 0.500000
Si Si2 0.838062 0.308896 0.267294
Si Si3 0.824300 0.500000 0.046508
Si Si4 0.168195 0.310345 0.420090
Si Si5 0.824638 0.682371 0.820939
Si Si6 0.175545 0.818574 0.905146
Si Si7 0.664757 0.188135 0.343002
O O1 0.500000 0.785641 0.500000
O O2 0.739267 0.723737 0.460475
O O3 0.718370 0.000000 0.500000
O O4 0.857687 0.500000 0.260583
O O5 0.777628 0.240910 0.223441
O O6 0.724891 0.280796 0.303663
O O7 0.000000 0.233251 0.278173
O O8 0.762702 0.667409 0.067523
O O9 0.000000 0.500000 0.049272
O O10 0.768301 0.500000 0.000000
O O11 0.177540 0.500000 0.408781
O O12 0.233737 0.210819 0.382435
O O13 0.000000 0.254767 0.427400
O O14 0.758735 0.500000 0.827270
O O15 0.768820 0.794782 0.858334
O O16 0.000000 0.672185 0.821519
O O17 0.000000 0.814180 0.907100
O O18 0.230630 0.000000 0.920008
O O19 0.500000 0.252937 0.352816
O O20 0.662081 0.000000 0.331256
#
# Coordination Sequence:
#
# PCOD8200632 Si02
#       7
#     4   8   4   8   8   8   8
#     4  11  24  41  62  90 120 147 178 215 260 316
#     4   9  18  32  52  77 101 128 167 214 261 311
#     4   9  16  24  32  44  70 108 149 199 253 300
#     4  11  24  41  62  87 112 140 180 225 265 310
#     4   8  13  24  41  60  85 113 144 193 252 302
#     4   9  15  22  34  51  72 104 148 195 247 305
#     4  11  24  39  54  76 108 144 179 215 260 314
#
# _framework density 19.837672999999999
#
# number of rings (size 3 to 8) (size 9 to 14) (size 15 to 20)
#    0.000    2.333    0.833    3.500    0.000    9.667 
#    0.000    3.333    0.000    0.000    0.000    0.000 
#    0.000    0.000    0.000    0.000    0.000    1.667 
#
# Total GULP energy -594903.791596 kJ/mol
# GULP energy per Si atom -12393.828992 kJ/mol
# Density = 1.979252 g / cm^3
# Si number density = 19.837673 Si / 1000 Ang^3
#
#
#
# Elastic Constant Matrix: (Units=GPa)
#
#
# Indices 1 2 3 4 5 6 
#
# 1 55.1008 18.8254 22.8719 0.0000 0.0000 0.0000
# 2 18.8254 86.7061 44.0412 0.0000 0.0000 0.0000
# 3 22.8719 44.0412 148.7688 0.0000 0.0000 0.0000
# 4 0.0000 0.0000 0.0000 11.8663 0.0000 0.0000
# 5 0.0000 0.0000 0.0000 0.0000 23.5303 0.0000
# 6 0.0000 0.0000 0.0000 0.0000 0.0000 17.4841
#
#
#
# Elastic Compliance Matrix: (Units=1/GPa)
#
#
# Indices 1 2 3 4 5 6 
#
# 1 0.020156 -0.003298 -0.002122 0.000000 0.000000 0.000000
# 2 -0.003298 0.014114 -0.003671 0.000000 0.000000 0.000000
# 3 -0.002122 -0.003671 0.008135 0.000000 0.000000 0.000000
# 4 0.000000 0.000000 0.000000 0.084273 0.000000 0.000000
# 5 0.000000 0.000000 0.000000 0.000000 0.042498 0.000000
# 6 0.000000 0.000000 0.000000 0.000000 0.000000 0.057195
#
#
# Mechanical properties :
#
#
# Convention : Reuss Voigt Hill
#
# Bulk Modulus (GPa) = 41.28547 51.33922 46.31234
# Shear Modulus (GPa) = 19.79187 24.23194 22.01191
#
# Velocity S-wave (km/s) = 3.16205 3.49880 3.33468
# Velocity P-wave (km/s) = 5.84707 6.50062 6.18249
#
# Compressibility (1/GPa) = 0.02422159
#
# Stress axis : x y z
#
# Youngs Moduli (GPa) = 49.61197 70.85133 122.92606
#
# Poissons Ratio (x) = 0.23368 0.26091
# Poissons Ratio (y) = 0.16363 0.45129
# Poissons Ratio (z) = 0.10530 0.26011
#
# Static dielectric constant tensor:
#      x y z
#    x 3.242280 0.000000 0.000000 
#    y 0.000000 3.711690 0.000000 
#    z 0.000000 0.000000 3.499610 
# 
# 
# High freq. dielectric constant tensor:
#      x y z
#    x 1.718740 0.000000 0.000000 
#    y 0.000000 1.773490 0.000000 
#    z 0.000000 0.000000 1.786070 
# 
# From -- ./inp_files/34107.got.cif
#   From: 2010.03.12/outbox.cif.g09.slc.cpg/sg47_18_cif.got.tgz:34107.got - 2010.04.14 03:12:58.
