data_PCOD8200068
_publ_section_title
;
Structure prediction by ZEFSAII (Michael W. Deem and Ramdas Pophale) SiO2 
 PCOD8200068
Probable space group: P M M M
;
_chemical_formula_sum "Si O2"
_cell_formula_units_Z 40
_cell_length_a 9.330055
_cell_length_b 7.818278
_cell_length_c 27.278340
_cell_angle_alpha 90.000000
_cell_angle_beta 90.000000
_cell_angle_gamma 90.000000
_cell_volume 1989.817522
_symmetry_space_group_name_H-M "P M M M"
_symmetry_group_IT_number 47
_symmetry_cell_setting 'orthorhombic'
loop_
_space_group_symop_operation_xyz
x,y,z
-x,-y,z
x,-y,-z
-x,y,-z
-x,-y,-z
x,y,-z
-x,y,z
x,-y,z
loop_
_atom_site_type_symbol
_atom_site_label
_atom_site_fract_x
_atom_site_fract_y
_atom_site_fract_z
Si Si1 0.340075 0.801302 0.603441
Si Si2 0.333975 0.693270 0.106519
Si Si3 0.663907 0.801940 0.786556
Si Si4 0.160941 0.204189 0.306302
Si Si5 0.834660 0.000000 0.057820
Si Si6 0.337603 0.299468 0.500000
O O1 0.500000 0.717930 0.604812
O O2 0.242486 0.719595 0.646108
O O3 0.265582 0.769462 0.550212
O O4 0.353150 0.000000 0.613875
O O5 0.500000 0.741621 0.097602
O O6 0.301472 0.500000 0.088059
O O7 0.299161 0.699283 0.164277
O O8 0.237660 0.827534 0.077556
O O9 0.500000 0.774822 0.770369
O O10 0.761627 0.729558 0.742808
O O11 0.696115 0.000000 0.797396
O O12 0.000000 0.276256 0.306752
O O13 0.162117 0.000000 0.307456
O O14 0.000000 0.000000 0.074285
O O15 0.817937 0.000000 0.000000
O O16 0.327787 0.500000 0.500000
O O17 0.500000 0.229690 0.500000
#
# Coordination Sequence:
#
# PCOD8200068 Si02
#       6
#     8   8   8   8   4   4
#     4   9  16  28  47  69  91 119 159 207 257 310
#     4  10  21  39  64  93 122 155 201 254 302 350
#     4   9  16  30  53  80 110 144 180 224 279 335
#     4   9  17  28  45  72 102 133 171 213 258 316
#     4  11  25  43  63  89 125 167 205 244 295 354
#     4   9  17  29  46  67  88 114 154 205 258 310
#
# _framework density 20.102346000000001
#
# number of rings (size 3 to 8) (size 9 to 14) (size 15 to 20)
#    0.000    2.600    1.000    1.200    0.000    6.000 
#    0.000    3.500    0.000    9.600    0.000    0.000 
#    0.000    0.000    0.000    0.000    0.000    0.000 
#
# Total GULP energy -495886.706897 kJ/mol
# GULP energy per Si atom -12397.167672 kJ/mol
# Density = 2.005659 g / cm^3
# Si number density = 20.102346 Si / 1000 Ang^3
#
#
#
# Elastic Constant Matrix: (Units=GPa)
#
#
# Indices 1 2 3 4 5 6 
#
# 1 123.7197 43.6641 80.3170 0.0000 0.0000 0.0000
# 2 43.6641 69.4928 42.9299 0.0000 0.0000 0.0000
# 3 80.3170 42.9299 126.5523 0.0000 0.0000 0.0000
# 4 0.0000 0.0000 0.0000 1.9831 0.0000 0.0000
# 5 0.0000 0.0000 0.0000 0.0000 14.7596 0.0000
# 6 0.0000 0.0000 0.0000 0.0000 0.0000 11.6797
#
#
#
# Elastic Compliance Matrix: (Units=1/GPa)
#
#
# Indices 1 2 3 4 5 6 
#
# 1 0.014741 -0.004406 -0.007861 0.000000 0.000000 0.000000
# 2 -0.004406 0.019522 -0.003826 0.000000 0.000000 0.000000
# 3 -0.007861 -0.003826 0.014189 0.000000 0.000000 0.000000
# 4 0.000000 0.000000 0.000000 0.504251 0.000000 0.000000
# 5 0.000000 0.000000 0.000000 0.000000 0.067753 0.000000
# 6 0.000000 0.000000 0.000000 0.000000 0.000000 0.085619
#
#
# Mechanical properties :
#
#
# Convention : Reuss Voigt Hill
#
# Bulk Modulus (GPa) = 61.47850 72.62076 67.04963
# Shear Modulus (GPa) = 6.72331 15.87472 11.29901
#
# Velocity S-wave (km/s) = 1.83079 2.81320 2.37338
# Velocity P-wave (km/s) = 5.92606 6.83784 6.39821
#
# Compressibility (1/GPa) = 0.01626585
#
# Stress axis : x y z
#
# Youngs Moduli (GPa) = 67.83860 51.22425 70.47899
#
# Poissons Ratio (x) = 0.22570 0.55402
# Poissons Ratio (y) = 0.29890 0.26966
# Poissons Ratio (z) = 0.53326 0.19599
#
# Static dielectric constant tensor:
#      x y z
#    x 3.657020 0.000000 0.000000 
#    y 0.000000 3.415740 0.000000 
#    z 0.000000 0.000000 3.789850 
# 
# 
# High freq. dielectric constant tensor:
#      x y z
#    x 1.759890 0.000000 0.000000 
#    y 0.000000 1.764370 0.000000 
#    z 0.000000 0.000000 1.794070 
# 
# From -- ./inp_files/33055.got.cif
#   From: 2010.03.12/outbox.cif.g09.slc.cpg/sg47_17_cif.got.tgz:33055.got - 2010.04.14 03:12:58.
