data_PCOD8200481
_publ_section_title
;
Structure prediction by ZEFSAII (Michael W. Deem and Ramdas Pophale) SiO2 
 PCOD8200481
Probable space group: P M M M
;
_chemical_formula_sum "Si O2"
_cell_formula_units_Z 48
_cell_length_a 14.501821
_cell_length_b 18.020967
_cell_length_c 9.743312
_cell_angle_alpha 90.000000
_cell_angle_beta 90.000000
_cell_angle_gamma 90.000000
_cell_volume 2546.286347
_symmetry_space_group_name_H-M "P M M M"
_symmetry_group_IT_number 47
_symmetry_cell_setting 'orthorhombic'
loop_
_space_group_symop_operation_xyz
x,y,z
-x,-y,z
x,-y,-z
-x,y,-z
-x,-y,-z
x,y,-z
-x,y,z
x,-y,z
loop_
_atom_site_type_symbol
_atom_site_label
_atom_site_fract_x
_atom_site_fract_y
_atom_site_fract_z
Si Si1 0.780835 0.848449 0.252130
Si Si2 0.391169 0.415488 0.156265
Si Si3 0.735955 0.315964 0.665296
Si Si4 0.889909 0.088342 0.000000
Si Si5 0.399072 0.912735 0.653541
Si Si6 0.100828 0.581779 0.337386
Si Si7 0.891289 0.086682 0.500000
O O1 0.752939 0.763347 0.267515
O O2 0.682203 0.889718 0.244227
O O3 0.846061 0.874531 0.372451
O O4 0.842457 0.869067 0.123769
O O5 0.500000 0.407517 0.167279
O O6 0.361795 0.500000 0.194638
O O7 0.350574 0.356842 0.265295
O O8 0.359297 0.397392 0.000000
O O9 0.722977 0.312248 0.500000
O O10 0.824667 0.361060 0.716024
O O11 0.000000 0.101141 0.000000
O O12 0.868619 0.000000 0.000000
O O13 0.377451 0.881750 0.500000
O O14 0.500000 0.882376 0.702031
O O15 0.403685 0.000000 0.647895
O O16 0.102916 0.578422 0.500000
O O17 0.122819 0.500000 0.278143
O O18 0.000000 0.608131 0.286558
O O19 0.000000 0.100862 0.500000
O O20 0.867455 0.000000 0.500000
#
# Coordination Sequence:
#
# PCOD8200481 Si02
#       7
#     8   8   8   4   8   8   4
#     4  12  23  39  59  90 123 158 202 256 319 375
#     4   9  20  40  65  90 121 168 217 254 295 355
#     4  11  22  35  56  92 125 156 194 247 311 365
#     4  11  26  46  65  85 116 163 215 267 321 378
#     4   9  17  32  57  85 113 148 189 236 292 355
#     4   8  15  29  49  74 108 149 186 222 271 336
#     4  11  22  38  63  89 116 157 211 263 311 372
#
# _framework density 18.850981999999998
#
# number of rings (size 3 to 8) (size 9 to 14) (size 15 to 20)
#    0.000    2.000    1.667    4.000    1.167    4.667 
#    0.000    1.250    0.000    1.500    0.000    2.333 
#    0.000    0.000    0.000    0.000    0.000    0.000 
#
# Total GULP energy -594807.737972 kJ/mol
# GULP energy per Si atom -12391.827874 kJ/mol
# Density = 1.880808 g / cm^3
# Si number density = 18.850982 Si / 1000 Ang^3
#
#
#
# Elastic Constant Matrix: (Units=GPa)
#
#
# Indices 1 2 3 4 5 6 
#
# 1 115.1871 52.1305 50.8222 0.0000 0.0000 0.0000
# 2 52.1305 110.0833 49.0722 0.0000 0.0000 0.0000
# 3 50.8222 49.0722 104.1683 0.0000 0.0000 0.0000
# 4 0.0000 0.0000 0.0000 15.0835 0.0000 0.0000
# 5 0.0000 0.0000 0.0000 0.0000 38.4239 0.0000
# 6 0.0000 0.0000 0.0000 0.0000 0.0000 2.1715
#
#
#
# Elastic Compliance Matrix: (Units=1/GPa)
#
#
# Indices 1 2 3 4 5 6 
#
# 1 0.012307 -0.003989 -0.004125 0.000000 0.000000 0.000000
# 2 -0.003989 0.012792 -0.004080 0.000000 0.000000 0.000000
# 3 -0.004125 -0.004080 0.013534 0.000000 0.000000 0.000000
# 4 0.000000 0.000000 0.000000 0.066297 0.000000 0.000000
# 5 0.000000 0.000000 0.000000 0.000000 0.026025 0.000000
# 6 0.000000 0.000000 0.000000 0.000000 0.000000 0.460520
#
#
# Mechanical properties :
#
#
# Convention : Reuss Voigt Hill
#
# Bulk Modulus (GPa) = 70.20028 70.38761 70.29394
# Shear Modulus (GPa) = 8.05656 22.96336 15.50996
#
# Velocity S-wave (km/s) = 2.06956 3.49399 2.87150
# Velocity P-wave (km/s) = 6.55982 7.32784 6.95444
#
# Compressibility (1/GPa) = 0.01424496
#
# Stress axis : x y z
#
# Youngs Moduli (GPa) = 81.25464 78.17529 73.88591
#
# Poissons Ratio (x) = 0.31185 0.30479
# Poissons Ratio (y) = 0.32414 0.30144
# Poissons Ratio (z) = 0.33519 0.31894
#
# Static dielectric constant tensor:
#      x y z
#    x 3.858910 0.000000 0.000000 
#    y 0.000000 3.559510 0.000000 
#    z 0.000000 0.000000 3.237400 
# 
# 
# High freq. dielectric constant tensor:
#      x y z
#    x 1.751470 0.000000 0.000000 
#    y 0.000000 1.733310 0.000000 
#    z 0.000000 0.000000 1.704260 
# 
# From -- ./inp_files/6550.got.cif
#   From: 2010.03.12/outbox.cif.g09.slc.cpg/sg47_4_cif.got.tgz:6550.got - 2010.04.14 03:12:58.
