data_PCOD8200470
_publ_section_title
;
Structure prediction by ZEFSAII (Michael W. Deem and Ramdas Pophale) SiO2 
 PCOD8200470
Probable space group: P M M M
;
_chemical_formula_sum "Si O2"
_cell_formula_units_Z 36
_cell_length_a 16.230820
_cell_length_b 8.680606
_cell_length_c 13.675162
_cell_angle_alpha 90.000000
_cell_angle_beta 90.000000
_cell_angle_gamma 90.000000
_cell_volume 1926.739434
_symmetry_space_group_name_H-M "P M M M"
_symmetry_group_IT_number 47
_symmetry_cell_setting 'orthorhombic'
loop_
_space_group_symop_operation_xyz
x,y,z
-x,-y,z
x,-y,-z
-x,y,-z
-x,-y,-z
x,y,-z
-x,y,z
x,-y,z
loop_
_atom_site_type_symbol
_atom_site_label
_atom_site_fract_x
_atom_site_fract_y
_atom_site_fract_z
Si Si1 0.159695 0.819774 0.791265
Si Si2 0.755008 0.682491 0.389296
Si Si3 0.312107 0.677723 0.890253
Si Si4 0.410335 0.319740 0.705343
Si Si5 0.000000 0.317902 0.888841
O O1 0.178828 0.760824 0.681668
O O2 0.234221 0.782349 0.864311
O O3 0.079072 0.738084 0.830614
O O4 0.143853 0.000000 0.787937
O O5 0.776615 0.728787 0.500000
O O6 0.758694 0.500000 0.372668
O O7 0.662576 0.744327 0.364144
O O8 0.284641 0.500000 0.877893
O O9 0.387761 0.715698 0.818294
O O10 0.341555 0.713892 0.000000
O O11 0.500000 0.243235 0.682344
O O12 0.418217 0.500000 0.687266
O O13 0.000000 0.500000 0.891301
O O14 0.000000 0.252525 0.000000
#
# Coordination Sequence:
#
# PCOD8200470 Si02
#       5
#     8   8   8   8   4
#     4  11  22  35  53  78 107 135 168 211 254 301
#     4   9  18  34  55  76 101 136 175 214 259 309
#     4   9  17  30  48  70 100 139 178 213 254 306
#     4   8  14  25  44  74 106 131 165 217 267 306
#     4  11  23  39  60  83 108 137 167 202 246 297
#
# _framework density 18.684415000000001
#
# number of rings (size 3 to 8) (size 9 to 14) (size 15 to 20)
#    0.000    2.556    0.000    4.333    0.000    5.333 
#    0.000    5.000    0.000   14.000    0.000   12.444 
#    0.000    0.000    0.000    0.000    0.000    0.000 
#
# Total GULP energy -446261.394531 kJ/mol
# GULP energy per Si atom -12396.149848 kJ/mol
# Density = 1.864189 g / cm^3
# Si number density = 18.684415 Si / 1000 Ang^3
#
#
#
# Elastic Constant Matrix: (Units=GPa)
#
#
# Indices 1 2 3 4 5 6 
#
# 1 118.8416 26.7318 45.8665 0.0000 0.0000 0.0000
# 2 26.7318 53.3232 29.8839 0.0000 0.0000 0.0000
# 3 45.8665 29.8839 130.2913 0.0000 0.0000 0.0000
# 4 0.0000 0.0000 0.0000 12.7264 0.0000 0.0000
# 5 0.0000 0.0000 0.0000 0.0000 13.1122 0.0000
# 6 0.0000 0.0000 0.0000 0.0000 0.0000 -24.2132
#
#
#
# Elastic Compliance Matrix: (Units=1/GPa)
#
#
# Indices 1 2 3 4 5 6 
#
# 1 0.010305 -0.003595 -0.002803 0.000000 0.000000 0.000000
# 2 -0.003595 0.022774 -0.003958 0.000000 0.000000 0.000000
# 3 -0.002803 -0.003958 0.009570 0.000000 0.000000 0.000000
# 4 0.000000 0.000000 0.000000 0.078577 0.000000 0.000000
# 5 0.000000 0.000000 0.000000 0.000000 0.076265 0.000000
# 6 0.000000 0.000000 0.000000 0.000000 0.000000 -0.041300
#
#
# Mechanical properties :
#
#
# Convention : Reuss Voigt Hill
#
# Bulk Modulus (GPa) = 45.58628 56.38009 50.98318
# Shear Modulus (GPa) = 27.14221 13.65669 20.39945
#
# Velocity S-wave (km/s) = 3.81552 2.70647 3.30781
# Velocity P-wave (km/s) = 6.62283 6.32512 6.47569
#
# Compressibility (1/GPa) = 0.02193643
#
# Stress axis : x y z
#
# Youngs Moduli (GPa) = 97.03935 43.90973 104.49671
#
# Poissons Ratio (x) = 0.15786 0.29292
# Poissons Ratio (y) = 0.34887 0.41359
# Poissons Ratio (z) = 0.27201 0.17379
#
# Static dielectric constant tensor:
#      x y z
#    x 4.822530 0.000000 0.000000 
#    y 0.000000 3.135010 0.000000 
#    z 0.000000 0.000000 3.565960 
# 
# 
# High freq. dielectric constant tensor:
#      x y z
#    x 1.720280 0.000000 0.000000 
#    y 0.000000 1.693340 0.000000 
#    z 0.000000 0.000000 1.731190 
# 
# From -- ./inp_files/5481.got.cif
#   From: 2010.03.12/outbox.cif.g09.slc.cpg/sg47_3_cif.got.tgz:5481.got - 2010.04.14 03:12:58.
