data_PCOD8200718
_publ_section_title
;
Structure prediction by ZEFSAII (Michael W. Deem and Ramdas Pophale) SiO2 
 PCOD8200718
Probable space group: P M M M
;
_chemical_formula_sum "Si O2"
_cell_formula_units_Z 52
_cell_length_a 9.148470
_cell_length_b 33.575334
_cell_length_c 10.009585
_cell_angle_alpha 90.000000
_cell_angle_beta 90.000000
_cell_angle_gamma 90.000000
_cell_volume 3074.573515
_symmetry_space_group_name_H-M "P M M M"
_symmetry_group_IT_number 47
_symmetry_cell_setting 'orthorhombic'
loop_
_space_group_symop_operation_xyz
x,y,z
-x,-y,z
x,-y,-z
-x,y,-z
-x,-y,-z
x,y,-z
-x,y,z
x,-y,z
loop_
_atom_site_type_symbol
_atom_site_label
_atom_site_fract_x
_atom_site_fract_y
_atom_site_fract_z
Si Si1 0.340667 0.000000 0.342066
Si Si2 0.173999 0.609555 0.350438
Si Si3 0.826292 0.301841 0.649607
Si Si4 0.173984 0.455689 0.149555
Si Si5 0.325107 0.914463 0.650320
Si Si6 0.671503 0.153752 0.153031
Si Si7 0.171802 0.765490 0.847146
O O1 0.260784 0.041884 0.304138
O O2 0.500000 0.000000 0.272447
O O3 0.361870 0.000000 0.500000
O O4 0.226705 0.599033 0.500000
O O5 0.229171 0.653871 0.310822
O O6 0.242372 0.577032 0.249629
O O7 0.000000 0.608398 0.343827
O O8 0.772193 0.290927 0.500000
O O9 0.764262 0.269919 0.755062
O O10 0.000000 0.301448 0.653650
O O11 0.226112 0.500000 0.192349
O O12 0.000000 0.453911 0.153624
O O13 0.229158 0.446036 0.000000
O O14 0.272487 0.903586 0.500000
O O15 0.500000 0.916923 0.653640
O O16 0.266753 0.881458 0.753307
O O17 0.500000 0.159999 0.174071
O O18 0.750628 0.194028 0.197685
O O19 0.708812 0.142882 0.000000
O O20 0.000000 0.771280 0.826348
O O21 0.209657 0.754758 0.000000
#
# Coordination Sequence:
#
# PCOD8200718 Si02
#       7
#     4   8   8   8   8   8   8
#     4   7  10  18  33  53  76  99 122 150 182 213
#     4   8  13  20  29  41  57  78 105 138 177 217
#     4   8  14  24  36  50  68  88 113 150 191 223
#     4   8  13  19  25  35  53  77 106 140 175 210
#     4   8  13  22  37  56  77 101 127 152 180 218
#     4   9  17  28  40  56  80 104 123 150 189 224
#     4   9  17  28  41  56  73  96 127 157 184 220
#
# _framework density 16.912915999999999
#
# number of rings (size 3 to 8) (size 9 to 14) (size 15 to 20)
#    0.000    3.769    0.000    2.308    0.000    1.538 
#    0.000    5.000    0.000    2.308    0.000    0.538 
#    0.000    4.308    0.000    0.000    0.000    0.769 
#
# Total GULP energy -644231.881820 kJ/mol
# GULP energy per Si atom -12389.074650 kJ/mol
# Density = 1.687442 g / cm^3
# Si number density = 16.912916 Si / 1000 Ang^3
#
#
#
# Elastic Constant Matrix: (Units=GPa)
#
#
# Indices 1 2 3 4 5 6 
#
# 1 5.6629 15.3695 10.6270 0.0000 0.0000 0.0000
# 2 15.3695 188.4188 113.8460 0.0000 0.0000 0.0000
# 3 10.6270 113.8460 112.5823 0.0000 0.0000 0.0000
# 4 0.0000 0.0000 0.0000 36.8627 0.0000 0.0000
# 5 0.0000 0.0000 0.0000 0.0000 7.1986 0.0000
# 6 0.0000 0.0000 0.0000 0.0000 0.0000 -19.3444
#
#
#
# Elastic Compliance Matrix: (Units=1/GPa)
#
#
# Indices 1 2 3 4 5 6 
#
# 1 0.228929 -0.014440 -0.007007 0.000000 0.000000 0.000000
# 2 -0.014440 0.014554 -0.013355 0.000000 0.000000 0.000000
# 3 -0.007007 -0.013355 0.023048 0.000000 0.000000 0.000000
# 4 0.000000 0.000000 0.000000 0.027128 0.000000 0.000000
# 5 0.000000 0.000000 0.000000 0.000000 0.138915 0.000000
# 6 0.000000 0.000000 0.000000 0.000000 0.000000 -0.051695
#
#
# Mechanical properties :
#
#
# Convention : Reuss Voigt Hill
#
# Bulk Modulus (GPa) = 5.07799 65.14988 35.11394
# Shear Modulus (GPa) = 9.68754 16.06482 12.87618
#
# Velocity S-wave (km/s) = 2.39590 3.08532 2.76220
# Velocity P-wave (km/s) = 3.26538 7.16217 5.56594
#
# Compressibility (1/GPa) = 0.19692825
#
# Stress axis : x y z
#
# Youngs Moduli (GPa) = 4.36816 68.70782 43.38699
#
# Poissons Ratio (x) = 0.99217 0.30401
# Poissons Ratio (y) = 0.06308 0.57942
# Poissons Ratio (z) = 0.03061 0.91757
#
# Static dielectric constant tensor:
#      x y z
#    x 2.446430 0.000000 0.000000 
#    y 0.000000 3.652830 0.000000 
#    z 0.000000 0.000000 3.321950 
# 
# 
# High freq. dielectric constant tensor:
#      x y z
#    x 1.570290 0.000000 0.000000 
#    y 0.000000 1.668050 0.000000 
#    z 0.000000 0.000000 1.647440 
# 
# From -- ./inp_files/15456.got.cif
#   From: 2010.03.12/outbox.cif.g09.slc.cpg/sg47_8_cif.got.tgz:15456.got - 2010.04.14 03:12:58.
