data_PCOD8200225
_publ_section_title
;
Structure prediction by ZEFSAII (Michael W. Deem and Ramdas Pophale) SiO2 
 PCOD8200225
Probable space group: P M M M
;
_chemical_formula_sum "Si O2"
_cell_formula_units_Z 40
_cell_length_a 22.471943
_cell_length_b 8.066997
_cell_length_c 14.400180
_cell_angle_alpha 90.000000
_cell_angle_beta 90.000000
_cell_angle_gamma 90.000000
_cell_volume 2610.480424
_symmetry_space_group_name_H-M "P M M M"
_symmetry_group_IT_number 47
_symmetry_cell_setting 'orthorhombic'
loop_
_space_group_symop_operation_xyz
x,y,z
-x,-y,z
x,-y,-z
-x,y,-z
-x,-y,-z
x,y,-z
-x,y,z
x,-y,z
loop_
_atom_site_type_symbol
_atom_site_label
_atom_site_fract_x
_atom_site_fract_y
_atom_site_fract_z
Si Si1 0.067469 0.000000 0.110664
Si Si2 0.858170 0.686497 0.889393
Si Si3 0.500000 0.191075 0.101760
Si Si4 0.386041 0.691651 0.211247
Si Si5 0.726026 0.695901 0.102972
Si Si6 0.567440 0.804475 0.396572
O O1 0.098070 0.830500 0.148871
O O2 0.000000 0.000000 0.146899
O O3 0.070547 0.000000 0.000000
O O4 0.875298 0.500000 0.852369
O O5 0.791591 0.738598 0.857450
O O6 0.859906 0.680443 0.000000
O O7 0.557959 0.230945 0.160503
O O8 0.500000 0.000000 0.082326
O O9 0.500000 0.281136 0.000000
O O10 0.387070 0.500000 0.189162
O O11 0.324657 0.769496 0.171275
O O12 0.388960 0.722196 0.321659
O O13 0.720429 0.500000 0.095695
O O14 0.716985 0.773285 0.000000
O O15 0.588851 0.753415 0.500000
O O16 0.500000 0.741188 0.380623
O O17 0.569521 0.000000 0.384273
#
# Coordination Sequence:
#
# PCOD8200225 Si02
#       6
#     4   8   4   8   8   8
#     4   9  16  24  36  58  82 103 138 181 212 241
#     4   8  14  26  40  53  76 109 141 173 208 246
#     4  11  23  35  42  55  84 113 137 170 212 261
#     4  11  20  30  47  67  82 101 135 179 221 258
#     4   8  15  28  43  58  80 110 140 169 206 253
#     4   9  18  33  49  61  79 106 131 164 213 265
#
# _framework density 15.322851
#
# number of rings (size 3 to 8) (size 9 to 14) (size 15 to 20)
#    0.000    2.800    1.000    3.300    0.000    2.400 
#    3.600    3.000    0.000    0.000    0.000    0.000 
#    0.000    0.000    0.000    0.000    0.000    2.000 
#
# Total GULP energy -495665.993315 kJ/mol
# GULP energy per Si atom -12391.649833 kJ/mol
# Density = 1.528798 g / cm^3
# Si number density = 15.322851 Si / 1000 Ang^3
#
#
#
# Elastic Constant Matrix: (Units=GPa)
#
#
# Indices 1 2 3 4 5 6 
#
# 1 123.8212 46.5503 39.4410 0.0000 0.0000 0.0000
# 2 46.5503 62.0790 16.0988 0.0000 0.0000 0.0000
# 3 39.4410 16.0988 68.3823 0.0000 0.0000 0.0000
# 4 0.0000 0.0000 0.0000 13.3834 0.0000 0.0000
# 5 0.0000 0.0000 0.0000 0.0000 3.8692 0.0000
# 6 0.0000 0.0000 0.0000 0.0000 0.0000 2.5340
#
#
#
# Elastic Compliance Matrix: (Units=1/GPa)
#
#
# Indices 1 2 3 4 5 6 
#
# 1 0.012945 -0.008276 -0.005518 0.000000 0.000000 0.000000
# 2 -0.008276 0.022447 -0.000511 0.000000 0.000000 0.000000
# 3 -0.005518 -0.000511 0.017927 0.000000 0.000000 0.000000
# 4 0.000000 0.000000 0.000000 0.074719 0.000000 0.000000
# 5 0.000000 0.000000 0.000000 0.000000 0.258450 0.000000
# 6 0.000000 0.000000 0.000000 0.000000 0.000000 0.394626
#
#
# Mechanical properties :
#
#
# Convention : Reuss Voigt Hill
#
# Bulk Modulus (GPa) = 40.47223 50.94029 45.70626
# Shear Modulus (GPa) = 6.11276 14.10350 10.10813
#
# Velocity S-wave (km/s) = 1.99949 3.03714 2.57120
# Velocity P-wave (km/s) = 5.63923 6.75395 6.22160
#
# Compressibility (1/GPa) = 0.02470830
#
# Stress axis : x y z
#
# Youngs Moduli (GPa) = 77.24873 44.54963 55.78279
#
# Poissons Ratio (x) = 0.36869 0.30781
# Poissons Ratio (y) = 0.63931 0.02851
# Poissons Ratio (z) = 0.42626 0.02277
#
# Static dielectric constant tensor:
#      x y z
#    x 3.016360 0.000000 0.000000 
#    y 0.000000 2.974500 0.000000 
#    z 0.000000 0.000000 2.863570 
# 
# 
# High freq. dielectric constant tensor:
#      x y z
#    x 1.571980 0.000000 0.000000 
#    y 0.000000 1.588600 0.000000 
#    z 0.000000 0.000000 1.540270 
# 
# From -- ./inp_files/10817.got.cif
#   From: 2010.03.12/outbox.cif.g09.slc.cpg/sg47_6_cif.got.tgz:10817.got - 2010.04.14 03:12:58.
