data_PCOD8200842
_publ_section_title
;
Structure prediction by ZEFSAII (Michael W. Deem and Ramdas Pophale) SiO2 
 PCOD8200842
Probable space group: P M M M
;
_chemical_formula_sum "Si O2"
_cell_formula_units_Z 40
_cell_length_a 10.085503
_cell_length_b 25.876377
_cell_length_c 9.541745
_cell_angle_alpha 90.000000
_cell_angle_beta 90.000000
_cell_angle_gamma 90.000000
_cell_volume 2490.169094
_symmetry_space_group_name_H-M "P M M M"
_symmetry_group_IT_number 47
_symmetry_cell_setting 'orthorhombic'
loop_
_space_group_symop_operation_xyz
x,y,z
-x,-y,z
x,-y,-z
-x,y,-z
-x,-y,-z
x,y,-z
-x,y,z
x,-y,z
loop_
_atom_site_type_symbol
_atom_site_label
_atom_site_fract_x
_atom_site_fract_y
_atom_site_fract_z
Si Si1 0.647902 0.858708 0.167013
Si Si2 0.341582 0.650840 0.657923
Si Si3 0.851740 0.942279 0.166738
Si Si4 0.342355 0.442662 0.842807
Si Si5 0.657550 0.255619 0.843902
O O1 0.500000 0.869652 0.226073
O O2 0.748112 0.901181 0.231161
O O3 0.697917 0.801464 0.211257
O O4 0.644221 0.861560 0.000000
O O5 0.286302 0.651233 0.500000
O O6 0.500000 0.650859 0.658466
O O7 0.285384 0.599796 0.735487
O O8 0.286021 0.701394 0.737864
O O9 0.000000 0.928811 0.219803
O O10 0.811828 0.000000 0.216439
O O11 0.848305 0.939671 0.000000
O O12 0.500000 0.440768 0.841557
O O13 0.294069 0.500000 0.797004
O O14 0.291818 0.430090 0.000000
O O15 0.500000 0.258817 0.851728
O O16 0.715406 0.265811 0.000000
#
# Coordination Sequence:
#
# PCOD8200842 Si02
#       5
#     8   8   8   8   8
#     4   8  13  20  30  44  61  85 118 148 172 207
#     4   9  15  20  27  40  57  77 103 138 179 217
#     4   8  13  20  29  43  66  93 115 138 175 219
#     4   8  13  20  28  37  51  75 108 142 173 207
#     4   8  13  21  31  41  56  80 109 140 172 207
#
# _framework density 16.063165999999999
#
# number of rings (size 3 to 8) (size 9 to 14) (size 15 to 20)
#    0.000    3.800    0.000    3.000    0.000    3.200 
#    0.000    4.000    0.000    0.000    0.000    0.000 
#    0.000    1.600    0.000   10.000    0.000   12.600 
#
# Total GULP energy -495591.149226 kJ/mol
# GULP energy per Si atom -12389.778731 kJ/mol
# Density = 1.602661 g / cm^3
# Si number density = 16.063166 Si / 1000 Ang^3
#
#
#
# Elastic Constant Matrix: (Units=GPa)
#
#
# Indices 1 2 3 4 5 6 
#
# 1 34.0222 48.2245 18.5439 0.0000 0.0000 0.0000
# 2 48.2245 172.3291 65.0321 0.0000 0.0000 0.0000
# 3 18.5439 65.0321 70.1432 0.0000 0.0000 0.0000
# 4 0.0000 0.0000 0.0000 4.8326 0.0000 0.0000
# 5 0.0000 0.0000 0.0000 0.0000 2.2668 0.0000
# 6 0.0000 0.0000 0.0000 0.0000 0.0000 2.3124
#
#
#
# Elastic Compliance Matrix: (Units=1/GPa)
#
#
# Indices 1 2 3 4 5 6 
#
# 1 0.048722 -0.013495 -0.000369 0.000000 0.000000 0.000000
# 2 -0.013495 0.012664 -0.008173 0.000000 0.000000 0.000000
# 3 -0.000369 -0.008173 0.021932 0.000000 0.000000 0.000000
# 4 0.000000 0.000000 0.000000 0.206927 0.000000 0.000000
# 5 0.000000 0.000000 0.000000 0.000000 0.441154 0.000000
# 6 0.000000 0.000000 0.000000 0.000000 0.000000 0.432447
#
#
# Mechanical properties :
#
#
# Convention : Reuss Voigt Hill
#
# Bulk Modulus (GPa) = 25.48224 60.01060 42.74642
# Shear Modulus (GPa) = 4.09500 11.52864 7.81182
#
# Velocity S-wave (km/s) = 1.59839 2.68191 2.20766
# Velocity P-wave (km/s) = 4.39371 6.85787 5.75913
#
# Compressibility (1/GPa) = 0.03924302
#
# Stress axis : x y z
#
# Youngs Moduli (GPa) = 20.52451 78.96627 45.59618
#
# Poissons Ratio (x) = 1.06566 0.01682
# Poissons Ratio (y) = 0.27698 0.37266
# Poissons Ratio (z) = 0.00757 0.64540
#
# Static dielectric constant tensor:
#      x y z
#    x 2.599170 0.000000 0.000000 
#    y 0.000000 3.510880 0.000000 
#    z 0.000000 0.000000 2.821950 
# 
# 
# High freq. dielectric constant tensor:
#      x y z
#    x 1.542560 0.000000 0.000000 
#    y 0.000000 1.637400 0.000000 
#    z 0.000000 0.000000 1.574470 
# 
# From -- ./inp_files/1680.got.cif
#   From: 2010.03.12/outbox.cif.g09.slc.cpg/sg47_1_cif.got.tgz:1680.got - 2010.04.14 03:12:58.
