data_PCOD8200821
_publ_section_title
;
Structure prediction by ZEFSAII (Michael W. Deem and Ramdas Pophale) SiO2 
 PCOD8200821
Probable space group: P M M M
;
_chemical_formula_sum "Si O2"
_cell_formula_units_Z 52
_cell_length_a 9.331710
_cell_length_b 9.694667
_cell_length_c 33.849176
_cell_angle_alpha 90.000000
_cell_angle_beta 90.000000
_cell_angle_gamma 90.000000
_cell_volume 3062.261195
_symmetry_space_group_name_H-M "P M M M"
_symmetry_group_IT_number 47
_symmetry_cell_setting 'orthorhombic'
loop_
_space_group_symop_operation_xyz
x,y,z
-x,-y,z
x,-y,-z
-x,y,-z
-x,-y,-z
x,y,-z
-x,y,z
x,-y,z
loop_
_atom_site_type_symbol
_atom_site_label
_atom_site_fract_x
_atom_site_fract_y
_atom_site_fract_z
Si Si1 0.161495 0.164551 0.307945
Si Si2 0.329547 0.153532 0.852322
Si Si3 0.667355 0.339527 0.076189
Si Si4 0.338562 0.164611 0.382935
Si Si5 0.839097 0.835968 0.456308
Si Si6 0.162081 0.663921 0.000000
Si Si7 0.659871 0.164100 0.234426
O O1 0.249192 0.220262 0.345594
O O2 0.235222 0.222821 0.268133
O O3 0.000000 0.221894 0.310161
O O4 0.161372 0.000000 0.307673
O O5 0.500000 0.148322 0.852073
O O6 0.273858 0.258006 0.885688
O O7 0.279701 0.206424 0.808932
O O8 0.268780 0.000000 0.861065
O O9 0.500000 0.311457 0.068300
O O10 0.696964 0.500000 0.083829
O O11 0.754730 0.282586 0.038649
O O12 0.500000 0.221602 0.380132
O O13 0.267295 0.223695 0.423067
O O14 0.338263 0.000000 0.383215
O O15 0.788719 0.786871 0.500000
O O16 0.000000 0.782436 0.447765
O O17 0.838608 0.000000 0.454563
O O18 0.163137 0.500000 0.000000
O O19 0.000000 0.721648 0.000000
O O20 0.500000 0.224334 0.241427
O O21 0.652125 0.000000 0.236620
#
# Coordination Sequence:
#
# PCOD8200821 Si02
#       7
#     8   8   8   8   8   4   8
#     4   9  15  21  29  41  57  76  99 129 165 204
#     4   8  14  25  41  60  81 104 128 155 191 233
#     4   9  16  27  45  66  83 101 131 167 194 220
#     4   9  15  20  26  36  49  66  91 124 161 203
#     4   8  13  20  27  33  43  61  85 116 159 209
#     4   9  17  29  44  61  82 108 134 159 192 232
#     4   8  13  22  35  48  63  85 111 136 165 207
#
# _framework density 16.980917000000002
#
# number of rings (size 3 to 8) (size 9 to 14) (size 15 to 20)
#    0.000    3.462    0.000    2.538    0.000    4.923 
#    0.000    2.692    0.000    3.692    0.000    0.000 
#    0.000    0.000    0.000    0.000    0.000    0.000 
#
# Total GULP energy -644443.960253 kJ/mol
# GULP energy per Si atom -12393.153082 kJ/mol
# Density = 1.694227 g / cm^3
# Si number density = 16.980917 Si / 1000 Ang^3
#
#
#
# Elastic Constant Matrix: (Units=GPa)
#
#
# Indices 1 2 3 4 5 6 
#
# 1 113.2282 15.4906 90.0672 0.0000 0.0000 0.0000
# 2 15.4906 16.5206 28.2567 0.0000 0.0000 0.0000
# 3 90.0672 28.2567 193.3735 0.0000 0.0000 0.0000
# 4 0.0000 0.0000 0.0000 1.2310 0.0000 0.0000
# 5 0.0000 0.0000 0.0000 0.0000 21.1515 0.0000
# 6 0.0000 0.0000 0.0000 0.0000 0.0000 4.6337
#
#
#
# Elastic Compliance Matrix: (Units=1/GPa)
#
#
# Indices 1 2 3 4 5 6 
#
# 1 0.014116 -0.002654 -0.006187 0.000000 0.000000 0.000000
# 2 -0.002654 0.081199 -0.010629 0.000000 0.000000 0.000000
# 3 -0.006187 -0.010629 0.009606 0.000000 0.000000 0.000000
# 4 0.000000 0.000000 0.000000 0.812358 0.000000 0.000000
# 5 0.000000 0.000000 0.000000 0.000000 0.047278 0.000000
# 6 0.000000 0.000000 0.000000 0.000000 0.000000 0.215809
#
#
# Mechanical properties :
#
#
# Convention : Reuss Voigt Hill
#
# Bulk Modulus (GPa) = 15.15575 65.63904 40.39739
# Shear Modulus (GPa) = 4.02803 18.02377 11.02590
#
# Velocity S-wave (km/s) = 1.54183 3.26147 2.55092
# Velocity P-wave (km/s) = 3.48055 7.27471 5.70244
#
# Compressibility (1/GPa) = 0.06598158
#
# Stress axis : x y z
#
# Youngs Moduli (GPa) = 70.83983 12.31540 104.09815
#
# Poissons Ratio (x) = 0.03268 0.64407
# Poissons Ratio (y) = 0.18799 1.10648
# Poissons Ratio (z) = 0.43830 0.13090
#
# Static dielectric constant tensor:
#      x y z
#    x 3.217330 0.000000 0.000000 
#    y 0.000000 2.479550 0.000000 
#    z 0.000000 0.000000 3.619540 
# 
# 
# High freq. dielectric constant tensor:
#      x y z
#    x 1.643630 0.000000 0.000000 
#    y 0.000000 1.563760 0.000000 
#    z 0.000000 0.000000 1.676570 
# 
# From -- ./inp_files/34303.got.cif
#   From: 2010.03.12/outbox.cif.g09.slc.cpg/sg47_18_cif.got.tgz:34303.got - 2010.04.14 03:12:58.
