data_PCOD8200955
_publ_section_title
;
Structure prediction by ZEFSAII (Michael W. Deem and Ramdas Pophale) SiO2 
 PCOD8200955
Probable space group: P M M M
;
_chemical_formula_sum "Si O2"
_cell_formula_units_Z 36
_cell_length_a 9.419567
_cell_length_b 9.411684
_cell_length_c 23.249898
_cell_angle_alpha 90.000000
_cell_angle_beta 90.000000
_cell_angle_gamma 90.000000
_cell_volume 2061.196179
_symmetry_space_group_name_H-M "P M M M"
_symmetry_group_IT_number 47
_symmetry_cell_setting 'orthorhombic'
loop_
_space_group_symop_operation_xyz
x,y,z
-x,-y,z
x,-y,-z
-x,y,-z
-x,-y,-z
x,y,-z
-x,y,z
x,-y,z
loop_
_atom_site_type_symbol
_atom_site_label
_atom_site_fract_x
_atom_site_fract_y
_atom_site_fract_z
Si Si1 0.834521 0.335768 0.890855
Si Si2 0.664828 0.335630 0.778505
Si Si3 0.668863 0.340519 0.563680
Si Si4 0.330814 0.159897 0.669087
Si Si5 0.168833 0.839273 0.000000
O O1 0.804827 0.500000 0.905666
O O2 0.750988 0.286877 0.834363
O O3 0.775494 0.242116 0.943537
O O4 0.000000 0.308283 0.879746
O O5 0.500000 0.305965 0.790557
O O6 0.692283 0.500000 0.763785
O O7 0.722436 0.244342 0.725062
O O8 0.718437 0.290369 0.500000
O O9 0.500000 0.340176 0.566693
O O10 0.724394 0.500000 0.575884
O O11 0.731686 0.235035 0.611864
O O12 0.500000 0.161168 0.667133
O O13 0.271381 0.000000 0.671525
O O14 0.000000 0.836838 0.000000
O O15 0.227729 0.000000 0.000000
#
# Coordination Sequence:
#
# PCOD8200955 Si02
#       5
#     8   8   8   8   4
#     4   9  17  30  48  67  85 107 138 174 207 240
#     4   9  17  29  44  61  83 112 142 170 204 247
#     4   8  13  21  33  49  71 102 139 175 209 246
#     4   9  16  24  35  53  78 108 139 171 208 248
#     4   9  17  29  46  67  88 110 136 167 206 250
#
# _framework density 17.465588
#
# number of rings (size 3 to 8) (size 9 to 14) (size 15 to 20)
#    0.000    3.222    0.000    1.667    0.000    5.333 
#    0.000    2.778    0.000    3.333    0.000    0.000 
#    0.000    0.889    0.000   10.222    0.000   13.111 
#
# Total GULP energy -446297.353332 kJ/mol
# GULP energy per Si atom -12397.148704 kJ/mol
# Density = 1.742584 g / cm^3
# Si number density = 17.465588 Si / 1000 Ang^3
#
#
#
# Elastic Constant Matrix: (Units=GPa)
#
#
# Indices 1 2 3 4 5 6 
#
# 1 17.7661 20.9070 32.5711 0.0000 0.0000 0.0000
# 2 20.9070 124.8943 108.9116 0.0000 0.0000 0.0000
# 3 32.5711 108.9116 197.5024 0.0000 0.0000 0.0000
# 4 0.0000 0.0000 0.0000 19.8743 0.0000 0.0000
# 5 0.0000 0.0000 0.0000 0.0000 -0.7511 0.0000
# 6 0.0000 0.0000 0.0000 0.0000 0.0000 9.5857
#
#
#
# Elastic Compliance Matrix: (Units=1/GPa)
#
#
# Indices 1 2 3 4 5 6 
#
# 1 0.081561 -0.003706 -0.011407 0.000000 0.000000 0.000000
# 2 -0.003706 0.015592 -0.007987 0.000000 0.000000 0.000000
# 3 -0.011407 -0.007987 0.011349 0.000000 0.000000 0.000000
# 4 0.000000 0.000000 0.000000 0.050316 0.000000 0.000000
# 5 0.000000 0.000000 0.000000 0.000000 -1.331453 0.000000
# 6 0.000000 0.000000 0.000000 0.000000 0.000000 0.104322
#
#
# Mechanical properties :
#
#
# Convention : Reuss Voigt Hill
#
# Bulk Modulus (GPa) = 16.05089 73.88247 44.96668
# Shear Modulus (GPa) = -4.99328 17.59334 6.30003
#
# Velocity S-wave (km/s) = -1.69267 3.17726 1.90130
# Velocity P-wave (km/s) = 2.32159 7.47353 5.53369
#
# Compressibility (1/GPa) = 0.06230185
#
# Stress axis : x y z
#
# Youngs Moduli (GPa) = 12.26083 64.13546 88.11492
#
# Poissons Ratio (x) = 0.23767 1.00514
# Poissons Ratio (y) = 0.04543 0.70377
# Poissons Ratio (z) = 0.13986 0.51225
#
# Static dielectric constant tensor:
#      x y z
#    x 2.636110 0.000000 0.000000 
#    y 0.000000 3.395140 0.000000 
#    z 0.000000 0.000000 3.517030 
# 
# 
# High freq. dielectric constant tensor:
#      x y z
#    x 1.603270 0.000000 0.000000 
#    y 0.000000 1.676010 0.000000 
#    z 0.000000 0.000000 1.691350 
# 
# From -- ./inp_files/3914.got.cif
#   From: 2010.03.12/outbox.cif.g09.slc.cpg/sg47_2_cif.got.tgz:3914.got - 2010.04.14 03:12:58.
