data_PCOD8200356
_publ_section_title
;
Structure prediction by ZEFSAII (Michael W. Deem and Ramdas Pophale) SiO2 
 PCOD8200356
Probable space group: P M M M
;
_chemical_formula_sum "Si O2"
_cell_formula_units_Z 52
_cell_length_a 21.663345
_cell_length_b 13.926972
_cell_length_c 9.063943
_cell_angle_alpha 90.000000
_cell_angle_beta 90.000000
_cell_angle_gamma 90.000000
_cell_volume 2734.635103
_symmetry_space_group_name_H-M "P M M M"
_symmetry_group_IT_number 47
_symmetry_cell_setting 'orthorhombic'
loop_
_space_group_symop_operation_xyz
x,y,z
-x,-y,z
x,-y,-z
-x,y,-z
-x,-y,-z
x,y,-z
-x,y,z
x,-y,z
loop_
_atom_site_type_symbol
_atom_site_label
_atom_site_fract_x
_atom_site_fract_y
_atom_site_fract_z
Si Si1 0.500000 0.613442 0.167698
Si Si2 0.428260 0.890847 0.828513
Si Si3 0.613852 0.709035 0.325263
Si Si4 0.071858 0.395754 0.839173
Si Si5 0.259077 0.390299 0.674839
Si Si6 0.069285 0.890551 0.173266
Si Si7 0.147468 0.739860 0.329326
O O1 0.500000 0.500000 0.170138
O O2 0.559719 0.649861 0.251263
O O3 0.500000 0.653072 0.000000
O O4 0.500000 0.866676 0.798990
O O5 0.386091 0.818746 0.733442
O O6 0.413706 0.000000 0.779048
O O7 0.412606 0.877699 0.000000
O O8 0.605190 0.710376 0.500000
O O9 0.675960 0.654906 0.277298
O O10 0.103582 0.500000 0.823709
O O11 0.091121 0.331716 0.701270
O O12 0.000000 0.409000 0.831481
O O13 0.090279 0.350514 0.000000
O O14 0.252549 0.394861 0.500000
O O15 0.252665 0.500000 0.737480
O O16 0.207549 0.315586 0.736711
O O17 0.127530 0.837793 0.248944
O O18 0.000000 0.851082 0.215720
O O19 0.073674 0.000000 0.225098
O O20 0.078119 0.881060 0.000000
O O21 0.155992 0.762903 0.500000
#
# Coordination Sequence:
#
# PCOD8200356 Si02
#       7
#     4   8   8   8   8   8   8
#     4  11  23  37  54  79 112 143 173 222 286 343
#     4   9  18  34  56  81 113 148 173 206 267 332
#     4  11  21  35  58  84 107 140 186 233 275 322
#     4   9  18  32  49  71 102 138 174 215 263 315
#     4   9  20  38  55  74 108 150 186 222 269 326
#     4   9  19  37  59  81 108 144 183 224 274 331
#     4  11  21  33  53  79 106 140 179 223 273 320
#
# _framework density 19.015332999999998
#
# number of rings (size 3 to 8) (size 9 to 14) (size 15 to 20)
#    0.000    2.231    0.769    3.923    0.000    5.231 
#    0.000    6.154    0.000   10.154    0.000    0.000 
#    0.000    0.000    0.000    0.000    0.000    0.000 
#
# Total GULP energy -644376.900646 kJ/mol
# GULP energy per Si atom -12391.863474 kJ/mol
# Density = 1.897205 g / cm^3
# Si number density = 19.015333 Si / 1000 Ang^3
#
#
#
# Elastic Constant Matrix: (Units=GPa)
#
#
# Indices 1 2 3 4 5 6 
#
# 1 106.5093 69.0363 42.1888 0.0000 0.0000 0.0000
# 2 69.0363 125.0414 39.9902 0.0000 0.0000 0.0000
# 3 42.1888 39.9902 60.6508 0.0000 0.0000 0.0000
# 4 0.0000 0.0000 0.0000 11.1804 0.0000 0.0000
# 5 0.0000 0.0000 0.0000 0.0000 -2.9923 0.0000
# 6 0.0000 0.0000 0.0000 0.0000 0.0000 18.4171
#
#
#
# Elastic Compliance Matrix: (Units=1/GPa)
#
#
# Indices 1 2 3 4 5 6 
#
# 1 0.016682 -0.006969 -0.007009 0.000000 0.000000 0.000000
# 2 -0.006969 0.013045 -0.003754 0.000000 0.000000 0.000000
# 3 -0.007009 -0.003754 0.023839 0.000000 0.000000 0.000000
# 4 0.000000 0.000000 0.000000 0.089443 0.000000 0.000000
# 5 0.000000 0.000000 0.000000 0.000000 -0.334188 0.000000
# 6 0.000000 0.000000 0.000000 0.000000 0.000000 0.054297
#
#
# Mechanical properties :
#
#
# Convention : Reuss Voigt Hill
#
# Bulk Modulus (GPa) = 55.24198 66.07025 60.65611
# Shear Modulus (GPa) = -52.41995 14.72011 -18.84992
#
# Velocity S-wave (km/s) = -5.25614 2.78532 -3.15191
# Velocity P-wave (km/s) = 2.77880 6.72050 4.32686
#
# Compressibility (1/GPa) = 0.01810217
#
# Stress axis : x y z
#
# Youngs Moduli (GPa) = 59.94423 76.65518 41.94841
#
# Poissons Ratio (x) = 0.53418 0.29403
# Poissons Ratio (y) = 0.41773 0.15748
# Poissons Ratio (z) = 0.42017 0.28777
#
# Static dielectric constant tensor:
#      x y z
#    x 3.488230 0.000000 0.000000 
#    y 0.000000 3.745800 0.000000 
#    z 0.000000 0.000000 3.356770 
# 
# 
# High freq. dielectric constant tensor:
#      x y z
#    x 1.722680 0.000000 0.000000 
#    y 0.000000 1.755280 0.000000 
#    z 0.000000 0.000000 1.721170 
# 
# From -- ./inp_files/11087.got.cif
#   From: 2010.03.12/outbox.cif.g09.slc.cpg/sg47_6_cif.got.tgz:11087.got - 2010.04.14 03:12:58.
