data_PCOD8200187
_publ_section_title
;
Structure prediction by ZEFSAII (Michael W. Deem and Ramdas Pophale) SiO2 
 PCOD8200187
Probable space group: P M M M
;
_chemical_formula_sum "Si O2"
_cell_formula_units_Z 37
_cell_length_a 8.616791
_cell_length_b 17.634665
_cell_length_c 12.191299
_cell_angle_alpha 90.000000
_cell_angle_beta 90.000000
_cell_angle_gamma 90.000000
_cell_volume 1852.519363
_symmetry_space_group_name_H-M "P M M M"
_symmetry_group_IT_number 47
_symmetry_cell_setting 'orthorhombic'
loop_
_space_group_symop_operation_xyz
x,y,z
-x,-y,z
x,-y,-z
-x,y,-z
-x,-y,-z
x,y,-z
-x,y,z
x,-y,z
loop_
_atom_site_type_symbol
_atom_site_label
_atom_site_fract_x
_atom_site_fract_y
_atom_site_fract_z
Si Si1 0.318308 0.136596 0.275970
Si Si2 0.817073 0.915129 0.500000
Si Si3 0.669055 0.350268 0.000000
Si Si4 0.500000 0.500000 0.000000
Si Si5 0.819987 0.705883 0.217377
Si Si6 0.315600 0.000000 0.124101
Si Si7 0.323445 0.414025 0.628789
O O1 0.500000 0.126025 0.293031
O O2 0.237974 0.128850 0.393074
O O3 0.281806 0.219312 0.231468
O O4 0.255344 0.074163 0.189331
O O5 0.000000 0.917438 0.500000
O O6 0.746867 0.000000 0.500000
O O7 0.772280 0.330400 0.896204
O O8 0.500000 0.307029 0.000000
O O9 0.640797 0.439843 0.000000
O O10 0.788388 0.645303 0.313213
O O11 0.000000 0.727695 0.219017
O O12 0.500000 0.000000 0.117710
O O13 0.246925 0.000000 0.000000
O O14 0.314420 0.399297 0.500000
O O15 0.500000 0.402412 0.671210
O O16 0.271194 0.500000 0.656792
#
# Coordination Sequence:
#
# PCOD8200187 Si02
#       7
#     8   4   4   1   8   4   8
#     4  11  23  41  67  95 125 172 221 269 320 386
#     4  11  23  41  65  93 132 169 212 277 345 397
#     4  10  23  45  69  94 120 167 216 266 315 381
#     4   8  24  44  78  96 118 166 230 280 312 382
#     4  12  26  41  61  94 136 169 206 265 330 387
#     4   9  20  39  65  96 124 157 215 270 313 370
#     4   9  20  40  65  90 119 162 214 261 309 376
#
# _framework density 19.972799999999999
#
# number of rings (size 3 to 8) (size 9 to 14) (size 15 to 20)
#    0.324    1.297    1.081    3.892    4.541    1.297 
#    0.000    1.622    0.000    2.595    0.000    0.000 
#    0.000    0.000    0.000    0.000    0.000    0.000 
#
# Total GULP energy -458370.143032 kJ/mol
# GULP energy per Si atom -12388.382244 kJ/mol
# Density = 1.992734 g / cm^3
# Si number density = 19.972800 Si / 1000 Ang^3
#
#
#
# Elastic Constant Matrix: (Units=GPa)
#
#
# Indices 1 2 3 4 5 6 
#
# 1 62.1038 14.2603 22.4944 0.0000 0.0000 0.0000
# 2 14.2603 133.0359 59.3767 0.0000 0.0000 0.0000
# 3 22.4944 59.3767 121.1707 0.0000 0.0000 0.0000
# 4 0.0000 0.0000 0.0000 9.6025 0.0000 0.0000
# 5 0.0000 0.0000 0.0000 0.0000 45.1601 0.0000
# 6 0.0000 0.0000 0.0000 0.0000 0.0000 15.8218
#
#
#
# Elastic Compliance Matrix: (Units=1/GPa)
#
#
# Indices 1 2 3 4 5 6 
#
# 1 0.017293 -0.000539 -0.002946 0.000000 0.000000 0.000000
# 2 -0.000539 0.009638 -0.004623 0.000000 0.000000 0.000000
# 3 -0.002946 -0.004623 0.011065 0.000000 0.000000 0.000000
# 4 0.000000 0.000000 0.000000 0.104139 0.000000 0.000000
# 5 0.000000 0.000000 0.000000 0.000000 0.022143 0.000000
# 6 0.000000 0.000000 0.000000 0.000000 0.000000 0.063204
#
#
# Mechanical properties :
#
#
# Convention : Reuss Voigt Hill
#
# Bulk Modulus (GPa) = 45.91311 56.50813 51.21062
# Shear Modulus (GPa) = 19.92367 28.79549 24.35958
#
# Velocity S-wave (km/s) = 3.16181 3.80114 3.49612
# Velocity P-wave (km/s) = 6.03052 6.90064 6.48020
#
# Compressibility (1/GPa) = 0.02178027
#
# Stress axis : x y z
#
# Youngs Moduli (GPa) = 57.82700 103.75886 90.37466
#
# Poissons Ratio (x) = 0.05589 0.26628
# Poissons Ratio (y) = 0.03115 0.41778
# Poissons Ratio (z) = 0.17038 0.47965
#
# Static dielectric constant tensor:
#      x y z
#    x 3.493650 0.000000 0.000000 
#    y 0.000000 3.734330 0.000000 
#    z 0.000000 0.000000 3.643800 
# 
# 
# High freq. dielectric constant tensor:
#      x y z
#    x 1.768920 0.000000 0.000000 
#    y 0.000000 1.791930 0.000000 
#    z 0.000000 0.000000 1.783700 
# 
# From -- ./inp_files/14931.got.cif
#   From: 2010.03.12/outbox.cif.g09.slc.cpg/sg47_8_cif.got.tgz:14931.got - 2010.04.14 03:12:58.
