data_PCOD8200976
_publ_section_title
;
Structure prediction by ZEFSAII (Michael W. Deem and Ramdas Pophale) SiO2 
 PCOD8200976
Probable space group: P M M M
;
_chemical_formula_sum "Si O2"
_cell_formula_units_Z 64
_cell_length_a 9.432603
_cell_length_b 19.245325
_cell_length_c 24.076092
_cell_angle_alpha 90.000000
_cell_angle_beta 90.000000
_cell_angle_gamma 90.000000
_cell_volume 4370.617496
_symmetry_space_group_name_H-M "P M M M"
_symmetry_group_IT_number 47
_symmetry_cell_setting 'orthorhombic'
loop_
_space_group_symop_operation_xyz
x,y,z
-x,-y,z
x,-y,-z
-x,y,-z
-x,-y,-z
x,y,-z
-x,y,z
x,-y,z
loop_
_atom_site_type_symbol
_atom_site_label
_atom_site_fract_x
_atom_site_fract_y
_atom_site_fract_z
Si Si1 0.834669 0.709983 0.332847
Si Si2 0.836611 0.421738 0.267310
Si Si3 0.336960 0.924574 0.264028
Si Si4 0.333299 0.647518 0.170845
Si Si5 0.668301 0.421741 0.060848
Si Si6 0.663331 0.777827 0.236336
Si Si7 0.832221 0.788515 0.560968
Si Si8 0.835490 0.922785 0.375579
O O1 0.802642 0.629083 0.319354
O O2 0.754753 0.758814 0.289701
O O3 0.782304 0.729371 0.395064
O O4 0.000000 0.727324 0.326573
O O5 0.801836 0.500000 0.286648
O O6 0.741720 0.402775 0.214619
O O7 0.000000 0.413864 0.249200
O O8 0.500000 0.923799 0.282677
O O9 0.308320 0.859562 0.222024
O O10 0.246054 0.912748 0.318513
O O11 0.299864 0.000000 0.236267
O O12 0.500000 0.632422 0.175038
O O13 0.275568 0.629760 0.109106
O O14 0.296528 0.728342 0.184165
O O15 0.500000 0.420868 0.059855
O O16 0.721652 0.500000 0.073379
O O17 0.725133 0.397501 0.000000
O O18 0.500000 0.765049 0.252127
O O19 0.765388 0.773350 0.500000
O O20 0.782026 0.865071 0.580786
O O21 0.000000 0.787336 0.555942
O O22 0.000000 0.911316 0.361783
O O23 0.808444 0.000000 0.400480
#
# Coordination Sequence:
#
# PCOD8200976 Si02
#       8
#     8   8   8   8   8   8   8   8
#     4   9  16  27  41  54  71  95 120 146 182 225
#     4   9  17  27  39  56  77  99 121 148 184 224
#     4   9  16  25  37  52  73 100 122 142 176 220
#     4   9  16  25  39  59  79  98 124 157 185 210
#     4   8  13  21  34  53  77 103 127 150 178 212
#     4   9  16  25  38  56  76  95 119 153 185 213
#     4   9  16  25  38  55  72  91 118 151 182 214
#     4   9  16  25  38  55  72  91 118 149 177 211
#
# _framework density 14.64324
#
# number of rings (size 3 to 8) (size 9 to 14) (size 15 to 20)
#    0.000    3.125    1.250    0.750    0.000    1.000 
#    0.000    1.250    0.000    2.250    0.000    6.125 
#    0.000    0.500    0.000   13.250    0.000    6.500 
#
# Total GULP energy -792842.964423 kJ/mol
# GULP energy per Si atom -12388.171319 kJ/mol
# Density = 1.460991 g / cm^3
# Si number density = 14.643240 Si / 1000 Ang^3
#
#
#
# Elastic Constant Matrix: (Units=GPa)
#
#
# Indices 1 2 3 4 5 6 
#
# 1 19.8537 20.8875 16.7558 0.0000 0.0000 0.0000
# 2 20.8875 136.9093 75.4038 0.0000 0.0000 0.0000
# 3 16.7558 75.4038 108.1984 0.0000 0.0000 0.0000
# 4 0.0000 0.0000 0.0000 22.0708 0.0000 0.0000
# 5 0.0000 0.0000 0.0000 0.0000 11.5969 0.0000
# 6 0.0000 0.0000 0.0000 0.0000 0.0000 13.7164
#
#
#
# Elastic Compliance Matrix: (Units=1/GPa)
#
#
# Indices 1 2 3 4 5 6 
#
# 1 0.061526 -0.006717 -0.004847 0.000000 0.000000 0.000000
# 2 -0.006717 0.012587 -0.007732 0.000000 0.000000 0.000000
# 3 -0.004847 -0.007732 0.015381 0.000000 0.000000 0.000000
# 4 0.000000 0.000000 0.000000 0.045309 0.000000 0.000000
# 5 0.000000 0.000000 0.000000 0.000000 0.086230 0.000000
# 6 0.000000 0.000000 0.000000 0.000000 0.000000 0.072906
#
#
# Mechanical properties :
#
#
# Convention : Reuss Voigt Hill
#
# Bulk Modulus (GPa) = 19.64530 54.56173 37.10352
# Shear Modulus (GPa) = 14.30622 19.60444 16.95533
#
# Velocity S-wave (km/s) = 3.12907 3.66294 3.40648
# Velocity P-wave (km/s) = 5.14780 7.43176 6.39261
#
# Compressibility (1/GPa) = 0.05090275
#
# Stress axis : x y z
#
# Youngs Moduli (GPa) = 16.25328 79.44502 65.01440
#
# Poissons Ratio (x) = 0.53366 0.31510
# Poissons Ratio (y) = 0.10918 0.50268
# Poissons Ratio (z) = 0.07877 0.61426
#
# Static dielectric constant tensor:
#      x y z
#    x 2.700010 0.000000 0.000000 
#    y 0.000000 3.197180 0.000000 
#    z 0.000000 0.000000 2.926610 
# 
# 
# High freq. dielectric constant tensor:
#      x y z
#    x 1.540020 0.000000 0.000000 
#    y 0.000000 1.566820 0.000000 
#    z 0.000000 0.000000 1.526530 
# 
# From -- ./inp_files/11834.got.cif
#   From: 2010.03.12/outbox.cif.g09.slc.cpg/sg47_6_cif.got.tgz:11834.got - 2010.04.14 03:12:58.
