data_PCOD8200211
_publ_section_title
;
Structure prediction by ZEFSAII (Michael W. Deem and Ramdas Pophale) SiO2 
 PCOD8200211
Probable space group: P M M M
;
_chemical_formula_sum "Si O2"
_cell_formula_units_Z 32
_cell_length_a 17.157058
_cell_length_b 8.877745
_cell_length_c 12.931214
_cell_angle_alpha 90.000000
_cell_angle_beta 90.000000
_cell_angle_gamma 90.000000
_cell_volume 1969.630609
_symmetry_space_group_name_H-M "P M M M"
_symmetry_group_IT_number 47
_symmetry_cell_setting 'orthorhombic'
loop_
_space_group_symop_operation_xyz
x,y,z
-x,-y,z
x,-y,-z
-x,y,-z
-x,-y,-z
x,y,-z
-x,y,z
x,-y,z
loop_
_atom_site_type_symbol
_atom_site_label
_atom_site_fract_x
_atom_site_fract_y
_atom_site_fract_z
Si Si1 0.412752 0.321177 0.614020
Si Si2 0.168438 0.826184 0.123006
Si Si3 0.000000 0.821898 0.886942
Si Si4 0.320614 0.322095 0.810771
Si Si5 0.409631 0.822934 0.000000
O O1 0.386626 0.263057 0.500000
O O2 0.500000 0.261831 0.639034
O O3 0.413560 0.500000 0.614328
O O4 0.353055 0.262181 0.700816
O O5 0.230312 0.722827 0.181701
O O6 0.082254 0.777114 0.167054
O O7 0.186004 0.000000 0.148659
O O8 0.173115 0.799574 0.000000
O O9 0.000000 0.000000 0.901416
O O10 0.000000 0.746186 0.000000
O O11 0.329310 0.500000 0.822417
O O12 0.370507 0.244630 0.899176
O O13 0.500000 0.779533 0.000000
O O14 0.395272 0.000000 0.000000
#
# Coordination Sequence:
#
# PCOD8200211 Si02
#       5
#     8   8   4   8   4
#     4   8  15  29  47  65  86 115 152 191 228 265
#     4   9  16  28  45  64  91 124 154 182 217 265
#     4   7  12  24  43  63  82 117 161 185 206 255
#     4  11  20  29  46  71  95 117 147 188 230 270
#     4  11  23  35  45  60  89 128 159 181 216 269
#
# _framework density 16.246701999999999
#
# number of rings (size 3 to 8) (size 9 to 14) (size 15 to 20)
#    0.000    2.750    1.250    4.125    0.000    2.000 
#    0.000    0.625    0.000    5.250    0.000    9.625 
#    0.000    7.000    0.000    0.000    0.000    0.000 
#
# Total GULP energy -396493.423363 kJ/mol
# GULP energy per Si atom -12390.419480 kJ/mol
# Density = 1.620972 g / cm^3
# Si number density = 16.246702 Si / 1000 Ang^3
#
#
#
# Elastic Constant Matrix: (Units=GPa)
#
#
# Indices 1 2 3 4 5 6 
#
# 1 154.4159 35.6988 69.4683 0.0000 0.0000 0.0000
# 2 35.6988 31.7468 21.4606 0.0000 0.0000 0.0000
# 3 69.4683 21.4606 100.1406 0.0000 0.0000 0.0000
# 4 0.0000 0.0000 0.0000 -4.6027 0.0000 0.0000
# 5 0.0000 0.0000 0.0000 0.0000 14.2611 0.0000
# 6 0.0000 0.0000 0.0000 0.0000 0.0000 21.6112
#
#
#
# Elastic Compliance Matrix: (Units=1/GPa)
#
#
# Indices 1 2 3 4 5 6 
#
# 1 0.011078 -0.008492 -0.005865 0.000000 0.000000 0.000000
# 2 -0.008492 0.043346 -0.003398 0.000000 0.000000 0.000000
# 3 -0.005865 -0.003398 0.014783 0.000000 0.000000 0.000000
# 4 0.000000 0.000000 0.000000 -0.217262 0.000000 0.000000
# 5 0.000000 0.000000 0.000000 0.000000 0.070121 0.000000
# 6 0.000000 0.000000 0.000000 0.000000 0.000000 0.046272
#
#
# Mechanical properties :
#
#
# Convention : Reuss Voigt Hill
#
# Bulk Modulus (GPa) = 29.67718 59.95095 44.81406
# Shear Modulus (GPa) = 331.58055 16.89896 174.23975
#
# Velocity S-wave (km/s) = 14.30154 3.22863 10.36721
# Velocity P-wave (km/s) = 17.05926 7.13297 13.07474
#
# Compressibility (1/GPa) = 0.03369593
#
# Stress axis : x y z
#
# Youngs Moduli (GPa) = 90.27112 23.07036 67.64695
#
# Poissons Ratio (x) = 0.19592 0.39674
# Poissons Ratio (y) = 0.76660 0.22987
# Poissons Ratio (z) = 0.52942 0.07839
#
# Static dielectric constant tensor:
#      x y z
#    x 3.489820 0.000000 0.000000 
#    y 0.000000 2.805640 0.000000 
#    z 0.000000 0.000000 3.151160 
# 
# 
# High freq. dielectric constant tensor:
#      x y z
#    x 1.638110 0.000000 0.000000 
#    y 0.000000 1.599110 0.000000 
#    z 0.000000 0.000000 1.591640 
# 
# From -- ./inp_files/3574.got.cif
#   From: 2010.03.12/outbox.cif.g09.slc.cpg/sg47_2_cif.got.tgz:3574.got - 2010.04.14 03:12:58.
