data_PCOD8200771
_publ_section_title
;
Structure prediction by ZEFSAII (Michael W. Deem and Ramdas Pophale) SiO2 
 PCOD8200771
Probable space group: P M M M
;
_chemical_formula_sum "Si O2"
_cell_formula_units_Z 56
_cell_length_a 31.341999
_cell_length_b 9.092701
_cell_length_c 14.528441
_cell_angle_alpha 90.000000
_cell_angle_beta 90.000000
_cell_angle_gamma 90.000000
_cell_volume 4140.364886
_symmetry_space_group_name_H-M "P M M M"
_symmetry_group_IT_number 47
_symmetry_cell_setting 'orthorhombic'
loop_
_space_group_symop_operation_xyz
x,y,z
-x,-y,z
x,-y,-z
-x,y,-z
-x,-y,-z
x,y,-z
-x,y,z
x,-y,z
loop_
_atom_site_type_symbol
_atom_site_label
_atom_site_fract_x
_atom_site_fract_y
_atom_site_fract_z
Si Si1 0.000000 0.675382 0.896340
Si Si2 0.583363 0.833721 0.890287
Si Si3 0.333240 0.333757 0.109785
Si Si4 0.917542 0.675098 0.210829
Si Si5 0.951856 0.674794 0.600484
Si Si6 0.165622 0.672392 0.893250
Si Si7 0.749634 0.165785 0.109503
Si Si8 0.500000 0.333686 0.890271
O O1 0.042086 0.736593 0.845805
O O2 0.000000 0.500000 0.894697
O O3 0.000000 0.735741 0.000000
O O4 0.625244 0.751144 0.852673
O O5 0.541740 0.749676 0.852512
O O6 0.583161 0.000000 0.852419
O O7 0.583292 0.833991 0.000000
O O8 0.333985 0.500000 0.147473
O O9 0.291235 0.252835 0.148642
O O10 0.333019 0.333429 0.000000
O O11 0.917507 0.500000 0.205549
O O12 0.921469 0.731384 0.316798
O O13 0.873978 0.734528 0.165962
O O14 0.935078 0.729544 0.500000
O O15 0.952810 0.500000 0.602276
O O16 0.000000 0.732827 0.616805
O O17 0.173004 0.500000 0.878195
O O18 0.207466 0.755004 0.856358
O O19 0.156370 0.707195 0.000000
O O20 0.748625 0.000000 0.147900
O O21 0.748105 0.166549 0.000000
O O22 0.500000 0.500000 0.852450
O O23 0.500000 0.333939 0.000000
#
# Coordination Sequence:
#
# PCOD8200771 Si02
#       8
#     4   8   8   8   8   8   8   4
#     4   9  14  18  25  39  60  84 107 130 156 186
#     4   9  15  21  28  38  52  70  92 119 153 194
#     4   9  15  22  32  44  56  70  91 121 155 189
#     4   9  14  20  29  43  63  85 106 129 157 188
#     4   8  12  18  28  42  62  87 109 127 153 190
#     4   9  16  24  33  46  64  84 104 127 156 189
#     4   9  16  25  35  45  57  75  99 125 152 184
#     4   9  15  21  27  35  49  69  93 121 155 195
#
# _framework density 13.525377000000001
#
# number of rings (size 3 to 8) (size 9 to 14) (size 15 to 20)
#    0.000    3.143    0.714    2.357    0.000    7.714 
#    0.000    0.000    0.000    0.000    0.000    0.500 
#    0.000    3.429    0.000    1.571    0.000    1.429 
#
# Total GULP energy -694064.797769 kJ/mol
# GULP energy per Si atom -12394.014246 kJ/mol
# Density = 1.349459 g / cm^3
# Si number density = 13.525377 Si / 1000 Ang^3
#
#
#
# Elastic Constant Matrix: (Units=GPa)
#
#
# Indices 1 2 3 4 5 6 
#
# 1 142.4678 55.0874 35.8235 0.0000 0.0000 0.0000
# 2 55.0874 75.6328 15.4935 0.0000 0.0000 0.0000
# 3 35.8235 15.4935 50.2119 0.0000 0.0000 0.0000
# 4 0.0000 0.0000 0.0000 2.0027 0.0000 0.0000
# 5 0.0000 0.0000 0.0000 0.0000 2.6310 0.0000
# 6 0.0000 0.0000 0.0000 0.0000 0.0000 7.7800
#
#
#
# Elastic Compliance Matrix: (Units=1/GPa)
#
#
# Indices 1 2 3 4 5 6 
#
# 1 0.011168 -0.006941 -0.005826 0.000000 0.000000 0.000000
# 2 -0.006941 0.018427 -0.000734 0.000000 0.000000 0.000000
# 3 -0.005826 -0.000734 0.024299 0.000000 0.000000 0.000000
# 4 0.000000 0.000000 0.000000 0.499316 0.000000 0.000000
# 5 0.000000 0.000000 0.000000 0.000000 0.380086 0.000000
# 6 0.000000 0.000000 0.000000 0.000000 0.000000 0.128534
#
#
# Mechanical properties :
#
#
# Convention : Reuss Voigt Hill
#
# Bulk Modulus (GPa) = 37.18555 53.45790 45.32172
# Shear Modulus (GPa) = 4.55458 13.27663 8.91561
#
# Velocity S-wave (km/s) = 1.83705 3.13646 2.57023
# Velocity P-wave (km/s) = 5.66149 7.26130 6.51072
#
# Compressibility (1/GPa) = 0.02689217
#
# Stress axis : x y z
#
# Youngs Moduli (GPa) = 89.54346 54.26700 41.15450
#
# Poissons Ratio (x) = 0.37665 0.23977
# Poissons Ratio (y) = 0.62149 0.03022
# Poissons Ratio (z) = 0.52168 0.03985
#
# Static dielectric constant tensor:
#      x y z
#    x 2.856230 0.000000 0.000000 
#    y 0.000000 2.559020 0.000000 
#    z 0.000000 0.000000 2.358170 
# 
# 
# High freq. dielectric constant tensor:
#      x y z
#    x 1.522580 0.000000 0.000000 
#    y 0.000000 1.498310 0.000000 
#    z 0.000000 0.000000 1.441930 
# 
# From -- ./inp_files/25808.got.cif
#   From: 2010.03.12/outbox.cif.g09.slc.cpg/sg47_13_cif.got.tgz:25808.got - 2010.04.14 03:12:58.
