data_PCOD8200260
_publ_section_title
;
Structure prediction by ZEFSAII (Michael W. Deem and Ramdas Pophale) SiO2 
 PCOD8200260
Probable space group: P M M M
;
_chemical_formula_sum "Si O2"
_cell_formula_units_Z 48
_cell_length_a 10.040680
_cell_length_b 13.948608
_cell_length_c 18.040406
_cell_angle_alpha 90.000000
_cell_angle_beta 90.000000
_cell_angle_gamma 90.000000
_cell_volume 2526.622171
_symmetry_space_group_name_H-M "P M M M"
_symmetry_group_IT_number 47
_symmetry_cell_setting 'orthorhombic'
loop_
_space_group_symop_operation_xyz
x,y,z
-x,-y,z
x,-y,-z
-x,y,-z
-x,-y,-z
x,y,-z
-x,y,z
x,-y,z
loop_
_atom_site_type_symbol
_atom_site_label
_atom_site_fract_x
_atom_site_fract_y
_atom_site_fract_z
Si Si1 0.845968 0.109081 0.699795
Si Si2 0.653517 0.191566 0.588333
Si Si3 0.000000 0.896799 0.915069
Si Si4 0.758370 0.205992 0.154088
Si Si5 0.156052 0.391196 0.085789
Si Si6 0.657651 0.600863 0.417435
Si Si7 0.500000 0.113819 0.086425
O O1 0.755391 0.118075 0.626241
O O2 0.787952 0.182094 0.760568
O O3 0.000000 0.134492 0.682304
O O4 0.834247 0.000000 0.728410
O O5 0.668957 0.184600 0.500000
O O6 0.500000 0.168738 0.610577
O O7 0.699132 0.297722 0.618928
O O8 0.128736 0.837051 0.897215
O O9 0.000000 0.000000 0.872370
O O10 0.000000 0.919718 0.000000
O O11 0.759118 0.320597 0.139171
O O12 0.622839 0.158704 0.129011
O O13 0.197872 0.500000 0.105296
O O14 0.000000 0.376253 0.100760
O O15 0.189011 0.369045 0.000000
O O16 0.717786 0.598046 0.500000
O O17 0.500000 0.603244 0.423186
O O18 0.702805 0.500000 0.376749
O O19 0.500000 0.000000 0.095982
O O20 0.500000 0.142619 0.000000
#
# Coordination Sequence:
#
# PCOD8200260 Si02
#       7
#     8   8   4   8   8   8   4
#     4  11  24  40  57  79 110 150 193 238 295 353
#     4   9  19  36  59  86 112 142 189 239 285 347
#     4  11  20  32  57  85 108 144 195 238 271 323
#     4  12  22  38  58  82 118 154 191 239 291 345
#     4   9  17  32  58  89 116 149 197 245 286 334
#     4   7  10  21  46  79 110 136 166 211 266 323
#     4  11  24  38  55  85 122 154 187 234 293 347
#
# _framework density 18.997695
#
# number of rings (size 3 to 8) (size 9 to 14) (size 15 to 20)
#    0.000    2.167    1.667    5.000    1.167    2.333 
#    0.000    2.917    0.000    3.000    0.000    2.333 
#    0.000    0.000    0.000    0.000    0.000    0.000 
#
# Total GULP energy -594691.531325 kJ/mol
# GULP energy per Si atom -12389.406903 kJ/mol
# Density = 1.895446 g / cm^3
# Si number density = 18.997695 Si / 1000 Ang^3
#
#
#
# Elastic Constant Matrix: (Units=GPa)
#
#
# Indices 1 2 3 4 5 6 
#
# 1 112.3245 42.1484 43.8335 0.0000 0.0000 0.0000
# 2 42.1484 111.3983 38.7577 0.0000 0.0000 0.0000
# 3 43.8335 38.7577 72.5555 0.0000 0.0000 0.0000
# 4 0.0000 0.0000 0.0000 13.6346 0.0000 0.0000
# 5 0.0000 0.0000 0.0000 0.0000 26.9853 0.0000
# 6 0.0000 0.0000 0.0000 0.0000 0.0000 38.7112
#
#
#
# Elastic Compliance Matrix: (Units=1/GPa)
#
#
# Indices 1 2 3 4 5 6 
#
# 1 0.012199 -0.002520 -0.006024 0.000000 0.000000 0.000000
# 2 -0.002520 0.011546 -0.004646 0.000000 0.000000 0.000000
# 3 -0.006024 -0.004646 0.019903 0.000000 0.000000 0.000000
# 4 0.000000 0.000000 0.000000 0.073343 0.000000 0.000000
# 5 0.000000 0.000000 0.000000 0.000000 0.037057 0.000000
# 6 0.000000 0.000000 0.000000 0.000000 0.000000 0.025832
#
#
# Mechanical properties :
#
#
# Convention : Reuss Voigt Hill
#
# Bulk Modulus (GPa) = 57.90259 60.63972 59.27115
# Shear Modulus (GPa) = 23.58307 27.30214 25.44260
#
# Velocity S-wave (km/s) = 3.52712 3.79506 3.66354
# Velocity P-wave (km/s) = 6.86530 7.15487 7.01158
#
# Compressibility (1/GPa) = 0.01727039
#
# Stress axis : x y z
#
# Youngs Moduli (GPa) = 81.97360 86.60651 50.24272
#
# Poissons Ratio (x) = 0.21823 0.30266
# Poissons Ratio (y) = 0.20656 0.23341
# Poissons Ratio (z) = 0.49380 0.40234
#
# Static dielectric constant tensor:
#      x y z
#    x 3.274860 0.000000 0.000000 
#    y 0.000000 4.071080 0.000000 
#    z 0.000000 0.000000 3.177060 
# 
# 
# High freq. dielectric constant tensor:
#      x y z
#    x 1.712540 0.000000 0.000000 
#    y 0.000000 1.757830 0.000000 
#    z 0.000000 0.000000 1.710270 
# 
# From -- ./inp_files/26504.got.cif
#   From: 2010.03.12/outbox.cif.g09.slc.cpg/sg47_14_cif.got.tgz:26504.got - 2010.04.14 03:12:58.
