data_PCOD8200336
_publ_section_title
;
Structure prediction by ZEFSAII (Michael W. Deem and Ramdas Pophale) SiO2 
 PCOD8200336
Probable space group: P M M M
;
_chemical_formula_sum "Si O2"
_cell_formula_units_Z 52
_cell_length_a 9.498845
_cell_length_b 29.968938
_cell_length_c 12.404549
_cell_angle_alpha 90.000000
_cell_angle_beta 90.000000
_cell_angle_gamma 90.000000
_cell_volume 3531.206646
_symmetry_space_group_name_H-M "P M M M"
_symmetry_group_IT_number 47
_symmetry_cell_setting 'orthorhombic'
loop_
_space_group_symop_operation_xyz
x,y,z
-x,-y,z
x,-y,-z
-x,y,-z
-x,-y,-z
x,y,-z
-x,y,z
x,-y,z
loop_
_atom_site_type_symbol
_atom_site_label
_atom_site_fract_x
_atom_site_fract_y
_atom_site_fract_z
Si Si1 0.663087 0.052932 0.500000
Si Si2 0.842170 0.548989 0.371812
Si Si3 0.658029 0.628721 0.628374
Si Si4 0.834258 0.905154 0.304829
Si Si5 0.340389 0.051868 0.124964
Si Si6 0.341316 0.273323 0.371875
Si Si7 0.839025 0.807495 0.623294
O O1 0.500000 0.069404 0.500000
O O2 0.744148 0.070262 0.604455
O O3 0.668157 0.000000 0.500000
O O4 0.841065 0.552500 0.500000
O O5 0.783543 0.500000 0.337365
O O6 0.750363 0.588888 0.320462
O O7 0.000000 0.554778 0.328061
O O8 0.661241 0.626215 0.500000
O O9 0.500000 0.621912 0.670542
O O10 0.713735 0.677679 0.665782
O O11 0.775651 0.920247 0.189585
O O12 0.810217 0.852188 0.310087
O O13 0.000000 0.916918 0.317686
O O14 0.500000 0.065100 0.158790
O O15 0.316300 0.000000 0.149418
O O16 0.316140 0.062423 0.000000
O O17 0.334280 0.271284 0.500000
O O18 0.500000 0.266215 0.331057
O O19 0.247560 0.233357 0.323717
O O20 0.793626 0.816976 0.500000
O O21 0.000000 0.792803 0.629038
#
# Coordination Sequence:
#
# PCOD8200336 Si02
#       7
#     4   8   8   8   8   8   8
#     4  11  23  35  47  65  89 117 145 167 196 243
#     4   8  13  19  25  34  49  69  96 131 171 218
#     4   8  13  20  28  39  55  73  99 137 177 217
#     4  11  21  33  48  68  92 113 137 171 206 242
#     4   9  19  36  54  70  89 112 139 170 201 238
#     4   8  14  23  34  48  64  85 116 150 181 220
#     4   9  17  29  40  54  79 105 127 154 191 233
#
# _framework density 14.725846000000001
#
# number of rings (size 3 to 8) (size 9 to 14) (size 15 to 20)
#    0.000    3.000    0.769    3.000    0.000    5.231 
#    0.000    5.385    0.000    0.000    0.000    0.000 
#    0.000    0.000    0.000    0.000    0.000    0.000 
#
# Total GULP energy -644418.228726 kJ/mol
# GULP energy per Si atom -12392.658245 kJ/mol
# Density = 1.469233 g / cm^3
# Si number density = 14.725846 Si / 1000 Ang^3
#
#
#
# Elastic Constant Matrix: (Units=GPa)
#
#
# Indices 1 2 3 4 5 6 
#
# 1 94.8528 74.0842 28.4656 0.0000 0.0000 0.0000
# 2 74.0842 126.1753 28.5813 0.0000 0.0000 0.0000
# 3 28.4656 28.5813 32.5398 0.0000 0.0000 0.0000
# 4 0.0000 0.0000 0.0000 4.7483 0.0000 0.0000
# 5 0.0000 0.0000 0.0000 0.0000 15.4304 0.0000
# 6 0.0000 0.0000 0.0000 0.0000 0.0000 33.4973
#
#
#
# Elastic Compliance Matrix: (Units=1/GPa)
#
#
# Indices 1 2 3 4 5 6 
#
# 1 0.021684 -0.010530 -0.009720 0.000000 0.000000 0.000000
# 2 -0.010530 0.015008 -0.003970 0.000000 0.000000 0.000000
# 3 -0.009720 -0.003970 0.042722 0.000000 0.000000 0.000000
# 4 0.000000 0.000000 0.000000 0.210600 0.000000 0.000000
# 5 0.000000 0.000000 0.000000 0.000000 0.064807 0.000000
# 6 0.000000 0.000000 0.000000 0.000000 0.000000 0.029853
#
#
# Mechanical properties :
#
#
# Convention : Reuss Voigt Hill
#
# Bulk Modulus (GPa) = 32.28638 57.31445 44.80042
# Shear Modulus (GPa) = 11.27552 18.89766 15.08659
#
# Velocity S-wave (km/s) = 2.77012 3.58620 3.20425
# Velocity P-wave (km/s) = 5.67486 7.49355 6.64670
#
# Compressibility (1/GPa) = 0.03097281
#
# Stress axis : x y z
#
# Youngs Moduli (GPa) = 46.11664 66.63286 23.40726
#
# Poissons Ratio (x) = 0.70165 0.22752
# Poissons Ratio (y) = 0.48561 0.09293
# Poissons Ratio (z) = 0.44826 0.26455
#
# Static dielectric constant tensor:
#      x y z
#    x 3.042430 0.000000 0.000000 
#    y 0.000000 3.185190 0.000000 
#    z 0.000000 0.000000 2.308020 
# 
# 
# High freq. dielectric constant tensor:
#      x y z
#    x 1.571010 0.000000 0.000000 
#    y 0.000000 1.575270 0.000000 
#    z 0.000000 0.000000 1.485620 
# 
# From -- ./inp_files/15673.got.cif
#   From: 2010.03.12/outbox.cif.g09.slc.cpg/sg47_8_cif.got.tgz:15673.got - 2010.04.14 03:12:58.
