data_PCOD8200978
_publ_section_title
;
Structure prediction by ZEFSAII (Michael W. Deem and Ramdas Pophale) SiO2 
 PCOD8200978
Probable space group: P M M M
;
_chemical_formula_sum "Si O2"
_cell_formula_units_Z 64
_cell_length_a 20.247383
_cell_length_b 9.479893
_cell_length_c 19.984542
_cell_angle_alpha 90.000000
_cell_angle_beta 90.000000
_cell_angle_gamma 90.000000
_cell_volume 3835.893432
_symmetry_space_group_name_H-M "P M M M"
_symmetry_group_IT_number 47
_symmetry_cell_setting 'orthorhombic'
loop_
_space_group_symop_operation_xyz
x,y,z
-x,-y,z
x,-y,-z
-x,y,-z
-x,-y,-z
x,y,-z
-x,y,z
x,-y,z
loop_
_atom_site_type_symbol
_atom_site_label
_atom_site_fract_x
_atom_site_fract_y
_atom_site_fract_z
Si Si1 0.927102 0.667484 0.677304
Si Si2 0.816216 0.335304 0.576854
Si Si3 0.573792 0.167782 0.177014
Si Si4 0.170994 0.163284 0.922164
Si Si5 0.313172 0.835885 0.423020
Si Si6 0.076761 0.336708 0.172512
Si Si7 0.319200 0.167966 0.074405
Si Si8 0.573056 0.167627 0.326777
O O1 0.930342 0.500000 0.674569
O O2 0.875188 0.724506 0.622923
O O3 0.906195 0.714233 0.752052
O O4 0.000000 0.728088 0.659968
O O5 0.835773 0.306668 0.500000
O O6 0.802873 0.500000 0.589726
O O7 0.751279 0.250551 0.597517
O O8 0.500000 0.218842 0.157004
O O9 0.627425 0.233085 0.125934
O O10 0.591186 0.219629 0.251968
O O11 0.576537 0.000000 0.174242
O O12 0.119384 0.249897 0.879386
O O13 0.245362 0.214524 0.904616
O O14 0.162393 0.000000 0.904015
O O15 0.156297 0.189795 0.000000
O O16 0.332137 0.810856 0.500000
O O17 0.373366 0.774319 0.379088
O O18 0.299569 0.000000 0.408181
O O19 0.094546 0.500000 0.163625
O O20 0.000000 0.309730 0.157266
O O21 0.322411 0.000000 0.074021
O O22 0.335906 0.224579 0.000000
O O23 0.500000 0.223758 0.346601
O O24 0.572512 0.000000 0.328921
#
# Coordination Sequence:
#
# PCOD8200978 Si02
#       8
#     8   8   8   8   8   8   8   8
#     4   8  15  29  47  66  88 112 140 176 214 251
#     4   9  17  29  46  67  89 113 141 174 212 254
#     4   8  13  21  34  54  80 107 135 170 209 245
#     4   9  18  31  45  63  89 118 145 176 214 254
#     4   9  17  28  42  61  85 112 141 174 211 249
#     4   9  18  32  48  65  86 112 142 178 217 254
#     4   8  14  24  36  52  78 110 139 166 201 247
#     4   8  14  24  37  55  79 105 136 174 210 243
#
# _framework density 16.684508999999998
#
# number of rings (size 3 to 8) (size 9 to 14) (size 15 to 20)
#    0.000    3.500    0.000    2.250    0.000    2.500 
#    0.000    6.875    0.000    1.500    0.000    3.500 
#    0.000    1.500    0.000    2.750    0.000    2.750 
#
# Total GULP energy -793224.577993 kJ/mol
# GULP energy per Si atom -12394.134031 kJ/mol
# Density = 1.664653 g / cm^3
# Si number density = 16.684509 Si / 1000 Ang^3
#
#
#
# Elastic Constant Matrix: (Units=GPa)
#
#
# Indices 1 2 3 4 5 6 
#
# 1 147.4644 39.9168 104.9780 0.0000 0.0000 0.0000
# 2 39.9168 25.7169 33.8423 0.0000 0.0000 0.0000
# 3 104.9780 33.8423 116.0734 0.0000 0.0000 0.0000
# 4 0.0000 0.0000 0.0000 15.7075 0.0000 0.0000
# 5 0.0000 0.0000 0.0000 0.0000 41.8236 0.0000
# 6 0.0000 0.0000 0.0000 0.0000 0.0000 10.1004
#
#
#
# Elastic Compliance Matrix: (Units=1/GPa)
#
#
# Indices 1 2 3 4 5 6 
#
# 1 0.021253 -0.012483 -0.015582 0.000000 0.000000 0.000000
# 2 -0.012483 0.070424 -0.009243 0.000000 0.000000 0.000000
# 3 -0.015582 -0.009243 0.025402 0.000000 0.000000 0.000000
# 4 0.000000 0.000000 0.000000 0.063664 0.000000 0.000000
# 5 0.000000 0.000000 0.000000 0.000000 0.023910 0.000000
# 6 0.000000 0.000000 0.000000 0.000000 0.000000 0.099006
#
#
# Mechanical properties :
#
#
# Convention : Reuss Voigt Hill
#
# Bulk Modulus (GPa) = 23.54954 71.85877 47.70415
# Shear Modulus (GPa) = 12.74118 20.89412 16.81765
#
# Velocity S-wave (km/s) = 2.76643 3.54263 3.17831
# Velocity P-wave (km/s) = 4.93451 7.73927 6.49021
#
# Compressibility (1/GPa) = 0.04246368
#
# Stress axis : x y z
#
# Youngs Moduli (GPa) = 47.05317 14.19972 39.36650
#
# Poissons Ratio (x) = 0.17725 0.61339
# Poissons Ratio (y) = 0.58736 0.36387
# Poissons Ratio (z) = 0.73316 0.13125
#
# Static dielectric constant tensor:
#      x y z
#    x 3.422580 0.000000 0.000000 
#    y 0.000000 2.618630 0.000000 
#    z 0.000000 0.000000 3.331980 
# 
# 
# High freq. dielectric constant tensor:
#      x y z
#    x 1.650670 0.000000 0.000000 
#    y 0.000000 1.585090 0.000000 
#    z 0.000000 0.000000 1.648730 
# 
# From -- ./inp_files/31376.got.cif
#   From: 2010.03.12/outbox.cif.g09.slc.cpg/sg47_16_cif.got.tgz:31376.got - 2010.04.14 03:12:58.
