data_PCOD8200602
_publ_section_title
;
Structure prediction by ZEFSAII (Michael W. Deem and Ramdas Pophale) SiO2 
 PCOD8200602
Probable space group: P M M M
;
_chemical_formula_sum "Si O2"
_cell_formula_units_Z 36
_cell_length_a 9.437028
_cell_length_b 23.279614
_cell_length_c 9.385793
_cell_angle_alpha 90.000000
_cell_angle_beta 90.000000
_cell_angle_gamma 90.000000
_cell_volume 2061.968329
_symmetry_space_group_name_H-M "P M M M"
_symmetry_group_IT_number 47
_symmetry_cell_setting 'orthorhombic'
loop_
_space_group_symop_operation_xyz
x,y,z
-x,-y,z
x,-y,-z
-x,y,-z
-x,-y,-z
x,y,-z
-x,y,z
x,-y,z
loop_
_atom_site_type_symbol
_atom_site_label
_atom_site_fract_x
_atom_site_fract_y
_atom_site_fract_z
Si Si1 0.668461 0.563070 0.839403
Si Si2 0.843771 0.775735 0.668940
Si Si3 0.166162 0.904639 0.665754
Si Si4 0.664167 0.670256 0.666444
Si Si5 0.666543 0.000000 0.832007
O O1 0.500000 0.563723 0.832103
O O2 0.722521 0.500000 0.787989
O O3 0.729993 0.613434 0.739779
O O4 0.720389 0.574449 0.000000
O O5 0.849396 0.772315 0.500000
O O6 0.793506 0.839622 0.711177
O O7 0.738805 0.727176 0.729547
O O8 0.000000 0.763917 0.731865
O O9 0.201428 0.916136 0.500000
O O10 0.000000 0.916680 0.693194
O O11 0.262426 0.944128 0.763959
O O12 0.692101 0.663236 0.500000
O O13 0.500000 0.677277 0.702914
O O14 0.500000 0.000000 0.797437
O O15 0.695476 0.000000 0.000000
#
# Coordination Sequence:
#
# PCOD8200602 Si02
#       5
#     8   8   8   8   4
#     4   8  14  25  40  58  83 116 150 182 220 266
#     4   8  15  29  48  69  93 119 146 180 223 270
#     4   9  18  34  56  77  94 120 162 201 231 274
#     4   9  16  25  41  67  92 112 141 183 225 262
#     4  11  24  37  48  70 104 133 156 189 236 282
#
# _framework density 17.459043999999999
#
# number of rings (size 3 to 8) (size 9 to 14) (size 15 to 20)
#    0.000    3.222    0.000    2.667    0.000    4.000 
#    0.000    5.556    0.000    5.333    0.000    4.667 
#    0.000    0.000    0.000    0.000    0.000    0.000 
#
# Total GULP energy -446162.558648 kJ/mol
# GULP energy per Si atom -12393.404407 kJ/mol
# Density = 1.741931 g / cm^3
# Si number density = 17.459044 Si / 1000 Ang^3
#
#
#
# Elastic Constant Matrix: (Units=GPa)
#
#
# Indices 1 2 3 4 5 6 
#
# 1 66.1904 74.9921 44.3460 0.0000 0.0000 0.0000
# 2 74.9921 191.7894 67.3589 0.0000 0.0000 0.0000
# 3 44.3460 67.3589 61.0394 0.0000 0.0000 0.0000
# 4 0.0000 0.0000 0.0000 5.8544 0.0000 0.0000
# 5 0.0000 0.0000 0.0000 0.0000 16.3647 0.0000
# 6 0.0000 0.0000 0.0000 0.0000 0.0000 11.7772
#
#
#
# Elastic Compliance Matrix: (Units=1/GPa)
#
#
# Indices 1 2 3 4 5 6 
#
# 1 0.035470 -0.007868 -0.017087 0.000000 0.000000 0.000000
# 2 -0.007868 0.010259 -0.005605 0.000000 0.000000 0.000000
# 3 -0.017087 -0.005605 0.034982 0.000000 0.000000 0.000000
# 4 0.000000 0.000000 0.000000 0.170813 0.000000 0.000000
# 5 0.000000 0.000000 0.000000 0.000000 0.061107 0.000000
# 6 0.000000 0.000000 0.000000 0.000000 0.000000 0.084910
#
#
# Mechanical properties :
#
#
# Convention : Reuss Voigt Hill
#
# Bulk Modulus (GPa) = 51.04293 76.93479 63.98886
# Shear Modulus (GPa) = 10.74827 15.62073 13.18450
#
# Velocity S-wave (km/s) = 2.48388 2.99441 2.75101
# Velocity P-wave (km/s) = 6.12580 7.49112 6.84260
#
# Compressibility (1/GPa) = 0.01959135
#
# Stress axis : x y z
#
# Youngs Moduli (GPa) = 28.19281 97.47423 28.58628
#
# Poissons Ratio (x) = 0.76694 0.48845
# Poissons Ratio (y) = 0.22183 0.16022
# Poissons Ratio (z) = 0.48172 0.54634
#
# Static dielectric constant tensor:
#      x y z
#    x 3.121650 0.000000 0.000000 
#    y 0.000000 3.760830 0.000000 
#    z 0.000000 0.000000 3.023350 
# 
# 
# High freq. dielectric constant tensor:
#      x y z
#    x 1.644640 0.000000 0.000000 
#    y 0.000000 1.694970 0.000000 
#    z 0.000000 0.000000 1.644970 
# 
# From -- ./inp_files/1406.got.cif
#   From: 2010.03.12/outbox.cif.g09.slc.cpg/sg47_1_cif.got.tgz:1406.got - 2010.04.14 03:12:58.
