data_PCOD8200216
_publ_section_title
;
Structure prediction by ZEFSAII (Michael W. Deem and Ramdas Pophale) SiO2 
 PCOD8200216
Probable space group: P M M M
;
_chemical_formula_sum "Si O2"
_cell_formula_units_Z 64
_cell_length_a 14.512347
_cell_length_b 8.728832
_cell_length_c 31.285185
_cell_angle_alpha 90.000000
_cell_angle_beta 90.000000
_cell_angle_gamma 90.000000
_cell_volume 3963.077055
_symmetry_space_group_name_H-M "P M M M"
_symmetry_group_IT_number 47
_symmetry_cell_setting 'orthorhombic'
loop_
_space_group_symop_operation_xyz
x,y,z
-x,-y,z
x,-y,-z
-x,y,-z
-x,-y,-z
x,y,-z
-x,y,z
x,-y,z
loop_
_atom_site_type_symbol
_atom_site_label
_atom_site_fract_x
_atom_site_fract_y
_atom_site_fract_z
Si Si1 0.899677 0.818222 0.249166
Si Si2 0.709449 0.180789 0.215303
Si Si3 0.293144 0.179805 0.624885
Si Si4 0.393935 0.676830 0.451043
Si Si5 0.099695 0.818456 0.345142
Si Si6 0.604107 0.682725 0.862983
Si Si7 0.607853 0.321888 0.704967
Si Si8 0.390625 0.671366 0.954786
O O1 0.815079 0.759751 0.220175
O O2 0.885853 0.754342 0.297167
O O3 0.000000 0.763421 0.231251
O O4 0.896672 0.000000 0.250867
O O5 0.671848 0.257560 0.172855
O O6 0.651504 0.226341 0.256693
O O7 0.703890 0.000000 0.210081
O O8 0.330187 0.216561 0.577909
O O9 0.186150 0.235321 0.626266
O O10 0.351521 0.270802 0.659760
O O11 0.301870 0.000000 0.634481
O O12 0.367046 0.708863 0.500000
O O13 0.500000 0.720212 0.442954
O O14 0.377156 0.500000 0.439324
O O15 0.000000 0.758884 0.363065
O O16 0.097134 0.000000 0.343495
O O17 0.500000 0.739836 0.853206
O O18 0.605774 0.500000 0.863914
O O19 0.639843 0.747804 0.909528
O O20 0.500000 0.287529 0.704200
O O21 0.628486 0.500000 0.712536
O O22 0.500000 0.663443 0.952939
O O23 0.350348 0.500000 0.956523
O O24 0.360172 0.754748 0.000000
#
# Coordination Sequence:
#
# PCOD8200216 Si02
#       8
#     8   8   8   8   8   8   8   8
#     4   8  14  27  46  64  83 110 145 183 222 263
#     4  11  20  30  45  65  87 114 150 188 222 257
#     4  11  20  31  51  77  96 113 146 190 228 258
#     4   9  19  36  54  70  93 127 158 180 213 264
#     4   8  14  27  47  69  92 116 143 178 222 268
#     4   9  17  28  41  59  87 122 152 178 218 268
#     4  11  23  35  45  60  89 128 158 178 210 259
#     4   7  10  19  37  58  77 103 146 191 218 246
#
# _framework density 16.149068
#
# number of rings (size 3 to 8) (size 9 to 14) (size 15 to 20)
#    0.000    2.750    1.250    4.125    0.000    4.750 
#    0.000    0.625    0.000    4.500    0.000    4.375 
#    0.000    0.500    0.000    6.250    0.000    0.250 
#
# Total GULP energy -792862.322200 kJ/mol
# GULP energy per Si atom -12388.473784 kJ/mol
# Density = 1.611231 g / cm^3
# Si number density = 16.149068 Si / 1000 Ang^3
#
#
#
# Elastic Constant Matrix: (Units=GPa)
#
#
# Indices 1 2 3 4 5 6 
#
# 1 114.3111 18.8135 58.0810 0.0000 0.0000 0.0000
# 2 18.8135 15.5004 10.3525 0.0000 0.0000 0.0000
# 3 58.0810 10.3525 108.4061 0.0000 0.0000 0.0000
# 4 0.0000 0.0000 0.0000 5.8617 0.0000 0.0000
# 5 0.0000 0.0000 0.0000 0.0000 5.1807 0.0000
# 6 0.0000 0.0000 0.0000 0.0000 0.0000 -3.9772
#
#
#
# Elastic Compliance Matrix: (Units=1/GPa)
#
#
# Indices 1 2 3 4 5 6 
#
# 1 0.014072 -0.012865 -0.006311 0.000000 0.000000 0.000000
# 2 -0.012865 0.080671 -0.000811 0.000000 0.000000 0.000000
# 3 -0.006311 -0.000811 0.012683 0.000000 0.000000 0.000000
# 4 0.000000 0.000000 0.000000 0.170599 0.000000 0.000000
# 5 0.000000 0.000000 0.000000 0.000000 0.193023 0.000000
# 6 0.000000 0.000000 0.000000 0.000000 0.000000 -0.251436
#
#
# Mechanical properties :
#
#
# Convention : Reuss Voigt Hill
#
# Bulk Modulus (GPa) = 14.82526 45.85687 30.34106
# Shear Modulus (GPa) = 17.72604 11.47775 14.60190
#
# Velocity S-wave (km/s) = 3.31668 2.66886 3.01024
# Velocity P-wave (km/s) = 4.88542 6.16074 5.55977
#
# Compressibility (1/GPa) = 0.06745244
#
# Stress axis : x y z
#
# Youngs Moduli (GPa) = 71.06394 12.39602 78.84463
#
# Poissons Ratio (x) = 0.15947 0.49757
# Poissons Ratio (y) = 0.91422 0.06396
# Poissons Ratio (z) = 0.44847 0.01006
#
# Static dielectric constant tensor:
#      x y z
#    x 3.299410 0.000000 0.000000 
#    y 0.000000 2.778370 0.000000 
#    z 0.000000 0.000000 3.271790 
# 
# 
# High freq. dielectric constant tensor:
#      x y z
#    x 1.607460 0.000000 0.000000 
#    y 0.000000 1.592810 0.000000 
#    z 0.000000 0.000000 1.615490 
# 
# From -- ./inp_files/34677.got.cif
#   From: 2010.03.12/outbox.cif.g09.slc.cpg/sg47_18_cif.got.tgz:34677.got - 2010.04.14 03:12:58.
