data_PCOD8200496
_publ_section_title
;
Structure prediction by ZEFSAII (Michael W. Deem and Ramdas Pophale) SiO2 
 PCOD8200496
Probable space group: P M M M
;
_chemical_formula_sum "Si O2"
_cell_formula_units_Z 40
_cell_length_a 8.866177
_cell_length_b 18.357163
_cell_length_c 12.826588
_cell_angle_alpha 90.000000
_cell_angle_beta 90.000000
_cell_angle_gamma 90.000000
_cell_volume 2087.627967
_symmetry_space_group_name_H-M "P M M M"
_symmetry_group_IT_number 47
_symmetry_cell_setting 'orthorhombic'
loop_
_space_group_symop_operation_xyz
x,y,z
-x,-y,z
x,-y,-z
-x,y,-z
-x,-y,-z
x,y,-z
-x,y,z
x,-y,z
loop_
_atom_site_type_symbol
_atom_site_label
_atom_site_fract_x
_atom_site_fract_y
_atom_site_fract_z
Si Si1 0.679252 0.317608 0.114578
Si Si2 0.680175 0.582178 0.297478
Si Si3 0.320529 0.334669 0.500000
Si Si4 0.323578 0.847157 0.119798
Si Si5 0.321215 0.830665 0.500000
Si Si6 0.825391 0.915808 0.687850
O O1 0.500000 0.320810 0.113378
O O2 0.745325 0.374698 0.197569
O O3 0.727982 0.235609 0.143658
O O4 0.741644 0.338593 0.000000
O O5 0.500000 0.582073 0.296804
O O6 0.742874 0.500000 0.295153
O O7 0.742171 0.622944 0.399437
O O8 0.500000 0.335210 0.500000
O O9 0.260643 0.252132 0.500000
O O10 0.500000 0.857106 0.142414
O O11 0.231228 0.899860 0.195377
O O12 0.286892 0.867642 0.000000
O O13 0.500000 0.832871 0.500000
O O14 0.264782 0.868989 0.395782
O O15 0.000000 0.895584 0.679195
O O16 0.797111 0.000000 0.662483
#
# Coordination Sequence:
#
# PCOD8200496 Si02
#       6
#     8   8   4   8   4   8
#     4   8  14  25  41  63  93 128 166 207 246 284
#     4   9  15  22  35  59  95 134 163 191 239 302
#     4   9  17  28  43  65  92 123 162 206 248 291
#     4   9  18  34  56  79 104 138 179 218 253 296
#     4  11  22  37  59  79  98 133 178 218 256 305
#     4  11  24  39  54  76 108 138 164 207 267 319
#
# _framework density 19.160502000000001
#
# number of rings (size 3 to 8) (size 9 to 14) (size 15 to 20)
#    0.000    2.600    0.000    3.900    0.000    8.400 
#    0.000    4.000    0.000    0.000    0.000    0.000 
#    0.000   32.800    0.000   17.600    0.000   17.600 
#
# Total GULP energy -495960.687870 kJ/mol
# GULP energy per Si atom -12399.017197 kJ/mol
# Density = 1.911689 g / cm^3
# Si number density = 19.160502 Si / 1000 Ang^3
#
#
#
# Elastic Constant Matrix: (Units=GPa)
#
#
# Indices 1 2 3 4 5 6 
#
# 1 38.0727 32.7577 27.4710 0.0000 0.0000 0.0000
# 2 32.7577 92.9464 50.4508 0.0000 0.0000 0.0000
# 3 27.4710 50.4508 124.5535 0.0000 0.0000 0.0000
# 4 0.0000 0.0000 0.0000 30.7123 0.0000 0.0000
# 5 0.0000 0.0000 0.0000 0.0000 12.0105 0.0000
# 6 0.0000 0.0000 0.0000 0.0000 0.0000 -3.0364
#
#
#
# Elastic Compliance Matrix: (Units=1/GPa)
#
#
# Indices 1 2 3 4 5 6 
#
# 1 0.039122 -0.011670 -0.003901 0.000000 0.000000 0.000000
# 2 -0.011670 0.017272 -0.004422 0.000000 0.000000 0.000000
# 3 -0.003901 -0.004422 0.010680 0.000000 0.000000 0.000000
# 4 0.000000 0.000000 0.000000 0.032560 0.000000 0.000000
# 5 0.000000 0.000000 0.000000 0.000000 0.083260 0.000000
# 6 0.000000 0.000000 0.000000 0.000000 0.000000 -0.329333
#
#
# Mechanical properties :
#
#
# Convention : Reuss Voigt Hill
#
# Bulk Modulus (GPa) = 36.91878 52.99239 44.95558
# Shear Modulus (GPa) = -51.32314 17.59682 -16.86316
#
# Velocity S-wave (km/s) = -5.18112 3.03378 -2.96987
# Velocity P-wave (km/s) = 4.05981 6.32368 3.42833
#
# Compressibility (1/GPa) = 0.02708648
#
# Stress axis : x y z
#
# Youngs Moduli (GPa) = 25.56131 57.89620 93.62937
#
# Poissons Ratio (x) = 0.67566 0.36529
# Poissons Ratio (y) = 0.29831 0.41405
# Poissons Ratio (z) = 0.09973 0.25603
#
# Static dielectric constant tensor:
#      x y z
#    x 2.928050 0.000000 0.000000 
#    y 0.000000 3.645900 0.000000 
#    z 0.000000 0.000000 3.809120 
# 
# 
# High freq. dielectric constant tensor:
#      x y z
#    x 1.685650 0.000000 0.000000 
#    y 0.000000 1.752250 0.000000 
#    z 0.000000 0.000000 1.763850 
# 
# From -- ./inp_files/15107.got.cif
#   From: 2010.03.12/outbox.cif.g09.slc.cpg/sg47_8_cif.got.tgz:15107.got - 2010.04.14 03:12:58.
