data_PCOD8200963
_publ_section_title
;
Structure prediction by ZEFSAII (Michael W. Deem and Ramdas Pophale) SiO2 
 PCOD8200963
Probable space group: P M M M
;
_chemical_formula_sum "Si O2"
_cell_formula_units_Z 48
_cell_length_a 31.162034
_cell_length_b 9.522577
_cell_length_c 9.199687
_cell_angle_alpha 90.000000
_cell_angle_beta 90.000000
_cell_angle_gamma 90.000000
_cell_volume 2729.941507
_symmetry_space_group_name_H-M "P M M M"
_symmetry_group_IT_number 47
_symmetry_cell_setting 'orthorhombic'
loop_
_space_group_symop_operation_xyz
x,y,z
-x,-y,z
x,-y,-z
-x,y,-z
-x,-y,-z
x,y,-z
-x,y,z
x,-y,z
loop_
_atom_site_type_symbol
_atom_site_label
_atom_site_fract_x
_atom_site_fract_y
_atom_site_fract_z
Si Si1 0.452323 0.842472 0.327082
Si Si2 0.126237 0.836438 0.330414
Si Si3 0.952748 0.657809 0.327267
Si Si4 0.790419 0.833062 0.836029
Si Si5 0.706352 0.837340 0.329867
Si Si6 0.625244 0.658445 0.673111
O O1 0.450262 0.842039 0.500000
O O2 0.500000 0.796433 0.275295
O O3 0.417349 0.734114 0.263543
O O4 0.442049 0.000000 0.271034
O O5 0.133290 0.804993 0.500000
O O6 0.084107 0.759839 0.266353
O O7 0.167543 0.775875 0.246318
O O8 0.119569 0.000000 0.300530
O O9 0.952424 0.663042 0.500000
O O10 0.943300 0.500000 0.273033
O O11 0.000000 0.706274 0.271505
O O12 0.747995 0.779820 0.753932
O O13 0.791103 0.000000 0.832796
O O14 0.790199 0.774819 0.000000
O O15 0.714879 0.816557 0.500000
O O16 0.666501 0.745379 0.273749
O O17 0.696616 0.000000 0.294117
O O18 0.623712 0.657192 0.500000
O O19 0.627323 0.500000 0.734588
#
# Coordination Sequence:
#
# PCOD8200963 Si02
#       6
#     8   8   8   8   8   8
#     4   8  13  21  33  50  75 108 142 172 204 246
#     4   9  16  26  43  67  90 110 137 174 211 246
#     4   8  14  25  41  62  88 115 141 170 205 244
#     4   9  17  29  45  64  85 109 138 173 212 252
#     4   9  16  27  44  62  80 106 140 174 207 246
#     4   9  16  24  35  54  80 108 138 173 211 248
#
# _framework density 17.582794
#
# number of rings (size 3 to 8) (size 9 to 14) (size 15 to 20)
#    0.000    3.333    0.000    2.000    0.000    4.667 
#    0.000    4.167    0.000    6.500    0.000    3.500 
#    0.000    0.667    0.000    7.667    0.000    9.833 
#
# Total GULP energy -594954.073917 kJ/mol
# GULP energy per Si atom -12394.876540 kJ/mol
# Density = 1.754278 g / cm^3
# Si number density = 17.582794 Si / 1000 Ang^3
#
#
#
# Elastic Constant Matrix: (Units=GPa)
#
#
# Indices 1 2 3 4 5 6 
#
# 1 200.9075 87.5929 42.9520 0.0000 0.0000 0.0000
# 2 87.5929 88.0555 23.6362 0.0000 0.0000 0.0000
# 3 42.9520 23.6362 35.5483 0.0000 0.0000 0.0000
# 4 0.0000 0.0000 0.0000 5.8980 0.0000 0.0000
# 5 0.0000 0.0000 0.0000 0.0000 1.9324 0.0000
# 6 0.0000 0.0000 0.0000 0.0000 0.0000 14.1192
#
#
#
# Elastic Compliance Matrix: (Units=1/GPa)
#
#
# Indices 1 2 3 4 5 6 
#
# 1 0.009917 -0.008093 -0.006602 0.000000 0.000000 0.000000
# 2 -0.008093 0.020428 -0.003804 0.000000 0.000000 0.000000
# 3 -0.006602 -0.003804 0.038637 0.000000 0.000000 0.000000
# 4 0.000000 0.000000 0.000000 0.169549 0.000000 0.000000
# 5 0.000000 0.000000 0.000000 0.000000 0.517478 0.000000
# 6 0.000000 0.000000 0.000000 0.000000 0.000000 0.070825
#
#
# Mechanical properties :
#
#
# Convention : Reuss Voigt Hill
#
# Bulk Modulus (GPa) = 31.26522 70.31928 50.79225
# Shear Modulus (GPa) = 5.71760 15.74528 10.73144
#
# Velocity S-wave (km/s) = 1.80523 2.99573 2.47318
# Velocity P-wave (km/s) = 4.70802 7.21428 6.09144
#
# Compressibility (1/GPa) = 0.03198442
#
# Stress axis : x y z
#
# Youngs Moduli (GPa) = 100.83418 48.95189 25.88225
#
# Poissons Ratio (x) = 0.39618 0.17086
# Poissons Ratio (y) = 0.81607 0.09846
# Poissons Ratio (z) = 0.66566 0.18622
#
# Static dielectric constant tensor:
#      x y z
#    x 3.667130 0.000000 0.000000 
#    y 0.000000 3.216730 0.000000 
#    z 0.000000 0.000000 2.756090 
# 
# 
# High freq. dielectric constant tensor:
#      x y z
#    x 1.698940 0.000000 0.000000 
#    y 0.000000 1.658290 0.000000 
#    z 0.000000 0.000000 1.617830 
# 
# From -- ./inp_files/19995.got.cif
#   From: 2010.03.12/outbox.cif.g09.slc.cpg/sg47_10_cif.got.tgz:19995.got - 2010.04.14 03:12:58.
