data_PCOD8200765
_publ_section_title
;
Structure prediction by ZEFSAII (Michael W. Deem and Ramdas Pophale) SiO2 
 PCOD8200765
Probable space group: P M M M
;
_chemical_formula_sum "Si O2"
_cell_formula_units_Z 40
_cell_length_a 22.599890
_cell_length_b 14.558328
_cell_length_c 7.817083
_cell_angle_alpha 90.000000
_cell_angle_beta 90.000000
_cell_angle_gamma 90.000000
_cell_volume 2571.950160
_symmetry_space_group_name_H-M "P M M M"
_symmetry_group_IT_number 47
_symmetry_cell_setting 'orthorhombic'
loop_
_space_group_symop_operation_xyz
x,y,z
-x,-y,z
x,-y,-z
-x,y,-z
-x,-y,-z
x,y,-z
-x,y,z
x,-y,z
loop_
_atom_site_type_symbol
_atom_site_label
_atom_site_fract_x
_atom_site_fract_y
_atom_site_fract_z
Si Si1 0.355081 0.391061 0.689635
Si Si2 0.433297 0.390246 0.000000
Si Si3 0.000000 0.603427 0.796124
Si Si4 0.933244 0.899819 0.796703
Si Si5 0.772357 0.395465 0.202999
Si Si6 0.114143 0.711520 0.203855
O O1 0.376292 0.360838 0.500000
O O2 0.353750 0.500000 0.707791
O O3 0.288603 0.354947 0.721500
O O4 0.400323 0.351400 0.830945
O O5 0.433271 0.500000 0.000000
O O6 0.500000 0.351931 0.000000
O O7 0.058326 0.654236 0.725805
O O8 0.000000 0.500000 0.725225
O O9 0.000000 0.604357 0.000000
O O10 0.891562 0.817038 0.729735
O O11 0.000000 0.884070 0.729204
O O12 0.909809 0.000000 0.732944
O O13 0.934373 0.897881 0.000000
O O14 0.783514 0.500000 0.264081
O O15 0.825459 0.332574 0.275497
O O16 0.768214 0.391681 0.000000
O O17 0.114671 0.707360 0.000000
#
# Coordination Sequence:
#
# PCOD8200765 Si02
#       6
#     8   4   4   8   8   8
#     4   9  16  26  39  54  75 104 136 167 199 235
#     4   9  16  26  40  58  80 103 132 171 204 229
#     4   9  14  18  23  37  62  86 115 161 208 246
#     4   8  12  18  27  39  60  90 120 155 202 251
#     4   9  15  23  34  48  69  98 130 164 200 238
#     4   9  14  19  28  43  63  90 124 161 204 247
#
# _framework density 15.552401
#
# number of rings (size 3 to 8) (size 9 to 14) (size 15 to 20)
#    0.000    3.200    2.000    1.200    0.000    2.800 
#    0.000    2.000    0.000    0.000    0.000    0.700 
#    0.000    4.800    0.000    2.200    0.000    4.000 
#
# Total GULP energy -495662.594565 kJ/mol
# GULP energy per Si atom -12391.564864 kJ/mol
# Density = 1.551700 g / cm^3
# Si number density = 15.552401 Si / 1000 Ang^3
#
#
#
# Elastic Constant Matrix: (Units=GPa)
#
#
# Indices 1 2 3 4 5 6 
#
# 1 131.1607 46.5240 42.1165 0.0000 0.0000 0.0000
# 2 46.5240 87.4367 14.7871 0.0000 0.0000 0.0000
# 3 42.1165 14.7871 51.0474 0.0000 0.0000 0.0000
# 4 0.0000 0.0000 0.0000 0.5282 0.0000 0.0000
# 5 0.0000 0.0000 0.0000 0.0000 0.8783 0.0000
# 6 0.0000 0.0000 0.0000 0.0000 0.0000 6.1777
#
#
#
# Elastic Compliance Matrix: (Units=1/GPa)
#
#
# Indices 1 2 3 4 5 6 
#
# 1 0.012159 -0.005019 -0.008578 0.000000 0.000000 0.000000
# 2 -0.005019 0.014098 0.000057 0.000000 0.000000 0.000000
# 3 -0.008578 0.000057 0.026650 0.000000 0.000000 0.000000
# 4 0.000000 0.000000 0.000000 1.893296 0.000000 0.000000
# 5 0.000000 0.000000 0.000000 0.000000 1.138566 0.000000
# 6 0.000000 0.000000 0.000000 0.000000 0.000000 0.161873
#
#
# Mechanical properties :
#
#
# Convention : Reuss Voigt Hill
#
# Bulk Modulus (GPa) = 38.71836 52.94444 45.83140
# Shear Modulus (GPa) = 1.52331 12.59798 7.06065
#
# Velocity S-wave (km/s) = 0.99075 2.84920 2.13302
# Velocity P-wave (km/s) = 5.12428 6.70376 5.96652
#
# Compressibility (1/GPa) = 0.02582754
#
# Stress axis : x y z
#
# Youngs Moduli (GPa) = 82.24443 70.93358 37.52317
#
# Poissons Ratio (x) = 0.35601 0.32187
# Poissons Ratio (y) = 0.41278 -0.00214
# Poissons Ratio (z) = 0.70548 -0.00405
#
# Static dielectric constant tensor:
#      x y z
#    x 3.027370 0.000000 0.000000 
#    y 0.000000 2.935450 0.000000 
#    z 0.000000 0.000000 2.724870 
# 
# 
# High freq. dielectric constant tensor:
#      x y z
#    x 1.579500 0.000000 0.000000 
#    y 0.000000 1.548670 0.000000 
#    z 0.000000 0.000000 1.578500 
# 
# From -- ./inp_files/10837.got.cif
#   From: 2010.03.12/outbox.cif.g09.slc.cpg/sg47_6_cif.got.tgz:10837.got - 2010.04.14 03:12:58.
