data_PCOD8200951
_publ_section_title
;
Structure prediction by ZEFSAII (Michael W. Deem and Ramdas Pophale) SiO2 
 PCOD8200951
Probable space group: P M M M
;
_chemical_formula_sum "Si O2"
_cell_formula_units_Z 52
_cell_length_a 9.426630
_cell_length_b 33.800922
_cell_length_c 9.492046
_cell_angle_alpha 90.000000
_cell_angle_beta 90.000000
_cell_angle_gamma 90.000000
_cell_volume 3024.439087
_symmetry_space_group_name_H-M "P M M M"
_symmetry_group_IT_number 47
_symmetry_cell_setting 'orthorhombic'
loop_
_space_group_symop_operation_xyz
x,y,z
-x,-y,z
x,-y,-z
-x,y,-z
-x,-y,-z
x,y,-z
-x,y,z
x,-y,z
loop_
_atom_site_type_symbol
_atom_site_label
_atom_site_fract_x
_atom_site_fract_y
_atom_site_fract_z
Si Si1 0.330895 0.615801 0.840966
Si Si2 0.842229 0.764694 0.667622
Si Si3 0.331259 0.543915 0.341928
Si Si4 0.660828 0.000000 0.832439
Si Si5 0.666038 0.690464 0.336952
Si Si6 0.164591 0.924744 0.835124
Si Si7 0.168808 0.850991 0.656801
O O1 0.500000 0.614779 0.840754
O O2 0.269421 0.576357 0.766022
O O3 0.276789 0.653751 0.754256
O O4 0.271692 0.617648 0.000000
O O5 0.848038 0.764836 0.500000
O O6 0.740475 0.729950 0.722375
O O7 0.782208 0.807825 0.715237
O O8 0.000000 0.757336 0.728928
O O9 0.276639 0.553272 0.500000
O O10 0.500000 0.545716 0.341346
O O11 0.280538 0.500000 0.295246
O O12 0.743685 0.038599 0.777118
O O13 0.500000 0.000000 0.774036
O O14 0.661975 0.000000 0.000000
O O15 0.703988 0.682272 0.500000
O O16 0.500000 0.696706 0.316385
O O17 0.223423 0.885440 0.759375
O O18 0.000000 0.933032 0.799525
O O19 0.187061 0.918344 0.000000
O O20 0.229898 0.858795 0.500000
O O21 0.000000 0.850565 0.651169
#
# Coordination Sequence:
#
# PCOD8200951 Si02
#       7
#     8   8   8   4   8   8   8
#     4   9  16  24  34  50  75 106 135 164 202 246
#     4   8  14  26  44  63  82 106 136 168 202 241
#     4   8  13  21  33  49  70  98 133 171 207 242
#     4   9  17  29  44  61  84 114 142 167 200 242
#     4   9  16  26  41  59  78 103 136 169 198 233
#     4   9  16  27  45  66  83 102 135 174 203 232
#     4   8  14  26  44  64  85 108 133 164 205 248
#
# _framework density 17.193269000000001
#
# number of rings (size 3 to 8) (size 9 to 14) (size 15 to 20)
#    0.000    3.462    0.000    2.077    0.000    3.077 
#    0.000    3.462    0.000    5.077    0.000    0.000 
#    0.000    0.615    0.000    7.077    0.000    9.077 
#
# Total GULP energy -644457.992420 kJ/mol
# GULP energy per Si atom -12393.422931 kJ/mol
# Density = 1.715414 g / cm^3
# Si number density = 17.193269 Si / 1000 Ang^3
#
#
#
# Elastic Constant Matrix: (Units=GPa)
#
#
# Indices 1 2 3 4 5 6 
#
# 1 35.2523 45.5885 22.8395 0.0000 0.0000 0.0000
# 2 45.5885 197.9017 75.9266 0.0000 0.0000 0.0000
# 3 22.8395 75.9266 73.8286 0.0000 0.0000 0.0000
# 4 0.0000 0.0000 0.0000 20.2229 0.0000 0.0000
# 5 0.0000 0.0000 0.0000 0.0000 7.7442 0.0000
# 6 0.0000 0.0000 0.0000 0.0000 0.0000 15.5469
#
#
#
# Elastic Compliance Matrix: (Units=1/GPa)
#
#
# Indices 1 2 3 4 5 6 
#
# 1 0.041476 -0.007650 -0.004963 0.000000 0.000000 0.000000
# 2 -0.007650 0.009757 -0.007668 0.000000 0.000000 0.000000
# 3 -0.004963 -0.007668 0.022966 0.000000 0.000000 0.000000
# 4 0.000000 0.000000 0.000000 0.049449 0.000000 0.000000
# 5 0.000000 0.000000 0.000000 0.000000 0.129129 0.000000
# 6 0.000000 0.000000 0.000000 0.000000 0.000000 0.064322
#
#
# Mechanical properties :
#
#
# Convention : Reuss Voigt Hill
#
# Bulk Modulus (GPa) = 29.72969 66.18796 47.95883
# Shear Modulus (GPa) = 13.55480 19.54466 16.54973
#
# Velocity S-wave (km/s) = 2.81085 3.37525 3.10590
# Velocity P-wave (km/s) = 5.27859 7.33279 6.38879
#
# Compressibility (1/GPa) = 0.03363640
#
# Stress axis : x y z
#
# Youngs Moduli (GPa) = 24.11047 102.48991 43.54270
#
# Poissons Ratio (x) = 0.78406 0.21612
# Poissons Ratio (y) = 0.18445 0.33387
# Poissons Ratio (z) = 0.11967 0.78586
#
# Static dielectric constant tensor:
#      x y z
#    x 2.795750 0.000000 0.000000 
#    y 0.000000 3.661430 0.000000 
#    z 0.000000 0.000000 3.102410 
# 
# 
# High freq. dielectric constant tensor:
#      x y z
#    x 1.606110 0.000000 0.000000 
#    y 0.000000 1.683200 0.000000 
#    z 0.000000 0.000000 1.636500 
# 
# From -- ./inp_files/15662.got.cif
#   From: 2010.03.12/outbox.cif.g09.slc.cpg/sg47_8_cif.got.tgz:15662.got - 2010.04.14 03:12:58.
