data_PCOD8200909
_publ_section_title
;
Structure prediction by ZEFSAII (Michael W. Deem and Ramdas Pophale) SiO2 
 PCOD8200909
Probable space group: P M M M
;
_chemical_formula_sum "Si O2"
_cell_formula_units_Z 44
_cell_length_a 9.803870
_cell_length_b 9.567821
_cell_length_c 28.099115
_cell_angle_alpha 90.000000
_cell_angle_beta 90.000000
_cell_angle_gamma 90.000000
_cell_volume 2635.744004
_symmetry_space_group_name_H-M "P M M M"
_symmetry_group_IT_number 47
_symmetry_cell_setting 'orthorhombic'
loop_
_space_group_symop_operation_xyz
x,y,z
-x,-y,z
x,-y,-z
-x,y,-z
-x,-y,-z
x,y,-z
-x,y,z
x,-y,z
loop_
_atom_site_type_symbol
_atom_site_label
_atom_site_fract_x
_atom_site_fract_y
_atom_site_fract_z
Si Si1 0.151426 0.333969 0.417266
Si Si2 0.157706 0.662248 0.689910
Si Si3 0.349025 0.166181 0.133102
Si Si4 0.340795 0.838181 0.239743
Si Si5 0.345423 0.666890 0.500000
Si Si6 0.847438 0.166238 0.947303
O O1 0.147470 0.500000 0.419551
O O2 0.189082 0.286837 0.363859
O O3 0.265257 0.275686 0.453597
O O4 0.000000 0.277824 0.431138
O O5 0.193872 0.500000 0.695754
O O6 0.252426 0.748546 0.724573
O O7 0.000000 0.689745 0.702455
O O8 0.500000 0.225871 0.123157
O O9 0.301077 0.208276 0.186082
O O10 0.249068 0.231781 0.093375
O O11 0.352466 0.000000 0.129450
O O12 0.500000 0.810049 0.249005
O O13 0.305729 0.000000 0.247778
O O14 0.347972 0.500000 0.500000
O O15 0.500000 0.725907 0.500000
O O16 0.000000 0.222805 0.938578
O O17 0.846861 0.000000 0.943791
O O18 0.796500 0.211910 0.000000
#
# Coordination Sequence:
#
# PCOD8200909 Si02
#       6
#     8   8   8   8   4   8
#     4   8  14  25  39  55  80 112 139 167 208 253
#     4   9  18  31  46  66  90 115 147 184 218 256
#     4   8  14  24  36  51  74 104 137 171 205 245
#     4   9  18  31  45  63  88 117 149 183 218 258
#     4   9  15  21  33  57  84 107 136 171 204 246
#     4   8  13  20  30  47  72 100 130 165 205 248
#
# _framework density 16.693579
#
# number of rings (size 3 to 8) (size 9 to 14) (size 15 to 20)
#    0.000    3.545    0.000    3.000    0.000    3.636 
#    0.000    5.455    0.000    0.000    0.000    0.636 
#    0.000    5.818    0.000    8.000    0.000   13.091 
#
# Total GULP energy -545255.190532 kJ/mol
# GULP energy per Si atom -12392.163421 kJ/mol
# Density = 1.665558 g / cm^3
# Si number density = 16.693579 Si / 1000 Ang^3
#
#
#
# Elastic Constant Matrix: (Units=GPa)
#
#
# Indices 1 2 3 4 5 6 
#
# 1 122.8243 29.8327 106.6839 0.0000 0.0000 0.0000
# 2 29.8327 22.3395 32.7325 0.0000 0.0000 0.0000
# 3 106.6839 32.7325 162.6822 0.0000 0.0000 0.0000
# 4 0.0000 0.0000 0.0000 20.8824 0.0000 0.0000
# 5 0.0000 0.0000 0.0000 0.0000 36.7350 0.0000
# 6 0.0000 0.0000 0.0000 0.0000 0.0000 18.0279
#
#
#
# Elastic Compliance Matrix: (Units=1/GPa)
#
#
# Indices 1 2 3 4 5 6 
#
# 1 0.020653 -0.010970 -0.011337 0.000000 0.000000 0.000000
# 2 -0.010970 0.069304 -0.006751 0.000000 0.000000 0.000000
# 3 -0.011337 -0.006751 0.014940 0.000000 0.000000 0.000000
# 4 0.000000 0.000000 0.000000 0.047887 0.000000 0.000000
# 5 0.000000 0.000000 0.000000 0.000000 0.027222 0.000000
# 6 0.000000 0.000000 0.000000 0.000000 0.000000 0.055469
#
#
# Mechanical properties :
#
#
# Convention : Reuss Voigt Hill
#
# Bulk Modulus (GPa) = 21.37538 71.81601 46.59569
# Shear Modulus (GPa) = 16.17159 24.36886 20.27022
#
# Velocity S-wave (km/s) = 3.11582 3.82484 3.48839
# Velocity P-wave (km/s) = 5.07709 7.91325 6.64817
#
# Compressibility (1/GPa) = 0.04678280
#
# Stress axis : x y z
#
# Youngs Moduli (GPa) = 48.41879 14.42912 66.93596
#
# Poissons Ratio (x) = 0.15828 0.75884
# Poissons Ratio (y) = 0.53114 0.45186
# Poissons Ratio (z) = 0.54891 0.09741
#
# Static dielectric constant tensor:
#      x y z
#    x 3.386580 0.000000 0.000000 
#    y 0.000000 2.467830 0.000000 
#    z 0.000000 0.000000 3.432220 
# 
# 
# High freq. dielectric constant tensor:
#      x y z
#    x 1.647660 0.000000 0.000000 
#    y 0.000000 1.566330 0.000000 
#    z 0.000000 0.000000 1.657550 
# 
# From -- ./inp_files/33952.got.cif
#   From: 2010.03.12/outbox.cif.g09.slc.cpg/sg47_17_cif.got.tgz:33952.got - 2010.04.14 03:12:58.
