data_PCOD8200090
_publ_section_title
;
Structure prediction by ZEFSAII (Michael W. Deem and Ramdas Pophale) SiO2 
 PCOD8200090
Probable space group: P M M M
;
_chemical_formula_sum "Si O2"
_cell_formula_units_Z 52
_cell_length_a 9.107825
_cell_length_b 21.469141
_cell_length_c 14.068132
_cell_angle_alpha 90.000000
_cell_angle_beta 90.000000
_cell_angle_gamma 90.000000
_cell_volume 2750.842847
_symmetry_space_group_name_H-M "P M M M"
_symmetry_group_IT_number 47
_symmetry_cell_setting 'orthorhombic'
loop_
_space_group_symop_operation_xyz
x,y,z
-x,-y,z
x,-y,-z
-x,y,-z
-x,-y,-z
x,y,-z
-x,y,z
x,-y,z
loop_
_atom_site_type_symbol
_atom_site_label
_atom_site_fract_x
_atom_site_fract_y
_atom_site_fract_z
Si Si1 0.327514 0.568160 0.282804
Si Si2 0.670685 0.000000 0.889059
Si Si3 0.329056 0.352057 0.892324
Si Si4 0.674369 0.688351 0.608659
Si Si5 0.665057 0.927362 0.392564
Si Si6 0.169763 0.250389 0.778220
Si Si7 0.167963 0.109012 0.217241
O O1 0.500000 0.561367 0.293886
O O2 0.254617 0.500000 0.300962
O O3 0.287413 0.590302 0.175984
O O4 0.271679 0.619272 0.358958
O O5 0.737697 0.063028 0.847198
O O6 0.500000 0.000000 0.863867
O O7 0.702403 0.000000 0.000000
O O8 0.500000 0.334991 0.881370
O O9 0.237454 0.291838 0.861767
O O10 0.289103 0.370757 0.000000
O O11 0.723363 0.699830 0.500000
O O12 0.500000 0.694432 0.620290
O O13 0.748822 0.739164 0.677212
O O14 0.715086 0.914778 0.500000
O O15 0.500000 0.901865 0.376257
O O16 0.779821 0.892518 0.326193
O O17 0.668566 0.000000 0.367972
O O18 0.188773 0.179978 0.815694
O O19 0.000000 0.267322 0.763295
O O20 0.000000 0.087428 0.211228
#
# Coordination Sequence:
#
# PCOD8200090 Si02
#       7
#     8   4   8   8   8   8   8
#     4   8  14  26  47  78 112 140 170 215 269 318
#     4  11  25  43  62  83 106 135 171 212 262 321
#     4   9  18  33  53  77 104 135 175 222 268 316
#     4   9  18  33  53  78 108 143 183 223 262 306
#     4   9  18  33  54  80 108 137 168 203 248 305
#     4  10  22  37  53  76 106 140 178 219 263 313
#     4  11  23  38  57  81 108 138 173 217 266 313
#
# _framework density 18.903296999999998
#
# number of rings (size 3 to 8) (size 9 to 14) (size 15 to 20)
#    0.000    2.538    0.769    2.538    0.000    5.846 
#    0.000   10.000    0.000    7.385    0.000    8.615 
#    0.000    0.000    0.000    0.000    0.000    0.000 
#
# Total GULP energy -644682.419968 kJ/mol
# GULP energy per Si atom -12397.738846 kJ/mol
# Density = 1.886027 g / cm^3
# Si number density = 18.903297 Si / 1000 Ang^3
#
#
#
# Elastic Constant Matrix: (Units=GPa)
#
#
# Indices 1 2 3 4 5 6 
#
# 1 69.9086 38.7656 35.3736 0.0000 0.0000 0.0000
# 2 38.7656 90.2939 23.5767 0.0000 0.0000 0.0000
# 3 35.3736 23.5767 81.3238 0.0000 0.0000 0.0000
# 4 0.0000 0.0000 0.0000 13.5509 0.0000 0.0000
# 5 0.0000 0.0000 0.0000 0.0000 10.8995 0.0000
# 6 0.0000 0.0000 0.0000 0.0000 0.0000 12.2739
#
#
#
# Elastic Compliance Matrix: (Units=1/GPa)
#
#
# Indices 1 2 3 4 5 6 
#
# 1 0.022330 -0.007628 -0.007501 0.000000 0.000000 0.000000
# 2 -0.007628 0.014588 -0.000911 0.000000 0.000000 0.000000
# 3 -0.007501 -0.000911 0.015824 0.000000 0.000000 0.000000
# 4 0.000000 0.000000 0.000000 0.073796 0.000000 0.000000
# 5 0.000000 0.000000 0.000000 0.000000 0.091747 0.000000
# 6 0.000000 0.000000 0.000000 0.000000 0.000000 0.081474
#
#
# Mechanical properties :
#
#
# Convention : Reuss Voigt Hill
#
# Bulk Modulus (GPa) = 48.40282 48.55088 48.47685
# Shear Modulus (GPa) = 14.76118 16.93223 15.84670
#
# Velocity S-wave (km/s) = 2.79745 2.99612 2.89849
# Velocity P-wave (km/s) = 6.00794 6.14073 6.07470
#
# Compressibility (1/GPa) = 0.02065995
#
# Stress axis : x y z
#
# Youngs Moduli (GPa) = 44.78257 68.55022 63.19678
#
# Poissons Ratio (x) = 0.52292 0.47407
# Poissons Ratio (y) = 0.34161 0.05758
# Poissons Ratio (z) = 0.33594 0.06246
#
# Static dielectric constant tensor:
#      x y z
#    x 3.312590 0.000000 0.000000 
#    y 0.000000 3.551640 0.000000 
#    z 0.000000 0.000000 3.531070 
# 
# 
# High freq. dielectric constant tensor:
#      x y z
#    x 1.714600 0.000000 0.000000 
#    y 0.000000 1.732370 0.000000 
#    z 0.000000 0.000000 1.735550 
# 
# From -- ./inp_files/11028.got.cif
#   From: 2010.03.12/outbox.cif.g09.slc.cpg/sg47_6_cif.got.tgz:11028.got - 2010.04.14 03:12:58.
