data_PCOD8200852
_publ_section_title
;
Structure prediction by ZEFSAII (Michael W. Deem and Ramdas Pophale) SiO2 
 PCOD8200852
Probable space group: P M M M
;
_chemical_formula_sum "Si O2"
_cell_formula_units_Z 52
_cell_length_a 9.259849
_cell_length_b 17.694699
_cell_length_c 25.614891
_cell_angle_alpha 90.000000
_cell_angle_beta 90.000000
_cell_angle_gamma 90.000000
_cell_volume 4197.006059
_symmetry_space_group_name_H-M "P M M M"
_symmetry_group_IT_number 47
_symmetry_cell_setting 'orthorhombic'
loop_
_space_group_symop_operation_xyz
x,y,z
-x,-y,z
x,-y,-z
-x,y,-z
-x,-y,-z
x,y,-z
-x,y,z
x,-y,z
loop_
_atom_site_type_symbol
_atom_site_label
_atom_site_fract_x
_atom_site_fract_y
_atom_site_fract_z
Si Si1 0.337085 0.589935 0.745142
Si Si2 0.663241 0.144646 0.562110
Si Si3 0.167170 0.708814 0.559780
Si Si4 0.337782 0.410150 0.057637
Si Si5 0.837422 0.590250 0.844506
Si Si6 0.163784 0.000000 0.437702
Si Si7 0.167322 0.586368 0.644102
O O1 0.500000 0.621441 0.745973
O O2 0.335807 0.500000 0.746789
O O3 0.252757 0.621956 0.795441
O O4 0.258595 0.618084 0.692719
O O5 0.663192 0.141865 0.500000
O O6 0.500000 0.141418 0.583899
O O7 0.738977 0.221477 0.581258
O O8 0.753055 0.073546 0.584065
O O9 0.205984 0.689459 0.500000
O O10 0.205719 0.635040 0.593242
O O11 0.000000 0.731684 0.565247
O O12 0.500000 0.380699 0.068327
O O13 0.337299 0.500000 0.059980
O O14 0.232378 0.377453 0.102099
O O15 0.285453 0.383419 0.000000
O O16 0.835798 0.500000 0.844530
O O17 0.000000 0.621180 0.840572
O O18 0.163173 0.000000 0.500000
O O19 0.000000 0.000000 0.416326
O O20 0.208452 0.500000 0.630905
O O21 0.000000 0.593219 0.659551
#
# Coordination Sequence:
#
# PCOD8200852 Si02
#       7
#     8   8   8   8   8   4   8
#     4   9  16  25  36  47  58  73  95 124 158 195
#     4   9  16  25  37  53  72  91 109 128 150 179
#     4   9  17  28  40  53  69  88 108 130 160 199
#     4   8  13  20  28  38  54  75  95 113 136 171
#     4   9  15  21  30  43  57  72  91 117 148 181
#     4   9  15  23  37  55  73  91 109 127 147 175
#     4   9  17  28  40  52  65  81 104 136 170 202
#
# _framework density 12.389785
#
# number of rings (size 3 to 8) (size 9 to 14) (size 15 to 20)
#    0.000    3.154    0.000    2.077    0.000    7.692 
#    0.000    3.077    0.000    0.000    0.000    4.308 
#    0.000    0.000    0.000    0.000    0.000    0.000 
#
# Total GULP energy -644601.286122 kJ/mol
# GULP energy per Si atom -12396.178579 kJ/mol
# Density = 1.236158 g / cm^3
# Si number density = 12.389785 Si / 1000 Ang^3
#
#
#
# Elastic Constant Matrix: (Units=GPa)
#
#
# Indices 1 2 3 4 5 6 
#
# 1 97.3152 33.4549 49.4529 0.0000 0.0000 0.0000
# 2 33.4549 45.2135 28.4855 0.0000 0.0000 0.0000
# 3 49.4529 28.4855 78.0629 0.0000 0.0000 0.0000
# 4 0.0000 0.0000 0.0000 0.4462 0.0000 0.0000
# 5 0.0000 0.0000 0.0000 0.0000 20.2147 0.0000
# 6 0.0000 0.0000 0.0000 0.0000 0.0000 11.6228
#
#
#
# Elastic Compliance Matrix: (Units=1/GPa)
#
#
# Indices 1 2 3 4 5 6 
#
# 1 0.016901 -0.007480 -0.007978 0.000000 0.000000 0.000000
# 2 -0.007480 0.032030 -0.006949 0.000000 0.000000 0.000000
# 3 -0.007978 -0.006949 0.020400 0.000000 0.000000 0.000000
# 4 0.000000 0.000000 0.000000 2.241241 0.000000 0.000000
# 5 0.000000 0.000000 0.000000 0.000000 0.049469 0.000000
# 6 0.000000 0.000000 0.000000 0.000000 0.000000 0.086038
#
#
# Mechanical properties :
#
#
# Convention : Reuss Voigt Hill
#
# Bulk Modulus (GPa) = 40.78696 49.26425 45.02561
# Shear Modulus (GPa) = 2.00075 13.73661 7.86868
#
# Velocity S-wave (km/s) = 1.27214 3.33333 2.52284
# Velocity P-wave (km/s) = 5.92867 7.39345 6.70120
#
# Compressibility (1/GPa) = 0.02451764
#
# Stress axis : x y z
#
# Youngs Moduli (GPa) = 59.16724 31.22062 49.01991
#
# Poissons Ratio (x) = 0.23352 0.39106
# Poissons Ratio (y) = 0.44256 0.34066
# Poissons Ratio (z) = 0.47201 0.21697
#
# Static dielectric constant tensor:
#      x y z
#    x 2.739040 0.000000 0.000000 
#    y 0.000000 2.169300 0.000000 
#    z 0.000000 0.000000 2.504740 
# 
# 
# High freq. dielectric constant tensor:
#      x y z
#    x 1.485470 0.000000 0.000000 
#    y 0.000000 1.408990 0.000000 
#    z 0.000000 0.000000 1.450490 
# 
# From -- ./inp_files/10083.got.cif
#   From: 2010.03.12/outbox.cif.g09.slc.cpg/sg47_6_cif.got.tgz:10083.got - 2010.04.14 03:12:58.
