data_PCOD8200639
_publ_section_title
;
Structure prediction by ZEFSAII (Michael W. Deem and Ramdas Pophale) SiO2 
 PCOD8200639
Probable space group: P M M M
;
_chemical_formula_sum "Si O2"
_cell_formula_units_Z 48
_cell_length_a 30.741423
_cell_length_b 8.593838
_cell_length_c 9.116032
_cell_angle_alpha 90.000000
_cell_angle_beta 90.000000
_cell_angle_gamma 90.000000
_cell_volume 2408.335406
_symmetry_space_group_name_H-M "P M M M"
_symmetry_group_IT_number 47
_symmetry_cell_setting 'orthorhombic'
loop_
_space_group_symop_operation_xyz
x,y,z
-x,-y,z
x,-y,-z
-x,y,-z
-x,-y,-z
x,y,-z
-x,y,z
x,-y,z
loop_
_atom_site_type_symbol
_atom_site_label
_atom_site_fract_x
_atom_site_fract_y
_atom_site_fract_z
Si Si1 0.741830 0.180469 0.670016
Si Si2 0.338287 0.680813 0.829894
Si Si3 0.918049 0.684601 0.161941
Si Si4 0.500000 0.682854 0.835828
Si Si5 0.821112 0.680520 0.172218
Si Si6 0.418880 0.818224 0.667595
Si Si7 0.000000 0.313972 0.336878
O O1 0.739530 0.228380 0.500000
O O2 0.708583 0.285220 0.761688
O O3 0.789715 0.212724 0.731662
O O4 0.730156 0.000000 0.691025
O O5 0.349649 0.500000 0.810990
O O6 0.373518 0.782750 0.745160
O O7 0.338083 0.729039 0.000000
O O8 0.921541 0.500000 0.154180
O O9 0.870037 0.728610 0.220564
O O10 0.956336 0.753526 0.262366
O O11 0.924698 0.754679 0.000000
O O12 0.500000 0.500000 0.848243
O O13 0.457307 0.732526 0.750343
O O14 0.500000 0.755656 0.000000
O O15 0.812022 0.500000 0.207155
O O16 0.814103 0.712856 0.000000
O O17 0.416872 0.759277 0.500000
O O18 0.428292 0.000000 0.673798
O O19 0.000000 0.500000 0.331885
O O20 0.000000 0.248977 0.500000
#
# Coordination Sequence:
#
# PCOD8200639 Si02
#       7
#     8   8   8   4   8   8   4
#     4  11  24  39  55  79 110 143 180 221 268 325
#     4  11  24  41  62  88 115 145 185 230 275 327
#     4   8  14  25  41  62  92 129 166 207 257 311
#     4  11  24  41  62  90 122 157 200 243 282 330
#     4   9  18  33  53  77 103 134 176 222 267 319
#     4  11  24  41  62  90 122 155 193 235 280 332
#     4   9  15  21  33  59  94 129 166 207 252 306
#
# _framework density 19.930778
#
# number of rings (size 3 to 8) (size 9 to 14) (size 15 to 20)
#    0.000    2.000    0.000    4.750    0.000   13.667 
#    0.000    1.667    0.000    0.000    0.000    0.583 
#    0.000    4.667    0.000    0.000    0.000    0.000 
#
# Total GULP energy -595284.393507 kJ/mol
# GULP energy per Si atom -12401.758198 kJ/mol
# Density = 1.988541 g / cm^3
# Si number density = 19.930778 Si / 1000 Ang^3
#
#
#
# Elastic Constant Matrix: (Units=GPa)
#
#
# Indices 1 2 3 4 5 6 
#
# 1 139.2260 15.8382 70.7384 0.0000 0.0000 0.0000
# 2 15.8382 39.0628 31.9795 0.0000 0.0000 0.0000
# 3 70.7384 31.9795 147.1003 0.0000 0.0000 0.0000
# 4 0.0000 0.0000 0.0000 24.7404 0.0000 0.0000
# 5 0.0000 0.0000 0.0000 0.0000 68.3405 0.0000
# 6 0.0000 0.0000 0.0000 0.0000 0.0000 -595.2758
#
#
#
# Elastic Compliance Matrix: (Units=1/GPa)
#
#
# Indices 1 2 3 4 5 6 
#
# 1 0.009505 -0.000136 -0.004541 0.000000 0.000000 0.000000
# 2 -0.000136 0.031144 -0.006705 0.000000 0.000000 0.000000
# 3 -0.004541 -0.006705 0.010440 0.000000 0.000000 0.000000
# 4 0.000000 0.000000 0.000000 0.040420 0.000000 0.000000
# 5 0.000000 0.000000 0.000000 0.000000 0.014633 0.000000
# 6 0.000000 0.000000 0.000000 0.000000 0.000000 -0.001680
#
#
# Mechanical properties :
#
#
# Convention : Reuss Voigt Hill
#
# Bulk Modulus (GPa) = 35.30590 62.50013 48.90301
# Shear Modulus (GPa) = 36.58470 -86.65012 -25.03271
#
# Velocity S-wave (km/s) = 4.28902 -6.60075 -3.54783
# Velocity P-wave (km/s) = 6.50233 5.16397 2.79408
#
# Compressibility (1/GPa) = 0.02832388
#
# Stress axis : x y z
#
# Youngs Moduli (GPa) = 105.20241 32.10849 95.78793
#
# Poissons Ratio (x) = 0.00437 0.43502
# Poissons Ratio (y) = 0.01432 0.64229
# Poissons Ratio (z) = 0.47777 0.21530
#
# Static dielectric constant tensor:
#      x y z
#    x 4.022640 0.000000 0.000000 
#    y 0.000000 3.286750 0.000000 
#    z 0.000000 0.000000 3.842810 
# 
# 
# High freq. dielectric constant tensor:
#      x y z
#    x 1.795390 0.000000 0.000000 
#    y 0.000000 1.748740 0.000000 
#    z 0.000000 0.000000 1.785200 
# 
# From -- ./inp_files/13975.got.cif
#   From: 2010.03.12/outbox.cif.g09.slc.cpg/sg47_7_cif.got.tgz:13975.got - 2010.04.14 03:12:58.
