data_PCOD8200175
_publ_section_title
;
Structure prediction by ZEFSAII (Michael W. Deem and Ramdas Pophale) SiO2 
 PCOD8200175
Probable space group: P M M M
;
_chemical_formula_sum "Si O2"
_cell_formula_units_Z 56
_cell_length_a 14.154243
_cell_length_b 9.242977
_cell_length_c 21.030265
_cell_angle_alpha 90.000000
_cell_angle_beta 90.000000
_cell_angle_gamma 90.000000
_cell_volume 2751.333682
_symmetry_space_group_name_H-M "P M M M"
_symmetry_group_IT_number 47
_symmetry_cell_setting 'orthorhombic'
loop_
_space_group_symop_operation_xyz
x,y,z
-x,-y,z
x,-y,-z
-x,y,-z
-x,-y,-z
x,y,-z
-x,y,z
x,-y,z
loop_
_atom_site_type_symbol
_atom_site_label
_atom_site_fract_x
_atom_site_fract_y
_atom_site_fract_z
Si Si1 0.608460 0.331101 0.889175
Si Si2 0.887924 0.666717 0.820011
Si Si3 0.780634 0.833928 0.071203
Si Si4 0.208078 0.829250 0.568845
Si Si5 0.604141 0.831157 0.371347
Si Si6 0.612027 0.658041 0.747728
Si Si7 0.111593 0.166315 0.695507
O O1 0.500000 0.280540 0.897632
O O2 0.617266 0.500000 0.906907
O O3 0.675349 0.233842 0.932832
O O4 0.649106 0.302715 0.817871
O O5 0.855426 0.500000 0.819961
O O6 0.847485 0.744926 0.881883
O O7 0.849368 0.740788 0.755013
O O8 0.000000 0.681868 0.823035
O O9 0.775127 0.000000 0.094005
O O10 0.823297 0.824336 0.000000
O O11 0.174429 0.765953 0.500000
O O12 0.319980 0.792143 0.574629
O O13 0.151220 0.766155 0.629153
O O14 0.192045 0.000000 0.568535
O O15 0.500000 0.765714 0.388171
O O16 0.645422 0.772493 0.304636
O O17 0.594748 0.000000 0.362196
O O18 0.500000 0.655322 0.753342
O O19 0.649231 0.500000 0.726967
O O20 0.000000 0.177940 0.691450
O O21 0.144389 0.000000 0.704418
#
# Coordination Sequence:
#
# PCOD8200175 Si02
#       7
#     8   8   8   8   8   8   8
#     4   9  19  36  57  82 114 154 198 240 283 333
#     4  10  22  41  65  90 114 144 185 234 289 349
#     4  11  25  41  58  85 120 156 192 233 284 340
#     4   9  18  31  48  75 109 143 182 227 274 327
#     4   9  17  28  44  69 101 138 180 224 270 320
#     4   8  15  29  48  71  99 132 174 225 276 319
#     4   9  18  34  57  83 109 139 178 226 280 335
#
# _framework density 20.353764999999999
#
# number of rings (size 3 to 8) (size 9 to 14) (size 15 to 20)
#    0.000    2.714    0.000    1.714    2.000    4.000 
#    0.000    7.143    0.000    1.714    0.000    4.000 
#    0.000    0.000    0.000    0.000    0.000    0.000 
#
# Total GULP energy -694074.309389 kJ/mol
# GULP energy per Si atom -12394.184096 kJ/mol
# Density = 2.030744 g / cm^3
# Si number density = 20.353765 Si / 1000 Ang^3
#
#
#
# Elastic Constant Matrix: (Units=GPa)
#
#
# Indices 1 2 3 4 5 6 
#
# 1 30.5706 30.6647 36.6182 0.0000 0.0000 0.0000
# 2 30.6647 77.7925 54.2690 0.0000 0.0000 0.0000
# 3 36.6182 54.2690 142.7759 0.0000 0.0000 0.0000
# 4 0.0000 0.0000 0.0000 9.9660 0.0000 0.0000
# 5 0.0000 0.0000 0.0000 0.0000 19.6812 0.0000
# 6 0.0000 0.0000 0.0000 0.0000 0.0000 22.9040
#
#
#
# Elastic Compliance Matrix: (Units=1/GPa)
#
#
# Indices 1 2 3 4 5 6 
#
# 1 0.061450 -0.018002 -0.008918 0.000000 0.000000 0.000000
# 2 -0.018002 0.022767 -0.004037 0.000000 0.000000 0.000000
# 3 -0.008918 -0.004037 0.010826 0.000000 0.000000 0.000000
# 4 0.000000 0.000000 0.000000 0.100341 0.000000 0.000000
# 5 0.000000 0.000000 0.000000 0.000000 0.050810 0.000000
# 6 0.000000 0.000000 0.000000 0.000000 0.000000 0.043661
#
#
# Mechanical properties :
#
#
# Convention : Reuss Voigt Hill
#
# Bulk Modulus (GPa) = 30.18399 54.91586 42.54993
# Shear Modulus (GPa) = 13.78130 19.14936 16.46533
#
# Velocity S-wave (km/s) = 2.60491 3.07062 2.84730
# Velocity P-wave (km/s) = 4.88972 6.29372 5.63561
#
# Compressibility (1/GPa) = 0.03313015
#
# Stress axis : x y z
#
# Youngs Moduli (GPa) = 16.27329 43.92375 92.37404
#
# Poissons Ratio (x) = 0.79070 0.82379
# Poissons Ratio (y) = 0.29295 0.37289
# Poissons Ratio (z) = 0.14512 0.17731
#
# Static dielectric constant tensor:
#      x y z
#    x 3.701870 0.000000 0.000000 
#    y 0.000000 3.591200 0.000000 
#    z 0.000000 0.000000 3.875450 
# 
# 
# High freq. dielectric constant tensor:
#      x y z
#    x 1.796900 0.000000 0.000000 
#    y 0.000000 1.767120 0.000000 
#    z 0.000000 0.000000 1.796250 
# 
# From -- ./inp_files/30977.got.cif
#   From: 2010.03.12/outbox.cif.g09.slc.cpg/sg47_16_cif.got.tgz:30977.got - 2010.04.14 03:12:58.
