data_PCOD8200907
_publ_section_title
;
Structure prediction by ZEFSAII (Michael W. Deem and Ramdas Pophale) SiO2 
 PCOD8200907
Probable space group: P M M M
;
_chemical_formula_sum "Si O2"
_cell_formula_units_Z 56
_cell_length_a 14.438427
_cell_length_b 9.117267
_cell_length_c 28.782229
_cell_angle_alpha 90.000000
_cell_angle_beta 90.000000
_cell_angle_gamma 90.000000
_cell_volume 3788.863671
_symmetry_space_group_name_H-M "P M M M"
_symmetry_group_IT_number 47
_symmetry_cell_setting 'orthorhombic'
loop_
_space_group_symop_operation_xyz
x,y,z
-x,-y,z
x,-y,-z
-x,y,-z
-x,-y,-z
x,y,-z
-x,y,z
x,-y,z
loop_
_atom_site_type_symbol
_atom_site_label
_atom_site_fract_x
_atom_site_fract_y
_atom_site_fract_z
Si Si1 0.389934 0.165189 0.819381
Si Si2 0.604783 0.674473 0.449149
Si Si3 0.610477 0.665893 0.090648
Si Si4 0.890074 0.835698 0.500000
Si Si5 0.103888 0.328881 0.408364
Si Si6 0.607476 0.327913 0.726879
Si Si7 0.389628 0.834105 0.000000
Si Si8 0.285048 0.672026 0.637888
O O1 0.500000 0.163790 0.821687
O O2 0.350366 0.252587 0.863745
O O3 0.357057 0.245497 0.772693
O O4 0.350539 0.000000 0.820094
O O5 0.639686 0.730532 0.500000
O O6 0.500000 0.727254 0.440894
O O7 0.609839 0.500000 0.448357
O O8 0.666635 0.741771 0.407770
O O9 0.500000 0.665668 0.090945
O O10 0.648485 0.500000 0.089948
O O11 0.648142 0.750645 0.045426
O O12 0.856841 0.752237 0.453842
O O13 0.000000 0.837265 0.500000
O O14 0.849466 0.000000 0.500000
O O15 0.104590 0.500000 0.420627
O O16 0.174585 0.294947 0.365814
O O17 0.000000 0.277259 0.394243
O O18 0.500000 0.294005 0.715836
O O19 0.622633 0.500000 0.735085
O O20 0.670135 0.263542 0.684848
O O21 0.500000 0.834826 0.000000
O O22 0.351405 0.000000 0.000000
O O23 0.305444 0.500000 0.638630
#
# Coordination Sequence:
#
# PCOD8200907 Si02
#       8
#     8   8   8   4   8   8   4   8
#     4   9  16  25  36  49  66  89 117 149 187 227
#     4   8  13  20  30  47  71  94 114 139 172 208
#     4   9  15  22  32  46  64  88 119 154 191 227
#     4   9  17  29  43  57  74  95 116 138 165 199
#     4   9  17  28  42  60  79  96 114 138 170 210
#     4   9  16  26  39  54  71  90 116 151 186 217
#     4   9  15  21  29  43  65  91 119 153 192 231
#     4   9  16  24  37  55  74  94 115 142 177 214
#
# _framework density 14.780158
#
# number of rings (size 3 to 8) (size 9 to 14) (size 15 to 20)
#    0.000    3.143    0.000    2.143    1.000    6.857 
#    0.000    0.714    0.000    0.000    0.000    0.000 
#    0.000    1.143    0.000    0.000    0.000    0.000 
#
# Total GULP energy -694040.087992 kJ/mol
# GULP energy per Si atom -12393.573000 kJ/mol
# Density = 1.474652 g / cm^3
# Si number density = 14.780158 Si / 1000 Ang^3
#
#
#
# Elastic Constant Matrix: (Units=GPa)
#
#
# Indices 1 2 3 4 5 6 
#
# 1 41.4727 18.4996 42.5715 0.0000 0.0000 0.0000
# 2 18.4996 72.0518 52.5071 0.0000 0.0000 0.0000
# 3 42.5715 52.5071 145.9656 0.0000 0.0000 0.0000
# 4 0.0000 0.0000 0.0000 10.4511 0.0000 0.0000
# 5 0.0000 0.0000 0.0000 0.0000 6.0646 0.0000
# 6 0.0000 0.0000 0.0000 0.0000 0.0000 4.3527
#
#
#
# Elastic Compliance Matrix: (Units=1/GPa)
#
#
# Indices 1 2 3 4 5 6 
#
# 1 0.034643 -0.002076 -0.009357 0.000000 0.000000 0.000000
# 2 -0.002076 0.018934 -0.006206 0.000000 0.000000 0.000000
# 3 -0.009357 -0.006206 0.011812 0.000000 0.000000 0.000000
# 4 0.000000 0.000000 0.000000 0.095684 0.000000 0.000000
# 5 0.000000 0.000000 0.000000 0.000000 0.164891 0.000000
# 6 0.000000 0.000000 0.000000 0.000000 0.000000 0.229744
#
#
# Mechanical properties :
#
#
# Convention : Reuss Voigt Hill
#
# Bulk Modulus (GPa) = 33.20879 54.07183 43.64031
# Shear Modulus (GPa) = 8.31915 13.90113 11.11014
#
# Velocity S-wave (km/s) = 2.37504 3.07013 2.74468
# Velocity P-wave (km/s) = 5.48073 7.01649 6.29561
#
# Compressibility (1/GPa) = 0.03011251
#
# Stress axis : x y z
#
# Youngs Moduli (GPa) = 28.86566 52.81450 84.65768
#
# Poissons Ratio (x) = 0.10964 0.79215
# Poissons Ratio (y) = 0.05992 0.52535
# Poissons Ratio (z) = 0.27010 0.32775
#
# Static dielectric constant tensor:
#      x y z
#    x 2.526570 0.000000 0.000000 
#    y 0.000000 2.771220 0.000000 
#    z 0.000000 0.000000 3.033320 
# 
# 
# High freq. dielectric constant tensor:
#      x y z
#    x 1.505940 0.000000 0.000000 
#    y 0.000000 1.548910 0.000000 
#    z 0.000000 0.000000 1.565160 
# 
# From -- ./inp_files/34649.got.cif
#   From: 2010.03.12/outbox.cif.g09.slc.cpg/sg47_18_cif.got.tgz:34649.got - 2010.04.14 03:12:58.
