data_PCOD8200728
_publ_section_title
;
Structure prediction by ZEFSAII (Michael W. Deem and Ramdas Pophale) SiO2 
 PCOD8200728
Probable space group: P M M M
;
_chemical_formula_sum "Si O2"
_cell_formula_units_Z 60
_cell_length_a 9.765284
_cell_length_b 22.896522
_cell_length_c 17.465205
_cell_angle_alpha 90.000000
_cell_angle_beta 90.000000
_cell_angle_gamma 90.000000
_cell_volume 3905.063349
_symmetry_space_group_name_H-M "P M M M"
_symmetry_group_IT_number 47
_symmetry_cell_setting 'orthorhombic'
loop_
_space_group_symop_operation_xyz
x,y,z
-x,-y,z
x,-y,-z
-x,y,-z
-x,-y,-z
x,y,-z
-x,y,z
x,-y,z
loop_
_atom_site_type_symbol
_atom_site_label
_atom_site_fract_x
_atom_site_fract_y
_atom_site_fract_z
Si Si1 0.158793 0.432963 0.781086
Si Si2 0.662871 0.254762 0.585589
Si Si3 0.842366 0.344806 0.086680
Si Si4 0.660827 0.833035 0.715475
Si Si5 0.147593 0.068367 0.500000
Si Si6 0.347274 0.644332 0.689507
Si Si7 0.837368 0.067203 0.333960
Si Si8 0.650593 0.265794 0.171850
O O1 0.197951 0.500000 0.794645
O O2 0.197294 0.399197 0.859253
O O3 0.244776 0.408521 0.709096
O O4 0.000000 0.425070 0.760537
O O5 0.722468 0.244993 0.500000
O O6 0.500000 0.253382 0.585713
O O7 0.714961 0.203711 0.641893
O O8 0.707918 0.319047 0.616191
O O9 0.758211 0.286551 0.108132
O O10 0.000000 0.327823 0.096741
O O11 0.808464 0.363662 0.000000
O O12 0.500000 0.847957 0.707825
O O13 0.750913 0.891824 0.722850
O O14 0.689967 0.797254 0.793479
O O15 0.221800 0.083247 0.580365
O O16 0.000000 0.100152 0.500000
O O17 0.119552 0.000000 0.500000
O O18 0.500000 0.618948 0.674644
O O19 0.352196 0.689087 0.759020
O O20 0.000000 0.079371 0.328408
O O21 0.806600 0.000000 0.312922
O O22 0.500000 0.262979 0.133752
#
# Coordination Sequence:
#
# PCOD8200728 Si02
#       8
#     8   8   8   8   4   8   8   8
#     4   9  17  28  42  60  83 111 137 161 195 237
#     4   8  14  25  41  60  80 101 128 169 219 256
#     4   9  17  28  43  64  87 109 135 165 193 228
#     4   9  17  27  41  61  82 105 136 174 209 245
#     4   7  12  24  37  47  67 103 139 167 198 237
#     4   8  14  26  43  59  76 102 135 169 203 240
#     4   9  17  28  40  54  77 111 145 174 207 246
#     4   8  15  28  42  58  82 109 135 163 202 246
#
# _framework density 15.364667000000001
#
# number of rings (size 3 to 8) (size 9 to 14) (size 15 to 20)
#    0.000    3.533    0.000    2.400    0.933    1.600 
#    0.000    3.333    0.000    2.800    0.000    6.533 
#    0.000    0.533    0.000    5.867    0.000    4.267 
#
# Total GULP energy -743396.674604 kJ/mol
# GULP energy per Si atom -12389.944577 kJ/mol
# Density = 1.532970 g / cm^3
# Si number density = 15.364667 Si / 1000 Ang^3
#
#
#
# Elastic Constant Matrix: (Units=GPa)
#
#
# Indices 1 2 3 4 5 6 
#
# 1 52.0755 50.0628 21.3446 0.0000 0.0000 0.0000
# 2 50.0628 96.1404 30.8826 0.0000 0.0000 0.0000
# 3 21.3446 30.8826 35.6340 0.0000 0.0000 0.0000
# 4 0.0000 0.0000 0.0000 17.9781 0.0000 0.0000
# 5 0.0000 0.0000 0.0000 0.0000 12.6635 0.0000
# 6 0.0000 0.0000 0.0000 0.0000 0.0000 27.0378
#
#
#
# Elastic Compliance Matrix: (Units=1/GPa)
#
#
# Indices 1 2 3 4 5 6 
#
# 1 0.040114 -0.018251 -0.008211 0.000000 0.000000 0.000000
# 2 -0.018251 0.022718 -0.008757 0.000000 0.000000 0.000000
# 3 -0.008211 -0.008757 0.040570 0.000000 0.000000 0.000000
# 4 0.000000 0.000000 0.000000 0.055623 0.000000 0.000000
# 5 0.000000 0.000000 0.000000 0.000000 0.078967 0.000000
# 6 0.000000 0.000000 0.000000 0.000000 0.000000 0.036985
#
#
# Mechanical properties :
#
#
# Convention : Reuss Voigt Hill
#
# Bulk Modulus (GPa) = 30.33452 43.15886 36.74669
# Shear Modulus (GPa) = 14.02910 16.97320 15.50115
#
# Velocity S-wave (km/s) = 3.02499 3.32729 3.17974
# Velocity P-wave (km/s) = 5.65568 6.55071 6.11958
#
# Compressibility (1/GPa) = 0.03296575
#
# Stress axis : x y z
#
# Youngs Moduli (GPa) = 24.92919 44.01812 24.64859
#
# Poissons Ratio (x) = 0.80336 0.20238
# Poissons Ratio (y) = 0.45498 0.21584
# Poissons Ratio (z) = 0.20469 0.38545
#
# Static dielectric constant tensor:
#      x y z
#    x 2.898060 0.000000 0.000000 
#    y 0.000000 2.864420 0.000000 
#    z 0.000000 0.000000 2.932790 
# 
# 
# High freq. dielectric constant tensor:
#      x y z
#    x 1.574540 0.000000 0.000000 
#    y 0.000000 1.574030 0.000000 
#    z 0.000000 0.000000 1.559520 
# 
# From -- ./inp_files/27131.got.cif
#   From: 2010.03.12/outbox.cif.g09.slc.cpg/sg47_14_cif.got.tgz:27131.got - 2010.04.14 03:12:58.
