data_PCOD8200520
_publ_section_title
;
Structure prediction by ZEFSAII (Michael W. Deem and Ramdas Pophale) SiO2 
 PCOD8200520
Probable space group: P M M M
;
_chemical_formula_sum "Si O2"
_cell_formula_units_Z 52
_cell_length_a 19.745284
_cell_length_b 9.648003
_cell_length_c 15.777974
_cell_angle_alpha 90.000000
_cell_angle_beta 90.000000
_cell_angle_gamma 90.000000
_cell_volume 3005.744427
_symmetry_space_group_name_H-M "P M M M"
_symmetry_group_IT_number 47
_symmetry_cell_setting 'orthorhombic'
loop_
_space_group_symop_operation_xyz
x,y,z
-x,-y,z
x,-y,-z
-x,y,-z
-x,-y,-z
x,y,-z
-x,y,z
x,-y,z
loop_
_atom_site_type_symbol
_atom_site_label
_atom_site_fract_x
_atom_site_fract_y
_atom_site_fract_z
Si Si1 0.306622 0.164131 0.091871
Si Si2 0.925534 0.345687 0.599914
Si Si3 0.420327 0.658412 0.596159
Si Si4 0.819860 0.844705 0.686767
Si Si5 0.154694 0.156488 0.122362
Si Si6 0.666779 0.164569 0.276336
Si Si7 0.079373 0.345045 0.000000
O O1 0.228748 0.210429 0.095626
O O2 0.344531 0.216073 0.177826
O O3 0.309289 0.000000 0.095524
O O4 0.337179 0.216302 0.000000
O O5 0.925298 0.351853 0.500000
O O6 0.914003 0.500000 0.637007
O O7 0.862980 0.251130 0.625855
O O8 0.000000 0.290659 0.630476
O O9 0.398969 0.698612 0.500000
O O10 0.500000 0.676778 0.607035
O O11 0.399053 0.500000 0.614692
O O12 0.385599 0.758856 0.663373
O O13 0.855199 0.839766 0.777635
O O14 0.742167 0.794678 0.693506
O O15 0.821673 0.000000 0.649812
O O16 0.142784 0.000000 0.088650
O O17 0.101228 0.261844 0.083363
O O18 0.655346 0.000000 0.283237
O O19 0.110862 0.500000 0.000000
O O20 0.000000 0.355920 0.000000
#
# Coordination Sequence:
#
# PCOD8200520 Si02
#       7
#     8   8   8   8   8   8   4
#     4   8  13  26  51  74  94 125 161 197 240 288
#     4   9  19  35  51  66  88 124 168 206 245 300
#     4   9  19  36  55  74 101 140 178 206 240 293
#     4   9  19  33  50  75 101 123 156 204 254 298
#     4   9  17  32  51  66  85 120 160 193 233 291
#     4   9  18  31  50  80 108 128 161 209 254 296
#     4  11  23  33  41  61  93 123 154 199 250 291
#
# _framework density 17.300204999999998
#
# number of rings (size 3 to 8) (size 9 to 14) (size 15 to 20)
#    0.000    3.000    0.769    3.000    0.000    4.308 
#    0.000   10.000    0.000    0.462    0.000    3.231 
#    0.000    0.000    0.000    0.000    0.000    0.000 
#
# Total GULP energy -644277.772653 kJ/mol
# GULP energy per Si atom -12389.957166 kJ/mol
# Density = 1.726083 g / cm^3
# Si number density = 17.300205 Si / 1000 Ang^3
#
#
#
# Elastic Constant Matrix: (Units=GPa)
#
#
# Indices 1 2 3 4 5 6 
#
# 1 56.4626 36.9964 45.4416 0.0000 0.0000 0.0000
# 2 36.9964 69.6913 42.0835 0.0000 0.0000 0.0000
# 3 45.4416 42.0835 100.7894 0.0000 0.0000 0.0000
# 4 0.0000 0.0000 0.0000 -140.5446 0.0000 0.0000
# 5 0.0000 0.0000 0.0000 0.0000 27.0228 0.0000
# 6 0.0000 0.0000 0.0000 0.0000 0.0000 -71.1558
#
#
#
# Elastic Compliance Matrix: (Units=1/GPa)
#
#
# Indices 1 2 3 4 5 6 
#
# 1 0.033622 -0.011626 -0.010304 0.000000 0.000000 0.000000
# 2 -0.011626 0.023207 -0.004448 0.000000 0.000000 0.000000
# 3 -0.010304 -0.004448 0.016425 0.000000 0.000000 0.000000
# 4 0.000000 0.000000 0.000000 -0.007115 0.000000 0.000000
# 5 0.000000 0.000000 0.000000 0.000000 0.037006 0.000000
# 6 0.000000 0.000000 0.000000 0.000000 0.000000 -0.014054
#
#
# Mechanical properties :
#
#
# Convention : Reuss Voigt Hill
#
# Bulk Modulus (GPa) = 48.78916 52.88736 50.83826
# Shear Modulus (GPa) = 33.62956 -30.10739 1.76109
#
# Velocity S-wave (km/s) = 4.41373 -4.17620 1.01003
# Velocity P-wave (km/s) = 7.36461 2.71707 5.55067
#
# Compressibility (1/GPa) = 0.02049636
#
# Stress axis : x y z
#
# Youngs Moduli (GPa) = 29.74279 43.09075 60.88434
#
# Poissons Ratio (x) = 0.50098 0.62736
# Poissons Ratio (y) = 0.34579 0.27082
# Poissons Ratio (z) = 0.30647 0.19167
#
# Static dielectric constant tensor:
#      x y z
#    x 2.995130 0.000000 0.000000 
#    y 0.000000 3.125010 0.000000 
#    z 0.000000 0.000000 3.409660 
# 
# 
# High freq. dielectric constant tensor:
#      x y z
#    x 1.643300 0.000000 0.000000 
#    y 0.000000 1.649520 0.000000 
#    z 0.000000 0.000000 1.677620 
# 
# From -- ./inp_files/21373.got.cif
#   From: 2010.03.12/outbox.cif.g09.slc.cpg/sg47_11_cif.got.tgz:21373.got - 2010.04.14 03:12:58.
