data_PCOD8200999
_publ_section_title
;
Structure prediction by ZEFSAII (Michael W. Deem and Ramdas Pophale) SiO2 
 PCOD8200999
Probable space group: P M M M
;
_chemical_formula_sum "Si O2"
_cell_formula_units_Z 52
_cell_length_a 9.269363
_cell_length_b 9.892367
_cell_length_c 33.594601
_cell_angle_alpha 90.000000
_cell_angle_beta 90.000000
_cell_angle_gamma 90.000000
_cell_volume 3080.488540
_symmetry_space_group_name_H-M "P M M M"
_symmetry_group_IT_number 47
_symmetry_cell_setting 'orthorhombic'
loop_
_space_group_symop_operation_xyz
x,y,z
-x,-y,z
x,-y,-z
-x,y,-z
-x,-y,-z
x,y,-z
-x,y,z
x,-y,z
loop_
_atom_site_type_symbol
_atom_site_label
_atom_site_fract_x
_atom_site_fract_y
_atom_site_fract_z
Si Si1 0.328219 0.349224 0.738358
Si Si2 0.660738 0.339366 0.349212
Si Si3 0.828615 0.348483 0.955868
Si Si4 0.330942 0.844692 0.807579
Si Si5 0.162556 0.338712 0.576230
Si Si6 0.168944 0.155469 0.886971
Si Si7 0.663247 0.338917 0.500000
O O1 0.500000 0.352591 0.738306
O O2 0.268519 0.500000 0.747638
O O3 0.277733 0.299411 0.694481
O O4 0.269797 0.245593 0.771415
O O5 0.500000 0.279365 0.355915
O O6 0.651848 0.500000 0.351867
O O7 0.766167 0.281753 0.383221
O O8 0.777071 0.500000 0.944852
O O9 0.767854 0.243706 0.923406
O O10 0.000000 0.342013 0.956097
O O11 0.771236 0.309094 0.000000
O O12 0.500000 0.821335 0.814246
O O13 0.250041 0.797726 0.847285
O O14 0.295998 0.000000 0.797388
O O15 0.162035 0.500000 0.576355
O O16 0.254143 0.284037 0.538896
O O17 0.000000 0.282667 0.573138
O O18 0.000000 0.180646 0.880383
O O19 0.202309 0.000000 0.897058
O O20 0.661922 0.500000 0.500000
O O21 0.500000 0.282791 0.500000
#
# Coordination Sequence:
#
# PCOD8200999 Si02
#       7
#     8   8   8   8   8   8   4
#     4   8  14  25  41  59  77 100 133 168 198 234
#     4   8  13  22  35  48  63  87 120 155 189 227
#     4   8  14  25  41  61  84 108 134 166 203 239
#     4   9  17  29  44  61  82 108 136 166 202 242
#     4   9  15  21  29  43  65  91 119 155 198 237
#     4   9  17  28  42  61  83 105 131 164 200 238
#     4   9  15  21  29  41  59  89 130 165 190 227
#
# _framework density 16.88044
#
# number of rings (size 3 to 8) (size 9 to 14) (size 15 to 20)
#    0.000    3.462    0.000    2.077    0.000    3.692 
#    0.000    2.308    0.000    1.385    0.000    3.231 
#    0.000    0.000    0.000    0.692    0.000   17.077 
#
# Total GULP energy -644500.207847 kJ/mol
# GULP energy per Si atom -12394.234766 kJ/mol
# Density = 1.684202 g / cm^3
# Si number density = 16.880440 Si / 1000 Ang^3
#
#
#
# Elastic Constant Matrix: (Units=GPa)
#
#
# Indices 1 2 3 4 5 6 
#
# 1 64.7641 23.0265 58.3700 0.0000 0.0000 0.0000
# 2 23.0265 49.8959 67.7699 0.0000 0.0000 0.0000
# 3 58.3700 67.7699 187.5749 0.0000 0.0000 0.0000
# 4 0.0000 0.0000 0.0000 6.1670 0.0000 0.0000
# 5 0.0000 0.0000 0.0000 0.0000 26.1549 0.0000
# 6 0.0000 0.0000 0.0000 0.0000 0.0000 8.4950
#
#
#
# Elastic Compliance Matrix: (Units=1/GPa)
#
#
# Indices 1 2 3 4 5 6 
#
# 1 0.021527 -0.001642 -0.006106 0.000000 0.000000 0.000000
# 2 -0.001642 0.039478 -0.013753 0.000000 0.000000 0.000000
# 3 -0.006106 -0.013753 0.012200 0.000000 0.000000 0.000000
# 4 0.000000 0.000000 0.000000 0.162153 0.000000 0.000000
# 5 0.000000 0.000000 0.000000 0.000000 0.038234 0.000000
# 6 0.000000 0.000000 0.000000 0.000000 0.000000 0.117716
#
#
# Mechanical properties :
#
#
# Convention : Reuss Voigt Hill
#
# Bulk Modulus (GPa) = 33.10619 66.72974 49.91797
# Shear Modulus (GPa) = 11.25173 18.36796 14.80984
#
# Velocity S-wave (km/s) = 2.58457 3.30225 2.96520
# Velocity P-wave (km/s) = 5.34429 7.35910 6.43109
#
# Compressibility (1/GPa) = 0.03020583
#
# Stress axis : x y z
#
# Youngs Moduli (GPa) = 46.45265 25.33034 81.96748
#
# Poissons Ratio (x) = 0.04158 0.50048
# Poissons Ratio (y) = 0.07625 1.12726
# Poissons Ratio (z) = 0.28363 0.34836
#
# Static dielectric constant tensor:
#      x y z
#    x 2.966660 0.000000 0.000000 
#    y 0.000000 2.866680 0.000000 
#    z 0.000000 0.000000 3.560270 
# 
# 
# High freq. dielectric constant tensor:
#      x y z
#    x 1.620410 0.000000 0.000000 
#    y 0.000000 1.600240 0.000000 
#    z 0.000000 0.000000 1.667030 
# 
# From -- ./inp_files/4785.got.cif
#   From: 2010.03.12/outbox.cif.g09.slc.cpg/sg47_3_cif.got.tgz:4785.got - 2010.04.14 03:12:58.
