data_PCOD8200952
_publ_section_title
;
Structure prediction by ZEFSAII (Michael W. Deem and Ramdas Pophale) SiO2 
 PCOD8200952
Probable space group: P M M M
;
_chemical_formula_sum "Si O2"
_cell_formula_units_Z 52
_cell_length_a 33.812348
_cell_length_b 9.429266
_cell_length_c 9.239636
_cell_angle_alpha 90.000000
_cell_angle_beta 90.000000
_cell_angle_gamma 90.000000
_cell_volume 2945.832707
_symmetry_space_group_name_H-M "P M M M"
_symmetry_group_IT_number 47
_symmetry_cell_setting 'orthorhombic'
loop_
_space_group_symop_operation_xyz
x,y,z
-x,-y,z
x,-y,-z
-x,y,-z
-x,-y,-z
x,y,-z
-x,y,z
x,-y,z
loop_
_atom_site_type_symbol
_atom_site_label
_atom_site_fract_x
_atom_site_fract_y
_atom_site_fract_z
Si Si1 0.847583 0.331190 0.836292
Si Si2 0.305902 0.836032 0.331629
Si Si3 0.000000 0.668983 0.164322
Si Si4 0.617549 0.830927 0.837574
Si Si5 0.543573 0.831329 0.337406
Si Si6 0.770637 0.334893 0.332335
Si Si7 0.923529 0.669123 0.335733
O O1 0.848836 0.500000 0.836294
O O2 0.807500 0.277852 0.760504
O O3 0.884723 0.271848 0.745595
O O4 0.849472 0.272318 0.000000
O O5 0.314366 0.811947 0.500000
O O6 0.343903 0.776390 0.247118
O O7 0.267851 0.749107 0.279171
O O8 0.298032 0.000000 0.295779
O O9 0.038417 0.726194 0.248876
O O10 0.000000 0.500000 0.161796
O O11 0.000000 0.727678 0.000000
O O12 0.577816 0.767805 0.764589
O O13 0.616313 0.000000 0.833750
O O14 0.619549 0.772376 0.000000
O O15 0.550587 0.775155 0.500000
O O16 0.500000 0.782845 0.282001
O O17 0.545834 0.000000 0.336970
O O18 0.780020 0.304497 0.500000
O O19 0.762831 0.500000 0.304511
O O20 0.924390 0.727475 0.500000
O O21 0.923348 0.500000 0.337542
#
# Coordination Sequence:
#
# PCOD8200952 Si02
#       7
#     8   8   4   8   8   8   8
#     4   9  16  25  37  53  73  98 128 162 201 243
#     4   9  17  29  44  60  80 108 138 166 200 243
#     4   9  15  21  29  43  65  93 126 163 200 239
#     4   9  16  24  35  53  77 104 133 165 200 237
#     4   8  13  21  33  49  71 101 134 164 195 234
#     4   9  17  29  44  61  80 103 134 171 206 239
#     4   9  15  22  32  46  66  94 128 163 198 238
#
# _framework density 17.652054
#
# number of rings (size 3 to 8) (size 9 to 14) (size 15 to 20)
#    0.000    3.154    0.000    2.077    0.000    7.385 
#    0.000    1.538    0.000    0.000    0.000    0.000 
#    0.000    0.615    0.000    7.769    0.000   24.154 
#
# Total GULP energy -644639.136276 kJ/mol
# GULP energy per Si atom -12396.906467 kJ/mol
# Density = 1.761188 g / cm^3
# Si number density = 17.652054 Si / 1000 Ang^3
#
#
#
# Elastic Constant Matrix: (Units=GPa)
#
#
# Indices 1 2 3 4 5 6 
#
# 1 204.3456 23.5392 107.7550 0.0000 0.0000 0.0000
# 2 23.5392 11.0431 14.9439 0.0000 0.0000 0.0000
# 3 107.7550 14.9439 141.5279 0.0000 0.0000 0.0000
# 4 0.0000 0.0000 0.0000 6.8483 0.0000 0.0000
# 5 0.0000 0.0000 0.0000 0.0000 27.8269 0.0000
# 6 0.0000 0.0000 0.0000 0.0000 0.0000 -43.4152
#
#
#
# Elastic Compliance Matrix: (Units=1/GPa)
#
#
# Indices 1 2 3 4 5 6 
#
# 1 0.009374 -0.012044 -0.005865 0.000000 0.000000 0.000000
# 2 -0.012044 0.121125 -0.003620 0.000000 0.000000 0.000000
# 3 -0.005865 -0.003620 0.011914 0.000000 0.000000 0.000000
# 4 0.000000 0.000000 0.000000 0.146021 0.000000 0.000000
# 5 0.000000 0.000000 0.000000 0.000000 0.035936 0.000000
# 6 0.000000 0.000000 0.000000 0.000000 0.000000 -0.023033
#
#
# Mechanical properties :
#
#
# Convention : Reuss Voigt Hill
#
# Bulk Modulus (GPa) = 10.06494 72.15475 41.10985
# Shear Modulus (GPa) = 13.24456 12.29723 12.77090
#
# Velocity S-wave (km/s) = 2.74216 2.64227 2.69268
# Velocity P-wave (km/s) = 3.96738 7.09039 5.74516
#
# Compressibility (1/GPa) = 0.09935477
#
# Stress axis : x y z
#
# Youngs Moduli (GPa) = 106.67857 8.25592 83.93775
#
# Poissons Ratio (x) = 0.09944 0.49232
# Poissons Ratio (y) = 1.28485 0.30381
# Poissons Ratio (z) = 0.62570 0.02988
#
# Static dielectric constant tensor:
#      x y z
#    x 3.579110 0.000000 0.000000 
#    y 0.000000 2.503490 0.000000 
#    z 0.000000 0.000000 3.445350 
# 
# 
# High freq. dielectric constant tensor:
#      x y z
#    x 1.702860 0.000000 0.000000 
#    y 0.000000 1.590520 0.000000 
#    z 0.000000 0.000000 1.690180 
# 
# From -- ./inp_files/14128.got.cif
#   From: 2010.03.12/outbox.cif.g09.slc.cpg/sg47_8_cif.got.tgz:14128.got - 2010.04.14 03:12:58.
