data_PCOD8200443
_publ_section_title
;
Structure prediction by ZEFSAII (Michael W. Deem and Ramdas Pophale) SiO2 
 PCOD8200443
Probable space group: P M M M
;
_chemical_formula_sum "Si O2"
_cell_formula_units_Z 48
_cell_length_a 9.280115
_cell_length_b 19.389812
_cell_length_c 14.836237
_cell_angle_alpha 90.000000
_cell_angle_beta 90.000000
_cell_angle_gamma 90.000000
_cell_volume 2669.627815
_symmetry_space_group_name_H-M "P M M M"
_symmetry_group_IT_number 47
_symmetry_cell_setting 'orthorhombic'
loop_
_space_group_symop_operation_xyz
x,y,z
-x,-y,z
x,-y,-z
-x,y,-z
-x,-y,-z
x,y,-z
-x,y,z
x,-y,z
loop_
_atom_site_type_symbol
_atom_site_label
_atom_site_fract_x
_atom_site_fract_y
_atom_site_fract_z
Si Si1 0.657564 0.859695 0.640693
Si Si2 0.332513 0.176979 0.161476
Si Si3 0.172026 0.687013 0.218720
Si Si4 0.329068 0.920772 0.000000
Si Si5 0.663506 0.580325 0.895802
Si Si6 0.664154 0.298145 0.398955
Si Si7 0.849423 0.921908 0.500000
O O1 0.500000 0.888830 0.619231
O O2 0.687600 0.864085 0.746330
O O3 0.672555 0.783742 0.601025
O O4 0.768403 0.908133 0.592088
O O5 0.500000 0.198098 0.145768
O O6 0.238939 0.246675 0.167479
O O7 0.275854 0.123931 0.085692
O O8 0.219011 0.620506 0.162578
O O9 0.229751 0.674876 0.320822
O O10 0.000000 0.694008 0.221253
O O11 0.500000 0.926144 0.000000
O O12 0.266686 0.000000 0.000000
O O13 0.500000 0.601337 0.868742
O O14 0.687884 0.500000 0.877420
O O15 0.689899 0.598045 0.000000
O O16 0.709712 0.323840 0.500000
O O17 0.500000 0.322014 0.377681
O O18 0.000000 0.879423 0.500000
O O19 0.889192 0.000000 0.500000
#
# Coordination Sequence:
#
# PCOD8200443 Si02
#       7
#     8   8   8   4   8   8   4
#     4   9  17  32  51  71  94 123 165 215 261 308
#     4   9  19  35  55  78 103 135 177 224 271 318
#     4  11  22  33  51  83 118 147 177 217 267 324
#     4   9  18  34  57  81 100 127 176 233 279 316
#     4   9  19  37  60  83 109 146 189 228 267 312
#     4   9  17  33  56  78 102 133 175 223 265 308
#     4  11  23  33  43  65  97 131 164 203 260 329
#
# _framework density 17.980034
#
# number of rings (size 3 to 8) (size 9 to 14) (size 15 to 20)
#    0.000    2.500    0.833    3.250    1.167    5.000 
#    0.000    2.500    0.000    1.500    0.000    3.500 
#    0.000    0.000    0.000    0.000    0.000    0.000 
#
# Total GULP energy -594865.894031 kJ/mol
# GULP energy per Si atom -12393.039459 kJ/mol
# Density = 1.793911 g / cm^3
# Si number density = 17.980034 Si / 1000 Ang^3
#
#
#
# Elastic Constant Matrix: (Units=GPa)
#
#
# Indices 1 2 3 4 5 6 
#
# 1 116.4519 50.3724 65.9183 0.0000 0.0000 0.0000
# 2 50.3724 66.9818 55.8212 0.0000 0.0000 0.0000
# 3 65.9183 55.8212 130.6429 0.0000 0.0000 0.0000
# 4 0.0000 0.0000 0.0000 10.9086 0.0000 0.0000
# 5 0.0000 0.0000 0.0000 0.0000 -25.0995 0.0000
# 6 0.0000 0.0000 0.0000 0.0000 0.0000 38.5884
#
#
#
# Elastic Compliance Matrix: (Units=1/GPa)
#
#
# Indices 1 2 3 4 5 6 
#
# 1 0.013936 -0.007175 -0.003966 0.000000 0.000000 0.000000
# 2 -0.007175 0.026880 -0.007865 0.000000 0.000000 0.000000
# 3 -0.003966 -0.007865 0.013016 0.000000 0.000000 0.000000
# 4 0.000000 0.000000 0.000000 0.091671 0.000000 0.000000
# 5 0.000000 0.000000 0.000000 0.000000 -0.039841 0.000000
# 6 0.000000 0.000000 0.000000 0.000000 0.000000 0.025915
#
#
# Mechanical properties :
#
#
# Convention : Reuss Voigt Hill
#
# Bulk Modulus (GPa) = 63.21125 73.14450 68.17787
# Shear Modulus (GPa) = 28.59423 14.34380 21.46902
#
# Velocity S-wave (km/s) = 3.99222 2.82753 3.45925
# Velocity P-wave (km/s) = 7.51553 7.17142 7.34549
#
# Compressibility (1/GPa) = 0.01581997
#
# Stress axis : x y z
#
# Youngs Moduli (GPa) = 71.75796 37.20270 76.82888
#
# Poissons Ratio (x) = 0.26693 0.30468
# Poissons Ratio (y) = 0.51487 0.60425
# Poissons Ratio (z) = 0.28457 0.29259
#
# Static dielectric constant tensor:
#      x y z
#    x 3.230270 0.000000 0.000000 
#    y 0.000000 3.060000 0.000000 
#    z 0.000000 0.000000 3.379000 
# 
# 
# High freq. dielectric constant tensor:
#      x y z
#    x 1.680930 0.000000 0.000000 
#    y 0.000000 1.669680 0.000000 
#    z 0.000000 0.000000 1.708430 
# 
# From -- ./inp_files/21098.got.cif
#   From: 2010.03.12/outbox.cif.g09.slc.cpg/sg47_11_cif.got.tgz:21098.got - 2010.04.14 03:12:58.
