data_PCOD8200695
_publ_section_title
;
Structure prediction by ZEFSAII (Michael W. Deem and Ramdas Pophale) SiO2 
 PCOD8200695
Probable space group: P M M M
;
_chemical_formula_sum "Si O2"
_cell_formula_units_Z 32
_cell_length_a 12.387937
_cell_length_b 9.179084
_cell_length_c 15.163401
_cell_angle_alpha 90.000000
_cell_angle_beta 90.000000
_cell_angle_gamma 90.000000
_cell_volume 1724.229028
_symmetry_space_group_name_H-M "P M M M"
_symmetry_group_IT_number 47
_symmetry_cell_setting 'orthorhombic'
loop_
_space_group_symop_operation_xyz
x,y,z
-x,-y,z
x,-y,-z
-x,y,-z
-x,-y,-z
x,y,-z
-x,y,z
x,-y,z
loop_
_atom_site_type_symbol
_atom_site_label
_atom_site_fract_x
_atom_site_fract_y
_atom_site_fract_z
Si Si1 0.879661 0.327080 0.754901
Si Si2 0.500000 0.658150 0.604084
Si Si3 0.500000 0.835826 0.895248
Si Si4 0.268015 0.674680 0.598760
Si Si5 0.288906 0.670609 0.101177
O O1 0.886091 0.500000 0.749812
O O2 0.821131 0.266270 0.666978
O O3 0.814036 0.279195 0.841796
O O4 0.000000 0.260129 0.760117
O O5 0.500000 0.500000 0.650885
O O6 0.500000 0.635457 0.500000
O O7 0.386623 0.738289 0.628453
O O8 0.606411 0.753401 0.861035
O O9 0.500000 0.000000 0.858529
O O10 0.500000 0.832504 0.000000
O O11 0.236959 0.727651 0.500000
O O12 0.274920 0.500000 0.600689
O O13 0.312154 0.500000 0.111541
O O14 0.264116 0.712245 0.000000
#
# Coordination Sequence:
#
# PCOD8200695 Si02
#       5
#     8   4   4   8   8
#     4   9  17  26  36  55  83 117 157 189 213 254
#     4   7  10  17  28  42  61  89 128 168 207 255
#     4   9  17  30  49  71  92 113 142 183 227 269
#     4   8  13  21  33  50  76 110 144 181 225 266
#     4   9  17  29  45  65  91 121 148 177 217 264
#
# _framework density 18.559017999999998
#
# number of rings (size 3 to 8) (size 9 to 14) (size 15 to 20)
#    0.000    3.500    0.000    1.875    0.000    3.500 
#    0.000    8.750    0.000    0.750    0.000    3.500 
#    0.000    2.000    0.000    2.250    0.000    2.500 
#
# Total GULP energy -396455.719478 kJ/mol
# GULP energy per Si atom -12389.241234 kJ/mol
# Density = 1.851678 g / cm^3
# Si number density = 18.559018 Si / 1000 Ang^3
#
#
#
# Elastic Constant Matrix: (Units=GPa)
#
#
# Indices 1 2 3 4 5 6 
#
# 1 206.8345 28.2851 87.2617 0.0000 0.0000 0.0000
# 2 28.2851 23.6157 16.9916 0.0000 0.0000 0.0000
# 3 87.2617 16.9916 105.2845 0.0000 0.0000 0.0000
# 4 0.0000 0.0000 0.0000 4.4040 0.0000 0.0000
# 5 0.0000 0.0000 0.0000 0.0000 34.3611 0.0000
# 6 0.0000 0.0000 0.0000 0.0000 0.0000 3.2723
#
#
#
# Elastic Compliance Matrix: (Units=1/GPa)
#
#
# Indices 1 2 3 4 5 6 
#
# 1 0.008010 -0.005450 -0.005759 0.000000 0.000000 0.000000
# 2 -0.005450 0.051616 -0.003813 0.000000 0.000000 0.000000
# 3 -0.005759 -0.003813 0.014887 0.000000 0.000000 0.000000
# 4 0.000000 0.000000 0.000000 0.227067 0.000000 0.000000
# 5 0.000000 0.000000 0.000000 0.000000 0.029103 0.000000
# 6 0.000000 0.000000 0.000000 0.000000 0.000000 0.305600
#
#
# Mechanical properties :
#
#
# Convention : Reuss Voigt Hill
#
# Bulk Modulus (GPa) = 22.48818 66.75683 44.62251
# Shear Modulus (GPa) = 7.34055 21.95390 14.64723
#
# Velocity S-wave (km/s) = 1.99094 3.44310 2.81236
# Velocity P-wave (km/s) = 4.17475 7.20102 5.88571
#
# Compressibility (1/GPa) = 0.04446780
#
# Stress axis : x y z
#
# Youngs Moduli (GPa) = 124.84761 19.37400 67.17387
#
# Poissons Ratio (x) = 0.10558 0.38686
# Poissons Ratio (y) = 0.68039 0.25615
# Poissons Ratio (z) = 0.71901 0.07388
#
# Static dielectric constant tensor:
#      x y z
#    x 3.873720 0.000000 0.000000 
#    y 0.000000 2.704610 0.000000 
#    z 0.000000 0.000000 3.408200 
# 
# 
# High freq. dielectric constant tensor:
#      x y z
#    x 1.730620 0.000000 0.000000 
#    y 0.000000 1.632820 0.000000 
#    z 0.000000 0.000000 1.716470 
# 
# From -- ./inp_files/3576.got.cif
#   From: 2010.03.12/outbox.cif.g09.slc.cpg/sg47_2_cif.got.tgz:3576.got - 2010.04.14 03:12:58.
