data_PCOD8200217
_publ_section_title
;
Structure prediction by ZEFSAII (Michael W. Deem and Ramdas Pophale) SiO2 
 PCOD8200217
Probable space group: P M M M
;
_chemical_formula_sum "Si O2"
_cell_formula_units_Z 36
_cell_length_a 12.580126
_cell_length_b 9.120383
_cell_length_c 20.007574
_cell_angle_alpha 90.000000
_cell_angle_beta 90.000000
_cell_angle_gamma 90.000000
_cell_volume 2295.580353
_symmetry_space_group_name_H-M "P M M M"
_symmetry_group_IT_number 47
_symmetry_cell_setting 'orthorhombic'
loop_
_space_group_symop_operation_xyz
x,y,z
-x,-y,z
x,-y,-z
-x,y,-z
-x,-y,-z
x,y,-z
-x,y,z
x,-y,z
loop_
_atom_site_type_symbol
_atom_site_label
_atom_site_fract_x
_atom_site_fract_y
_atom_site_fract_z
Si Si1 0.625667 0.329142 0.284756
Si Si2 0.297952 0.173681 0.842552
Si Si3 0.500000 0.174347 0.074945
Si Si4 0.619239 0.326077 0.570628
Si Si5 0.123133 0.331399 0.923546
O O1 0.500000 0.297170 0.278843
O O2 0.648916 0.500000 0.272363
O O3 0.691408 0.235387 0.231898
O O4 0.669764 0.276523 0.358352
O O5 0.395931 0.232953 0.887057
O O6 0.188862 0.228009 0.874614
O O7 0.296833 0.000000 0.839079
O O8 0.500000 0.000000 0.073139
O O9 0.500000 0.239003 0.000000
O O10 0.676620 0.275726 0.500000
O O11 0.500000 0.263875 0.568356
O O12 0.614691 0.500000 0.572820
O O13 0.154213 0.500000 0.911017
O O14 0.000000 0.305415 0.907378
O O15 0.147769 0.287776 0.000000
#
# Coordination Sequence:
#
# PCOD8200217 Si02
#       5
#     8   8   4   8   8
#     4   9  16  26  41  61  88 120 152 185 220 260
#     4  11  20  30  45  65  92 122 150 182 218 264
#     4   9  18  30  41  57  84 117 148 178 213 251
#     4   7  10  18  34  56  80 109 147 186 218 249
#     4   9  19  36  54  69  86 109 141 186 235 274
#
# _framework density 15.682309
#
# number of rings (size 3 to 8) (size 9 to 14) (size 15 to 20)
#    0.000    3.000    1.111    4.000    0.000    1.778 
#    0.000    1.111    0.000    3.333    0.000    3.111 
#    0.000    0.889    0.000   10.222    0.000    3.333 
#
# Total GULP energy -445974.732136 kJ/mol
# GULP energy per Si atom -12388.187004 kJ/mol
# Density = 1.564661 g / cm^3
# Si number density = 15.682309 Si / 1000 Ang^3
#
#
#
# Elastic Constant Matrix: (Units=GPa)
#
#
# Indices 1 2 3 4 5 6 
#
# 1 53.1091 27.6300 48.9290 0.0000 0.0000 0.0000
# 2 27.6300 47.8776 47.0615 0.0000 0.0000 0.0000
# 3 48.9290 47.0615 167.1155 0.0000 0.0000 0.0000
# 4 0.0000 0.0000 0.0000 11.9472 0.0000 0.0000
# 5 0.0000 0.0000 0.0000 0.0000 15.1675 0.0000
# 6 0.0000 0.0000 0.0000 0.0000 0.0000 18.6760
#
#
#
# Elastic Compliance Matrix: (Units=1/GPa)
#
#
# Indices 1 2 3 4 5 6 
#
# 1 0.030082 -0.012034 -0.005419 0.000000 0.000000 0.000000
# 2 -0.012034 0.033695 -0.005966 0.000000 0.000000 0.000000
# 3 -0.005419 -0.005966 0.009250 0.000000 0.000000 0.000000
# 4 0.000000 0.000000 0.000000 0.083702 0.000000 0.000000
# 5 0.000000 0.000000 0.000000 0.000000 0.065931 0.000000
# 6 0.000000 0.000000 0.000000 0.000000 0.000000 0.053545
#
#
# Mechanical properties :
#
#
# Convention : Reuss Voigt Hill
#
# Bulk Modulus (GPa) = 38.18072 57.26038 47.72055
# Shear Modulus (GPa) = 15.07063 18.79025 16.93044
#
# Velocity S-wave (km/s) = 3.10336 3.46523 3.28927
# Velocity P-wave (km/s) = 6.10248 7.25275 6.70234
#
# Compressibility (1/GPa) = 0.02619123
#
# Stress axis : x y z
#
# Youngs Moduli (GPa) = 33.24244 29.67781 108.10367
#
# Poissons Ratio (x) = 0.35714 0.58578
# Poissons Ratio (y) = 0.40004 0.64490
# Poissons Ratio (z) = 0.18013 0.17705
#
# Static dielectric constant tensor:
#      x y z
#    x 2.615530 0.000000 0.000000 
#    y 0.000000 2.675230 0.000000 
#    z 0.000000 0.000000 3.494190 
# 
# 
# High freq. dielectric constant tensor:
#      x y z
#    x 1.551210 0.000000 0.000000 
#    y 0.000000 1.575430 0.000000 
#    z 0.000000 0.000000 1.622380 
# 
# From -- ./inp_files/3935.got.cif
#   From: 2010.03.12/outbox.cif.g09.slc.cpg/sg47_2_cif.got.tgz:3935.got - 2010.04.14 03:12:58.
