data_PCOD8200469
_publ_section_title
;
Structure prediction by ZEFSAII (Michael W. Deem and Ramdas Pophale) SiO2 
 PCOD8200469
Probable space group: P M M M
;
_chemical_formula_sum "Si O2"
_cell_formula_units_Z 32
_cell_length_a 16.398745
_cell_length_b 11.060074
_cell_length_c 10.275176
_cell_angle_alpha 90.000000
_cell_angle_beta 90.000000
_cell_angle_gamma 90.000000
_cell_volume 1863.622370
_symmetry_space_group_name_H-M "P M M M"
_symmetry_group_IT_number 47
_symmetry_cell_setting 'orthorhombic'
loop_
_space_group_symop_operation_xyz
x,y,z
-x,-y,z
x,-y,-z
-x,y,-z
-x,-y,-z
x,y,-z
-x,y,z
x,-y,z
loop_
_atom_site_type_symbol
_atom_site_label
_atom_site_fract_x
_atom_site_fract_y
_atom_site_fract_z
Si Si1 0.096111 0.000000 0.154995
Si Si2 0.323439 0.639602 0.655697
Si Si3 0.094591 0.633283 0.500000
Si Si4 0.834597 0.750709 0.752080
Si Si5 0.089247 0.360490 0.000000
Si Si6 0.500000 0.642638 0.358285
O O1 0.142773 0.111744 0.219263
O O2 0.000000 0.000000 0.190389
O O3 0.108525 0.000000 0.000000
O O4 0.317874 0.656644 0.500000
O O5 0.303823 0.500000 0.691604
O O6 0.261541 0.730355 0.727534
O O7 0.413989 0.677532 0.710102
O O8 0.137778 0.500000 0.500000
O O9 0.117436 0.708162 0.373953
O O10 0.000000 0.611859 0.500000
O O11 0.860050 0.670870 0.873615
O O12 0.071743 0.500000 0.000000
O O13 0.000000 0.293192 0.000000
O O14 0.500000 0.500000 0.378105
O O15 0.500000 0.704763 0.500000
#
# Coordination Sequence:
#
# PCOD8200469 Si02
#       6
#     4   8   4   8   4   4
#     4  11  24  43  59  72 101 150 208 249 267 309
#     4   9  16  30  53  85 119 144 174 219 276 338
#     4  11  22  35  53  82 116 140 168 225 296 348
#     4  12  22  36  57  79 108 149 187 232 277 326
#     4  11  22  35  53  78 106 142 188 229 278 342
#     4   7  12  24  48  80 115 150 172 203 266 339
#
# _framework density 17.170859
#
# number of rings (size 3 to 8) (size 9 to 14) (size 15 to 20)
#    0.000    1.750    2.500    6.000    0.000    2.500 
#    0.000    1.250    0.000    1.500    0.000    7.000 
#    0.000    0.000    0.000    0.000    0.000    0.000 
#
# Total GULP energy -396532.989847 kJ/mol
# GULP energy per Si atom -12391.655933 kJ/mol
# Density = 1.713178 g / cm^3
# Si number density = 17.170859 Si / 1000 Ang^3
#
#
#
# Elastic Constant Matrix: (Units=GPa)
#
#
# Indices 1 2 3 4 5 6 
#
# 1 173.2154 59.9293 47.8163 0.0000 0.0000 0.0000
# 2 59.9293 107.2109 42.1073 0.0000 0.0000 0.0000
# 3 47.8163 42.1073 102.8222 0.0000 0.0000 0.0000
# 4 0.0000 0.0000 0.0000 32.6555 0.0000 0.0000
# 5 0.0000 0.0000 0.0000 0.0000 18.8064 0.0000
# 6 0.0000 0.0000 0.0000 0.0000 0.0000 30.8014
#
#
#
# Elastic Compliance Matrix: (Units=1/GPa)
#
#
# Indices 1 2 3 4 5 6 
#
# 1 0.007525 -0.003375 -0.002118 0.000000 0.000000 0.000000
# 2 -0.003375 0.012629 -0.003602 0.000000 0.000000 0.000000
# 3 -0.002118 -0.003602 0.012185 0.000000 0.000000 0.000000
# 4 0.000000 0.000000 0.000000 0.030623 0.000000 0.000000
# 5 0.000000 0.000000 0.000000 0.000000 0.053173 0.000000
# 6 0.000000 0.000000 0.000000 0.000000 0.000000 0.032466
#
#
# Mechanical properties :
#
#
# Convention : Reuss Voigt Hill
#
# Bulk Modulus (GPa) = 70.67007 75.88379 73.27693
# Shear Modulus (GPa) = 29.15323 32.01236 30.58279
#
# Velocity S-wave (km/s) = 4.12495 4.32249 4.22487
# Velocity P-wave (km/s) = 7.99583 8.31872 8.15887
#
# Compressibility (1/GPa) = 0.01415026
#
# Stress axis : x y z
#
# Youngs Moduli (GPa) = 132.88422 79.18473 82.06540
#
# Poissons Ratio (x) = 0.26724 0.17377
# Poissons Ratio (y) = 0.44847 0.29562
# Poissons Ratio (z) = 0.28138 0.28524
#
# Static dielectric constant tensor:
#      x y z
#    x 3.679290 0.000000 0.000000 
#    y 0.000000 3.026600 0.000000 
#    z 0.000000 0.000000 3.055590 
# 
# 
# High freq. dielectric constant tensor:
#      x y z
#    x 1.678030 0.000000 0.000000 
#    y 0.000000 1.637480 0.000000 
#    z 0.000000 0.000000 1.645970 
# 
# From -- ./inp_files/8609.got.cif
#   From: 2010.03.12/outbox.cif.g09.slc.cpg/sg47_5_cif.got.tgz:8609.got - 2010.04.14 03:12:58.
