data_PCOD8200124
_publ_section_title
;
Structure prediction by ZEFSAII (Michael W. Deem and Ramdas Pophale) SiO2 
 PCOD8200124
Probable space group: P M M M
;
_chemical_formula_sum "Si O2"
_cell_formula_units_Z 48
_cell_length_a 34.427098
_cell_length_b 7.656790
_cell_length_c 9.234994
_cell_angle_alpha 90.000000
_cell_angle_beta 90.000000
_cell_angle_gamma 90.000000
_cell_volume 2434.354205
_symmetry_space_group_name_H-M "P M M M"
_symmetry_group_IT_number 47
_symmetry_cell_setting 'orthorhombic'
loop_
_space_group_symop_operation_xyz
x,y,z
-x,-y,z
x,-y,-z
-x,y,-z
-x,-y,-z
x,y,-z
-x,y,z
x,-y,z
loop_
_atom_site_type_symbol
_atom_site_label
_atom_site_fract_x
_atom_site_fract_y
_atom_site_fract_z
Si Si1 0.041420 0.294479 0.165836
Si Si2 0.410354 0.500000 0.327719
Si Si3 0.729535 0.800606 0.832638
Si Si4 0.876590 0.200404 0.839299
Si Si5 0.454631 0.200214 0.166145
Si Si6 0.669718 0.500000 0.167621
Si Si7 0.805214 0.207697 0.338672
O O1 0.043237 0.500000 0.178798
O O2 0.080845 0.219023 0.237662
O O3 0.000000 0.229134 0.235833
O O4 0.041331 0.232393 0.000000
O O5 0.411303 0.500000 0.500000
O O6 0.431213 0.325784 0.271677
O O7 0.366546 0.500000 0.273180
O O8 0.693720 0.674916 0.796489
O O9 0.766462 0.732782 0.743436
O O10 0.718002 0.000000 0.791643
O O11 0.741285 0.787124 0.000000
O O12 0.843129 0.288119 0.741428
O O13 0.865781 0.000000 0.855977
O O14 0.876904 0.288249 0.000000
O O15 0.500000 0.232697 0.191372
O O16 0.443771 0.000000 0.202472
O O17 0.443663 0.242702 0.000000
O O18 0.656450 0.500000 0.000000
O O19 0.804079 0.285824 0.500000
O O20 0.807677 0.000000 0.343263
#
# Coordination Sequence:
#
# PCOD8200124 Si02
#       7
#     8   4   8   8   8   4   8
#     4   8  14  25  40  59  85 115 146 183 228 276
#     4  12  25  37  54  85 126 164 194 237 297 354
#     4   9  18  35  58  79 100 130 171 221 272 317
#     4   9  16  26  43  67  91 114 146 190 234 280
#     4   9  19  38  64  90 116 154 206 256 298 344
#     4  10  22  39  57  80 108 143 191 235 270 324
#     4   9  17  30  49  71  96 126 155 190 245 308
#
# _framework density 19.717753999999999
#
# number of rings (size 3 to 8) (size 9 to 14) (size 15 to 20)
#    0.000    2.833    0.000    2.500    0.000    5.333 
#    1.500    4.167    0.000    0.500    0.000    3.500 
#    0.000    0.000    0.000    0.000    0.000    0.000 
#
# Total GULP energy -594854.971275 kJ/mol
# GULP energy per Si atom -12392.811902 kJ/mol
# Density = 1.967288 g / cm^3
# Si number density = 19.717754 Si / 1000 Ang^3
#
#
#
# Elastic Constant Matrix: (Units=GPa)
#
#
# Indices 1 2 3 4 5 6 
#
# 1 157.7971 59.2829 87.5412 0.0000 0.0000 0.0000
# 2 59.2829 77.5539 44.3427 0.0000 0.0000 0.0000
# 3 87.5412 44.3427 113.8909 0.0000 0.0000 0.0000
# 4 0.0000 0.0000 0.0000 12.4803 0.0000 0.0000
# 5 0.0000 0.0000 0.0000 0.0000 6.5431 0.0000
# 6 0.0000 0.0000 0.0000 0.0000 0.0000 1211.5464
#
#
#
# Elastic Compliance Matrix: (Units=1/GPa)
#
#
# Indices 1 2 3 4 5 6 
#
# 1 0.012504 -0.005226 -0.007576 0.000000 0.000000 0.000000
# 2 -0.005226 0.018771 -0.003291 0.000000 0.000000 0.000000
# 3 -0.007576 -0.003291 0.015885 0.000000 0.000000 0.000000
# 4 0.000000 0.000000 0.000000 0.080126 0.000000 0.000000
# 5 0.000000 0.000000 0.000000 0.000000 0.152832 0.000000
# 6 0.000000 0.000000 0.000000 0.000000 0.000000 0.000825
#
#
# Mechanical properties :
#
#
# Convention : Reuss Voigt Hill
#
# Bulk Modulus (GPa) = 66.78841 81.28615 74.03728
# Shear Modulus (GPa) = 15.71728 256.65231 136.18480
#
# Velocity S-wave (km/s) = 2.82638 11.42128 8.31968
# Velocity P-wave (km/s) = 6.67810 14.67112 11.39822
#
# Compressibility (1/GPa) = 0.01497266
#
# Stress axis : x y z
#
# Youngs Moduli (GPa) = 79.97674 53.27347 62.95228
#
# Poissons Ratio (x) = 0.27842 0.47693
# Poissons Ratio (y) = 0.41797 0.20720
# Poissons Ratio (z) = 0.60591 0.17534
#
# Static dielectric constant tensor:
#      x y z
#    x 3.732690 0.000000 0.000000 
#    y 0.000000 3.462220 0.000000 
#    z 0.000000 0.000000 3.455840 
# 
# 
# High freq. dielectric constant tensor:
#      x y z
#    x 1.778220 0.000000 0.000000 
#    y 0.000000 1.759930 0.000000 
#    z 0.000000 0.000000 1.730740 
# 
# From -- ./inp_files/13992.got.cif
#   From: 2010.03.12/outbox.cif.g09.slc.cpg/sg47_7_cif.got.tgz:13992.got - 2010.04.14 03:12:58.
