data_PCOD8200160
_publ_section_title
;
Structure prediction by ZEFSAII (Michael W. Deem and Ramdas Pophale) SiO2 
 PCOD8200160
Probable space group: P M M M
;
_chemical_formula_sum "Si O2"
_cell_formula_units_Z 40
_cell_length_a 8.848441
_cell_length_b 7.811472
_cell_length_c 29.457492
_cell_angle_alpha 90.000000
_cell_angle_beta 90.000000
_cell_angle_gamma 90.000000
_cell_volume 2036.082674
_symmetry_space_group_name_H-M "P M M M"
_symmetry_group_IT_number 47
_symmetry_cell_setting 'orthorhombic'
loop_
_space_group_symop_operation_xyz
x,y,z
-x,-y,z
x,-y,-z
-x,y,-z
-x,-y,-z
x,y,-z
-x,y,z
x,-y,z
loop_
_atom_site_type_symbol
_atom_site_label
_atom_site_fract_x
_atom_site_fract_y
_atom_site_fract_z
Si Si1 0.819475 0.500000 0.948910
Si Si2 0.169304 0.201239 0.300567
Si Si3 0.826020 0.500000 0.446541
Si Si4 0.829037 0.302792 0.794897
Si Si5 0.820730 0.811463 0.889295
Si Si6 0.678262 0.197419 0.607337
O O1 0.755561 0.669009 0.923563
O O2 0.000000 0.500000 0.949487
O O3 0.755510 0.500000 0.000000
O O4 0.249364 0.266193 0.253787
O O5 0.270563 0.260321 0.342822
O O6 0.000000 0.279187 0.306356
O O7 0.160974 0.000000 0.298534
O O8 0.805315 0.500000 0.500000
O O9 0.750682 0.674854 0.428908
O O10 0.000000 0.500000 0.431714
O O11 0.823504 0.500000 0.807577
O O12 0.752937 0.208352 0.838158
O O13 0.000000 0.235166 0.788988
O O14 0.000000 0.785978 0.885823
O O15 0.778209 0.000000 0.907929
O O16 0.500000 0.213249 0.603999
O O17 0.729771 0.000000 0.597931
#
# Coordination Sequence:
#
# PCOD8200160 Si02
#       6
#     4   8   4   8   8   8
#     4   9  16  24  31  42  63  93 137 191 242 297
#     4   9  17  29  47  73 102 133 172 214 254 302
#     4  11  25  43  64  89 114 144 187 237 282 321
#     4   9  15  23  37  59  86 115 150 196 247 295
#     4   9  15  23  34  47  68 100 139 187 242 295
#     4  10  22  40  61  86 118 153 185 220 269 330
#
# _framework density 19.645567
#
# number of rings (size 3 to 8) (size 9 to 14) (size 15 to 20)
#    0.000    2.600    1.000    1.500    1.400    5.200 
#    0.000    4.000    0.000    0.000    0.000    0.000 
#    0.000    0.000    0.000    0.000    0.000    2.000 
#
# Total GULP energy -495745.378696 kJ/mol
# GULP energy per Si atom -12393.634467 kJ/mol
# Density = 1.960085 g / cm^3
# Si number density = 19.645567 Si / 1000 Ang^3
#
#
#
# Elastic Constant Matrix: (Units=GPa)
#
#
# Indices 1 2 3 4 5 6 
#
# 1 43.8163 29.1815 31.9507 0.0000 0.0000 0.0000
# 2 29.1815 119.5992 71.2221 0.0000 0.0000 0.0000
# 3 31.9507 71.2221 140.3520 0.0000 0.0000 0.0000
# 4 0.0000 0.0000 0.0000 31.6534 0.0000 0.0000
# 5 0.0000 0.0000 0.0000 0.0000 -0.8324 0.0000
# 6 0.0000 0.0000 0.0000 0.0000 0.0000 14.7791
#
#
#
# Elastic Compliance Matrix: (Units=1/GPa)
#
#
# Indices 1 2 3 4 5 6 
#
# 1 0.028962 -0.004500 -0.004309 0.000000 0.000000 0.000000
# 2 -0.004500 0.012681 -0.005411 0.000000 0.000000 0.000000
# 3 -0.004309 -0.005411 0.010852 0.000000 0.000000 0.000000
# 4 0.000000 0.000000 0.000000 0.031592 0.000000 0.000000
# 5 0.000000 0.000000 0.000000 0.000000 -1.201364 0.000000
# 6 0.000000 0.000000 0.000000 0.000000 0.000000 0.067663
#
#
# Mechanical properties :
#
#
# Convention : Reuss Voigt Hill
#
# Bulk Modulus (GPa) = 41.57261 63.16402 52.36831
# Shear Modulus (GPa) = -4.93509 20.54756 7.80624
#
# Velocity S-wave (km/s) = -1.58667 3.23757 1.99554
# Velocity P-wave (km/s) = 4.22499 6.79686 5.65897
#
# Compressibility (1/GPa) = 0.02405430
#
# Stress axis : x y z
#
# Youngs Moduli (GPa) = 34.52774 78.85530 92.15159
#
# Poissons Ratio (x) = 0.35487 0.39712
# Poissons Ratio (y) = 0.15539 0.49861
# Poissons Ratio (z) = 0.14880 0.42667
#
# Static dielectric constant tensor:
#      x y z
#    x 3.022510 0.000000 0.000000 
#    y 0.000000 3.640640 0.000000 
#    z 0.000000 0.000000 3.795760 
# 
# 
# High freq. dielectric constant tensor:
#      x y z
#    x 1.691430 0.000000 0.000000 
#    y 0.000000 1.776140 0.000000 
#    z 0.000000 0.000000 1.775660 
# 
# From -- ./inp_files/33035.got.cif
#   From: 2010.03.12/outbox.cif.g09.slc.cpg/sg47_17_cif.got.tgz:33035.got - 2010.04.14 03:12:58.
