data_PCOD8200382
_publ_section_title
;
Structure prediction by ZEFSAII (Michael W. Deem and Ramdas Pophale) SiO2 
 PCOD8200382
Probable space group: P M M M
;
_chemical_formula_sum "Si O2"
_cell_formula_units_Z 44
_cell_length_a 14.352351
_cell_length_b 17.901738
_cell_length_c 9.071429
_cell_angle_alpha 90.000000
_cell_angle_beta 90.000000
_cell_angle_gamma 90.000000
_cell_volume 2330.740643
_symmetry_space_group_name_H-M "P M M M"
_symmetry_group_IT_number 47
_symmetry_cell_setting 'orthorhombic'
loop_
_space_group_symop_operation_xyz
x,y,z
-x,-y,z
x,-y,-z
-x,y,-z
-x,-y,-z
x,y,-z
-x,y,z
x,-y,z
loop_
_atom_site_type_symbol
_atom_site_label
_atom_site_fract_x
_atom_site_fract_y
_atom_site_fract_z
Si Si1 0.896876 0.278774 0.674866
Si Si2 0.398699 0.411374 0.164638
Si Si3 0.781654 0.416268 0.674111
Si Si4 0.215372 0.865336 0.674978
Si Si5 0.890193 0.000000 0.172903
Si Si6 0.605637 0.912551 0.829882
O O1 0.902090 0.279556 0.500000
O O2 0.860216 0.359230 0.731907
O O3 0.827633 0.213519 0.725977
O O4 0.000000 0.265725 0.741597
O O5 0.500000 0.381077 0.218336
O O6 0.401315 0.500000 0.164383
O O7 0.317631 0.383792 0.272525
O O8 0.378197 0.381683 0.000000
O O9 0.778277 0.418149 0.500000
O O10 0.802308 0.500000 0.735860
O O11 0.211400 0.877121 0.500000
O O12 0.322464 0.867149 0.728410
O O13 0.153981 0.927712 0.753314
O O14 0.000000 0.000000 0.202836
O O15 0.866414 0.000000 0.000000
O O16 0.500000 0.891671 0.783371
O O17 0.623553 0.000000 0.805125
O O18 0.622345 0.891609 0.000000
#
# Coordination Sequence:
#
# PCOD8200382 Si02
#       6
#     8   8   8   8   4   8
#     4   9  19  35  52  73 105 139 170 214 269 316
#     4   8  14  26  45  69  98 131 163 198 248 308
#     4   9  17  30  51  77 100 129 174 221 262 306
#     4  11  21  34  55  81 107 138 175 216 261 310
#     4  11  23  37  54  77 106 139 175 216 258 305
#     4   9  18  34  56  80 109 144 176 210 256 308
#
# _framework density 18.878119999999999
#
# number of rings (size 3 to 8) (size 9 to 14) (size 15 to 20)
#    0.000    2.636    0.909    2.455    0.000    2.545 
#    0.000    7.273    0.000    8.182    0.000    2.545 
#    0.000    0.000    0.000    0.000    0.000    0.000 
#
# Total GULP energy -545391.927384 kJ/mol
# GULP energy per Si atom -12395.271077 kJ/mol
# Density = 1.883515 g / cm^3
# Si number density = 18.878120 Si / 1000 Ang^3
#
#
#
# Elastic Constant Matrix: (Units=GPa)
#
#
# Indices 1 2 3 4 5 6 
#
# 1 161.7569 73.1185 45.7903 0.0000 0.0000 0.0000
# 2 73.1185 106.4525 35.6731 0.0000 0.0000 0.0000
# 3 45.7903 35.6731 52.1122 0.0000 0.0000 0.0000
# 4 0.0000 0.0000 0.0000 7.3159 0.0000 0.0000
# 5 0.0000 0.0000 0.0000 0.0000 28.8468 0.0000
# 6 0.0000 0.0000 0.0000 0.0000 0.0000 28.0854
#
#
#
# Elastic Compliance Matrix: (Units=1/GPa)
#
#
# Indices 1 2 3 4 5 6 
#
# 1 0.009975 -0.005080 -0.005288 0.000000 0.000000 0.000000
# 2 -0.005080 0.014777 -0.005652 0.000000 0.000000 0.000000
# 3 -0.005288 -0.005652 0.027705 0.000000 0.000000 0.000000
# 4 0.000000 0.000000 0.000000 0.136689 0.000000 0.000000
# 5 0.000000 0.000000 0.000000 0.000000 0.034666 0.000000
# 6 0.000000 0.000000 0.000000 0.000000 0.000000 0.035606
#
#
# Mechanical properties :
#
#
# Convention : Reuss Voigt Hill
#
# Bulk Modulus (GPa) = 48.97672 69.94281 59.45977
# Shear Modulus (GPa) = 16.76375 23.89893 20.33134
#
# Velocity S-wave (km/s) = 2.98316 3.56189 3.28530
# Velocity P-wave (km/s) = 6.15351 7.35161 6.77908
#
# Compressibility (1/GPa) = 0.02041786
#
# Stress axis : x y z
#
# Youngs Moduli (GPa) = 100.24979 67.67331 36.09491
#
# Poissons Ratio (x) = 0.34375 0.19086
# Poissons Ratio (y) = 0.50922 0.20401
# Poissons Ratio (z) = 0.53010 0.38249
#
# Static dielectric constant tensor:
#      x y z
#    x 3.920470 0.000000 0.000000 
#    y 0.000000 3.438570 0.000000 
#    z 0.000000 0.000000 3.296430 
# 
# 
# High freq. dielectric constant tensor:
#      x y z
#    x 1.748710 0.000000 0.000000 
#    y 0.000000 1.713550 0.000000 
#    z 0.000000 0.000000 1.709500 
# 
# From -- ./inp_files/6166.got.cif
#   From: 2010.03.12/outbox.cif.g09.slc.cpg/sg47_4_cif.got.tgz:6166.got - 2010.04.14 03:12:58.
