data_PCOD8200204
_publ_section_title
;
Structure prediction by ZEFSAII (Michael W. Deem and Ramdas Pophale) SiO2 
 PCOD8200204
Probable space group: P M M M
;
_chemical_formula_sum "Si O2"
_cell_formula_units_Z 56
_cell_length_a 9.284400
_cell_length_b 14.537159
_cell_length_c 22.995460
_cell_angle_alpha 90.000000
_cell_angle_beta 90.000000
_cell_angle_gamma 90.000000
_cell_volume 3103.669619
_symmetry_space_group_name_H-M "P M M M"
_symmetry_group_IT_number 47
_symmetry_cell_setting 'orthorhombic'
loop_
_space_group_symop_operation_xyz
x,y,z
-x,-y,z
x,-y,-z
-x,y,-z
-x,-y,-z
x,y,-z
-x,y,z
x,-y,z
loop_
_atom_site_type_symbol
_atom_site_label
_atom_site_fract_x
_atom_site_fract_y
_atom_site_fract_z
Si Si1 0.837468 0.892619 0.653617
Si Si2 0.168423 0.895015 0.213161
Si Si3 0.163439 0.606399 0.258176
Si Si4 0.328728 0.272865 0.169426
Si Si5 0.670999 0.602720 0.935331
Si Si6 0.665346 0.229897 0.434487
Si Si7 0.164998 0.603857 0.607195
O O1 0.792269 0.872512 0.719996
O O2 0.732874 0.841780 0.609914
O O3 0.000000 0.857270 0.643038
O O4 0.826932 0.000000 0.640533
O O5 0.260308 0.828789 0.171395
O O6 0.000000 0.878188 0.202446
O O7 0.209554 0.000000 0.198090
O O8 0.199244 0.500000 0.246766
O O9 0.276722 0.668078 0.224101
O O10 0.181377 0.631194 0.325518
O O11 0.000000 0.628712 0.238224
O O12 0.500000 0.264601 0.171054
O O13 0.271609 0.323048 0.110963
O O14 0.500000 0.601220 0.933851
O O15 0.728014 0.500000 0.919556
O O16 0.724955 0.630506 0.000000
O O17 0.683818 0.191986 0.500000
O O18 0.500000 0.241748 0.417496
O O19 0.738711 0.329427 0.431294
O O20 0.218696 0.500000 0.596706
O O21 0.000000 0.613732 0.587625
#
# Coordination Sequence:
#
# PCOD8200204 Si02
#       7
#     8   8   8   8   8   8   8
#     4   9  19  37  59  78  95 122 163 204 240 287
#     4   9  19  36  55  74  99 131 163 197 244 301
#     4   9  18  32  49  71 101 133 161 194 243 300
#     4  11  20  28  47  79 106 128 163 210 252 291
#     4   8  15  29  47  68 100 141 177 206 239 281
#     4  11  24  37  49  71 102 131 158 194 246 302
#     4   9  19  36  55  72  92 125 169 208 240 283
#
# _framework density 18.043156
#
# number of rings (size 3 to 8) (size 9 to 14) (size 15 to 20)
#    0.000    2.571    0.000    4.286    0.000    8.000 
#    0.000    5.714    0.000    2.143    0.000    8.000 
#    0.000    0.000    0.000    0.000    0.000    0.000 
#
# Total GULP energy -694374.228117 kJ/mol
# GULP energy per Si atom -12399.539788 kJ/mol
# Density = 1.800209 g / cm^3
# Si number density = 18.043156 Si / 1000 Ang^3
#
#
#
# Elastic Constant Matrix: (Units=GPa)
#
#
# Indices 1 2 3 4 5 6 
#
# 1 72.7096 48.3153 43.8327 0.0000 0.0000 0.0000
# 2 48.3153 100.1388 60.3365 0.0000 0.0000 0.0000
# 3 43.8327 60.3365 79.9271 0.0000 0.0000 0.0000
# 4 0.0000 0.0000 0.0000 24.0616 0.0000 0.0000
# 5 0.0000 0.0000 0.0000 0.0000 -0.1444 0.0000
# 6 0.0000 0.0000 0.0000 0.0000 0.0000 24.3257
#
#
#
# Elastic Compliance Matrix: (Units=1/GPa)
#
#
# Indices 1 2 3 4 5 6 
#
# 1 0.022510 -0.006278 -0.007605 0.000000 0.000000 0.000000
# 2 -0.006278 0.020069 -0.011707 0.000000 0.000000 0.000000
# 3 -0.007605 -0.011707 0.025520 0.000000 0.000000 0.000000
# 4 0.000000 0.000000 0.000000 0.041560 0.000000 0.000000
# 5 0.000000 0.000000 0.000000 0.000000 -6.925874 0.000000
# 6 0.000000 0.000000 0.000000 0.000000 0.000000 0.041109
#
#
# Mechanical properties :
#
#
# Convention : Reuss Voigt Hill
#
# Bulk Modulus (GPa) = 59.10933 61.97161 60.54047
# Shear Modulus (GPa) = -0.74424 16.33465 7.79521
#
# Velocity S-wave (km/s) = -0.64294 3.01210 2.08079
# Velocity P-wave (km/s) = 5.68154 6.82040 6.27686
#
# Compressibility (1/GPa) = 0.01691780
#
# Stress axis : x y z
#
# Youngs Moduli (GPa) = 44.42454 49.82767 39.18548
#
# Poissons Ratio (x) = 0.31284 0.29801
# Poissons Ratio (y) = 0.27892 0.45874
# Poissons Ratio (z) = 0.33786 0.58333
#
# Static dielectric constant tensor:
#      x y z
#    x 3.152240 0.000000 0.000000 
#    y 0.000000 3.423980 0.000000 
#    z 0.000000 0.000000 3.320800 
# 
# 
# High freq. dielectric constant tensor:
#      x y z
#    x 1.682580 0.000000 0.000000 
#    y 0.000000 1.705740 0.000000 
#    z 0.000000 0.000000 1.684590 
# 
# From -- ./inp_files/7251.got.cif
#   From: 2010.03.12/outbox.cif.g09.slc.cpg/sg47_4_cif.got.tgz:7251.got - 2010.04.14 03:12:58.
