data_PCOD8200836
_publ_section_title
;
Structure prediction by ZEFSAII (Michael W. Deem and Ramdas Pophale) SiO2 
 PCOD8200836
Probable space group: P M M M
;
_chemical_formula_sum "Si O2"
_cell_formula_units_Z 52
_cell_length_a 9.806065
_cell_length_b 9.333504
_cell_length_c 33.783633
_cell_angle_alpha 90.000000
_cell_angle_beta 90.000000
_cell_angle_gamma 90.000000
_cell_volume 3092.045216
_symmetry_space_group_name_H-M "P M M M"
_symmetry_group_IT_number 47
_symmetry_cell_setting 'orthorhombic'
loop_
_space_group_symop_operation_xyz
x,y,z
-x,-y,z
x,-y,-z
-x,y,-z
-x,-y,-z
x,y,-z
-x,y,z
x,-y,z
loop_
_atom_site_type_symbol
_atom_site_label
_atom_site_fract_x
_atom_site_fract_y
_atom_site_fract_z
Si Si1 0.337781 0.339155 0.736522
Si Si2 0.152818 0.329823 0.043829
Si Si3 0.662742 0.838347 0.575366
Si Si4 0.342121 0.667836 0.113740
Si Si5 0.337525 0.662386 0.500000
Si Si6 0.337849 0.339118 0.351060
Si Si7 0.662390 0.160957 0.190312
O O1 0.500000 0.338237 0.738496
O O2 0.284747 0.500000 0.744838
O O3 0.289740 0.288524 0.692728
O O4 0.277299 0.233758 0.769906
O O5 0.157993 0.500000 0.043662
O O6 0.258441 0.270873 0.076290
O O7 0.000000 0.277588 0.054433
O O8 0.193992 0.273178 0.000000
O O9 0.500000 0.839056 0.575458
O O10 0.717599 0.745419 0.538568
O O11 0.720649 0.768416 0.615826
O O12 0.719021 0.000000 0.571955
O O13 0.500000 0.700502 0.105349
O O14 0.316828 0.500000 0.120838
O O15 0.287795 0.749974 0.152363
O O16 0.280813 0.500000 0.500000
O O17 0.500000 0.660294 0.500000
O O18 0.500000 0.339552 0.352906
O O19 0.284483 0.500000 0.359635
O O20 0.500000 0.161133 0.191930
O O21 0.719901 0.000000 0.187608
#
# Coordination Sequence:
#
# PCOD8200836 Si02
#       7
#     8   8   8   8   4   8   8
#     4   8  13  21  32  44  59  80 105 132 162 200
#     4   8  14  25  41  61  83 104 127 158 194 227
#     4   9  15  20  25  33  44  57  77 109 148 191
#     4   9  16  25  39  59  80 101 126 156 188 223
#     4   9  15  21  27  31  37  53  77 107 147 195
#     4   8  13  20  28  37  49  66  88 114 147 190
#     4   9  16  24  34  49  70  94 117 142 174 212
#
# _framework density 16.817347000000002
#
# number of rings (size 3 to 8) (size 9 to 14) (size 15 to 20)
#    0.000    3.462    0.000    2.538    0.000    5.538 
#    0.000    4.615    0.000    0.923    0.000    3.231 
#    0.000    0.000    0.000    0.000    0.000    0.000 
#
# Total GULP energy -644417.426470 kJ/mol
# GULP energy per Si atom -12392.642817 kJ/mol
# Density = 1.677907 g / cm^3
# Si number density = 16.817347 Si / 1000 Ang^3
#
#
#
# Elastic Constant Matrix: (Units=GPa)
#
#
# Indices 1 2 3 4 5 6 
#
# 1 17.6363 16.9221 31.7135 0.0000 0.0000 0.0000
# 2 16.9221 107.0532 86.0928 0.0000 0.0000 0.0000
# 3 31.7135 86.0928 184.2805 0.0000 0.0000 0.0000
# 4 0.0000 0.0000 0.0000 12.6691 0.0000 0.0000
# 5 0.0000 0.0000 0.0000 0.0000 0.9318 0.0000
# 6 0.0000 0.0000 0.0000 0.0000 0.0000 2.9971
#
#
#
# Elastic Compliance Matrix: (Units=1/GPa)
#
#
# Indices 1 2 3 4 5 6 
#
# 1 0.082561 -0.002602 -0.012993 0.000000 0.000000 0.000000
# 2 -0.002602 0.015045 -0.006581 0.000000 0.000000 0.000000
# 3 -0.012993 -0.006581 0.010737 0.000000 0.000000 0.000000
# 4 0.000000 0.000000 0.000000 0.078932 0.000000 0.000000
# 5 0.000000 0.000000 0.000000 0.000000 1.073228 0.000000
# 6 0.000000 0.000000 0.000000 0.000000 0.000000 0.333651
#
#
# Mechanical properties :
#
#
# Convention : Reuss Voigt Hill
#
# Bulk Modulus (GPa) = 15.62696 64.26964 39.94830
# Shear Modulus (GPa) = 3.01235 14.93571 8.97403
#
# Velocity S-wave (km/s) = 1.33981 2.98336 2.31252
# Velocity P-wave (km/s) = 3.42138 7.08283 5.56203
#
# Compressibility (1/GPa) = 0.06399197
#
# Stress axis : x y z
#
# Youngs Moduli (GPa) = 12.11225 66.46782 93.13605
#
# Poissons Ratio (x) = 0.17294 1.21009
# Poissons Ratio (y) = 0.03151 0.61292
# Poissons Ratio (z) = 0.15737 0.43742
#
# Static dielectric constant tensor:
#      x y z
#    x 2.435210 0.000000 0.000000 
#    y 0.000000 3.177490 0.000000 
#    z 0.000000 0.000000 3.585230 
# 
# 
# High freq. dielectric constant tensor:
#      x y z
#    x 1.555540 0.000000 0.000000 
#    y 0.000000 1.636630 0.000000 
#    z 0.000000 0.000000 1.669410 
# 
# From -- ./inp_files/34535.got.cif
#   From: 2010.03.12/outbox.cif.g09.slc.cpg/sg47_18_cif.got.tgz:34535.got - 2010.04.14 03:12:58.
