data_PCOD8200506
_publ_section_title
;
Structure prediction by ZEFSAII (Michael W. Deem and Ramdas Pophale) SiO2 
 PCOD8200506
Probable space group: P M M M
;
_chemical_formula_sum "Si O2"
_cell_formula_units_Z 40
_cell_length_a 8.928579
_cell_length_b 9.995515
_cell_length_c 24.314034
_cell_angle_alpha 90.000000
_cell_angle_beta 90.000000
_cell_angle_gamma 90.000000
_cell_volume 2169.924086
_symmetry_space_group_name_H-M "P M M M"
_symmetry_group_IT_number 47
_symmetry_cell_setting 'orthorhombic'
loop_
_space_group_symop_operation_xyz
x,y,z
-x,-y,z
x,-y,-z
-x,y,-z
-x,-y,-z
x,y,-z
-x,y,z
x,-y,z
loop_
_atom_site_type_symbol
_atom_site_label
_atom_site_fract_x
_atom_site_fract_y
_atom_site_fract_z
Si Si1 0.822089 0.500000 0.563504
Si Si2 0.168450 0.658726 0.940046
Si Si3 0.322435 0.244719 0.617181
Si Si4 0.677617 0.848806 0.737368
Si Si5 0.166803 0.000000 0.435913
Si Si6 0.677096 0.347975 0.831209
O O1 0.767646 0.500000 0.500000
O O2 0.758786 0.624580 0.596228
O O3 0.000000 0.500000 0.566123
O O4 0.171739 0.500000 0.940998
O O5 0.272292 0.710129 0.890437
O O6 0.000000 0.710247 0.929756
O O7 0.225649 0.711490 0.000000
O O8 0.500000 0.260492 0.611380
O O9 0.273659 0.215247 0.679672
O O10 0.264911 0.126394 0.579590
O O11 0.500000 0.855867 0.741190
O O12 0.742567 0.751784 0.784888
O O13 0.742891 0.000000 0.743140
O O14 0.142857 0.000000 0.500000
O O15 0.000000 0.000000 0.408328
O O16 0.500000 0.348412 0.829518
O O17 0.737088 0.500000 0.821175
#
# Coordination Sequence:
#
# PCOD8200506 Si02
#       6
#     4   8   8   8   4   8
#     4  11  25  43  59  81 117 151 176 217 284 341
#     4   8  14  26  44  67  99 135 167 206 258 308
#     4  11  22  38  62  87 109 142 189 232 268 322
#     4   9  18  34  54  77 106 138 172 216 269 314
#     4  11  23  39  59  83 115 149 178 221 280 331
#     4   9  17  28  48  76 102 131 169 213 259 309
#
# _framework density 18.433826
#
# number of rings (size 3 to 8) (size 9 to 14) (size 15 to 20)
#    0.000    2.400    1.000    2.400    1.400    4.400 
#    0.000    4.000    0.000    0.600    0.000    4.200 
#    0.000    0.000    0.000    0.000    0.000    0.000 
#
# Total GULP energy -495799.461368 kJ/mol
# GULP energy per Si atom -12394.986534 kJ/mol
# Density = 1.839187 g / cm^3
# Si number density = 18.433826 Si / 1000 Ang^3
#
#
#
# Elastic Constant Matrix: (Units=GPa)
#
#
# Indices 1 2 3 4 5 6 
#
# 1 41.5256 28.8782 35.3691 0.0000 0.0000 0.0000
# 2 28.8782 131.0567 76.1616 0.0000 0.0000 0.0000
# 3 35.3691 76.1616 157.6641 0.0000 0.0000 0.0000
# 4 0.0000 0.0000 0.0000 35.6042 0.0000 0.0000
# 5 0.0000 0.0000 0.0000 0.0000 12.1967 0.0000
# 6 0.0000 0.0000 0.0000 0.0000 0.0000 10.1249
#
#
#
# Elastic Compliance Matrix: (Units=1/GPa)
#
#
# Indices 1 2 3 4 5 6 
#
# 1 0.031137 -0.003895 -0.005103 0.000000 0.000000 0.000000
# 2 -0.003895 0.011096 -0.004486 0.000000 0.000000 0.000000
# 3 -0.005103 -0.004486 0.009654 0.000000 0.000000 0.000000
# 4 0.000000 0.000000 0.000000 0.028087 0.000000 0.000000
# 5 0.000000 0.000000 0.000000 0.000000 0.081989 0.000000
# 6 0.000000 0.000000 0.000000 0.000000 0.000000 0.098766
#
#
# Mechanical properties :
#
#
# Convention : Reuss Voigt Hill
#
# Bulk Modulus (GPa) = 40.13185 67.89604 54.01394
# Shear Modulus (GPa) = 16.89160 24.24099 20.56629
#
# Velocity S-wave (km/s) = 3.03039 3.63027 3.34381
# Velocity P-wave (km/s) = 5.83630 7.38133 6.65381
#
# Compressibility (1/GPa) = 0.02491787
#
# Stress axis : x y z
#
# Youngs Moduli (GPa) = 32.11588 90.12587 103.57878
#
# Poissons Ratio (x) = 0.35107 0.52861
# Poissons Ratio (y) = 0.12510 0.46466
# Poissons Ratio (z) = 0.16390 0.40431
#
# Static dielectric constant tensor:
#      x y z
#    x 3.281880 0.000000 0.000000 
#    y 0.000000 3.410600 0.000000 
#    z 0.000000 0.000000 3.850160 
# 
# 
# High freq. dielectric constant tensor:
#      x y z
#    x 1.695970 0.000000 0.000000 
#    y 0.000000 1.698860 0.000000 
#    z 0.000000 0.000000 1.729650 
# 
# From -- ./inp_files/33045.got.cif
#   From: 2010.03.12/outbox.cif.g09.slc.cpg/sg47_17_cif.got.tgz:33045.got - 2010.04.14 03:12:58.
