data_PCOD8200295
_publ_section_title
;
Structure prediction by ZEFSAII (Michael W. Deem and Ramdas Pophale) SiO2 
 PCOD8200295
Probable space group: P M M M
;
_chemical_formula_sum "Si O2"
_cell_formula_units_Z 40
_cell_length_a 14.635164
_cell_length_b 9.199950
_cell_length_c 16.625269
_cell_angle_alpha 90.000000
_cell_angle_beta 90.000000
_cell_angle_gamma 90.000000
_cell_volume 2238.472387
_symmetry_space_group_name_H-M "P M M M"
_symmetry_group_IT_number 47
_symmetry_cell_setting 'orthorhombic'
loop_
_space_group_symop_operation_xyz
x,y,z
-x,-y,z
x,-y,-z
-x,y,-z
-x,-y,-z
x,y,-z
-x,y,z
x,-y,z
loop_
_atom_site_type_symbol
_atom_site_label
_atom_site_fract_x
_atom_site_fract_y
_atom_site_fract_z
Si Si1 0.894394 0.334522 0.908056
Si Si2 0.394212 0.666490 0.908364
Si Si3 0.249891 0.827597 0.193888
Si Si4 0.750005 0.172637 0.375081
Si Si5 0.602655 0.827048 0.500000
Si Si6 0.102649 0.827047 0.500000
O O1 0.861026 0.500000 0.895552
O O2 0.840288 0.228399 0.849932
O O3 0.000000 0.319710 0.885720
O O4 0.877117 0.287572 0.000000
O O5 0.500000 0.703734 0.898278
O O6 0.374334 0.500000 0.884956
O O7 0.340248 0.772270 0.849923
O O8 0.362835 0.694344 0.000000
O O9 0.249983 0.765895 0.284757
O O10 0.249544 0.000000 0.192295
O O11 0.658478 0.226811 0.421212
O O12 0.841510 0.226816 0.421225
O O13 0.749969 0.000000 0.374410
O O14 0.500000 0.760303 0.500000
O O15 0.596779 0.000000 0.500000
O O16 0.000000 0.760302 0.500000
O O17 0.096791 0.000000 0.500000
#
# Coordination Sequence:
#
# PCOD8200295 Si02
#       6
#     8   8   8   8   4   4
#     4   9  19  36  54  69  90 128 175 210 234 274
#     4   9  19  36  54  69  90 128 175 210 234 274
#     4  11  21  30  46  76 109 130 148 193 257 301
#     4   8  16  27  38  63  97 122 151 188 230 285
#     4   8  13  25  44  59  81 124 164 188 218 270
#     4   8  13  25  44  59  81 124 164 188 218 270
#
# _framework density 17.869330000000001
#
# number of rings (size 3 to 8) (size 9 to 14) (size 15 to 20)
#    0.000    3.000    0.000    3.600    0.000    5.600 
#    0.000    6.000    0.000    0.000    0.000   11.200 
#    0.000   19.200    0.000    0.000    0.000    0.000 
#
# Total GULP energy -495854.903439 kJ/mol
# GULP energy per Si atom -12396.372586 kJ/mol
# Density = 1.782866 g / cm^3
# Si number density = 17.869330 Si / 1000 Ang^3
#
#
#
# Elastic Constant Matrix: (Units=GPa)
#
#
# Indices 1 2 3 4 5 6 
#
# 1 131.1810 27.2106 69.8814 0.0000 0.0000 0.0000
# 2 27.2106 42.4234 40.2928 0.0000 0.0000 0.0000
# 3 69.8814 40.2928 144.5447 0.0000 0.0000 0.0000
# 4 0.0000 0.0000 0.0000 -1.9072 0.0000 0.0000
# 5 0.0000 0.0000 0.0000 0.0000 -104.2701 0.0000
# 6 0.0000 0.0000 0.0000 0.0000 0.0000 26.6619
#
#
#
# Elastic Compliance Matrix: (Units=1/GPa)
#
#
# Indices 1 2 3 4 5 6 
#
# 1 0.010473 -0.002596 -0.004340 0.000000 0.000000 0.000000
# 2 -0.002596 0.032703 -0.007861 0.000000 0.000000 0.000000
# 3 -0.004340 -0.007861 0.011208 0.000000 0.000000 0.000000
# 4 0.000000 0.000000 0.000000 -0.524317 0.000000 0.000000
# 5 0.000000 0.000000 0.000000 0.000000 -0.009590 0.000000
# 6 0.000000 0.000000 0.000000 0.000000 0.000000 0.037507
#
#
# Mechanical properties :
#
#
# Convention : Reuss Voigt Hill
#
# Bulk Modulus (GPa) = 40.33787 65.87985 53.10886
# Shear Modulus (GPa) = -12.37137 -3.85214 -8.11175
#
# Velocity S-wave (km/s) = -2.63406 -1.46983 -2.13292
# Velocity P-wave (km/s) = 3.65674 5.83670 4.87026
#
# Compressibility (1/GPa) = 0.02479060
#
# Stress axis : x y z
#
# Youngs Moduli (GPa) = 95.48022 30.57794 89.22356
#
# Poissons Ratio (x) = 0.07937 0.38722
# Poissons Ratio (y) = 0.24785 0.70141
# Poissons Ratio (z) = 0.41437 0.24038
#
# Static dielectric constant tensor:
#      x y z
#    x 3.478250 0.000000 0.000000 
#    y 0.000000 2.848520 0.000000 
#    z 0.000000 0.000000 3.522250 
# 
# 
# High freq. dielectric constant tensor:
#      x y z
#    x 1.704980 0.000000 0.000000 
#    y 0.000000 1.645510 0.000000 
#    z 0.000000 0.000000 1.693240 
# 
# From -- ./inp_files/23362.got.cif
#   From: 2010.03.12/outbox.cif.g09.slc.cpg/sg47_12_cif.got.tgz:23362.got - 2010.04.14 03:12:58.
