data_PCOD8200426
_publ_section_title
;
Structure prediction by ZEFSAII (Michael W. Deem and Ramdas Pophale) SiO2 
 PCOD8200426
Probable space group: P M M M
;
_chemical_formula_sum "Si O2"
_cell_formula_units_Z 40
_cell_length_a 19.410132
_cell_length_b 13.657111
_cell_length_c 10.337274
_cell_angle_alpha 90.000000
_cell_angle_beta 90.000000
_cell_angle_gamma 90.000000
_cell_volume 2740.269998
_symmetry_space_group_name_H-M "P M M M"
_symmetry_group_IT_number 47
_symmetry_cell_setting 'orthorhombic'
loop_
_space_group_symop_operation_xyz
x,y,z
-x,-y,z
x,-y,-z
-x,y,-z
-x,-y,-z
x,y,-z
-x,y,z
x,-y,z
loop_
_atom_site_type_symbol
_atom_site_label
_atom_site_fract_x
_atom_site_fract_y
_atom_site_fract_z
Si Si1 0.077096 0.115002 0.500000
Si Si2 0.920675 0.611495 0.349306
Si Si3 0.080624 0.891350 0.000000
Si Si4 0.856279 0.796597 0.248921
Si Si5 0.278053 0.113567 0.845627
Si Si6 0.572820 0.116110 0.855183
O O1 0.117755 0.146934 0.373911
O O2 0.000000 0.161466 0.500000
O O3 0.071136 0.000000 0.500000
O O4 0.911050 0.636734 0.500000
O O5 0.899018 0.500000 0.320812
O O6 0.870657 0.680864 0.265645
O O7 0.000000 0.628715 0.309067
O O8 0.102563 0.833472 0.125813
O O9 0.000000 0.902628 0.000000
O O10 0.114953 0.000000 0.000000
O O11 0.775395 0.816950 0.228900
O O12 0.354017 0.148896 0.793347
O O13 0.264150 0.000000 0.810226
O O14 0.271788 0.128069 0.000000
O O15 0.500000 0.149050 0.784879
O O16 0.575408 0.000000 0.861659
O O17 0.570278 0.158279 0.000000
#
# Coordination Sequence:
#
# PCOD8200426 Si02
#       6
#     4   8   4   8   8   8
#     4  11  22  32  43  61  86 116 155 192 215 251
#     4   9  18  34  53  67  79 103 146 199 246 277
#     4  11  22  32  43  61  90 126 153 172 211 269
#     4  12  20  31  47  65  88 117 149 188 227 265
#     4   9  16  26  40  61  92 125 149 173 213 262
#     4   7  10  18  34  56  82 114 151 182 203 235
#
# _framework density 14.597101
#
# number of rings (size 3 to 8) (size 9 to 14) (size 15 to 20)
#    0.000    2.400    2.000    6.000    0.000    1.600 
#    0.000    0.500    0.000    1.800    0.000    0.700 
#    0.000    4.800    0.000    7.200    0.000    0.400 
#
# Total GULP energy -495525.891792 kJ/mol
# GULP energy per Si atom -12388.147295 kJ/mol
# Density = 1.456388 g / cm^3
# Si number density = 14.597101 Si / 1000 Ang^3
#
#
#
# Elastic Constant Matrix: (Units=GPa)
#
#
# Indices 1 2 3 4 5 6 
#
# 1 147.6909 48.5096 37.4459 0.0000 0.0000 0.0000
# 2 48.5096 79.6262 30.9661 0.0000 0.0000 0.0000
# 3 37.4459 30.9661 67.3922 0.0000 0.0000 0.0000
# 4 0.0000 0.0000 0.0000 18.8351 0.0000 0.0000
# 5 0.0000 0.0000 0.0000 0.0000 14.3002 0.0000
# 6 0.0000 0.0000 0.0000 0.0000 0.0000 11.1330
#
#
#
# Elastic Compliance Matrix: (Units=1/GPa)
#
#
# Indices 1 2 3 4 5 6 
#
# 1 0.008937 -0.004278 -0.003000 0.000000 0.000000 0.000000
# 2 -0.004278 0.017339 -0.005590 0.000000 0.000000 0.000000
# 3 -0.003000 -0.005590 0.019074 0.000000 0.000000 0.000000
# 4 0.000000 0.000000 0.000000 0.053092 0.000000 0.000000
# 5 0.000000 0.000000 0.000000 0.000000 0.069929 0.000000
# 6 0.000000 0.000000 0.000000 0.000000 0.000000 0.089823
#
#
# Mechanical properties :
#
#
# Convention : Reuss Voigt Hill
#
# Bulk Modulus (GPa) = 50.98462 58.72807 54.85635
# Shear Modulus (GPa) = 17.21365 20.70617 18.95991
#
# Velocity S-wave (km/s) = 3.43775 3.77040 3.60791
# Velocity P-wave (km/s) = 7.12469 7.69900 7.41741
#
# Compressibility (1/GPa) = 0.01961376
#
# Stress axis : x y z
#
# Youngs Moduli (GPa) = 111.90054 57.67469 52.42727
#
# Poissons Ratio (x) = 0.24671 0.15728
# Poissons Ratio (y) = 0.47867 0.29308
# Poissons Ratio (z) = 0.33570 0.32241
#
# Static dielectric constant tensor:
#      x y z
#    x 3.310800 0.000000 0.000000 
#    y 0.000000 2.664760 0.000000 
#    z 0.000000 0.000000 2.597060 
# 
# 
# High freq. dielectric constant tensor:
#      x y z
#    x 1.564630 0.000000 0.000000 
#    y 0.000000 1.524770 0.000000 
#    z 0.000000 0.000000 1.531070 
# 
# From -- ./inp_files/10800.got.cif
#   From: 2010.03.12/outbox.cif.g09.slc.cpg/sg47_6_cif.got.tgz:10800.got - 2010.04.14 03:12:58.
