data_PCOD8200655
_publ_section_title
;
Structure prediction by ZEFSAII (Michael W. Deem and Ramdas Pophale) SiO2 
 PCOD8200655
Probable space group: P M M M
;
_chemical_formula_sum "Si O2"
_cell_formula_units_Z 36
_cell_length_a 7.471516
_cell_length_b 24.821504
_cell_length_c 9.474076
_cell_angle_alpha 90.000000
_cell_angle_beta 90.000000
_cell_angle_gamma 90.000000
_cell_volume 1757.007794
_symmetry_space_group_name_H-M "P M M M"
_symmetry_group_IT_number 47
_symmetry_cell_setting 'orthorhombic'
loop_
_space_group_symop_operation_xyz
x,y,z
-x,-y,z
x,-y,-z
-x,y,-z
-x,-y,-z
x,y,-z
-x,y,z
x,-y,z
loop_
_atom_site_type_symbol
_atom_site_label
_atom_site_fract_x
_atom_site_fract_y
_atom_site_fract_z
Si Si1 0.787809 0.254831 0.344002
Si Si2 0.792220 0.375926 0.335133
Si Si3 0.786234 0.157534 0.158335
Si Si4 0.212624 0.940416 0.658215
Si Si5 0.500000 0.436317 0.162233
O O1 0.711091 0.242156 0.500000
O O2 0.731945 0.314919 0.297529
O O3 0.710659 0.210981 0.235048
O O4 0.000000 0.251401 0.349981
O O5 0.756105 0.387547 0.500000
O O6 0.677892 0.415639 0.239305
O O7 0.000000 0.385245 0.298928
O O8 0.709276 0.104628 0.236799
O O9 0.000000 0.157398 0.159649
O O10 0.710981 0.157285 0.000000
O O11 0.282136 0.928470 0.500000
O O12 0.000000 0.938200 0.659327
O O13 0.277324 0.000000 0.706714
O O14 0.500000 0.500000 0.172174
O O15 0.500000 0.416802 0.000000
#
# Coordination Sequence:
#
# PCOD8200655 Si02
#       5
#     8   8   8   8   4
#     4   8  14  26  44  65  89 118 156 204 257 310
#     4   9  19  37  61  86 110 142 187 235 278 320
#     4   9  15  20  29  49  76 107 146 193 246 305
#     4   8  13  20  28  38  58  96 146 196 246 299
#     4  11  25  41  57  83 119 155 186 219 268 329
#
# _framework density 20.489379
#
# number of rings (size 3 to 8) (size 9 to 14) (size 15 to 20)
#    0.000    3.222    0.000    3.000    0.000    5.778 
#    0.000    6.667    0.000    0.000    0.000    0.000 
#    0.000    0.000    0.000    1.000    0.000   21.778 
#
# Total GULP energy -446217.414164 kJ/mol
# GULP energy per Si atom -12394.928171 kJ/mol
# Density = 2.044274 g / cm^3
# Si number density = 20.489379 Si / 1000 Ang^3
#
#
#
# Elastic Constant Matrix: (Units=GPa)
#
#
# Indices 1 2 3 4 5 6 
#
# 1 55.6203 31.6138 35.7947 0.0000 0.0000 0.0000
# 2 31.6138 141.6988 97.8808 0.0000 0.0000 0.0000
# 3 35.7947 97.8808 156.4920 0.0000 0.0000 0.0000
# 4 0.0000 0.0000 0.0000 30.4988 0.0000 0.0000
# 5 0.0000 0.0000 0.0000 0.0000 7.0726 0.0000
# 6 0.0000 0.0000 0.0000 0.0000 0.0000 -32.5137
#
#
#
# Elastic Compliance Matrix: (Units=1/GPa)
#
#
# Indices 1 2 3 4 5 6 
#
# 1 0.021563 -0.002472 -0.003386 0.000000 0.000000 0.000000
# 2 -0.002472 0.012709 -0.007384 0.000000 0.000000 0.000000
# 3 -0.003386 -0.007384 0.011783 0.000000 0.000000 0.000000
# 4 0.000000 0.000000 0.000000 0.032788 0.000000 0.000000
# 5 0.000000 0.000000 0.000000 0.000000 0.141391 0.000000
# 6 0.000000 0.000000 0.000000 0.000000 0.000000 -0.030756
#
#
# Mechanical properties :
#
#
# Convention : Reuss Voigt Hill
#
# Bulk Modulus (GPa) = 51.09399 76.04329 63.56864
# Shear Modulus (GPa) = 22.47331 13.57966 18.02649
#
# Velocity S-wave (km/s) = 3.31543 2.57722 2.96935
# Velocity P-wave (km/s) = 6.29659 6.78603 6.54588
#
# Compressibility (1/GPa) = 0.01957177
#
# Stress axis : x y z
#
# Youngs Moduli (GPa) = 46.37537 78.68326 84.86841
#
# Poissons Ratio (x) = 0.19449 0.28737
# Poissons Ratio (y) = 0.11463 0.62665
# Poissons Ratio (z) = 0.15703 0.58098
#
# Static dielectric constant tensor:
#      x y z
#    x 3.179610 0.000000 0.000000 
#    y 0.000000 3.923530 0.000000 
#    z 0.000000 0.000000 3.876530 
# 
# 
# High freq. dielectric constant tensor:
#      x y z
#    x 1.770340 0.000000 0.000000 
#    y 0.000000 1.804640 0.000000 
#    z 0.000000 0.000000 1.792250 
# 
# From -- ./inp_files/1382.got.cif
#   From: 2010.03.12/outbox.cif.g09.slc.cpg/sg47_1_cif.got.tgz:1382.got - 2010.04.14 03:12:58.
