data_PCOD8200803
_publ_section_title
;
Structure prediction by ZEFSAII (Michael W. Deem and Ramdas Pophale) SiO2 
 PCOD8200803
Probable space group: P M M M
;
_chemical_formula_sum "Si O2"
_cell_formula_units_Z 64
_cell_length_a 28.540013
_cell_length_b 14.265341
_cell_length_c 9.326228
_cell_angle_alpha 90.000000
_cell_angle_beta 90.000000
_cell_angle_gamma 90.000000
_cell_volume 3797.015348
_symmetry_space_group_name_H-M "P M M M"
_symmetry_group_IT_number 47
_symmetry_cell_setting 'orthorhombic'
loop_
_space_group_symop_operation_xyz
x,y,z
-x,-y,z
x,-y,-z
-x,y,-z
-x,-y,-z
x,y,-z
-x,y,z
x,-y,z
loop_
_atom_site_type_symbol
_atom_site_label
_atom_site_fract_x
_atom_site_fract_y
_atom_site_fract_z
Si Si1 0.306585 0.261241 0.668718
Si Si2 0.126701 0.896101 0.670856
Si Si3 0.627463 0.392593 0.832869
Si Si4 0.446661 0.761633 0.832879
Si Si5 0.618771 0.892849 0.667317
Si Si6 0.201578 0.248953 0.329704
Si Si7 0.947846 0.749270 0.329425
Si Si8 0.872677 0.396136 0.329279
O O1 0.306579 0.281472 0.500000
O O2 0.328938 0.351297 0.745181
O O3 0.334810 0.166409 0.706098
O O4 0.254232 0.248450 0.731204
O O5 0.127211 0.900003 0.500000
O O6 0.173303 0.842382 0.725573
O O7 0.080019 0.841761 0.722679
O O8 0.126317 0.000000 0.737796
O O9 0.618836 0.500000 0.787081
O O10 0.580823 0.333910 0.794303
O O11 0.639537 0.384455 0.000000
O O12 0.500000 0.746794 0.783821
O O13 0.425622 0.850593 0.750009
O O14 0.442925 0.784647 0.000000
O O15 0.607399 0.886427 0.500000
O O16 0.627149 0.000000 0.715628
O O17 0.203282 0.246835 0.500000
O O18 0.173929 0.341680 0.276965
O O19 0.950802 0.748847 0.500000
O O20 0.919399 0.657691 0.276373
O O21 0.000000 0.748813 0.262092
O O22 0.872812 0.400452 0.500000
O O23 0.872422 0.500000 0.261922
#
# Coordination Sequence:
#
# PCOD8200803 Si02
#       8
#     8   8   8   8   8   8   8   8
#     4   9  17  29  45  64  85 110 142 177 209 245
#     4   8  13  20  29  42  62  88 118 156 201 241
#     4   9  18  32  48  66  89 114 138 168 208 250
#     4   9  18  32  49  68  88 111 141 174 205 241
#     4   9  18  31  45  63  88 115 141 171 209 250
#     4   8  14  23  34  50  70  91 120 160 201 237
#     4   8  13  19  25  35  53  80 118 159 194 233
#     4   8  13  20  28  39  58  83 112 151 197 238
#
# _framework density 16.855343999999999
#
# number of rings (size 3 to 8) (size 9 to 14) (size 15 to 20)
#    0.000    3.500    0.000    1.500    0.000    2.750 
#    0.000    8.750    0.000    0.000    0.000    3.500 
#    0.000    0.000    0.000    0.000    0.000   10.000 
#
# Total GULP energy -793249.419485 kJ/mol
# GULP energy per Si atom -12394.522179 kJ/mol
# Density = 1.681698 g / cm^3
# Si number density = 16.855344 Si / 1000 Ang^3
#
#
#
# Elastic Constant Matrix: (Units=GPa)
#
#
# Indices 1 2 3 4 5 6 
#
# 1 169.0937 82.3759 23.8654 0.0000 0.0000 0.0000
# 2 82.3759 166.5302 23.3797 0.0000 0.0000 0.0000
# 3 23.8654 23.3797 14.3063 0.0000 0.0000 0.0000
# 4 0.0000 0.0000 0.0000 14.9734 0.0000 0.0000
# 5 0.0000 0.0000 0.0000 0.0000 6.7870 0.0000
# 6 0.0000 0.0000 0.0000 0.0000 0.0000 14.6744
#
#
#
# Elastic Compliance Matrix: (Units=1/GPa)
#
#
# Indices 1 2 3 4 5 6 
#
# 1 0.008724 -0.002949 -0.009735 0.000000 0.000000 0.000000
# 2 -0.002949 0.008790 -0.009445 0.000000 0.000000 0.000000
# 3 -0.009735 -0.009445 0.101573 0.000000 0.000000 0.000000
# 4 0.000000 0.000000 0.000000 0.066785 0.000000 0.000000
# 5 0.000000 0.000000 0.000000 0.000000 0.147340 0.000000
# 6 0.000000 0.000000 0.000000 0.000000 0.000000 0.068146
#
#
# Mechanical properties :
#
#
# Convention : Reuss Voigt Hill
#
# Bulk Modulus (GPa) = 13.36355 67.68581 40.52468
# Shear Modulus (GPa) = 10.62567 21.97426 16.29997
#
# Velocity S-wave (km/s) = 2.51351 3.61459 3.11312
# Velocity P-wave (km/s) = 4.04589 7.59371 6.08414
#
# Compressibility (1/GPa) = 0.07483044
#
# Stress axis : x y z
#
# Youngs Moduli (GPa) = 114.62102 113.77034 9.84512
#
# Poissons Ratio (x) = 0.33550 0.09584
# Poissons Ratio (y) = 0.33801 0.09299
# Poissons Ratio (z) = 1.11579 1.07455
#
# Static dielectric constant tensor:
#      x y z
#    x 3.422170 0.000000 0.000000 
#    y 0.000000 3.415920 0.000000 
#    z 0.000000 0.000000 2.609890 
# 
# 
# High freq. dielectric constant tensor:
#      x y z
#    x 1.655870 0.000000 0.000000 
#    y 0.000000 1.656040 0.000000 
#    z 0.000000 0.000000 1.587460 
# 
# From -- ./inp_files/14270.got.cif
#   From: 2010.03.12/outbox.cif.g09.slc.cpg/sg47_8_cif.got.tgz:14270.got - 2010.04.14 03:12:58.
