data_PCOD8200893
_publ_section_title
;
Structure prediction by ZEFSAII (Michael W. Deem and Ramdas Pophale) SiO2 
 PCOD8200893
Probable space group: P M M M
;
_chemical_formula_sum "Si O2"
_cell_formula_units_Z 52
_cell_length_a 33.451636
_cell_length_b 9.626964
_cell_length_c 9.671964
_cell_angle_alpha 90.000000
_cell_angle_beta 90.000000
_cell_angle_gamma 90.000000
_cell_volume 3114.736998
_symmetry_space_group_name_H-M "P M M M"
_symmetry_group_IT_number 47
_symmetry_cell_setting 'orthorhombic'
loop_
_space_group_symop_operation_xyz
x,y,z
-x,-y,z
x,-y,-z
-x,y,-z
-x,-y,-z
x,y,-z
-x,y,z
x,-y,z
loop_
_atom_site_type_symbol
_atom_site_label
_atom_site_fract_x
_atom_site_fract_y
_atom_site_fract_z
Si Si1 0.773868 0.161291 0.839849
Si Si2 0.544121 0.655527 0.664382
Si Si3 0.385940 0.845611 0.335244
Si Si4 0.000000 0.842352 0.664085
Si Si5 0.150533 0.660105 0.159299
Si Si6 0.701629 0.165446 0.653911
Si Si7 0.925697 0.339751 0.661111
O O1 0.812490 0.246563 0.791579
O O2 0.735808 0.220087 0.756579
O O3 0.781906 0.000000 0.807152
O O4 0.764612 0.186413 0.000000
O O5 0.547275 0.655847 0.500000
O O6 0.500000 0.710060 0.708832
O O7 0.550508 0.500000 0.720753
O O8 0.578825 0.751464 0.729021
O O9 0.388582 0.850902 0.500000
O O10 0.342231 0.784101 0.294259
O O11 0.391665 0.000000 0.274138
O O12 0.038902 0.759092 0.715891
O O13 0.000000 0.844898 0.500000
O O14 0.000000 0.000000 0.723254
O O15 0.162254 0.500000 0.181990
O O16 0.113154 0.702818 0.252820
O O17 0.139486 0.689903 0.000000
O O18 0.710764 0.222843 0.500000
O O19 0.700727 0.000000 0.650862
O O20 0.916590 0.314472 0.500000
O O21 0.937842 0.500000 0.687735
#
# Coordination Sequence:
#
# PCOD8200893 Si02
#       7
#     8   8   8   4   8   8   8
#     4   9  17  29  45  63  82 107 139 171 203 243
#     4   8  13  20  29  43  67  98 126 152 188 234
#     4   8  13  21  33  48  67  94 127 159 190 228
#     4   9  17  29  46  69  94 116 140 173 210 244
#     4   9  18  32  47  63  86 114 140 169 208 248
#     4   8  14  25  40  58  81 107 133 164 204 245
#     4   9  17  30  48  67  87 114 146 175 203 240
#
# _framework density 16.694827
#
# number of rings (size 3 to 8) (size 9 to 14) (size 15 to 20)
#    0.000    3.462    0.000    1.615    0.000    2.462 
#    0.000    2.692    0.000    3.231    0.000    0.000 
#    0.000    0.615    0.000    7.692    0.000    8.923 
#
# Total GULP energy -644516.352508 kJ/mol
# GULP energy per Si atom -12394.545241 kJ/mol
# Density = 1.665683 g / cm^3
# Si number density = 16.694827 Si / 1000 Ang^3
#
#
#
# Elastic Constant Matrix: (Units=GPa)
#
#
# Indices 1 2 3 4 5 6 
#
# 1 186.1371 81.1298 54.9430 0.0000 0.0000 0.0000
# 2 81.1298 74.0411 26.6437 0.0000 0.0000 0.0000
# 3 54.9430 26.6437 36.8607 0.0000 0.0000 0.0000
# 4 0.0000 0.0000 0.0000 11.4660 0.0000 0.0000
# 5 0.0000 0.0000 0.0000 0.0000 2.8729 0.0000
# 6 0.0000 0.0000 0.0000 0.0000 0.0000 26.3411
#
#
#
# Elastic Compliance Matrix: (Units=1/GPa)
#
#
# Indices 1 2 3 4 5 6 
#
# 1 0.013712 -0.010366 -0.012945 0.000000 0.000000 0.000000
# 2 -0.010366 0.026091 -0.003408 0.000000 0.000000 0.000000
# 3 -0.012945 -0.003408 0.048888 0.000000 0.000000 0.000000
# 4 0.000000 0.000000 0.000000 0.087214 0.000000 0.000000
# 5 0.000000 0.000000 0.000000 0.000000 0.348082 0.000000
# 6 0.000000 0.000000 0.000000 0.000000 0.000000 0.037964
#
#
# Mechanical properties :
#
#
# Convention : Reuss Voigt Hill
#
# Bulk Modulus (GPa) = 28.36692 69.16353 48.76522
# Shear Modulus (GPa) = 7.97271 17.09081 12.53176
#
# Velocity S-wave (km/s) = 2.18768 3.20303 2.74275
# Velocity P-wave (km/s) = 4.83834 7.42949 6.26924
#
# Compressibility (1/GPa) = 0.03525233
#
# Stress axis : x y z
#
# Youngs Moduli (GPa) = 72.93082 38.32765 20.45496
#
# Poissons Ratio (x) = 0.39731 0.26479
# Poissons Ratio (y) = 0.75601 0.06971
# Poissons Ratio (z) = 0.94410 0.13061
#
# Static dielectric constant tensor:
#      x y z
#    x 3.429340 0.000000 0.000000 
#    y 0.000000 3.152510 0.000000 
#    z 0.000000 0.000000 2.790350 
# 
# 
# High freq. dielectric constant tensor:
#      x y z
#    x 1.655940 0.000000 0.000000 
#    y 0.000000 1.626770 0.000000 
#    z 0.000000 0.000000 1.595770 
# 
# From -- ./inp_files/4771.got.cif
#   From: 2010.03.12/outbox.cif.g09.slc.cpg/sg47_3_cif.got.tgz:4771.got - 2010.04.14 03:12:58.
