data_PCOD8200234
_publ_section_title
;
Structure prediction by ZEFSAII (Michael W. Deem and Ramdas Pophale) SiO2 
 PCOD8200234
Probable space group: P M M M
;
_chemical_formula_sum "Si O2"
_cell_formula_units_Z 52
_cell_length_a 27.011679
_cell_length_b 8.849242
_cell_length_c 12.247303
_cell_angle_alpha 90.000000
_cell_angle_beta 90.000000
_cell_angle_gamma 90.000000
_cell_volume 2927.508161
_symmetry_space_group_name_H-M "P M M M"
_symmetry_group_IT_number 47
_symmetry_cell_setting 'orthorhombic'
loop_
_space_group_symop_operation_xyz
x,y,z
-x,-y,z
x,-y,-z
-x,y,-z
-x,-y,-z
x,y,-z
-x,y,z
x,-y,z
loop_
_atom_site_type_symbol
_atom_site_label
_atom_site_fract_x
_atom_site_fract_y
_atom_site_fract_z
Si Si1 0.328048 0.821991 0.125032
Si Si2 0.943584 0.821316 0.000000
Si Si3 0.054088 0.320948 0.619442
Si Si4 0.119599 0.322892 0.188086
Si Si5 0.500000 0.820821 0.873211
Si Si6 0.215420 0.830602 0.872844
Si Si7 0.444087 0.678906 0.500000
Si Si8 0.411605 0.679065 0.738093
O O1 0.271354 0.775721 0.147524
O O2 0.358891 0.728477 0.213817
O O3 0.336314 0.000000 0.142404
O O4 0.342767 0.779564 0.000000
O O5 0.913899 0.764578 0.103403
O O6 0.000000 0.758549 0.000000
O O7 0.943728 0.000000 0.000000
O O8 0.064270 0.251893 0.500000
O O9 0.053322 0.500000 0.613101
O O10 0.098534 0.268071 0.696111
O O11 0.000000 0.265283 0.662168
O O12 0.114044 0.500000 0.166460
O O13 0.177391 0.280095 0.187053
O O14 0.452125 0.756523 0.813904
O O15 0.500000 0.000000 0.863238
O O16 0.500000 0.770664 0.000000
O O17 0.208567 0.000000 0.827551
O O18 0.202897 0.827166 0.000000
O O19 0.446294 0.500000 0.500000
O O20 0.500000 0.744539 0.500000
O O21 0.416547 0.733589 0.611233
O O22 0.418155 0.500000 0.745575
#
# Coordination Sequence:
#
# PCOD8200234 Si02
#       8
#     8   4   8   8   4   8   4   8
#     4   9  19  36  56  78 106 140 173 211 262 313
#     4  11  23  35  47  69 107 149 177 202 255 324
#     4   8  15  29  48  70  98 131 164 203 256 310
#     4  11  20  30  51  80 104 129 169 221 262 300
#     4  11  23  36  51  76 114 149 174 209 260 317
#     4   9  18  34  54  73 101 143 176 202 252 321
#     4   9  18  36  56  76 108 146 176 210 263 314
#     4  11  21  35  57  81 106 139 179 222 262 305
#
# _framework density 17.762547000000001
#
# number of rings (size 3 to 8) (size 9 to 14) (size 15 to 20)
#    0.000    2.231    1.538    3.692    0.000    4.615 
#    0.000    3.462    1.692    1.846    0.000    5.385 
#    0.000    0.000    0.000    0.000    0.000    0.000 
#
# Total GULP energy -644574.598183 kJ/mol
# GULP energy per Si atom -12395.665350 kJ/mol
# Density = 1.772212 g / cm^3
# Si number density = 17.762547 Si / 1000 Ang^3
#
#
#
# Elastic Constant Matrix: (Units=GPa)
#
#
# Indices 1 2 3 4 5 6 
#
# 1 124.6529 33.6469 73.0689 0.0000 0.0000 0.0000
# 2 33.6469 50.0782 36.4985 0.0000 0.0000 0.0000
# 3 73.0689 36.4985 131.7280 0.0000 0.0000 0.0000
# 4 0.0000 0.0000 0.0000 -31.9411 0.0000 0.0000
# 5 0.0000 0.0000 0.0000 0.0000 21.2528 0.0000
# 6 0.0000 0.0000 0.0000 0.0000 0.0000 30.0882
#
#
#
# Elastic Compliance Matrix: (Units=1/GPa)
#
#
# Indices 1 2 3 4 5 6 
#
# 1 0.012558 -0.004211 -0.005799 0.000000 0.000000 0.000000
# 2 -0.004211 0.026434 -0.004988 0.000000 0.000000 0.000000
# 3 -0.005799 -0.004988 0.012190 0.000000 0.000000 0.000000
# 4 0.000000 0.000000 0.000000 -0.031308 0.000000 0.000000
# 5 0.000000 0.000000 0.000000 0.000000 0.047053 0.000000
# 6 0.000000 0.000000 0.000000 0.000000 0.000000 0.033236
#
#
# Mechanical properties :
#
#
# Convention : Reuss Voigt Hill
#
# Bulk Modulus (GPa) = 47.20276 65.87641 56.53958
# Shear Modulus (GPa) = 36.43722 14.76293 25.60007
#
# Velocity S-wave (km/s) = 4.53410 2.88605 3.80048
# Velocity P-wave (km/s) = 7.35138 6.94791 7.15249
#
# Compressibility (1/GPa) = 0.02118520
#
# Stress axis : x y z
#
# Youngs Moduli (GPa) = 79.62803 37.83041 82.03213
#
# Poissons Ratio (x) = 0.15931 0.47573
# Poissons Ratio (y) = 0.33533 0.40919
# Poissons Ratio (z) = 0.46179 0.18871
#
# Static dielectric constant tensor:
#      x y z
#    x 3.475870 0.000000 0.000000 
#    y 0.000000 3.106380 0.000000 
#    z 0.000000 0.000000 20.689440 
# 
# 
# High freq. dielectric constant tensor:
#      x y z
#    x 1.693070 0.000000 0.000000 
#    y 0.000000 1.670460 0.000000 
#    z 0.000000 0.000000 1.680400 
# 
# From -- ./inp_files/19890.got.cif
#   From: 2010.03.12/outbox.cif.g09.slc.cpg/sg47_10_cif.got.tgz:19890.got - 2010.04.14 03:12:58.
