data_PCOD8200408
_publ_section_title
;
Structure prediction by ZEFSAII (Michael W. Deem and Ramdas Pophale) SiO2 
 PCOD8200408
Probable space group: P M M M
;
_chemical_formula_sum "Si O2"
_cell_formula_units_Z 52
_cell_length_a 21.703290
_cell_length_b 8.813455
_cell_length_c 14.080380
_cell_angle_alpha 90.000000
_cell_angle_beta 90.000000
_cell_angle_gamma 90.000000
_cell_volume 2693.308741
_symmetry_space_group_name_H-M "P M M M"
_symmetry_group_IT_number 47
_symmetry_cell_setting 'orthorhombic'
loop_
_space_group_symop_operation_xyz
x,y,z
-x,-y,z
x,-y,-z
-x,y,-z
-x,-y,-z
x,y,-z
-x,y,z
x,-y,z
loop_
_atom_site_type_symbol
_atom_site_label
_atom_site_fract_x
_atom_site_fract_y
_atom_site_fract_z
Si Si1 0.071591 0.673015 0.606880
Si Si2 0.314417 0.819546 0.608108
Si Si3 0.753156 0.678441 0.779394
Si Si4 0.567462 0.821957 0.717809
Si Si5 0.879884 0.822570 0.782710
Si Si6 0.646813 0.823816 0.892153
Si Si7 0.000000 0.180497 0.892917
O O1 0.095289 0.696819 0.500000
O O2 0.083385 0.500000 0.639466
O O3 0.109626 0.788010 0.671808
O O4 0.000000 0.713502 0.613913
O O5 0.303823 0.765064 0.500000
O O6 0.262472 0.750174 0.676472
O O7 0.381764 0.760462 0.643109
O O8 0.310612 0.000000 0.616858
O O9 0.754387 0.500000 0.767191
O O10 0.818888 0.736828 0.816990
O O11 0.704769 0.724884 0.859942
O O12 0.500000 0.746676 0.700159
O O13 0.588671 0.784291 0.825396
O O14 0.561336 0.000000 0.703571
O O15 0.938568 0.758575 0.841122
O O16 0.870547 0.000000 0.799112
O O17 0.665062 0.000000 0.880785
O O18 0.628915 0.783225 0.000000
O O19 0.000000 0.000000 0.889612
O O20 0.000000 0.242436 0.000000
#
# Coordination Sequence:
#
# PCOD8200408 Si02
#       7
#     8   8   8   8   8   8   4
#     4   9  18  33  53  77 107 140 169 202 252 312
#     4   9  18  34  55  79 109 145 185 226 266 313
#     4  11  23  37  54  77 106 141 181 226 272 321
#     4   8  14  26  48  82 117 142 171 217 271 322
#     4  11  21  36  58  82 106 136 175 219 268 320
#     4   9  18  34  55  78 106 141 180 223 270 319
#     4   9  20  38  58  81 106 132 165 207 258 317
#
# _framework density 19.307106999999998
#
# number of rings (size 3 to 8) (size 9 to 14) (size 15 to 20)
#    0.000    2.538    0.769    3.231    0.000    2.769 
#    0.000    5.385    0.000   10.615    0.000    8.615 
#    0.000    0.000    0.000    0.000    0.000    0.000 
#
# Total GULP energy -644710.108881 kJ/mol
# GULP energy per Si atom -12398.271325 kJ/mol
# Density = 1.926316 g / cm^3
# Si number density = 19.307107 Si / 1000 Ang^3
#
#
#
# Elastic Constant Matrix: (Units=GPa)
#
#
# Indices 1 2 3 4 5 6 
#
# 1 115.5480 25.8826 25.0115 0.0000 0.0000 0.0000
# 2 25.8826 51.2403 20.2418 0.0000 0.0000 0.0000
# 3 25.0115 20.2418 91.8140 0.0000 0.0000 0.0000
# 4 0.0000 0.0000 0.0000 15.7664 0.0000 0.0000
# 5 0.0000 0.0000 0.0000 0.0000 14.3038 0.0000
# 6 0.0000 0.0000 0.0000 0.0000 0.0000 12.7233
#
#
#
# Elastic Compliance Matrix: (Units=1/GPa)
#
#
# Indices 1 2 3 4 5 6 
#
# 1 0.010013 -0.004360 -0.001767 0.000000 0.000000 0.000000
# 2 -0.004360 0.023276 -0.003944 0.000000 0.000000 0.000000
# 3 -0.001767 -0.003944 0.012242 0.000000 0.000000 0.000000
# 4 0.000000 0.000000 0.000000 0.063426 0.000000 0.000000
# 5 0.000000 0.000000 0.000000 0.000000 0.069912 0.000000
# 6 0.000000 0.000000 0.000000 0.000000 0.000000 0.078596
#
#
# Mechanical properties :
#
#
# Convention : Reuss Voigt Hill
#
# Bulk Modulus (GPa) = 39.38416 44.54156 41.96286
# Shear Modulus (GPa) = 17.47820 21.05645 19.26732
#
# Velocity S-wave (km/s) = 3.01204 3.30602 3.16244
# Velocity P-wave (km/s) = 5.70435 6.13947 5.92590
#
# Compressibility (1/GPa) = 0.02539092
#
# Stress axis : x y z
#
# Youngs Moduli (GPa) = 99.86547 42.96221 81.68403
#
# Poissons Ratio (x) = 0.18732 0.14430
# Poissons Ratio (y) = 0.43543 0.32215
# Poissons Ratio (z) = 0.17642 0.16944
#
# Static dielectric constant tensor:
#      x y z
#    x 3.710160 0.000000 0.000000 
#    y 0.000000 3.167550 0.000000 
#    z 0.000000 0.000000 3.601800 
# 
# 
# High freq. dielectric constant tensor:
#      x y z
#    x 1.753480 0.000000 0.000000 
#    y 0.000000 1.718020 0.000000 
#    z 0.000000 0.000000 1.749910 
# 
# From -- ./inp_files/21433.got.cif
#   From: 2010.03.12/outbox.cif.g09.slc.cpg/sg47_11_cif.got.tgz:21433.got - 2010.04.14 03:12:58.
