data_PCOD8200595
_publ_section_title
;
Structure prediction by ZEFSAII (Michael W. Deem and Ramdas Pophale) SiO2 
 PCOD8200595
Probable space group: P M M M
;
_chemical_formula_sum "Si O2"
_cell_formula_units_Z 40
_cell_length_a 25.915682
_cell_length_b 9.223677
_cell_length_c 9.155947
_cell_angle_alpha 90.000000
_cell_angle_beta 90.000000
_cell_angle_gamma 90.000000
_cell_volume 2188.618160
_symmetry_space_group_name_H-M "P M M M"
_symmetry_group_IT_number 47
_symmetry_cell_setting 'orthorhombic'
loop_
_space_group_symop_operation_xyz
x,y,z
-x,-y,z
x,-y,-z
-x,y,-z
-x,-y,-z
x,y,-z
-x,y,z
x,-y,z
loop_
_atom_site_type_symbol
_atom_site_label
_atom_site_fract_x
_atom_site_fract_y
_atom_site_fract_z
Si Si1 0.089470 0.829813 0.168214
Si Si2 0.599588 0.835938 0.825916
Si Si3 0.500000 0.664328 0.825884
Si Si4 0.000000 0.666377 0.328031
Si Si5 0.795240 0.839302 0.173450
Si Si6 0.301300 0.337111 0.825715
O O1 0.147489 0.786968 0.217994
O O2 0.051085 0.740783 0.267801
O O3 0.080035 0.000000 0.190980
O O4 0.079917 0.787800 0.000000
O O5 0.550281 0.747929 0.766411
O O6 0.650981 0.757650 0.766687
O O7 0.597867 0.000000 0.765423
O O8 0.599327 0.837293 0.000000
O O9 0.500000 0.500000 0.765565
O O10 0.500000 0.662676 0.000000
O O11 0.000000 0.500000 0.278896
O O12 0.000000 0.684356 0.500000
O O13 0.752062 0.730227 0.235525
O O14 0.784429 0.000000 0.236810
O O15 0.792065 0.846933 0.000000
O O16 0.306531 0.500000 0.765017
O O17 0.301234 0.337483 0.000000
#
# Coordination Sequence:
#
# PCOD8200595 Si02
#       6
#     8   8   4   4   8   8
#     4   9  18  33  53  74  93 116 150 189 227 270
#     4   9  15  21  28  37  52  78 112 150 194 242
#     4   9  15  21  27  35  49  71 105 151 198 243
#     4  11  24  37  48  68  98 127 154 185 222 266
#     4   8  14  25  40  58  79 100 124 160 206 253
#     4   9  15  21  30  46  67  90 117 151 194 243
#
# _framework density 18.276371999999999
#
# number of rings (size 3 to 8) (size 9 to 14) (size 15 to 20)
#    0.000    3.000    0.000    3.300    0.000    9.200 
#    0.000    2.000    0.000    0.000    0.000    0.000 
#    0.000    0.000    0.000    0.000    0.000    0.000 
#
# Total GULP energy -495864.512689 kJ/mol
# GULP energy per Si atom -12396.612817 kJ/mol
# Density = 1.823477 g / cm^3
# Si number density = 18.276372 Si / 1000 Ang^3
#
#
#
# Elastic Constant Matrix: (Units=GPa)
#
#
# Indices 1 2 3 4 5 6 
#
# 1 185.0818 103.8502 20.8662 0.0000 0.0000 0.0000
# 2 103.8502 155.6742 18.4825 0.0000 0.0000 0.0000
# 3 20.8662 18.4825 15.3130 0.0000 0.0000 0.0000
# 4 0.0000 0.0000 0.0000 10.4660 0.0000 0.0000
# 5 0.0000 0.0000 0.0000 0.0000 -1.4200 0.0000
# 6 0.0000 0.0000 0.0000 0.0000 0.0000 28.7609
#
#
#
# Elastic Compliance Matrix: (Units=1/GPa)
#
#
# Indices 1 2 3 4 5 6 
#
# 1 0.009070 -0.005350 -0.005902 0.000000 0.000000 0.000000
# 2 -0.005350 0.010654 -0.005569 0.000000 0.000000 0.000000
# 3 -0.005902 -0.005569 0.080068 0.000000 0.000000 0.000000
# 4 0.000000 0.000000 0.000000 0.095547 0.000000 0.000000
# 5 0.000000 0.000000 0.000000 0.000000 -0.704228 0.000000
# 6 0.000000 0.000000 0.000000 0.000000 0.000000 0.034769
#
#
# Mechanical properties :
#
#
# Convention : Reuss Voigt Hill
#
# Bulk Modulus (GPa) = 15.11712 71.38520 43.25116
# Shear Modulus (GPa) = -11.94953 21.75272 4.90160
#
# Velocity S-wave (km/s) = -2.55977 3.45368 1.63944
# Velocity P-wave (km/s) = 0.66874 7.41940 5.22495
#
# Compressibility (1/GPa) = 0.06615018
#
# Stress axis : x y z
#
# Youngs Moduli (GPa) = 110.24847 93.86243 12.48936
#
# Poissons Ratio (x) = 0.50218 0.07372
# Poissons Ratio (y) = 0.58984 0.06955
# Poissons Ratio (z) = 0.65072 0.52269
#
# Static dielectric constant tensor:
#      x y z
#    x 3.676000 0.000000 0.000000 
#    y 0.000000 3.584750 0.000000 
#    z 0.000000 0.000000 2.534290 
# 
# 
# High freq. dielectric constant tensor:
#      x y z
#    x 1.730220 0.000000 0.000000 
#    y 0.000000 1.718020 0.000000 
#    z 0.000000 0.000000 1.616010 
# 
# From -- ./inp_files/13040.got.cif
#   From: 2010.03.12/outbox.cif.g09.slc.cpg/sg47_7_cif.got.tgz:13040.got - 2010.04.14 03:12:58.
