data_PCOD8200786
_publ_section_title
;
Structure prediction by ZEFSAII (Michael W. Deem and Ramdas Pophale) SiO2 
 PCOD8200786
Probable space group: P M M M
;
_chemical_formula_sum "Si O2"
_cell_formula_units_Z 56
_cell_length_a 30.445257
_cell_length_b 10.038786
_cell_length_c 15.225980
_cell_angle_alpha 90.000000
_cell_angle_beta 90.000000
_cell_angle_gamma 90.000000
_cell_volume 4653.568336
_symmetry_space_group_name_H-M "P M M M"
_symmetry_group_IT_number 47
_symmetry_cell_setting 'orthorhombic'
loop_
_space_group_symop_operation_xyz
x,y,z
-x,-y,z
x,-y,-z
-x,y,-z
-x,-y,-z
x,y,-z
-x,y,z
x,-y,z
loop_
_atom_site_type_symbol
_atom_site_label
_atom_site_fract_x
_atom_site_fract_y
_atom_site_fract_z
Si Si1 0.051388 0.154651 0.247478
Si Si2 0.887191 0.842036 0.403040
Si Si3 0.548936 0.850956 0.395491
Si Si4 0.620433 0.648940 0.395512
Si Si5 0.718407 0.649036 0.604497
Si Si6 0.947873 0.351077 0.902351
Si Si7 0.789917 0.851702 0.395653
O O1 0.076402 0.206997 0.334117
O O2 0.069685 0.241334 0.166111
O O3 0.000000 0.178097 0.264161
O O4 0.061536 0.000000 0.227399
O O5 0.897845 0.782109 0.500000
O O6 0.838564 0.798027 0.370932
O O7 0.887713 0.000000 0.410154
O O8 0.551134 0.847560 0.500000
O O9 0.500000 0.808599 0.364567
O O10 0.584725 0.750085 0.354441
O O11 0.559719 0.000000 0.362118
O O12 0.618127 0.652237 0.500000
O O13 0.609577 0.500000 0.362019
O O14 0.669400 0.691053 0.364856
O O15 0.720905 0.651385 0.500000
O O16 0.729240 0.500000 0.638304
O O17 0.753678 0.751899 0.645140
O O18 0.932360 0.500000 0.874873
O O19 0.000000 0.345919 0.903918
O O20 0.929953 0.316646 0.000000
O O21 0.785875 0.857629 0.500000
O O22 0.781809 0.000000 0.356945
#
# Coordination Sequence:
#
# PCOD8200786 Si02
#       7
#     8   8   8   8   8   8   8
#     4   9  16  24  36  54  70  84 105 131 154 175
#     4   8  14  24  35  47  65  86 106 128 152 179
#     4   8  13  19  24  30  41  56  73  93 116 144
#     4   8  13  19  25  33  44  57  72  92 122 158
#     4   8  13  20  28  38  51  62  75 103 139 167
#     4   8  14  25  39  52  67  87 105 121 148 184
#     4   8  13  21  32  42  51  68  93 115 136 166
#
# _framework density 12.033776
#
# number of rings (size 3 to 8) (size 9 to 14) (size 15 to 20)
#    0.000    3.857    0.000    2.571    0.000    1.429 
#    0.000    7.857    0.000    1.286    0.000    2.000 
#    0.000    0.000    0.000    0.000    0.000    0.000 
#
# Total GULP energy -693787.500748 kJ/mol
# GULP energy per Si atom -12389.062513 kJ/mol
# Density = 1.200639 g / cm^3
# Si number density = 12.033776 Si / 1000 Ang^3
#
#
#
# Elastic Constant Matrix: (Units=GPa)
#
#
# Indices 1 2 3 4 5 6 
#
# 1 76.2934 49.8710 27.9564 0.0000 0.0000 0.0000
# 2 49.8710 68.2359 29.1795 0.0000 0.0000 0.0000
# 3 27.9564 29.1795 38.5490 0.0000 0.0000 0.0000
# 4 0.0000 0.0000 0.0000 7.7650 0.0000 0.0000
# 5 0.0000 0.0000 0.0000 0.0000 0.3936 0.0000
# 6 0.0000 0.0000 0.0000 0.0000 0.0000 15.9007
#
#
#
# Elastic Compliance Matrix: (Units=1/GPa)
#
#
# Indices 1 2 3 4 5 6 
#
# 1 0.026206 -0.016303 -0.006665 0.000000 0.000000 0.000000
# 2 -0.016303 0.031812 -0.012256 0.000000 0.000000 0.000000
# 3 -0.006665 -0.012256 0.040052 0.000000 0.000000 0.000000
# 4 0.000000 0.000000 0.000000 0.128783 0.000000 0.000000
# 5 0.000000 0.000000 0.000000 0.000000 2.540842 0.000000
# 6 0.000000 0.000000 0.000000 0.000000 0.000000 0.062890
#
#
# Mechanical properties :
#
#
# Convention : Reuss Voigt Hill
#
# Bulk Modulus (GPa) = 36.20387 44.12131 40.16259
# Shear Modulus (GPa) = 1.71807 9.88329 5.80068
#
# Velocity S-wave (km/s) = 1.19616 2.86894 2.19791
# Velocity P-wave (km/s) = 5.66200 6.90786 6.31573
#
# Compressibility (1/GPa) = 0.02762135
#
# Stress axis : x y z
#
# Youngs Moduli (GPa) = 38.15853 31.43511 24.96778
#
# Poissons Ratio (x) = 0.51250 0.16640
# Poissons Ratio (y) = 0.62211 0.30601
# Poissons Ratio (z) = 0.25431 0.38527
#
# Static dielectric constant tensor:
#      x y z
#    x 2.641560 0.000000 0.000000 
#    y 0.000000 2.672470 0.000000 
#    z 0.000000 0.000000 2.179800 
# 
# 
# High freq. dielectric constant tensor:
#      x y z
#    x 1.450320 0.000000 0.000000 
#    y 0.000000 1.456230 0.000000 
#    z 0.000000 0.000000 1.384720 
# 
# From -- ./inp_files/16857.got.cif
#   From: 2010.03.12/outbox.cif.g09.slc.cpg/sg47_9_cif.got.tgz:16857.got - 2010.04.14 03:12:58.
