data_PCOD8200139
_publ_section_title
;
Structure prediction by ZEFSAII (Michael W. Deem and Ramdas Pophale) SiO2 
 PCOD8200139
Probable space group: P M M M
;
_chemical_formula_sum "Si O2"
_cell_formula_units_Z 40
_cell_length_a 9.999068
_cell_length_b 24.483552
_cell_length_c 8.853435
_cell_angle_alpha 90.000000
_cell_angle_beta 90.000000
_cell_angle_gamma 90.000000
_cell_volume 2167.433338
_symmetry_space_group_name_H-M "P M M M"
_symmetry_group_IT_number 47
_symmetry_cell_setting 'orthorhombic'
loop_
_space_group_symop_operation_xyz
x,y,z
-x,-y,z
x,-y,-z
-x,y,-z
-x,-y,-z
x,y,-z
-x,y,z
x,-y,z
loop_
_atom_site_type_symbol
_atom_site_label
_atom_site_fract_x
_atom_site_fract_y
_atom_site_fract_z
Si Si1 0.158468 0.942259 0.668403
Si Si2 0.848126 0.824557 0.680305
Si Si3 0.254184 0.383918 0.822699
Si Si4 0.653864 0.737044 0.176961
Si Si5 0.000000 0.562432 0.678905
Si Si6 0.500000 0.563637 0.667698
O O1 0.218798 0.943926 0.500000
O O2 0.200034 0.884448 0.745110
O O3 0.000000 0.940829 0.658022
O O4 0.203279 0.000000 0.750602
O O5 0.845441 0.825846 0.500000
O O6 0.743046 0.781117 0.738866
O O7 0.000000 0.810721 0.735217
O O8 0.285164 0.321480 0.781776
O O9 0.373417 0.420901 0.765802
O O10 0.124880 0.403561 0.735758
O O11 0.234116 0.392286 0.000000
O O12 0.500000 0.739993 0.232830
O O13 0.661504 0.748227 0.000000
O O14 0.000000 0.500000 0.741151
O O15 0.000000 0.561379 0.500000
O O16 0.500000 0.500000 0.643411
O O17 0.500000 0.591305 0.500000
#
# Coordination Sequence:
#
# PCOD8200139 Si02
#       6
#     8   8   8   8   4   4
#     4   7  10  20  41  70 105 139 169 210 264 316
#     4   9  18  31  51  83 112 136 176 224 270 323
#     4  11  23  41  62  84 110 147 192 228 265 325
#     4  10  22  40  56  74 105 144 184 225 268 313
#     4  11  25  43  61  87 121 147 172 219 282 335
#     4  11  23  39  61  89 117 143 176 225 282 329
#
# _framework density 18.455007999999999
#
# number of rings (size 3 to 8) (size 9 to 14) (size 15 to 20)
#    0.000    2.400    1.000    3.600    1.400    6.400 
#    0.000    0.000    0.000    1.200    0.000    7.000 
#    0.000    0.000    0.000    0.000    0.000    0.000 
#
# Total GULP energy -495552.055288 kJ/mol
# GULP energy per Si atom -12388.801382 kJ/mol
# Density = 1.841300 g / cm^3
# Si number density = 18.455008 Si / 1000 Ang^3
#
#
#
# Elastic Constant Matrix: (Units=GPa)
#
#
# Indices 1 2 3 4 5 6 
#
# 1 128.7276 71.6272 33.3459 0.0000 0.0000 0.0000
# 2 71.6272 150.7871 47.7682 0.0000 0.0000 0.0000
# 3 33.3459 47.7682 40.0971 0.0000 0.0000 0.0000
# 4 0.0000 0.0000 0.0000 -31.2775 0.0000 0.0000
# 5 0.0000 0.0000 0.0000 0.0000 32.4654 0.0000
# 6 0.0000 0.0000 0.0000 0.0000 0.0000 33.0332
#
#
#
# Elastic Compliance Matrix: (Units=1/GPa)
#
#
# Indices 1 2 3 4 5 6 
#
# 1 0.011092 -0.003769 -0.004734 0.000000 0.000000 0.000000
# 2 -0.003769 0.011933 -0.011081 0.000000 0.000000 0.000000
# 3 -0.004734 -0.011081 0.042077 0.000000 0.000000 0.000000
# 4 0.000000 0.000000 0.000000 -0.031972 0.000000 0.000000
# 5 0.000000 0.000000 0.000000 0.000000 0.030802 0.000000
# 6 0.000000 0.000000 0.000000 0.000000 0.000000 0.030273
#
#
# Mechanical properties :
#
#
# Convention : Reuss Voigt Hill
#
# Bulk Modulus (GPa) = 38.56022 69.45492 54.00757
# Shear Modulus (GPa) = 35.20684 17.96890 26.58787
#
# Velocity S-wave (km/s) = 4.37247 3.12374 3.79975
# Velocity P-wave (km/s) = 6.81402 7.12227 6.96985
#
# Compressibility (1/GPa) = 0.02593346
#
# Stress axis : x y z
#
# Youngs Moduli (GPa) = 90.15561 83.80334 23.76575
#
# Poissons Ratio (x) = 0.31587 0.11251
# Poissons Ratio (y) = 0.33981 0.26335
# Poissons Ratio (z) = 0.42680 0.92863
#
# Static dielectric constant tensor:
#      x y z
#    x 3.310690 0.000000 0.000000 
#    y 0.000000 4.046320 0.000000 
#    z 0.000000 0.000000 3.228690 
# 
# 
# High freq. dielectric constant tensor:
#      x y z
#    x 1.698830 0.000000 0.000000 
#    y 0.000000 1.740670 0.000000 
#    z 0.000000 0.000000 1.691310 
# 
# From -- ./inp_files/1727.got.cif
#   From: 2010.03.12/outbox.cif.g09.slc.cpg/sg47_1_cif.got.tgz:1727.got - 2010.04.14 03:12:58.
