data_PCOD8200943
_publ_section_title
;
Structure prediction by ZEFSAII (Michael W. Deem and Ramdas Pophale) SiO2 
 PCOD8200943
Probable space group: P M M M
;
_chemical_formula_sum "Si O2"
_cell_formula_units_Z 40
_cell_length_a 15.191721
_cell_length_b 20.154814
_cell_length_c 9.578756
_cell_angle_alpha 90.000000
_cell_angle_beta 90.000000
_cell_angle_gamma 90.000000
_cell_volume 2932.883965
_symmetry_space_group_name_H-M "P M M M"
_symmetry_group_IT_number 47
_symmetry_cell_setting 'orthorhombic'
loop_
_space_group_symop_operation_xyz
x,y,z
-x,-y,z
x,-y,-z
-x,y,-z
-x,-y,-z
x,y,-z
-x,y,z
x,-y,z
loop_
_atom_site_type_symbol
_atom_site_label
_atom_site_fract_x
_atom_site_fract_y
_atom_site_fract_z
Si Si1 0.096856 0.078821 0.157040
Si Si2 0.604695 0.573802 0.343432
Si Si3 0.743229 0.075686 0.661626
Si Si4 0.601235 0.183092 0.661088
Si Si5 0.395223 0.692729 0.842393
O O1 0.173112 0.106597 0.257276
O O2 0.000000 0.104899 0.204251
O O3 0.096697 0.000000 0.164362
O O4 0.116743 0.102927 0.000000
O O5 0.638674 0.589868 0.500000
O O6 0.500000 0.577193 0.343003
O O7 0.635832 0.500000 0.298110
O O8 0.643380 0.627445 0.234752
O O9 0.767464 0.079907 0.500000
O O10 0.656722 0.117761 0.697918
O O11 0.723450 0.000000 0.707148
O O12 0.613165 0.204530 0.500000
O O13 0.500000 0.165798 0.693580
O O14 0.636093 0.242734 0.757506
O O15 0.500000 0.689770 0.843874
O O16 0.357846 0.695389 0.000000
#
# Coordination Sequence:
#
# PCOD8200943 Si02
#       5
#     8   8   8   8   8
#     4   8  14  25  40  56  73  92 111 133 170 222
#     4   8  13  21  33  48  65  85 109 138 174 215
#     4   9  17  27  39  56  73  89 116 154 190 220
#     4   9  17  28  39  49  66  95 126 154 185 220
#     4   9  16  24  34  48  65  86 115 150 182 211
#
# _framework density 13.638453
#
# number of rings (size 3 to 8) (size 9 to 14) (size 15 to 20)
#    0.000    3.400    0.000    1.800    0.000    4.400 
#    0.000    6.000    0.000    0.000    0.000    5.600 
#    0.000    0.000    0.000    0.000    0.000    1.000 
#
# Total GULP energy -495742.037334 kJ/mol
# GULP energy per Si atom -12393.550933 kJ/mol
# Density = 1.360741 g / cm^3
# Si number density = 13.638453 Si / 1000 Ang^3
#
#
#
# Elastic Constant Matrix: (Units=GPa)
#
#
# Indices 1 2 3 4 5 6 
#
# 1 54.9101 35.8363 37.6219 0.0000 0.0000 0.0000
# 2 35.8363 82.4474 54.8994 0.0000 0.0000 0.0000
# 3 37.6219 54.8994 84.3589 0.0000 0.0000 0.0000
# 4 0.0000 0.0000 0.0000 16.1675 0.0000 0.0000
# 5 0.0000 0.0000 0.0000 0.0000 16.2531 0.0000
# 6 0.0000 0.0000 0.0000 0.0000 0.0000 0.9928
#
#
#
# Elastic Compliance Matrix: (Units=1/GPa)
#
#
# Indices 1 2 3 4 5 6 
#
# 1 0.028270 -0.006869 -0.008137 0.000000 0.000000 0.000000
# 2 -0.006869 0.023073 -0.011952 0.000000 0.000000 0.000000
# 3 -0.008137 -0.011952 0.023261 0.000000 0.000000 0.000000
# 4 0.000000 0.000000 0.000000 0.061852 0.000000 0.000000
# 5 0.000000 0.000000 0.000000 0.000000 0.061527 0.000000
# 6 0.000000 0.000000 0.000000 0.000000 0.000000 1.007279
#
#
# Mechanical properties :
#
#
# Convention : Reuss Voigt Hill
#
# Bulk Modulus (GPa) = 48.33910 53.15907 50.74908
# Shear Modulus (GPa) = 3.94921 12.90660 8.42790
#
# Velocity S-wave (km/s) = 1.70350 3.07960 2.48856
# Velocity P-wave (km/s) = 6.27610 7.19077 6.74895
#
# Compressibility (1/GPa) = 0.02068719
#
# Stress axis : x y z
#
# Youngs Moduli (GPa) = 35.37308 43.33983 42.98956
#
# Poissons Ratio (x) = 0.29772 0.34982
# Poissons Ratio (y) = 0.24299 0.51382
# Poissons Ratio (z) = 0.28784 0.51801
#
# Static dielectric constant tensor:
#      x y z
#    x 2.489980 0.000000 0.000000 
#    y 0.000000 2.682040 0.000000 
#    z 0.000000 0.000000 2.903700 
# 
# 
# High freq. dielectric constant tensor:
#      x y z
#    x 1.467660 0.000000 0.000000 
#    y 0.000000 1.502060 0.000000 
#    z 0.000000 0.000000 1.527700 
# 
# From -- ./inp_files/4016.got.cif
#   From: 2010.03.12/outbox.cif.g09.slc.cpg/sg47_3_cif.got.tgz:4016.got - 2010.04.14 03:12:58.
