data_PCOD8200432
_publ_section_title
;
Structure prediction by ZEFSAII (Michael W. Deem and Ramdas Pophale) SiO2 
 PCOD8200432
Probable space group: P M M M
;
_chemical_formula_sum "Si O2"
_cell_formula_units_Z 64
_cell_length_a 14.078642
_cell_length_b 14.141540
_cell_length_c 17.760845
_cell_angle_alpha 90.000000
_cell_angle_beta 90.000000
_cell_angle_gamma 90.000000
_cell_volume 3536.071973
_symmetry_space_group_name_H-M "P M M M"
_symmetry_group_IT_number 47
_symmetry_cell_setting 'orthorhombic'
loop_
_space_group_symop_operation_xyz
x,y,z
-x,-y,z
x,-y,-z
-x,y,-z
-x,-y,-z
x,y,-z
-x,y,z
x,-y,z
loop_
_atom_site_type_symbol
_atom_site_label
_atom_site_fract_x
_atom_site_fract_y
_atom_site_fract_z
Si Si1 0.766657 0.270389 0.085907
Si Si2 0.391955 0.108496 0.680471
Si Si3 0.610545 0.607516 0.855992
Si Si4 0.109565 0.768191 0.691181
Si Si5 0.720199 0.750292 0.588251
Si Si6 0.109288 0.607039 0.193065
Si Si7 0.230474 0.889497 0.202829
Si Si8 0.606921 0.609238 0.684392
O O1 0.662839 0.317894 0.090517
O O2 0.837811 0.344623 0.123708
O O3 0.767868 0.167684 0.124906
O O4 0.796416 0.254299 0.000000
O O5 0.500000 0.139944 0.697420
O O6 0.349335 0.163584 0.609307
O O7 0.330175 0.130220 0.754825
O O8 0.386128 0.000000 0.657517
O O9 0.500000 0.625011 0.865874
O O10 0.636421 0.500000 0.878568
O O11 0.642251 0.626920 0.769719
O O12 0.172204 0.769738 0.615495
O O13 0.124808 0.666729 0.730866
O O14 0.143422 0.852552 0.746158
O O15 0.000000 0.785600 0.669618
O O16 0.721302 0.734679 0.500000
O O17 0.679826 0.657255 0.627949
O O18 0.147270 0.500000 0.206363
O O19 0.000000 0.605658 0.170020
O O20 0.215547 0.000000 0.185397
O O21 0.500000 0.649921 0.674449
O O22 0.606343 0.500000 0.664621
#
# Coordination Sequence:
#
# PCOD8200432 Si02
#       8
#     8   8   8   8   8   8   8   8
#     4  11  22  32  47  75 108 137 162 196 249 308
#     4   9  18  34  56  77  96 124 164 208 250 292
#     4   9  18  33  52  72  97 135 181 220 249 283
#     4   9  19  36  56  76  97 126 169 214 250 292
#     4  11  22  32  47  75 108 137 162 196 249 308
#     4   9  18  34  56  77  96 124 164 208 250 292
#     4   9  19  36  56  76  97 126 169 214 250 292
#     4   9  18  33  52  72  97 135 181 220 249 283
#
# _framework density 18.09918
#
# number of rings (size 3 to 8) (size 9 to 14) (size 15 to 20)
#    0.000    2.500    0.000    3.750    0.000    6.750 
#    0.000    2.500    0.000    0.000    0.000   12.250 
#    0.000    0.000    0.000    0.000    0.000    0.000 
#
# Total GULP energy -793590.715367 kJ/mol
# GULP energy per Si atom -12399.854928 kJ/mol
# Density = 1.805799 g / cm^3
# Si number density = 18.099180 Si / 1000 Ang^3
#
#
#
# Elastic Constant Matrix: (Units=GPa)
#
#
# Indices 1 2 3 4 5 6 
#
# 1 86.9764 24.7630 14.6614 0.0000 0.0000 0.0000
# 2 24.7630 100.5682 17.0578 0.0000 0.0000 0.0000
# 3 14.6614 17.0578 59.4541 0.0000 0.0000 0.0000
# 4 0.0000 0.0000 0.0000 12.5329 0.0000 0.0000
# 5 0.0000 0.0000 0.0000 0.0000 15.7986 0.0000
# 6 0.0000 0.0000 0.0000 0.0000 0.0000 25.6199
#
#
#
# Elastic Compliance Matrix: (Units=1/GPa)
#
#
# Indices 1 2 3 4 5 6 
#
# 1 0.012667 -0.002722 -0.002343 0.000000 0.000000 0.000000
# 2 -0.002722 0.011037 -0.002495 0.000000 0.000000 0.000000
# 3 -0.002343 -0.002495 0.018113 0.000000 0.000000 0.000000
# 4 0.000000 0.000000 0.000000 0.079790 0.000000 0.000000
# 5 0.000000 0.000000 0.000000 0.000000 0.063297 0.000000
# 6 0.000000 0.000000 0.000000 0.000000 0.000000 0.039032
#
#
# Mechanical properties :
#
#
# Convention : Reuss Voigt Hill
#
# Bulk Modulus (GPa) = 37.45654 39.99591 38.72622
# Shear Modulus (GPa) = 20.16491 23.49138 21.82815
#
# Velocity S-wave (km/s) = 3.34149 3.60658 3.47656
# Velocity P-wave (km/s) = 5.96887 6.28406 6.12849
#
# Compressibility (1/GPa) = 0.02669761
#
# Stress axis : x y z
#
# Youngs Moduli (GPa) = 78.94410 90.60507 55.20778
#
# Poissons Ratio (x) = 0.24660 0.12934
# Poissons Ratio (y) = 0.21486 0.13777
# Poissons Ratio (z) = 0.18496 0.22610
#
# Static dielectric constant tensor:
#      x y z
#    x 3.496590 0.000000 0.000000 
#    y 0.000000 3.410000 0.000000 
#    z 0.000000 0.000000 3.023060 
# 
# 
# High freq. dielectric constant tensor:
#      x y z
#    x 1.710730 0.000000 0.000000 
#    y 0.000000 1.707760 0.000000 
#    z 0.000000 0.000000 1.669710 
# 
# From -- ./inp_files/28361.got.cif
#   From: 2010.03.12/outbox.cif.g09.slc.cpg/sg47_15_cif.got.tgz:28361.got - 2010.04.14 03:12:58.
