data_PCOD8200572
_publ_section_title
;
Structure prediction by ZEFSAII (Michael W. Deem and Ramdas Pophale) SiO2 
 PCOD8200572
Probable space group: P M M M
;
_chemical_formula_sum "Si O2"
_cell_formula_units_Z 32
_cell_length_a 12.180752
_cell_length_b 8.481295
_cell_length_c 15.352925
_cell_angle_alpha 90.000000
_cell_angle_beta 90.000000
_cell_angle_gamma 90.000000
_cell_volume 1586.088436
_symmetry_space_group_name_H-M "P M M M"
_symmetry_group_IT_number 47
_symmetry_cell_setting 'orthorhombic'
loop_
_space_group_symop_operation_xyz
x,y,z
-x,-y,z
x,-y,-z
-x,y,-z
-x,-y,-z
x,y,-z
-x,y,z
x,-y,z
loop_
_atom_site_type_symbol
_atom_site_label
_atom_site_fract_x
_atom_site_fract_y
_atom_site_fract_z
Si Si1 0.500000 0.324888 0.100979
Si Si2 0.376048 0.814367 0.500000
Si Si3 0.275710 0.815241 0.841961
Si Si4 0.000000 0.687391 0.597450
Si Si5 0.767732 0.315592 0.655457
Si Si6 0.875328 0.812660 0.000000
O O1 0.500000 0.500000 0.146089
O O2 0.396595 0.219264 0.124925
O O3 0.500000 0.354809 0.000000
O O4 0.500000 0.744877 0.500000
O O5 0.315491 0.761582 0.587635
O O6 0.380604 0.000000 0.500000
O O7 0.263991 0.719074 0.753704
O O8 0.187444 0.752952 0.913257
O O9 0.260475 0.000000 0.824345
O O10 0.890689 0.753163 0.643453
O O11 0.000000 0.500000 0.599491
O O12 0.000000 0.752654 0.500000
O O13 0.764831 0.500000 0.636446
O O14 0.000000 0.746389 0.000000
O O15 0.874705 0.000000 0.000000
#
# Coordination Sequence:
#
# PCOD8200572 Si02
#       6
#     4   4   8   4   8   4
#     4  11  23  41  65  90 121 158 207 261 309 368
#     4  11  25  44  63  88 124 163 206 257 309 368
#     4  11  23  40  64  92 125 163 207 256 308 365
#     4   9  18  38  64  89 120 159 201 251 307 365
#     4  11  23  41  65  92 125 163 205 252 308 369
#     4   9  20  39  61  88 126 167 204 249 308 369
#
# _framework density 20.175421
#
# number of rings (size 3 to 8) (size 9 to 14) (size 15 to 20)
#    0.000    1.500    2.500    2.250    3.500    1.500 
#    0.000    2.500    0.000    3.000    0.000    0.000 
#    0.000    0.000    0.000    0.000    0.000    0.000 
#
# Total GULP energy -396802.310373 kJ/mol
# GULP energy per Si atom -12400.072199 kJ/mol
# Density = 2.012950 g / cm^3
# Si number density = 20.175421 Si / 1000 Ang^3
#
#
#
# Elastic Constant Matrix: (Units=GPa)
#
#
# Indices 1 2 3 4 5 6 
#
# 1 189.7767 21.0431 69.4824 0.0000 0.0000 0.0000
# 2 21.0431 41.3284 8.1919 0.0000 0.0000 0.0000
# 3 69.4824 8.1919 137.9502 0.0000 0.0000 0.0000
# 4 0.0000 0.0000 0.0000 -7.2979 0.0000 0.0000
# 5 0.0000 0.0000 0.0000 0.0000 20.3011 0.0000
# 6 0.0000 0.0000 0.0000 0.0000 0.0000 22.8284
#
#
#
# Elastic Compliance Matrix: (Units=1/GPa)
#
#
# Indices 1 2 3 4 5 6 
#
# 1 0.006767 -0.002803 -0.003242 0.000000 0.000000 0.000000
# 2 -0.002803 0.025646 -0.000111 0.000000 0.000000 0.000000
# 3 -0.003242 -0.000111 0.008889 0.000000 0.000000 0.000000
# 4 0.000000 0.000000 0.000000 -0.137026 0.000000 0.000000
# 5 0.000000 0.000000 0.000000 0.000000 0.049258 0.000000
# 6 0.000000 0.000000 0.000000 0.000000 0.000000 0.043805
#
#
# Mechanical properties :
#
#
# Convention : Reuss Voigt Hill
#
# Bulk Modulus (GPa) = 34.49574 62.94333 48.71954
# Shear Modulus (GPa) = 258.87975 25.18886 142.03431
#
# Velocity S-wave (km/s) = 11.33988 3.53723 8.39955
# Velocity P-wave (km/s) = 13.73289 6.92448 10.87522
#
# Compressibility (1/GPa) = 0.02898909
#
# Stress axis : x y z
#
# Youngs Moduli (GPa) = 147.77289 38.99298 112.50480
#
# Poissons Ratio (x) = 0.10930 0.36474
# Poissons Ratio (y) = 0.41421 0.01250
# Poissons Ratio (z) = 0.47908 0.00433
#
# Static dielectric constant tensor:
#      x y z
#    x 4.066540 0.000000 0.000000 
#    y 0.000000 3.471860 0.000000 
#    z 0.000000 0.000000 3.707520 
# 
# 
# High freq. dielectric constant tensor:
#      x y z
#    x 1.806460 0.000000 0.000000 
#    y 0.000000 1.772750 0.000000 
#    z 0.000000 0.000000 1.796010 
# 
# From -- ./inp_files/22376.got.cif
#   From: 2010.03.12/outbox.cif.g09.slc.cpg/sg47_12_cif.got.tgz:22376.got - 2010.04.14 03:12:58.
