data_PCOD8200238
_publ_section_title
;
Structure prediction by ZEFSAII (Michael W. Deem and Ramdas Pophale) SiO2 
 PCOD8200238
Probable space group: P M M M
;
_chemical_formula_sum "Si O2"
_cell_formula_units_Z 32
_cell_length_a 9.113829
_cell_length_b 12.623224
_cell_length_c 18.564847
_cell_angle_alpha 90.000000
_cell_angle_beta 90.000000
_cell_angle_gamma 90.000000
_cell_volume 2135.809624
_symmetry_space_group_name_H-M "P M M M"
_symmetry_group_IT_number 47
_symmetry_cell_setting 'orthorhombic'
loop_
_space_group_symop_operation_xyz
x,y,z
-x,-y,z
x,-y,-z
-x,y,-z
-x,-y,-z
x,y,-z
-x,y,z
x,-y,z
loop_
_atom_site_type_symbol
_atom_site_label
_atom_site_fract_x
_atom_site_fract_y
_atom_site_fract_z
Si Si1 0.830850 0.500000 0.585273
Si Si2 0.660509 0.617272 0.808632
Si Si3 0.326041 0.304875 0.659291
Si Si4 0.827457 0.500000 0.918293
Si Si5 0.831978 0.121922 0.583285
O O1 0.816492 0.500000 0.500000
O O2 0.754643 0.605262 0.614174
O O3 0.000000 0.500000 0.610018
O O4 0.500000 0.656684 0.835284
O O5 0.646015 0.500000 0.773491
O O6 0.720092 0.690839 0.744061
O O7 0.768000 0.606895 0.878133
O O8 0.500000 0.319171 0.650906
O O9 0.277187 0.190487 0.631495
O O10 0.000000 0.500000 0.914638
O O11 0.769868 0.500000 0.000000
O O12 0.794732 0.141846 0.500000
O O13 0.000000 0.154428 0.598813
O O14 0.805750 0.000000 0.603676
#
# Coordination Sequence:
#
# PCOD8200238 Si02
#       5
#     4   8   8   4   8
#     4  11  22  31  40  58  84 115 148 177 216 272
#     4   8  16  29  41  57  85 118 143 166 205 256
#     4  11  20  31  46  65  88 112 145 188 226 261
#     4   9  16  25  40  64  90 115 146 179 204 238
#     4   9  19  35  50  63  83 114 152 191 231 276
#
# _framework density 14.982609
#
# number of rings (size 3 to 8) (size 9 to 14) (size 15 to 20)
#    0.750    1.750    1.250    2.625    0.000    9.000 
#    0.000    1.250    0.000    0.000    0.000    0.000 
#    0.000    1.000    0.000   11.000    0.000    8.000 
#
# Total GULP energy -396516.555200 kJ/mol
# GULP energy per Si atom -12391.142350 kJ/mol
# Density = 1.494851 g / cm^3
# Si number density = 14.982609 Si / 1000 Ang^3
#
#
#
# Elastic Constant Matrix: (Units=GPa)
#
#
# Indices 1 2 3 4 5 6 
#
# 1 78.6708 32.4991 56.4376 0.0000 0.0000 0.0000
# 2 32.4991 59.5253 40.5899 0.0000 0.0000 0.0000
# 3 56.4376 40.5899 108.2046 0.0000 0.0000 0.0000
# 4 0.0000 0.0000 0.0000 15.8679 0.0000 0.0000
# 5 0.0000 0.0000 0.0000 0.0000 25.4977 0.0000
# 6 0.0000 0.0000 0.0000 0.0000 0.0000 24.5670
#
#
#
# Elastic Compliance Matrix: (Units=1/GPa)
#
#
# Indices 1 2 3 4 5 6 
#
# 1 0.021581 -0.005519 -0.009186 0.000000 0.000000 0.000000
# 2 -0.005519 0.023985 -0.006119 0.000000 0.000000 0.000000
# 3 -0.009186 -0.006119 0.016328 0.000000 0.000000 0.000000
# 4 0.000000 0.000000 0.000000 0.063020 0.000000 0.000000
# 5 0.000000 0.000000 0.000000 0.000000 0.039219 0.000000
# 6 0.000000 0.000000 0.000000 0.000000 0.000000 0.040705
#
#
# Mechanical properties :
#
#
# Convention : Reuss Voigt Hill
#
# Bulk Modulus (GPa) = 49.38968 56.16154 52.77561
# Shear Modulus (GPa) = 19.74450 20.97814 20.36132
#
# Velocity S-wave (km/s) = 3.63413 3.74594 3.69046
# Velocity P-wave (km/s) = 7.11656 7.50168 7.31166
#
# Compressibility (1/GPa) = 0.02024715
#
# Stress axis : x y z
#
# Youngs Moduli (GPa) = 46.33709 41.69270 61.24305
#
# Poissons Ratio (x) = 0.23009 0.56258
# Poissons Ratio (y) = 0.25572 0.37474
# Poissons Ratio (z) = 0.42566 0.25511
#
# Static dielectric constant tensor:
#      x y z
#    x 2.922190 0.000000 0.000000 
#    y 0.000000 2.678910 0.000000 
#    z 0.000000 0.000000 2.830060 
# 
# 
# High freq. dielectric constant tensor:
#      x y z
#    x 1.583410 0.000000 0.000000 
#    y 0.000000 1.541150 0.000000 
#    z 0.000000 0.000000 1.559990 
# 
# From -- ./inp_files/29247.got.cif
#   From: 2010.03.12/outbox.cif.g09.slc.cpg/sg47_15_cif.got.tgz:29247.got - 2010.04.14 03:12:58.
