data_PCOD8200982
_publ_section_title
;
Structure prediction by ZEFSAII (Michael W. Deem and Ramdas Pophale) SiO2 
 PCOD8200982
Probable space group: P M M M
;
_chemical_formula_sum "Si O2"
_cell_formula_units_Z 60
_cell_length_a 17.752693
_cell_length_b 9.356700
_cell_length_c 24.080996
_cell_angle_alpha 90.000000
_cell_angle_beta 90.000000
_cell_angle_gamma 90.000000
_cell_volume 4000.012914
_symmetry_space_group_name_H-M "P M M M"
_symmetry_group_IT_number 47
_symmetry_cell_setting 'orthorhombic'
loop_
_space_group_symop_operation_xyz
x,y,z
-x,-y,z
x,-y,-z
-x,y,-z
-x,-y,-z
x,y,-z
-x,y,z
x,-y,z
loop_
_atom_site_type_symbol
_atom_site_label
_atom_site_fract_x
_atom_site_fract_y
_atom_site_fract_z
Si Si1 0.500000 0.830633 0.563767
Si Si2 0.352260 0.839501 0.625998
Si Si3 0.916018 0.169334 0.939861
Si Si4 0.839736 0.167765 0.170410
Si Si5 0.708607 0.341193 0.213730
Si Si6 0.913021 0.167072 0.286462
Si Si7 0.584271 0.841524 0.748136
Si Si8 0.220329 0.661506 0.334792
O O1 0.500000 0.783496 0.500000
O O2 0.422655 0.771354 0.591554
O O3 0.500000 0.000000 0.572524
O O4 0.375584 0.848342 0.689375
O O5 0.276643 0.741931 0.621770
O O6 0.333345 0.000000 0.604089
O O7 0.872697 0.231591 0.886806
O O8 0.000000 0.232039 0.937936
O O9 0.919094 0.000000 0.933897
O O10 0.879295 0.211161 0.000000
O O11 0.760755 0.246076 0.175098
O O12 0.894440 0.203801 0.222203
O O13 0.824297 0.000000 0.167369
O O14 0.702585 0.500000 0.189123
O O15 0.626466 0.269433 0.212032
O O16 0.740193 0.344182 0.275623
O O17 0.859352 0.255280 0.328498
O O18 0.000000 0.208636 0.297693
O O19 0.898676 0.000000 0.297799
O O20 0.500000 0.785075 0.740335
O O21 0.585954 0.000000 0.774755
O O22 0.205187 0.500000 0.356466
#
# Coordination Sequence:
#
# PCOD8200982 Si02
#       8
#     4   8   8   8   8   8   8   8
#     4   9  16  26  43  67  89 109 139 175 202 227
#     4   9  15  26  42  59  80 108 138 166 197 230
#     4   8  13  21  35  56  77  95 122 162 199 227
#     4   9  15  24  38  54  74 102 131 160 195 233
#     4   9  17  26  35  51  75 101 129 160 193 230
#     4   9  16  25  38  57  79 104 135 168 201 239
#     4   9  15  24  39  57  76 100 131 161 189 225
#     4   9  17  27  38  54  77 106 137 167 199 236
#
# _framework density 14.999950999999999
#
# number of rings (size 3 to 8) (size 9 to 14) (size 15 to 20)
#    0.000    3.133    0.667    1.600    0.000    5.333 
#    0.000    0.333    0.000    2.400    0.000    0.933 
#    0.000    1.067    0.000   12.267    0.000    3.467 
#
# Total GULP energy -743476.207287 kJ/mol
# GULP energy per Si atom -12391.270121 kJ/mol
# Density = 1.496581 g / cm^3
# Si number density = 14.999951 Si / 1000 Ang^3
#
#
#
# Elastic Constant Matrix: (Units=GPa)
#
#
# Indices 1 2 3 4 5 6 
#
# 1 93.3789 47.9859 23.1927 0.0000 0.0000 0.0000
# 2 47.9859 64.3166 19.5314 0.0000 0.0000 0.0000
# 3 23.1927 19.5314 42.2730 0.0000 0.0000 0.0000
# 4 0.0000 0.0000 0.0000 7.0123 0.0000 0.0000
# 5 0.0000 0.0000 0.0000 0.0000 16.7123 0.0000
# 6 0.0000 0.0000 0.0000 0.0000 0.0000 7.9095
#
#
#
# Elastic Compliance Matrix: (Units=1/GPa)
#
#
# Indices 1 2 3 4 5 6 
#
# 1 0.018008 -0.012138 -0.004272 0.000000 0.000000 0.000000
# 2 -0.012138 0.026267 -0.005477 0.000000 0.000000 0.000000
# 3 -0.004272 -0.005477 0.028530 0.000000 0.000000 0.000000
# 4 0.000000 0.000000 0.000000 0.142607 0.000000 0.000000
# 5 0.000000 0.000000 0.000000 0.000000 0.059836 0.000000
# 6 0.000000 0.000000 0.000000 0.000000 0.000000 0.126430
#
#
# Mechanical properties :
#
#
# Convention : Reuss Voigt Hill
#
# Bulk Modulus (GPa) = 34.44504 42.37649 38.41076
# Shear Modulus (GPa) = 10.98591 13.61071 12.29831
#
# Velocity S-wave (km/s) = 2.70922 3.01555 2.86648
# Velocity P-wave (km/s) = 5.72711 6.35902 6.05132
#
# Compressibility (1/GPa) = 0.02903176
#
# Stress axis : x y z
#
# Youngs Moduli (GPa) = 55.53230 38.07009 35.05109
#
# Poissons Ratio (x) = 0.46210 0.14972
# Poissons Ratio (y) = 0.67405 0.19197
# Poissons Ratio (z) = 0.23721 0.20850
#
# Static dielectric constant tensor:
#      x y z
#    x 2.984260 0.000000 0.000000 
#    y 0.000000 2.918860 0.000000 
#    z 0.000000 0.000000 2.641510 
# 
# 
# High freq. dielectric constant tensor:
#      x y z
#    x 1.571890 0.000000 0.000000 
#    y 0.000000 1.559400 0.000000 
#    z 0.000000 0.000000 1.524650 
# 
# From -- ./inp_files/32897.got.cif
#   From: 2010.03.12/outbox.cif.g09.slc.cpg/sg47_17_cif.got.tgz:32897.got - 2010.04.14 03:12:58.
