data_PCOD8200712
_publ_section_title
;
Structure prediction by ZEFSAII (Michael W. Deem and Ramdas Pophale) SiO2 
 PCOD8200712
Probable space group: P M M M
;
_chemical_formula_sum "Si O2"
_cell_formula_units_Z 52
_cell_length_a 9.814118
_cell_length_b 33.709808
_cell_length_c 9.764308
_cell_angle_alpha 90.000000
_cell_angle_beta 90.000000
_cell_angle_gamma 90.000000
_cell_volume 3230.345871
_symmetry_space_group_name_H-M "P M M M"
_symmetry_group_IT_number 47
_symmetry_cell_setting 'orthorhombic'
loop_
_space_group_symop_operation_xyz
x,y,z
-x,-y,z
x,-y,-z
-x,y,-z
-x,-y,-z
x,y,-z
-x,y,z
x,-y,z
loop_
_atom_site_type_symbol
_atom_site_label
_atom_site_fract_x
_atom_site_fract_y
_atom_site_fract_z
Si Si1 0.651521 0.801019 0.837146
Si Si2 0.347170 0.414975 0.336466
Si Si3 0.337962 0.956034 0.346727
Si Si4 0.662160 0.111833 0.152307
Si Si5 0.842218 0.344085 0.341272
Si Si6 0.338578 0.500000 0.649605
Si Si7 0.842308 0.730550 0.841134
O O1 0.500000 0.791388 0.779882
O O2 0.701210 0.844650 0.787714
O O3 0.756230 0.767792 0.785171
O O4 0.646578 0.801992 0.000000
O O5 0.345511 0.418048 0.500000
O O6 0.500000 0.404410 0.285661
O O7 0.244044 0.381288 0.285423
O O8 0.299021 0.458265 0.275700
O O9 0.283118 0.948514 0.500000
O O10 0.500000 0.953122 0.346060
O O11 0.274464 0.922474 0.248121
O O12 0.293195 0.000000 0.296373
O O13 0.500000 0.108718 0.146247
O O14 0.722762 0.105853 0.000000
O O15 0.809617 0.334609 0.500000
O O16 0.798720 0.306798 0.249917
O O17 0.000000 0.354659 0.320540
O O18 0.500000 0.500000 0.631444
O O19 0.268526 0.500000 0.500000
O O20 0.000000 0.741137 0.819960
O O21 0.810211 0.721128 0.000000
#
# Coordination Sequence:
#
# PCOD8200712 Si02
#       7
#     8   8   8   8   8   4   8
#     4   8  14  25  40  57  77  99 123 156 196 229
#     4   8  13  22  37  56  78 104 131 157 187 226
#     4   8  13  20  29  43  67  98 125 147 176 216
#     4   8  13  21  33  48  66  90 119 149 182 219
#     4   9  17  28  40  56  80 104 123 152 196 232
#     4   7  10  18  33  53  76 101 128 156 186 221
#     4   9  17  29  44  59  75 100 133 161 186 226
#
# _framework density 16.097348
#
# number of rings (size 3 to 8) (size 9 to 14) (size 15 to 20)
#    0.000    3.769    0.000    2.308    0.000    0.923 
#    0.000    2.692    0.000    3.231    0.000    0.538 
#    0.000    4.923    0.000    7.692    0.000    8.923 
#
# Total GULP energy -644216.823198 kJ/mol
# GULP energy per Si atom -12388.785061 kJ/mol
# Density = 1.606071 g / cm^3
# Si number density = 16.097348 Si / 1000 Ang^3
#
#
#
# Elastic Constant Matrix: (Units=GPa)
#
#
# Indices 1 2 3 4 5 6 
#
# 1 43.2359 61.6147 21.3040 0.0000 0.0000 0.0000
# 2 61.6147 186.3731 57.6578 0.0000 0.0000 0.0000
# 3 21.3040 57.6578 43.4439 0.0000 0.0000 0.0000
# 4 0.0000 0.0000 0.0000 18.6421 0.0000 0.0000
# 5 0.0000 0.0000 0.0000 0.0000 8.5571 0.0000
# 6 0.0000 0.0000 0.0000 0.0000 0.0000 4.7968
#
#
#
# Elastic Compliance Matrix: (Units=1/GPa)
#
#
# Indices 1 2 3 4 5 6 
#
# 1 0.044111 -0.013388 -0.003863 0.000000 0.000000 0.000000
# 2 -0.013388 0.013167 -0.010909 0.000000 0.000000 0.000000
# 3 -0.003863 -0.010909 0.039391 0.000000 0.000000 0.000000
# 4 0.000000 0.000000 0.000000 0.053642 0.000000 0.000000
# 5 0.000000 0.000000 0.000000 0.000000 0.116861 0.000000
# 6 0.000000 0.000000 0.000000 0.000000 0.000000 0.208470
#
#
# Mechanical properties :
#
#
# Convention : Reuss Voigt Hill
#
# Bulk Modulus (GPa) = 24.78407 61.57842 43.18125
# Shear Modulus (GPa) = 9.16737 15.23098 12.19918
#
# Velocity S-wave (km/s) = 2.38900 3.07934 2.75587
# Velocity P-wave (km/s) = 4.79995 7.14002 6.08356
#
# Compressibility (1/GPa) = 0.04034850
#
# Stress axis : x y z
#
# Youngs Moduli (GPa) = 22.66983 75.94966 25.38654
#
# Poissons Ratio (x) = 1.01682 0.09807
# Poissons Ratio (y) = 0.30351 0.27695
# Poissons Ratio (z) = 0.08757 0.82855
#
# Static dielectric constant tensor:
#      x y z
#    x 2.760580 0.000000 0.000000 
#    y 0.000000 3.519460 0.000000 
#    z 0.000000 0.000000 2.820620 
# 
# 
# High freq. dielectric constant tensor:
#      x y z
#    x 1.574660 0.000000 0.000000 
#    y 0.000000 1.636750 0.000000 
#    z 0.000000 0.000000 1.575470 
# 
# From -- ./inp_files/4770.got.cif
#   From: 2010.03.12/outbox.cif.g09.slc.cpg/sg47_3_cif.got.tgz:4770.got - 2010.04.14 03:12:58.
