data_PCOD8200692
_publ_section_title
;
Structure prediction by ZEFSAII (Michael W. Deem and Ramdas Pophale) SiO2 
 PCOD8200692
Probable space group: P M M M
;
_chemical_formula_sum "Si O2"
_cell_formula_units_Z 52
_cell_length_a 26.664921
_cell_length_b 13.682070
_cell_length_c 9.567097
_cell_angle_alpha 90.000000
_cell_angle_beta 90.000000
_cell_angle_gamma 90.000000
_cell_volume 3490.376586
_symmetry_space_group_name_H-M "P M M M"
_symmetry_group_IT_number 47
_symmetry_cell_setting 'orthorhombic'
loop_
_space_group_symop_operation_xyz
x,y,z
-x,-y,z
x,-y,-z
-x,y,-z
-x,-y,-z
x,y,-z
-x,y,z
x,-y,z
loop_
_atom_site_type_symbol
_atom_site_label
_atom_site_fract_x
_atom_site_fract_y
_atom_site_fract_z
Si Si1 0.247927 0.887741 0.161478
Si Si2 0.199030 0.612266 0.338475
Si Si3 0.148667 0.769238 0.162789
Si Si4 0.055638 0.890874 0.834176
Si Si5 0.701809 0.269424 0.337275
Si Si6 0.500000 0.384020 0.653035
Si Si7 0.607575 0.390377 0.667431
O O1 0.192453 0.847300 0.190759
O O2 0.288725 0.829798 0.252488
O O3 0.249003 0.000000 0.208318
O O4 0.262456 0.875285 0.000000
O O5 0.184633 0.625171 0.500000
O O6 0.197832 0.500000 0.292115
O O7 0.158261 0.669902 0.247113
O O8 0.254501 0.652472 0.308590
O O9 0.097370 0.816167 0.222980
O O10 0.144526 0.742392 0.000000
O O11 0.000000 0.854694 0.789489
O O12 0.065242 0.000000 0.774353
O O13 0.060142 0.895570 0.000000
O O14 0.698204 0.242623 0.500000
O O15 0.650380 0.316732 0.279927
O O16 0.500000 0.500000 0.636709
O O17 0.500000 0.334901 0.500000
O O18 0.552838 0.354527 0.727688
O O19 0.605709 0.391744 0.500000
O O20 0.619817 0.500000 0.721285
#
# Coordination Sequence:
#
# PCOD8200692 Si02
#       7
#     8   8   8   8   8   4   8
#     4   9  17  28  40  55  78 105 128 152 187 230
#     4   9  17  28  40  55  78 107 134 157 185 223
#     4   9  16  26  42  62  80  99 126 158 189 223
#     4   8  13  22  39  63  85 101 120 151 192 234
#     4   9  16  25  39  59  79 100 128 160 190 220
#     4   7  10  16  28  50  78 103 124 148 183 227
#     4   8  12  19  33  54  80 105 126 151 186 227
#
# _framework density 14.898106
#
# number of rings (size 3 to 8) (size 9 to 14) (size 15 to 20)
#    0.000    3.462    0.000    2.308    0.000    4.308 
#    0.000    0.000    0.000    3.692    0.000    5.385 
#    0.000    6.154    0.000    0.000    0.000    0.000 
#
# Total GULP energy -644403.870950 kJ/mol
# GULP energy per Si atom -12392.382134 kJ/mol
# Density = 1.486420 g / cm^3
# Si number density = 14.898106 Si / 1000 Ang^3
#
#
#
# Elastic Constant Matrix: (Units=GPa)
#
#
# Indices 1 2 3 4 5 6 
#
# 1 120.2554 63.0467 31.8166 0.0000 0.0000 0.0000
# 2 63.0467 113.1697 38.3409 0.0000 0.0000 0.0000
# 3 31.8166 38.3409 29.2361 0.0000 0.0000 0.0000
# 4 0.0000 0.0000 0.0000 21.9379 0.0000 0.0000
# 5 0.0000 0.0000 0.0000 0.0000 12.9174 0.0000
# 6 0.0000 0.0000 0.0000 0.0000 0.0000 25.9986
#
#
#
# Elastic Compliance Matrix: (Units=1/GPa)
#
#
# Indices 1 2 3 4 5 6 
#
# 1 0.012755 -0.004324 -0.008209 0.000000 0.000000 0.000000
# 2 -0.004324 0.017367 -0.018070 0.000000 0.000000 0.000000
# 3 -0.008209 -0.018070 0.066835 0.000000 0.000000 0.000000
# 4 0.000000 0.000000 0.000000 0.045583 0.000000 0.000000
# 5 0.000000 0.000000 0.000000 0.000000 0.077415 0.000000
# 6 0.000000 0.000000 0.000000 0.000000 0.000000 0.038464
#
#
# Mechanical properties :
#
#
# Convention : Reuss Voigt Hill
#
# Bulk Modulus (GPa) = 27.97184 58.78552 43.37868
# Shear Modulus (GPa) = 15.08097 20.80123 17.94110
#
# Velocity S-wave (km/s) = 3.18508 3.74067 3.47400
# Velocity P-wave (km/s) = 5.68705 7.62895 6.72842
#
# Compressibility (1/GPa) = 0.03575024
#
# Stress axis : x y z
#
# Youngs Moduli (GPa) = 78.40173 57.57948 14.96213
#
# Poissons Ratio (x) = 0.24900 0.12283
# Poissons Ratio (y) = 0.33904 0.27036
# Poissons Ratio (z) = 0.64364 1.04045
#
# Static dielectric constant tensor:
#      x y z
#    x 3.157710 0.000000 0.000000 
#    y 0.000000 2.805550 0.000000 
#    z 0.000000 0.000000 2.557410 
# 
# 
# High freq. dielectric constant tensor:
#      x y z
#    x 1.571380 0.000000 0.000000 
#    y 0.000000 1.552570 0.000000 
#    z 0.000000 0.000000 1.530680 
# 
# From -- ./inp_files/8031.got.cif
#   From: 2010.03.12/outbox.cif.g09.slc.cpg/sg47_5_cif.got.tgz:8031.got - 2010.04.14 03:12:58.
