data_PCOD8200961
_publ_section_title
;
Structure prediction by ZEFSAII (Michael W. Deem and Ramdas Pophale) SiO2 
 PCOD8200961
Probable space group: P M M M
;
_chemical_formula_sum "Si O2"
_cell_formula_units_Z 44
_cell_length_a 9.471605
_cell_length_b 28.350311
_cell_length_c 9.376122
_cell_angle_alpha 90.000000
_cell_angle_beta 90.000000
_cell_angle_gamma 90.000000
_cell_volume 2517.703915
_symmetry_space_group_name_H-M "P M M M"
_symmetry_group_IT_number 47
_symmetry_cell_setting 'orthorhombic'
loop_
_space_group_symop_operation_xyz
x,y,z
-x,-y,z
x,-y,-z
-x,y,-z
-x,-y,-z
x,y,-z
-x,y,z
x,-y,z
loop_
_atom_site_type_symbol
_atom_site_label
_atom_site_fract_x
_atom_site_fract_y
_atom_site_fract_z
Si Si1 0.340839 0.861826 0.330001
Si Si2 0.335297 0.589993 0.834823
Si Si3 0.841570 0.052312 0.669651
Si Si4 0.837064 0.772757 0.666523
Si Si5 0.332100 0.500000 0.661274
Si Si6 0.837045 0.319211 0.165230
O O1 0.340143 0.863256 0.500000
O O2 0.500000 0.859914 0.270347
O O3 0.265305 0.908693 0.267728
O O4 0.256051 0.816118 0.276079
O O5 0.500000 0.598809 0.807628
O O6 0.276691 0.546302 0.742886
O O7 0.253224 0.636259 0.782697
O O8 0.304456 0.578773 0.000000
O O9 0.841094 0.054616 0.500000
O O10 0.000000 0.063019 0.724940
O O11 0.793591 0.000000 0.720110
O O12 0.812926 0.764083 0.500000
O O13 0.785491 0.726110 0.747338
O O14 0.000000 0.784323 0.700470
O O15 0.500000 0.500000 0.663713
O O16 0.273527 0.500000 0.500000
O O17 0.000000 0.330507 0.196626
O O18 0.809745 0.308476 0.000000
#
# Coordination Sequence:
#
# PCOD8200961 Si02
#       6
#     8   8   8   8   4   8
#     4   9  16  24  35  54  80 108 139 177 218 257
#     4   9  17  30  48  67  87 114 146 177 211 253
#     4   8  13  21  33  49  72 106 145 179 212 255
#     4   9  17  29  44  60  81 112 144 172 209 259
#     4   9  17  29  46  69  94 118 146 179 212 248
#     4   9  18  32  48  66  88 113 143 180 218 254
#
# _framework density 17.476241999999999
#
# number of rings (size 3 to 8) (size 9 to 14) (size 15 to 20)
#    0.000    3.182    0.000    1.364    0.000    5.091 
#    0.000    2.273    0.000    2.727    0.000    0.000 
#    0.000    0.727    0.000    8.364    0.000   10.727 
#
# Total GULP energy -545519.691737 kJ/mol
# GULP energy per Si atom -12398.174812 kJ/mol
# Density = 1.743647 g / cm^3
# Si number density = 17.476242 Si / 1000 Ang^3
#
#
#
# Elastic Constant Matrix: (Units=GPa)
#
#
# Indices 1 2 3 4 5 6 
#
# 1 90.1455 90.4915 28.0838 0.0000 0.0000 0.0000
# 2 90.4915 197.3625 53.3439 0.0000 0.0000 0.0000
# 3 28.0838 53.3439 38.9264 0.0000 0.0000 0.0000
# 4 0.0000 0.0000 0.0000 5.4521 0.0000 0.0000
# 5 0.0000 0.0000 0.0000 0.0000 11.5966 0.0000
# 6 0.0000 0.0000 0.0000 0.0000 0.0000 35.0234
#
#
#
# Elastic Compliance Matrix: (Units=1/GPa)
#
#
# Indices 1 2 3 4 5 6 
#
# 1 0.020782 -0.008698 -0.003074 0.000000 0.000000 0.000000
# 2 -0.008698 0.011688 -0.009742 0.000000 0.000000 0.000000
# 3 -0.003074 -0.009742 0.041257 0.000000 0.000000 0.000000
# 4 0.000000 0.000000 0.000000 0.183415 0.000000 0.000000
# 5 0.000000 0.000000 0.000000 0.000000 0.086232 0.000000
# 6 0.000000 0.000000 0.000000 0.000000 0.000000 0.028552
#
#
# Mechanical properties :
#
#
# Convention : Reuss Voigt Hill
#
# Bulk Modulus (GPa) = 32.57346 74.47475 53.52410
# Shear Modulus (GPa) = 11.75954 20.71543 16.23749
#
# Velocity S-wave (km/s) = 2.59682 3.44662 3.05145
# Velocity P-wave (km/s) = 5.26027 7.65156 6.56570
#
# Compressibility (1/GPa) = 0.03069984
#
# Stress axis : x y z
#
# Youngs Moduli (GPa) = 48.11852 85.55963 24.23822
#
# Poissons Ratio (x) = 0.74417 0.07451
# Poissons Ratio (y) = 0.41852 0.23612
# Poissons Ratio (z) = 0.14793 0.83349
#
# Static dielectric constant tensor:
#      x y z
#    x 3.243960 0.000000 0.000000 
#    y 0.000000 3.498440 0.000000 
#    z 0.000000 0.000000 2.861400 
# 
# 
# High freq. dielectric constant tensor:
#      x y z
#    x 1.663670 0.000000 0.000000 
#    y 0.000000 1.689650 0.000000 
#    z 0.000000 0.000000 1.627270 
# 
# From -- ./inp_files/2032.got.cif
#   From: 2010.03.12/outbox.cif.g09.slc.cpg/sg47_2_cif.got.tgz:2032.got - 2010.04.14 03:12:58.
