data_PCOD8200119
_publ_section_title
;
Structure prediction by ZEFSAII (Michael W. Deem and Ramdas Pophale) SiO2 
 PCOD8200119
Probable space group: P M M M
;
_chemical_formula_sum "Si O2"
_cell_formula_units_Z 44
_cell_length_a 9.145037
_cell_length_b 17.645560
_cell_length_c 14.437953
_cell_angle_alpha 90.000000
_cell_angle_beta 90.000000
_cell_angle_gamma 90.000000
_cell_volume 2329.842356
_symmetry_space_group_name_H-M "P M M M"
_symmetry_group_IT_number 47
_symmetry_cell_setting 'orthorhombic'
loop_
_space_group_symop_operation_xyz
x,y,z
-x,-y,z
x,-y,-z
-x,y,-z
-x,-y,-z
x,y,-z
-x,y,z
x,-y,z
loop_
_atom_site_type_symbol
_atom_site_label
_atom_site_fract_x
_atom_site_fract_y
_atom_site_fract_z
Si Si1 0.669565 0.773867 0.106638
Si Si2 0.825940 0.359759 0.795461
Si Si3 0.826852 0.585070 0.399339
Si Si4 0.330603 0.500000 0.109829
Si Si5 0.164141 0.090095 0.600737
Si Si6 0.330771 0.915486 0.222599
O O1 0.500000 0.752386 0.122993
O O2 0.772646 0.720332 0.166629
O O3 0.700981 0.860576 0.136286
O O4 0.712881 0.765588 0.000000
O O5 0.776398 0.363722 0.687310
O O6 0.749095 0.425870 0.852602
O O7 0.000000 0.367590 0.806887
O O8 0.770920 0.616451 0.500000
O O9 0.765726 0.500000 0.384140
O O10 0.000000 0.581762 0.400945
O O11 0.500000 0.500000 0.140749
O O12 0.317190 0.500000 0.000000
O O13 0.223383 0.118181 0.500000
O O14 0.260036 0.121249 0.685217
O O15 0.000000 0.120490 0.614541
O O16 0.166971 0.000000 0.602593
O O17 0.500000 0.921015 0.244651
O O18 0.269108 0.000000 0.199475
#
# Coordination Sequence:
#
# PCOD8200119 Si02
#       6
#     8   8   8   4   8   8
#     4  10  22  39  55  73 104 143 177 218 278 334
#     4  11  21  35  57  84 109 137 178 223 261 306
#     4   8  14  28  52  80 108 137 170 209 254 303
#     4  11  23  37  54  77 108 146 181 215 262 315
#     4   8  14  26  46  73 104 135 165 202 255 318
#     4   9  18  33  54  78 101 132 180 231 273 319
#
# _framework density 18.885397000000001
#
# number of rings (size 3 to 8) (size 9 to 14) (size 15 to 20)
#    0.000    2.636    0.909    2.455    0.000    4.727 
#    0.000    4.545    0.000    6.000    0.000    3.818 
#    0.000    0.000    0.000    0.000    0.000    0.000 
#
# Total GULP energy -545300.031717 kJ/mol
# GULP energy per Si atom -12393.182539 kJ/mol
# Density = 1.884241 g / cm^3
# Si number density = 18.885397 Si / 1000 Ang^3
#
#
#
# Elastic Constant Matrix: (Units=GPa)
#
#
# Indices 1 2 3 4 5 6 
#
# 1 61.5136 36.8535 49.0294 0.0000 0.0000 0.0000
# 2 36.8535 82.8695 59.1135 0.0000 0.0000 0.0000
# 3 49.0294 59.1135 158.6442 0.0000 0.0000 0.0000
# 4 0.0000 0.0000 0.0000 29.5324 0.0000 0.0000
# 5 0.0000 0.0000 0.0000 0.0000 26.9098 0.0000
# 6 0.0000 0.0000 0.0000 0.0000 0.0000 22.5106
#
#
#
# Elastic Compliance Matrix: (Units=1/GPa)
#
#
# Indices 1 2 3 4 5 6 
#
# 1 0.024579 -0.007508 -0.004799 0.000000 0.000000 0.000000
# 2 -0.007508 0.018729 -0.004658 0.000000 0.000000 0.000000
# 3 -0.004799 -0.004658 0.009522 0.000000 0.000000 0.000000
# 4 0.000000 0.000000 0.000000 0.033861 0.000000 0.000000
# 5 0.000000 0.000000 0.000000 0.000000 0.037161 0.000000
# 6 0.000000 0.000000 0.000000 0.000000 0.000000 0.044424
#
#
# Mechanical properties :
#
#
# Convention : Reuss Voigt Hill
#
# Bulk Modulus (GPa) = 52.90804 65.89115 59.39959
# Shear Modulus (GPa) = 23.98000 26.32594 25.15297
#
# Velocity S-wave (km/s) = 3.56724 3.73766 3.65344
# Velocity P-wave (km/s) = 6.71141 7.32069 7.02266
#
# Compressibility (1/GPa) = 0.01890072
#
# Stress axis : x y z
#
# Youngs Moduli (GPa) = 40.68435 53.39306 105.01638
#
# Poissons Ratio (x) = 0.40086 0.50396
# Poissons Ratio (y) = 0.30545 0.48921
# Poissons Ratio (z) = 0.19524 0.24873
#
# Static dielectric constant tensor:
#      x y z
#    x 3.352420 0.000000 0.000000 
#    y 0.000000 3.357680 0.000000 
#    z 0.000000 0.000000 3.978100 
# 
# 
# High freq. dielectric constant tensor:
#      x y z
#    x 1.710510 0.000000 0.000000 
#    y 0.000000 1.711300 0.000000 
#    z 0.000000 0.000000 1.749870 
# 
# From -- ./inp_files/20921.got.cif
#   From: 2010.03.12/outbox.cif.g09.slc.cpg/sg47_11_cif.got.tgz:20921.got - 2010.04.14 03:12:58.
