data_PCOD8200597
_publ_section_title
;
Structure prediction by ZEFSAII (Michael W. Deem and Ramdas Pophale) SiO2 
 PCOD8200597
Probable space group: P M M M
;
_chemical_formula_sum "Si O2"
_cell_formula_units_Z 44
_cell_length_a 28.088713
_cell_length_b 9.695832
_cell_length_c 9.230965
_cell_angle_alpha 90.000000
_cell_angle_beta 90.000000
_cell_angle_gamma 90.000000
_cell_volume 2513.992784
_symmetry_space_group_name_H-M "P M M M"
_symmetry_group_IT_number 47
_symmetry_cell_setting 'orthorhombic'
loop_
_space_group_symop_operation_xyz
x,y,z
-x,-y,z
x,-y,-z
-x,y,-z
-x,-y,-z
x,y,-z
-x,y,z
x,-y,z
loop_
_atom_site_type_symbol
_atom_site_label
_atom_site_fract_x
_atom_site_fract_y
_atom_site_fract_z
Si Si1 0.946435 0.655103 0.670859
Si Si2 0.500000 0.838349 0.328233
Si Si3 0.233811 0.847297 0.172544
Si Si4 0.685046 0.651686 0.171515
Si Si5 0.128137 0.837441 0.165413
Si Si6 0.577536 0.660793 0.830769
O O1 0.942660 0.667255 0.500000
O O2 0.933559 0.500000 0.720891
O O3 0.910275 0.762110 0.738235
O O4 0.000000 0.691800 0.721585
O O5 0.500000 0.820649 0.500000
O O6 0.453918 0.763017 0.264135
O O7 0.500000 0.000000 0.284464
O O8 0.275158 0.751720 0.240127
O O9 0.181296 0.793325 0.216636
O O10 0.242118 0.000000 0.235668
O O11 0.236988 0.852010 0.000000
O O12 0.693933 0.500000 0.236852
O O13 0.631754 0.700550 0.209384
O O14 0.690731 0.646186 0.000000
O O15 0.121759 0.000000 0.184569
O O16 0.119962 0.793375 0.000000
O O17 0.567199 0.500000 0.793793
O O18 0.567031 0.686477 0.000000
#
# Coordination Sequence:
#
# PCOD8200597 Si02
#       6
#     8   4   8   8   8   8
#     4   9  19  35  51  67  90 121 158 200 243 285
#     4  11  24  37  48  68  98 129 162 199 238 282
#     4   8  14  25  41  64  96 128 153 181 223 274
#     4   8  14  25  43  69  97 121 149 188 230 272
#     4   9  18  31  47  71 101 128 156 192 232 277
#     4   9  18  33  53  76  99 123 156 198 239 280
#
# _framework density 17.502040000000001
#
# number of rings (size 3 to 8) (size 9 to 14) (size 15 to 20)
#    0.000    3.182    0.000    3.273    0.000    5.091 
#    0.000    6.364    0.000    1.091    0.000    0.000 
#    0.000    0.000    0.000    0.000    0.000    0.000 
#
# Total GULP energy -545339.986794 kJ/mol
# GULP energy per Si atom -12394.090609 kJ/mol
# Density = 1.746220 g / cm^3
# Si number density = 17.502040 Si / 1000 Ang^3
#
#
#
# Elastic Constant Matrix: (Units=GPa)
#
#
# Indices 1 2 3 4 5 6 
#
# 1 149.6304 79.8031 37.5891 0.0000 0.0000 0.0000
# 2 79.8031 89.3737 34.1106 0.0000 0.0000 0.0000
# 3 37.5891 34.1106 34.7391 0.0000 0.0000 0.0000
# 4 0.0000 0.0000 0.0000 24.7664 0.0000 0.0000
# 5 0.0000 0.0000 0.0000 0.0000 -11.6398 0.0000
# 6 0.0000 0.0000 0.0000 0.0000 0.0000 31.9729
#
#
#
# Elastic Compliance Matrix: (Units=1/GPa)
#
#
# Indices 1 2 3 4 5 6 
#
# 1 0.013152 -0.010096 -0.004318 0.000000 0.000000 0.000000
# 2 -0.010096 0.025645 -0.014257 0.000000 0.000000 0.000000
# 3 -0.004318 -0.014257 0.047458 0.000000 0.000000 0.000000
# 4 0.000000 0.000000 0.000000 0.040377 0.000000 0.000000
# 5 0.000000 0.000000 0.000000 0.000000 -0.085912 0.000000
# 6 0.000000 0.000000 0.000000 0.000000 0.000000 0.031276
#
#
# Mechanical properties :
#
#
# Convention : Reuss Voigt Hill
#
# Bulk Modulus (GPa) = 34.58661 64.08321 49.33491
# Shear Modulus (GPa) = 35.97725 17.16926 26.57325
#
# Velocity S-wave (km/s) = 4.53879 3.13547 3.90076
# Velocity P-wave (km/s) = 6.87546 7.05708 6.96686
#
# Compressibility (1/GPa) = 0.02891292
#
# Stress axis : x y z
#
# Youngs Moduli (GPa) = 76.03166 38.99380 21.07145
#
# Poissons Ratio (x) = 0.39368 0.09099
# Poissons Ratio (y) = 0.76761 0.30042
# Poissons Ratio (z) = 0.32832 0.55593
#
# Static dielectric constant tensor:
#      x y z
#    x 3.478520 0.000000 0.000000 
#    y 0.000000 3.478350 0.000000 
#    z 0.000000 0.000000 2.808330 
# 
# 
# High freq. dielectric constant tensor:
#      x y z
#    x 1.691630 0.000000 0.000000 
#    y 0.000000 1.676460 0.000000 
#    z 0.000000 0.000000 1.629870 
# 
# From -- ./inp_files/13570.got.cif
#   From: 2010.03.12/outbox.cif.g09.slc.cpg/sg47_7_cif.got.tgz:13570.got - 2010.04.14 03:12:58.
