data_PCOD8200054
_publ_section_title
;
Structure prediction by ZEFSAII (Michael W. Deem and Ramdas Pophale) SiO2 
 PCOD8200054
Probable space group: P M M M
;
_chemical_formula_sum "Si O2"
_cell_formula_units_Z 44
_cell_length_a 7.412924
_cell_length_b 32.058347
_cell_length_c 9.057967
_cell_angle_alpha 90.000000
_cell_angle_beta 90.000000
_cell_angle_gamma 90.000000
_cell_volume 2152.590440
_symmetry_space_group_name_H-M "P M M M"
_symmetry_group_IT_number 47
_symmetry_cell_setting 'orthorhombic'
loop_
_space_group_symop_operation_xyz
x,y,z
-x,-y,z
x,-y,-z
-x,y,-z
-x,-y,-z
x,y,-z
-x,y,z
x,-y,z
loop_
_atom_site_type_symbol
_atom_site_label
_atom_site_fract_x
_atom_site_fract_y
_atom_site_fract_z
Si Si1 0.713255 0.000000 0.166442
Si Si2 0.285195 0.624968 0.165027
Si Si3 0.000000 0.860195 0.823970
Si Si4 0.288259 0.083678 0.326619
Si Si5 0.714313 0.545640 0.665891
Si Si6 0.704165 0.293409 0.328679
Si Si7 0.000000 0.226520 0.328556
O O1 0.779836 0.040403 0.255452
O O2 0.500000 0.000000 0.158767
O O3 0.794071 0.000000 0.000000
O O4 0.500000 0.623695 0.172177
O O5 0.203083 0.582971 0.236898
O O6 0.215005 0.666199 0.247311
O O7 0.211409 0.627027 0.000000
O O8 0.180186 0.879792 0.753938
O O9 0.000000 0.811918 0.782216
O O10 0.000000 0.865982 0.000000
O O11 0.243371 0.083016 0.500000
O O12 0.500000 0.091214 0.298883
O O13 0.786059 0.551366 0.500000
O O14 0.500000 0.548099 0.667767
O O15 0.775949 0.500000 0.726549
O O16 0.712844 0.304363 0.500000
O O17 0.500000 0.283438 0.277661
O O18 0.822537 0.253152 0.291419
O O19 0.000000 0.212034 0.500000
#
# Coordination Sequence:
#
# PCOD8200054 Si02
#       7
#     4   8   4   8   8   8   4
#     4   9  17  32  57  90 126 159 195 242 293 342
#     4   9  16  25  40  65  96 128 164 207 254 308
#     4  12  26  41  59  86 120 155 192 238 294 353
#     4  10  21  39  63  89 120 160 204 246 286 334
#     4   8  13  21  34  55  87 127 167 205 246 296
#     4   9  18  34  56  78 101 132 170 216 268 319
#     4  10  22  40  59  81 107 137 182 230 273 332
#
# _framework density 20.44049
#
# number of rings (size 3 to 8) (size 9 to 14) (size 15 to 20)
#    0.000    2.636    0.000    2.727    0.000    6.545 
#    0.000    5.455    0.000    0.000    0.000    0.636 
#    0.000    5.091    0.000    0.545    0.000    0.000 
#
# Total GULP energy -545510.317927 kJ/mol
# GULP energy per Si atom -12397.961771 kJ/mol
# Density = 2.039397 g / cm^3
# Si number density = 20.440490 Si / 1000 Ang^3
#
#
#
# Elastic Constant Matrix: (Units=GPa)
#
#
# Indices 1 2 3 4 5 6 
#
# 1 70.7793 44.5703 36.7446 0.0000 0.0000 0.0000
# 2 44.5703 170.8790 90.4340 0.0000 0.0000 0.0000
# 3 36.7446 90.4340 143.4552 0.0000 0.0000 0.0000
# 4 0.0000 0.0000 0.0000 30.1802 0.0000 0.0000
# 5 0.0000 0.0000 0.0000 0.0000 12.2204 0.0000
# 6 0.0000 0.0000 0.0000 0.0000 0.0000 20.9152
#
#
#
# Elastic Compliance Matrix: (Units=1/GPa)
#
#
# Indices 1 2 3 4 5 6 
#
# 1 0.017439 -0.003278 -0.002400 0.000000 0.000000 0.000000
# 2 -0.003278 0.009398 -0.005085 0.000000 0.000000 0.000000
# 3 -0.002400 -0.005085 0.010791 0.000000 0.000000 0.000000
# 4 0.000000 0.000000 0.000000 0.033134 0.000000 0.000000
# 5 0.000000 0.000000 0.000000 0.000000 0.081830 0.000000
# 6 0.000000 0.000000 0.000000 0.000000 0.000000 0.047812
#
#
# Mechanical properties :
#
#
# Convention : Reuss Voigt Hill
#
# Bulk Modulus (GPa) = 62.10637 80.95682 71.53160
# Shear Modulus (GPa) = 21.99747 26.88748 24.44247
#
# Velocity S-wave (km/s) = 3.28406 3.63078 3.46177
# Velocity P-wave (km/s) = 6.69553 7.56762 7.14489
#
# Compressibility (1/GPa) = 0.01610141
#
# Stress axis : x y z
#
# Youngs Moduli (GPa) = 57.34329 106.40241 92.66874
#
# Poissons Ratio (x) = 0.34882 0.22242
# Poissons Ratio (y) = 0.18799 0.47122
# Poissons Ratio (z) = 0.13763 0.54105
#
# Static dielectric constant tensor:
#      x y z
#    x 3.575590 0.000000 0.000000 
#    y 0.000000 3.786750 0.000000 
#    z 0.000000 0.000000 3.779400 
# 
# 
# High freq. dielectric constant tensor:
#      x y z
#    x 1.785860 0.000000 0.000000 
#    y 0.000000 1.801080 0.000000 
#    z 0.000000 0.000000 1.795160 
# 
# From -- ./inp_files/2362.got.cif
#   From: 2010.03.12/outbox.cif.g09.slc.cpg/sg47_2_cif.got.tgz:2362.got - 2010.04.14 03:12:58.
