data_PCOD8200948
_publ_section_title
;
Structure prediction by ZEFSAII (Michael W. Deem and Ramdas Pophale) SiO2 
 PCOD8200948
Probable space group: P M M M
;
_chemical_formula_sum "Si O2"
_cell_formula_units_Z 44
_cell_length_a 30.275505
_cell_length_b 9.532174
_cell_length_c 7.723422
_cell_angle_alpha 90.000000
_cell_angle_beta 90.000000
_cell_angle_gamma 90.000000
_cell_volume 2228.913026
_symmetry_space_group_name_H-M "P M M M"
_symmetry_group_IT_number 47
_symmetry_cell_setting 'orthorhombic'
loop_
_space_group_symop_operation_xyz
x,y,z
-x,-y,z
x,-y,-z
-x,y,-z
-x,-y,-z
x,y,-z
-x,y,z
x,-y,z
loop_
_atom_site_type_symbol
_atom_site_label
_atom_site_fract_x
_atom_site_fract_y
_atom_site_fract_z
Si Si1 0.207958 0.655924 0.799328
Si Si2 0.613386 0.835439 0.300773
Si Si3 0.549091 0.833955 0.000000
Si Si4 0.048969 0.342792 0.205770
Si Si5 0.303617 0.656964 0.295939
Si Si6 0.128894 0.842259 0.793012
O O1 0.204688 0.500000 0.714004
O O2 0.256982 0.718181 0.770621
O O3 0.171700 0.760398 0.717907
O O4 0.197529 0.642468 0.000000
O O5 0.601415 0.796350 0.500000
O O6 0.657201 0.757567 0.232965
O O7 0.622406 0.000000 0.282023
O O8 0.573863 0.785099 0.175382
O O9 0.500000 0.767255 0.000000
O O10 0.545679 0.000000 0.000000
O O11 0.060108 0.500000 0.271482
O O12 0.085114 0.234850 0.279634
O O13 0.000000 0.298249 0.270584
O O14 0.050165 0.341199 0.000000
O O15 0.302620 0.653200 0.500000
O O16 0.311207 0.500000 0.220744
O O17 0.129620 0.000000 0.719278
O O18 0.129142 0.844238 0.000000
#
# Coordination Sequence:
#
# PCOD8200948 Si02
#       6
#     8   8   4   8   8   8
#     4   9  17  28  42  60  83 114 148 180 220 273
#     4   9  18  32  50  73 100 130 164 204 249 292
#     4   9  18  32  51  77 105 133 169 209 246 289
#     4   8  13  21  33  48  69 103 144 181 220 270
#     4   9  18  32  49  69  93 122 156 194 235 280
#     4   9  16  24  34  52  79 108 140 181 227 271
#
# _framework density 19.740563999999999
#
# number of rings (size 3 to 8) (size 9 to 14) (size 15 to 20)
#    0.000    3.182    0.000    1.091    1.273    3.636 
#    0.000    3.636    0.000    1.091    0.000    2.545 
#    0.000    0.727    0.000    8.364    0.000   10.727 
#
# Total GULP energy -545355.601120 kJ/mol
# GULP energy per Si atom -12394.445480 kJ/mol
# Density = 1.969563 g / cm^3
# Si number density = 19.740564 Si / 1000 Ang^3
#
#
#
# Elastic Constant Matrix: (Units=GPa)
#
#
# Indices 1 2 3 4 5 6 
#
# 1 203.8880 94.7048 38.4461 0.0000 0.0000 0.0000
# 2 94.7048 103.3086 20.1041 0.0000 0.0000 0.0000
# 3 38.4461 20.1041 39.8294 0.0000 0.0000 0.0000
# 4 0.0000 0.0000 0.0000 7.0665 0.0000 0.0000
# 5 0.0000 0.0000 0.0000 0.0000 -11.0079 0.0000
# 6 0.0000 0.0000 0.0000 0.0000 0.0000 26.6188
#
#
#
# Elastic Compliance Matrix: (Units=1/GPa)
#
#
# Indices 1 2 3 4 5 6 
#
# 1 0.009441 -0.007631 -0.005262 0.000000 0.000000 0.000000
# 2 -0.007631 0.016902 -0.001165 0.000000 0.000000 0.000000
# 3 -0.005262 -0.001165 0.030774 0.000000 0.000000 0.000000
# 4 0.000000 0.000000 0.000000 0.141512 0.000000 0.000000
# 5 0.000000 0.000000 0.000000 0.000000 -0.090844 0.000000
# 6 0.000000 0.000000 0.000000 0.000000 0.000000 0.037567
#
#
# Mechanical properties :
#
#
# Convention : Reuss Voigt Hill
#
# Bulk Modulus (GPa) = 34.48096 72.61512 53.54804
# Shear Modulus (GPa) = 27.30194 17.45355 22.37775
#
# Velocity S-wave (km/s) = 3.72296 2.97669 3.37054
# Velocity P-wave (km/s) = 5.99879 6.97702 6.50632
#
# Compressibility (1/GPa) = 0.02900151
#
# Stress axis : x y z
#
# Youngs Moduli (GPa) = 105.91550 59.16394 32.49473
#
# Poissons Ratio (x) = 0.45149 0.17098
# Poissons Ratio (y) = 0.80827 0.03787
# Poissons Ratio (z) = 0.55729 0.06894
#
# Static dielectric constant tensor:
#      x y z
#    x 3.900270 0.000000 0.000000 
#    y 0.000000 3.713960 0.000000 
#    z 0.000000 0.000000 3.226970 
# 
# 
# High freq. dielectric constant tensor:
#      x y z
#    x 1.773180 0.000000 0.000000 
#    y 0.000000 1.749220 0.000000 
#    z 0.000000 0.000000 1.740640 
# 
# From -- ./inp_files/2102.got.cif
#   From: 2010.03.12/outbox.cif.g09.slc.cpg/sg47_2_cif.got.tgz:2102.got - 2010.04.14 03:12:58.
