data_PCOD8200181
_publ_section_title
;
Structure prediction by ZEFSAII (Michael W. Deem and Ramdas Pophale) SiO2 
 PCOD8200181
Probable space group: P M M M
;
_chemical_formula_sum "Si O2"
_cell_formula_units_Z 52
_cell_length_a 9.032696
_cell_length_b 13.992780
_cell_length_c 21.602108
_cell_angle_alpha 90.000000
_cell_angle_beta 90.000000
_cell_angle_gamma 90.000000
_cell_volume 2730.345039
_symmetry_space_group_name_H-M "P M M M"
_symmetry_group_IT_number 47
_symmetry_cell_setting 'orthorhombic'
loop_
_space_group_symop_operation_xyz
x,y,z
-x,-y,z
x,-y,-z
-x,y,-z
-x,-y,-z
x,y,-z
-x,y,z
x,-y,z
loop_
_atom_site_type_symbol
_atom_site_label
_atom_site_fract_x
_atom_site_fract_y
_atom_site_fract_z
Si Si1 0.323770 0.696821 0.118121
Si Si2 0.167122 0.612603 0.000000
Si Si3 0.338745 0.603867 0.572126
Si Si4 0.674193 0.108555 0.430556
Si Si5 0.324631 0.104684 0.930394
Si Si6 0.825139 0.388989 0.761945
Si Si7 0.170426 0.740262 0.647401
O O1 0.500000 0.686117 0.117822
O O2 0.257605 0.644490 0.059403
O O3 0.274756 0.809293 0.115117
O O4 0.259253 0.645471 0.177713
O O5 0.157107 0.500000 0.000000
O O6 0.000000 0.655450 0.000000
O O7 0.332098 0.591411 0.500000
O O8 0.500000 0.648464 0.591197
O O9 0.322373 0.500000 0.603562
O O10 0.201121 0.668054 0.591454
O O11 0.718207 0.147400 0.500000
O O12 0.500000 0.115877 0.423014
O O13 0.745307 0.163211 0.371917
O O14 0.728603 0.000000 0.425104
O O15 0.500000 0.102598 0.933415
O O16 0.266966 0.000000 0.906879
O O17 0.263740 0.124207 0.000000
O O18 0.784325 0.500000 0.746905
O O19 0.771540 0.315386 0.708432
O O20 0.000000 0.379879 0.772410
O O21 0.000000 0.765610 0.653412
#
# Coordination Sequence:
#
# PCOD8200181 Si02
#       7
#     8   4   8   8   8   8   8
#     4  11  21  35  58  87 110 135 183 241 280 317
#     4  11  23  37  54  77 110 150 181 215 280 355
#     4   9  18  32  50  74 105 139 175 219 272 328
#     4   9  19  37  60  85 114 148 185 228 281 340
#     4   8  14  28  52  81 112 140 163 200 263 326
#     4  10  23  42  57  72 106 154 192 223 274 341
#     4  11  22  35  54  79 107 143 186 231 276 328
#
# _framework density 19.045211999999999
#
# number of rings (size 3 to 8) (size 9 to 14) (size 15 to 20)
#    0.000    2.231    0.769    3.923    0.000    7.692 
#    0.000    2.308    0.000    5.077    0.000    0.000 
#    0.000    0.000    0.000    0.000    0.000    0.000 
#
# Total GULP energy -644220.984676 kJ/mol
# GULP energy per Si atom -12388.865090 kJ/mol
# Density = 1.900186 g / cm^3
# Si number density = 19.045212 Si / 1000 Ang^3
#
#
#
# Elastic Constant Matrix: (Units=GPa)
#
#
# Indices 1 2 3 4 5 6 
#
# 1 44.9059 39.7228 48.0418 0.0000 0.0000 0.0000
# 2 39.7228 121.1363 65.8700 0.0000 0.0000 0.0000
# 3 48.0418 65.8700 105.9191 0.0000 0.0000 0.0000
# 4 0.0000 0.0000 0.0000 64.9908 0.0000 0.0000
# 5 0.0000 0.0000 0.0000 0.0000 37.1400 0.0000
# 6 0.0000 0.0000 0.0000 0.0000 0.0000 10.3487
#
#
#
# Elastic Compliance Matrix: (Units=1/GPa)
#
#
# Indices 1 2 3 4 5 6 
#
# 1 0.045649 -0.005606 -0.017219 0.000000 0.000000 0.000000
# 2 -0.005606 0.013162 -0.005642 0.000000 0.000000 0.000000
# 3 -0.017219 -0.005642 0.020760 0.000000 0.000000 0.000000
# 4 0.000000 0.000000 0.000000 0.015387 0.000000 0.000000
# 5 0.000000 0.000000 0.000000 0.000000 0.026925 0.000000
# 6 0.000000 0.000000 0.000000 0.000000 0.000000 0.096630
#
#
# Mechanical properties :
#
#
# Convention : Reuss Voigt Hill
#
# Bulk Modulus (GPa) = 44.17683 64.35895 54.26789
# Shear Modulus (GPa) = 17.66835 30.38435 24.02635
#
# Velocity S-wave (km/s) = 3.04913 3.99855 3.55567
# Velocity P-wave (km/s) = 5.97012 7.42859 6.73893
#
# Compressibility (1/GPa) = 0.02263630
#
# Stress axis : x y z
#
# Youngs Moduli (GPa) = 21.90636 75.97850 48.16986
#
# Poissons Ratio (x) = 0.42595 0.82942
# Poissons Ratio (y) = 0.12281 0.27179
# Poissons Ratio (z) = 0.37720 0.42869
#
# Static dielectric constant tensor:
#      x y z
#    x 3.413240 0.000000 0.000000 
#    y 0.000000 3.930520 0.000000 
#    z 0.000000 0.000000 3.307150 
# 
# 
# High freq. dielectric constant tensor:
#      x y z
#    x 1.722320 0.000000 0.000000 
#    y 0.000000 1.756240 0.000000 
#    z 0.000000 0.000000 1.722790 
# 
# From -- ./inp_files/29560.got.cif
#   From: 2010.03.12/outbox.cif.g09.slc.cpg/sg47_15_cif.got.tgz:29560.got - 2010.04.14 03:12:58.
