data_PCOD8200325
_publ_section_title
;
Structure prediction by ZEFSAII (Michael W. Deem and Ramdas Pophale) SiO2 
 PCOD8200325
Probable space group: P M M M
;
_chemical_formula_sum "Si O2"
_cell_formula_units_Z 44
_cell_length_a 23.291338
_cell_length_b 13.990046
_cell_length_c 9.254951
_cell_angle_alpha 90.000000
_cell_angle_beta 90.000000
_cell_angle_gamma 90.000000
_cell_volume 3015.697001
_symmetry_space_group_name_H-M "P M M M"
_symmetry_group_IT_number 47
_symmetry_cell_setting 'orthorhombic'
loop_
_space_group_symop_operation_xyz
x,y,z
-x,-y,z
x,-y,-z
-x,y,-z
-x,-y,-z
x,y,-z
-x,y,z
x,-y,z
loop_
_atom_site_type_symbol
_atom_site_label
_atom_site_fract_x
_atom_site_fract_y
_atom_site_fract_z
Si Si1 0.397743 0.214511 0.330151
Si Si2 0.432964 0.608911 0.834877
Si Si3 0.719254 0.890731 0.333011
Si Si4 0.500000 0.886990 0.167127
Si Si5 0.170424 0.113962 0.162175
Si Si6 0.063248 0.113662 0.662321
O O1 0.411841 0.211467 0.500000
O O2 0.397913 0.323229 0.273144
O O3 0.335628 0.172373 0.294983
O O4 0.443731 0.152206 0.244632
O O5 0.500000 0.632554 0.817926
O O6 0.420209 0.500000 0.789867
O O7 0.413828 0.626787 0.000000
O O8 0.735998 0.883625 0.500000
O O9 0.773013 0.849280 0.244275
O O10 0.705447 0.000000 0.289714
O O11 0.500000 0.000000 0.181277
O O12 0.500000 0.853920 0.000000
O O13 0.113010 0.156646 0.236139
O O14 0.168699 0.000000 0.166747
O O15 0.172562 0.153329 0.000000
O O16 0.073265 0.151548 0.500000
O O17 0.000000 0.146222 0.717937
O O18 0.066567 0.000000 0.662972
#
# Coordination Sequence:
#
# PCOD8200325 Si02
#       6
#     8   8   8   4   8   8
#     4  11  21  32  48  68  85 104 134 173 211 246
#     4   9  18  33  51  68  87 109 130 157 200 254
#     4   9  18  31  43  55  77 109 139 167 202 244
#     4  11  23  35  46  61  84 113 139 166 204 249
#     4   9  16  24  35  52  72  96 130 170 205 235
#     4   8  13  21  33  48  67  94 127 162 202 244
#
# _framework density 14.590324000000001
#
# number of rings (size 3 to 8) (size 9 to 14) (size 15 to 20)
#    0.000    2.636    0.909    3.000    0.000    5.818 
#    0.000    4.545    0.000    0.000    0.000    0.000 
#    0.000    0.000    0.000    0.000    0.000    0.909 
#
# Total GULP energy -545509.596122 kJ/mol
# GULP energy per Si atom -12397.945366 kJ/mol
# Density = 1.455712 g / cm^3
# Si number density = 14.590324 Si / 1000 Ang^3
#
#
#
# Elastic Constant Matrix: (Units=GPa)
#
#
# Indices 1 2 3 4 5 6 
#
# 1 126.4916 37.8170 77.4370 0.0000 0.0000 0.0000
# 2 37.8170 51.2806 35.5656 0.0000 0.0000 0.0000
# 3 77.4370 35.5656 103.4072 0.0000 0.0000 0.0000
# 4 0.0000 0.0000 0.0000 18.1142 0.0000 0.0000
# 5 0.0000 0.0000 0.0000 0.0000 14.1570 0.0000
# 6 0.0000 0.0000 0.0000 0.0000 0.0000 2.8627
#
#
#
# Elastic Compliance Matrix: (Units=1/GPa)
#
#
# Indices 1 2 3 4 5 6 
#
# 1 0.015314 -0.004386 -0.009959 0.000000 0.000000 0.000000
# 2 -0.004386 0.026865 -0.005956 0.000000 0.000000 0.000000
# 3 -0.009959 -0.005956 0.019177 0.000000 0.000000 0.000000
# 4 0.000000 0.000000 0.000000 0.055205 0.000000 0.000000
# 5 0.000000 0.000000 0.000000 0.000000 0.070636 0.000000
# 6 0.000000 0.000000 0.000000 0.000000 0.000000 0.349326
#
#
# Mechanical properties :
#
#
# Convention : Reuss Voigt Hill
#
# Bulk Modulus (GPa) = 48.18237 64.75761 56.46999
# Shear Modulus (GPa) = 8.56099 15.71742 12.13921
#
# Velocity S-wave (km/s) = 2.42494 3.28571 2.88758
# Velocity P-wave (km/s) = 6.39810 7.67299 7.06436
#
# Compressibility (1/GPa) = 0.02075448
#
# Stress axis : x y z
#
# Youngs Moduli (GPa) = 65.29956 37.22249 52.14557
#
# Poissons Ratio (x) = 0.16326 0.51934
# Poissons Ratio (y) = 0.28640 0.31056
# Poissons Ratio (z) = 0.65035 0.22168
#
# Static dielectric constant tensor:
#      x y z
#    x 2.940060 0.000000 0.000000 
#    y 0.000000 2.498510 0.000000 
#    z 0.000000 0.000000 2.977230 
# 
# 
# High freq. dielectric constant tensor:
#      x y z
#    x 1.556760 0.000000 0.000000 
#    y 0.000000 1.502460 0.000000 
#    z 0.000000 0.000000 1.568670 
# 
# From -- ./inp_files/10852.got.cif
#   From: 2010.03.12/outbox.cif.g09.slc.cpg/sg47_6_cif.got.tgz:10852.got - 2010.04.14 03:12:58.
