data_PCOD8200239
_publ_section_title
;
Structure prediction by ZEFSAII (Michael W. Deem and Ramdas Pophale) SiO2 
 PCOD8200239
Probable space group: P M M M
;
_chemical_formula_sum "Si O2"
_cell_formula_units_Z 40
_cell_length_a 12.805020
_cell_length_b 8.071253
_cell_length_c 24.102213
_cell_angle_alpha 90.000000
_cell_angle_beta 90.000000
_cell_angle_gamma 90.000000
_cell_volume 2491.025321
_symmetry_space_group_name_H-M "P M M M"
_symmetry_group_IT_number 47
_symmetry_cell_setting 'orthorhombic'
loop_
_space_group_symop_operation_xyz
x,y,z
-x,-y,z
x,-y,-z
-x,y,-z
-x,-y,-z
x,y,-z
-x,y,z
x,-y,z
loop_
_atom_site_type_symbol
_atom_site_label
_atom_site_fract_x
_atom_site_fract_y
_atom_site_fract_z
Si Si1 0.500000 0.809776 0.939684
Si Si2 0.692219 0.690957 0.869199
Si Si3 0.375606 0.000000 0.562810
Si Si4 0.624678 0.687332 0.632833
Si Si5 0.881704 0.804909 0.062521
Si Si6 0.615565 0.304247 0.245354
O O1 0.604922 0.772922 0.906761
O O2 0.500000 0.000000 0.952447
O O3 0.500000 0.717625 0.000000
O O4 0.664705 0.500000 0.868148
O O5 0.807132 0.718607 0.893243
O O6 0.686850 0.761087 0.805833
O O7 0.333283 0.169991 0.591268
O O8 0.500000 0.000000 0.565173
O O9 0.334160 0.000000 0.500000
O O10 0.500000 0.683085 0.633075
O O11 0.664769 0.500000 0.616785
O O12 0.663787 0.742049 0.694458
O O13 0.000000 0.752469 0.076793
O O14 0.867805 0.000000 0.067122
O O15 0.853585 0.746890 0.000000
O O16 0.500000 0.225501 0.238256
O O17 0.605387 0.500000 0.243551
#
# Coordination Sequence:
#
# PCOD8200239 Si02
#       6
#     4   8   4   8   8   8
#     4  11  23  35  43  59  91 121 143 172 219 280
#     4  11  20  31  48  69  88 108 142 187 229 266
#     4   9  16  24  34  54  78 102 143 188 215 245
#     4   8  14  25  38  51  74 109 141 175 217 254
#     4   9  19  36  52  63  82 113 145 179 222 275
#     4   8  14  27  42  57  83 112 137 170 216 264
#
# _framework density 16.057645000000001
#
# number of rings (size 3 to 8) (size 9 to 14) (size 15 to 20)
#    0.000    2.800    1.000    3.300    0.000    4.400 
#    3.600    3.000    0.000    0.000    0.000    0.000 
#    0.000    0.000    0.000    0.000    0.000    2.000 
#
# Total GULP energy -495593.735240 kJ/mol
# GULP energy per Si atom -12389.843381 kJ/mol
# Density = 1.602110 g / cm^3
# Si number density = 16.057645 Si / 1000 Ang^3
#
#
#
# Elastic Constant Matrix: (Units=GPa)
#
#
# Indices 1 2 3 4 5 6 
#
# 1 48.3523 13.1984 37.1358 0.0000 0.0000 0.0000
# 2 13.1984 65.9407 52.6488 0.0000 0.0000 0.0000
# 3 37.1358 52.6488 150.7633 0.0000 0.0000 0.0000
# 4 0.0000 0.0000 0.0000 44.7931 0.0000 0.0000
# 5 0.0000 0.0000 0.0000 0.0000 16.2461 0.0000
# 6 0.0000 0.0000 0.0000 0.0000 0.0000 25.3535
#
#
#
# Elastic Compliance Matrix: (Units=1/GPa)
#
#
# Indices 1 2 3 4 5 6 
#
# 1 0.025508 -0.000123 -0.006240 0.000000 0.000000 0.000000
# 2 -0.000123 0.021029 -0.007313 0.000000 0.000000 0.000000
# 3 -0.006240 -0.007313 0.010724 0.000000 0.000000 0.000000
# 4 0.000000 0.000000 0.000000 0.022325 0.000000 0.000000
# 5 0.000000 0.000000 0.000000 0.000000 0.061553 0.000000
# 6 0.000000 0.000000 0.000000 0.000000 0.000000 0.039442
#
#
# Mechanical properties :
#
#
# Convention : Reuss Voigt Hill
#
# Bulk Modulus (GPa) = 33.43665 52.33581 42.88623
# Shear Modulus (GPa) = 22.94602 28.08344 25.51473
#
# Velocity S-wave (km/s) = 3.78428 4.18654 3.99048
# Velocity P-wave (km/s) = 6.32159 7.48550 6.92803
#
# Compressibility (1/GPa) = 0.02990731
#
# Stress axis : x y z
#
# Youngs Moduli (GPa) = 39.20396 47.55360 93.25055
#
# Poissons Ratio (x) = 0.00587 0.58188
# Poissons Ratio (y) = 0.00484 0.68196
# Poissons Ratio (z) = 0.24463 0.34777
#
# Static dielectric constant tensor:
#      x y z
#    x 3.022940 0.000000 0.000000 
#    y 0.000000 3.067040 0.000000 
#    z 0.000000 0.000000 3.454280 
# 
# 
# High freq. dielectric constant tensor:
#      x y z
#    x 1.551720 0.000000 0.000000 
#    y 0.000000 1.617400 0.000000 
#    z 0.000000 0.000000 1.621190 
# 
# From -- ./inp_files/10669.got.cif
#   From: 2010.03.12/outbox.cif.g09.slc.cpg/sg47_6_cif.got.tgz:10669.got - 2010.04.14 03:12:58.
