data_PCOD8200473
_publ_section_title
;
Structure prediction by ZEFSAII (Michael W. Deem and Ramdas Pophale) SiO2 
 PCOD8200473
Probable space group: P M M M
;
_chemical_formula_sum "Si O2"
_cell_formula_units_Z 48
_cell_length_a 15.098929
_cell_length_b 18.809255
_cell_length_c 8.913396
_cell_angle_alpha 90.000000
_cell_angle_beta 90.000000
_cell_angle_gamma 90.000000
_cell_volume 2531.400950
_symmetry_space_group_name_H-M "P M M M"
_symmetry_group_IT_number 47
_symmetry_cell_setting 'orthorhombic'
loop_
_space_group_symop_operation_xyz
x,y,z
-x,-y,z
x,-y,-z
-x,y,-z
-x,-y,-z
x,y,-z
-x,y,z
x,-y,z
loop_
_atom_site_type_symbol
_atom_site_label
_atom_site_fract_x
_atom_site_fract_y
_atom_site_fract_z
Si Si1 0.601997 0.418110 0.326778
Si Si2 0.249331 0.671391 0.824260
Si Si3 0.401809 0.079406 0.678293
Si Si4 0.102833 0.081222 0.172512
Si Si5 0.755703 0.175965 0.677335
Si Si6 0.101348 0.417323 0.671811
O O1 0.625428 0.403833 0.500000
O O2 0.500000 0.399221 0.294883
O O3 0.621069 0.500000 0.286599
O O4 0.661637 0.368664 0.223776
O O5 0.243505 0.746649 0.745698
O O6 0.162916 0.626548 0.782337
O O7 0.251236 0.683267 0.000000
O O8 0.397448 0.078544 0.500000
O O9 0.500000 0.103397 0.731316
O O10 0.329533 0.133915 0.742939
O O11 0.381257 0.000000 0.738951
O O12 0.156102 0.133814 0.279263
O O13 0.000000 0.096535 0.200286
O O14 0.125609 0.000000 0.215152
O O15 0.127747 0.096007 0.000000
O O16 0.751172 0.183004 0.500000
O O17 0.127085 0.400479 0.500000
O O18 0.115735 0.500000 0.705553
O O19 0.000000 0.395538 0.702493
#
# Coordination Sequence:
#
# PCOD8200473 Si02
#       6
#     8   8   8   8   8   8
#     4   9  19  38  63  86 108 140 184 231 276 324
#     4  12  25  37  52  79 116 153 184 221 274 331
#     4   8  15  30  53  80 106 131 166 216 269 316
#     4   9  19  37  59  81 108 143 179 219 275 338
#     4  11  22  35  54  80 109 144 186 228 269 317
#     4   9  19  38  63  86 107 136 178 227 275 325
#
# _framework density 18.961832000000001
#
# number of rings (size 3 to 8) (size 9 to 14) (size 15 to 20)
#    0.000    2.333    0.000    5.000    0.000    6.000 
#    0.000    4.167    0.000    1.500    0.000    5.833 
#    0.000    0.000    0.000    0.000    0.000    0.000 
#
# Total GULP energy -595251.193389 kJ/mol
# GULP energy per Si atom -12401.066529 kJ/mol
# Density = 1.891867 g / cm^3
# Si number density = 18.961832 Si / 1000 Ang^3
#
#
#
# Elastic Constant Matrix: (Units=GPa)
#
#
# Indices 1 2 3 4 5 6 
#
# 1 115.2774 69.2985 45.8781 0.0000 0.0000 0.0000
# 2 69.2985 112.1546 48.9833 0.0000 0.0000 0.0000
# 3 45.8781 48.9833 79.0389 0.0000 0.0000 0.0000
# 4 0.0000 0.0000 0.0000 26.3386 0.0000 0.0000
# 5 0.0000 0.0000 0.0000 0.0000 19.8498 0.0000
# 6 0.0000 0.0000 0.0000 0.0000 0.0000 14.8180
#
#
#
# Elastic Compliance Matrix: (Units=1/GPa)
#
#
# Indices 1 2 3 4 5 6 
#
# 1 0.014656 -0.007322 -0.003969 0.000000 0.000000 0.000000
# 2 -0.007322 0.015883 -0.005593 0.000000 0.000000 0.000000
# 3 -0.003969 -0.005593 0.018422 0.000000 0.000000 0.000000
# 4 0.000000 0.000000 0.000000 0.037967 0.000000 0.000000
# 5 0.000000 0.000000 0.000000 0.000000 0.050378 0.000000
# 6 0.000000 0.000000 0.000000 0.000000 0.000000 0.067485
#
#
# Mechanical properties :
#
#
# Convention : Reuss Voigt Hill
#
# Bulk Modulus (GPa) = 65.82328 70.53230 68.17779
# Shear Modulus (GPa) = 20.52320 21.68868 21.10594
#
# Velocity S-wave (km/s) = 3.29347 3.38569 3.33990
# Velocity P-wave (km/s) = 7.01794 7.24994 7.13488
#
# Compressibility (1/GPa) = 0.01519219
#
# Stress axis : x y z
#
# Youngs Moduli (GPa) = 68.23074 62.95867 54.28180
#
# Poissons Ratio (x) = 0.46100 0.21546
# Poissons Ratio (y) = 0.49960 0.30362
# Poissons Ratio (z) = 0.27083 0.35215
#
# Static dielectric constant tensor:
#      x y z
#    x 3.639510 0.000000 0.000000 
#    y 0.000000 3.488010 0.000000 
#    z 0.000000 0.000000 3.232410 
# 
# 
# High freq. dielectric constant tensor:
#      x y z
#    x 1.751490 0.000000 0.000000 
#    y 0.000000 1.738320 0.000000 
#    z 0.000000 0.000000 1.714920 
# 
# From -- ./inp_files/6324.got.cif
#   From: 2010.03.12/outbox.cif.g09.slc.cpg/sg47_4_cif.got.tgz:6324.got - 2010.04.14 03:12:58.
