data_PCOD8200021
_publ_section_title
;
Structure prediction by ZEFSAII (Michael W. Deem and Ramdas Pophale) SiO2 
 PCOD8200021
Probable space group: P M M M
;
_chemical_formula_sum "Si O2"
_cell_formula_units_Z 56
_cell_length_a 16.040294
_cell_length_b 19.134585
_cell_length_c 9.311949
_cell_angle_alpha 90.000000
_cell_angle_beta 90.000000
_cell_angle_gamma 90.000000
_cell_volume 2858.064071
_symmetry_space_group_name_H-M "P M M M"
_symmetry_group_IT_number 47
_symmetry_cell_setting 'orthorhombic'
loop_
_space_group_symop_operation_xyz
x,y,z
-x,-y,z
x,-y,-z
-x,y,-z
-x,-y,-z
x,y,-z
-x,y,z
x,-y,z
loop_
_atom_site_type_symbol
_atom_site_label
_atom_site_fract_x
_atom_site_fract_y
_atom_site_fract_z
Si Si1 0.402899 0.578951 0.836737
Si Si2 0.098143 0.421307 0.662328
Si Si3 0.906390 0.848911 0.834839
Si Si4 0.755798 0.081959 0.332937
Si Si5 0.169187 0.704606 0.835022
Si Si6 0.671041 0.702824 0.334410
Si Si7 0.590858 0.844582 0.666587
O O1 0.500000 0.583883 0.802946
O O2 0.371384 0.500000 0.811573
O O3 0.354794 0.628352 0.727979
O O4 0.384676 0.602281 0.000000
O O5 0.124141 0.401000 0.500000
O O6 0.128357 0.500000 0.697466
O O7 0.139584 0.369203 0.774003
O O8 0.000000 0.416414 0.680011
O O9 0.838430 0.889451 0.742290
O O10 0.899634 0.765022 0.816951
O O11 0.000000 0.870069 0.785424
O O12 0.891840 0.869994 0.000000
O O13 0.762920 0.102196 0.500000
O O14 0.670249 0.114658 0.265521
O O15 0.751094 0.000000 0.307737
O O16 0.248762 0.731932 0.748052
O O17 0.193445 0.692702 0.000000
O O18 0.693594 0.692149 0.500000
O O19 0.599915 0.761081 0.312869
O O20 0.588822 0.864467 0.500000
O O21 0.500000 0.865553 0.734429
#
# Coordination Sequence:
#
# PCOD8200021 Si02
#       7
#     8   8   8   8   8   8   8
#     4   9  19  36  55  76 107 147 190 238 292 347
#     4   9  19  36  56  79 109 145 186 234 290 349
#     4  10  22  40  61  85 116 155 196 238 288 345
#     4  10  21  38  61  90 122 153 189 234 283 340
#     4  11  22  36  56  81 111 147 193 243 290 343
#     4  11  21  34  55  81 112 148 190 240 292 342
#     4   9  18  34  57  86 119 152 188 232 283 339
#
# _framework density 19.593684
#
# number of rings (size 3 to 8) (size 9 to 14) (size 15 to 20)
#    0.000    2.143    1.429    2.571    0.000    4.571 
#    0.000    4.286    0.000    1.286    0.000    1.000 
#    0.000    0.000    0.000    0.000    0.000    0.000 
#
# Total GULP energy -694261.218611 kJ/mol
# GULP energy per Si atom -12397.521761 kJ/mol
# Density = 1.954909 g / cm^3
# Si number density = 19.593684 Si / 1000 Ang^3
#
#
#
# Elastic Constant Matrix: (Units=GPa)
#
#
# Indices 1 2 3 4 5 6 
#
# 1 142.1570 54.8271 53.4227 0.0000 0.0000 0.0000
# 2 54.8271 85.3480 43.0889 0.0000 0.0000 0.0000
# 3 53.4227 43.0889 91.5934 0.0000 0.0000 0.0000
# 4 0.0000 0.0000 0.0000 26.6573 0.0000 0.0000
# 5 0.0000 0.0000 0.0000 0.0000 27.7546 0.0000
# 6 0.0000 0.0000 0.0000 0.0000 0.0000 26.9919
#
#
#
# Elastic Compliance Matrix: (Units=1/GPa)
#
#
# Indices 1 2 3 4 5 6 
#
# 1 0.010262 -0.004683 -0.003783 0.000000 0.000000 0.000000
# 2 -0.004683 0.017503 -0.005503 0.000000 0.000000 0.000000
# 3 -0.003783 -0.005503 0.015713 0.000000 0.000000 0.000000
# 4 0.000000 0.000000 0.000000 0.037513 0.000000 0.000000
# 5 0.000000 0.000000 0.000000 0.000000 0.036030 0.000000
# 6 0.000000 0.000000 0.000000 0.000000 0.000000 0.037048
#
#
# Mechanical properties :
#
#
# Convention : Reuss Voigt Hill
#
# Bulk Modulus (GPa) = 64.34291 69.08622 66.71456
# Shear Modulus (GPa) = 26.71146 27.46475 27.08810
#
# Velocity S-wave (km/s) = 3.69625 3.74801 3.72222
# Velocity P-wave (km/s) = 7.15026 7.35296 7.25232
#
# Compressibility (1/GPa) = 0.01554173
#
# Stress axis : x y z
#
# Youngs Moduli (GPa) = 97.44772 57.13310 63.64243
#
# Poissons Ratio (x) = 0.26753 0.24073
# Poissons Ratio (y) = 0.45630 0.35022
# Poissons Ratio (z) = 0.36860 0.31440
#
# Static dielectric constant tensor:
#      x y z
#    x 3.734290 0.000000 0.000000 
#    y 0.000000 3.614330 0.000000 
#    z 0.000000 0.000000 3.415900 
# 
# 
# High freq. dielectric constant tensor:
#      x y z
#    x 1.770530 0.000000 0.000000 
#    y 0.000000 1.764640 0.000000 
#    z 0.000000 0.000000 1.743480 
# 
# From -- ./inp_files/7189.got.cif
#   From: 2010.03.12/outbox.cif.g09.slc.cpg/sg47_4_cif.got.tgz:7189.got - 2010.04.14 03:12:58.
