data_PCOD8200539
_publ_section_title
;
Structure prediction by ZEFSAII (Michael W. Deem and Ramdas Pophale) SiO2 
 PCOD8200539
Probable space group: P M M M
;
_chemical_formula_sum "Si O2"
_cell_formula_units_Z 36
_cell_length_a 19.970282
_cell_length_b 12.549212
_cell_length_c 8.855920
_cell_angle_alpha 90.000000
_cell_angle_beta 90.000000
_cell_angle_gamma 90.000000
_cell_volume 2219.393646
_symmetry_space_group_name_H-M "P M M M"
_symmetry_group_IT_number 47
_symmetry_cell_setting 'orthorhombic'
loop_
_space_group_symop_operation_xyz
x,y,z
-x,-y,z
x,-y,-z
-x,y,-z
-x,-y,-z
x,y,-z
-x,y,z
x,-y,z
loop_
_atom_site_type_symbol
_atom_site_label
_atom_site_fract_x
_atom_site_fract_y
_atom_site_fract_z
Si Si1 0.215497 0.373218 0.674953
Si Si2 0.653456 0.693818 0.823603
Si Si3 0.070791 0.380539 0.679174
Si Si4 0.423747 0.500000 0.321488
Si Si5 0.576943 0.876846 0.673971
O O1 0.228328 0.345347 0.500000
O O2 0.221031 0.500000 0.699764
O O3 0.269063 0.311862 0.776334
O O4 0.141849 0.329643 0.730640
O O5 0.611637 0.605053 0.737329
O O6 0.624985 0.809289 0.781428
O O7 0.646715 0.673839 0.000000
O O8 0.073399 0.385318 0.500000
O O9 0.068344 0.500000 0.743542
O O10 0.000000 0.322908 0.730395
O O11 0.500000 0.500000 0.265202
O O12 0.418564 0.500000 0.500000
O O13 0.591808 0.848834 0.500000
O O14 0.500000 0.849919 0.712049
O O15 0.592060 0.000000 0.706511
#
# Coordination Sequence:
#
# PCOD8200539 Si02
#       5
#     8   8   8   4   8
#     4   9  16  27  44  63  89 127 162 190 225 271
#     4  12  23  32  46  70  99 126 152 189 234 279
#     4   7  10  18  35  60  85 111 151 197 229 256
#     4  11  23  37  51  65  86 121 162 197 229 274
#     4   9  19  37  58  74  88 113 152 195 237 282
#
# _framework density 16.220645999999999
#
# number of rings (size 3 to 8) (size 9 to 14) (size 15 to 20)
#    0.000    2.556    1.111    5.667    0.000    4.444 
#    0.000    1.111    0.000    0.667    0.000    3.111 
#    0.000    0.889    0.000   10.222    0.000    3.333 
#
# Total GULP energy -446026.170958 kJ/mol
# GULP energy per Si atom -12389.615860 kJ/mol
# Density = 1.618373 g / cm^3
# Si number density = 16.220646 Si / 1000 Ang^3
#
#
#
# Elastic Constant Matrix: (Units=GPa)
#
#
# Indices 1 2 3 4 5 6 
#
# 1 152.2315 38.1857 32.6578 0.0000 0.0000 0.0000
# 2 38.1857 47.8779 14.3692 0.0000 0.0000 0.0000
# 3 32.6578 14.3692 38.0787 0.0000 0.0000 0.0000
# 4 0.0000 0.0000 0.0000 8.3999 0.0000 0.0000
# 5 0.0000 0.0000 0.0000 0.0000 -0.3878 0.0000
# 6 0.0000 0.0000 0.0000 0.0000 0.0000 8.1607
#
#
#
# Elastic Compliance Matrix: (Units=1/GPa)
#
#
# Indices 1 2 3 4 5 6 
#
# 1 0.009219 -0.005616 -0.005788 0.000000 0.000000 0.000000
# 2 -0.005616 0.026975 -0.005363 0.000000 0.000000 0.000000
# 3 -0.005788 -0.005363 0.033249 0.000000 0.000000 0.000000
# 4 0.000000 0.000000 0.000000 0.119048 0.000000 0.000000
# 5 0.000000 0.000000 0.000000 0.000000 -2.578407 0.000000
# 6 0.000000 0.000000 0.000000 0.000000 0.000000 0.122539
#
#
# Mechanical properties :
#
#
# Convention : Reuss Voigt Hill
#
# Bulk Modulus (GPa) = 27.84700 45.40150 36.62425
# Shear Modulus (GPa) = -2.25035 13.43292 5.59128
#
# Velocity S-wave (km/s) = -1.17913 2.88086 1.85863
# Velocity P-wave (km/s) = 3.91805 6.25432 5.21860
#
# Compressibility (1/GPa) = 0.03591051
#
# Stress axis : x y z
#
# Youngs Moduli (GPa) = 108.46875 37.07136 30.07635
#
# Poissons Ratio (x) = 0.20819 0.17407
# Poissons Ratio (y) = 0.60916 0.16129
# Poissons Ratio (z) = 0.62777 0.19880
#
# Static dielectric constant tensor:
#      x y z
#    x 3.680990 0.000000 0.000000 
#    y 0.000000 2.769400 0.000000 
#    z 0.000000 0.000000 2.826720 
# 
# 
# High freq. dielectric constant tensor:
#      x y z
#    x 1.645590 0.000000 0.000000 
#    y 0.000000 1.571000 0.000000 
#    z 0.000000 0.000000 1.602570 
# 
# From -- ./inp_files/3941.got.cif
#   From: 2010.03.12/outbox.cif.g09.slc.cpg/sg47_2_cif.got.tgz:3941.got - 2010.04.14 03:12:58.
