data_PCOD8200689
_publ_section_title
;
Structure prediction by ZEFSAII (Michael W. Deem and Ramdas Pophale) SiO2 
 PCOD8200689
Probable space group: P M M M
;
_chemical_formula_sum "Si O2"
_cell_formula_units_Z 52
_cell_length_a 9.738058
_cell_length_b 33.694250
_cell_length_c 9.419990
_cell_angle_alpha 90.000000
_cell_angle_beta 90.000000
_cell_angle_gamma 90.000000
_cell_volume 3090.854721
_symmetry_space_group_name_H-M "P M M M"
_symmetry_group_IT_number 47
_symmetry_cell_setting 'orthorhombic'
loop_
_space_group_symop_operation_xyz
x,y,z
-x,-y,z
x,-y,-z
-x,y,-z
-x,-y,-z
x,y,-z
-x,y,z
x,-y,z
loop_
_atom_site_type_symbol
_atom_site_label
_atom_site_fract_x
_atom_site_fract_y
_atom_site_fract_z
Si Si1 0.659016 0.734285 0.335142
Si Si2 0.345848 0.043858 0.168674
Si Si3 0.663364 0.658410 0.840045
Si Si4 0.650253 0.500000 0.668383
Si Si5 0.841519 0.114356 0.165656
Si Si6 0.335381 0.414827 0.340085
Si Si7 0.158048 0.808382 0.335361
O O1 0.681741 0.724106 0.500000
O O2 0.500000 0.743731 0.303241
O O3 0.713299 0.697047 0.244985
O O4 0.748176 0.771818 0.286805
O O5 0.500000 0.053786 0.220224
O O6 0.243149 0.077158 0.228625
O O7 0.302305 0.000000 0.224316
O O8 0.339502 0.043837 0.000000
O O9 0.500000 0.656783 0.838805
O O10 0.722745 0.619048 0.763988
O O11 0.720938 0.660194 0.000000
O O12 0.500000 0.500000 0.740226
O O13 0.633316 0.500000 0.500000
O O14 0.723954 0.458224 0.710922
O O15 0.793038 0.153656 0.246673
O O16 0.000000 0.105079 0.195695
O O17 0.812177 0.121084 0.000000
O O18 0.285999 0.404997 0.500000
O O19 0.500000 0.416456 0.336722
O O20 0.180232 0.818247 0.500000
O O21 0.000000 0.797697 0.302425
#
# Coordination Sequence:
#
# PCOD8200689 Si02
#       7
#     8   8   8   4   8   8   8
#     4   9  17  29  44  60  77 101 135 168 197 237
#     4   8  14  25  41  62  88 115 141 170 204 239
#     4   9  16  24  34  51  75 100 127 163 206 245
#     4   7  10  16  27  43  61  87 128 169 198 231
#     4   9  17  28  43  64  86 107 135 170 204 239
#     4   8  12  19  31  45  64  94 131 167 201 239
#     4   9  18  32  47  62  83 110 136 165 205 248
#
# _framework density 16.823826
#
# number of rings (size 3 to 8) (size 9 to 14) (size 15 to 20)
#    0.000    3.462    0.000    1.846    0.000    3.385 
#    0.000    1.923    0.000    2.769    0.000    3.231 
#    0.000    0.000    0.000    0.692    0.000   16.615 
#
# Total GULP energy -644414.903181 kJ/mol
# GULP energy per Si atom -12392.594292 kJ/mol
# Density = 1.678553 g / cm^3
# Si number density = 16.823826 Si / 1000 Ang^3
#
#
#
# Elastic Constant Matrix: (Units=GPa)
#
#
# Indices 1 2 3 4 5 6 
#
# 1 40.5913 61.5666 24.8227 0.0000 0.0000 0.0000
# 2 61.5666 196.6214 71.3208 0.0000 0.0000 0.0000
# 3 24.8227 71.3208 64.4092 0.0000 0.0000 0.0000
# 4 0.0000 0.0000 0.0000 26.4039 0.0000 0.0000
# 5 0.0000 0.0000 0.0000 0.0000 10.1259 0.0000
# 6 0.0000 0.0000 0.0000 0.0000 0.0000 3.8774
#
#
#
# Elastic Compliance Matrix: (Units=1/GPa)
#
#
# Indices 1 2 3 4 5 6 
#
# 1 0.047276 -0.013695 -0.003055 0.000000 0.000000 0.000000
# 2 -0.013695 0.012467 -0.008527 0.000000 0.000000 0.000000
# 3 -0.003055 -0.008527 0.026145 0.000000 0.000000 0.000000
# 4 0.000000 0.000000 0.000000 0.037873 0.000000 0.000000
# 5 0.000000 0.000000 0.000000 0.000000 0.098756 0.000000
# 6 0.000000 0.000000 0.000000 0.000000 0.000000 0.257903
#
#
# Mechanical properties :
#
#
# Convention : Reuss Voigt Hill
#
# Bulk Modulus (GPa) = 28.30143 68.56023 48.43083
# Shear Modulus (GPa) = 9.21228 17.67557 13.44393
#
# Velocity S-wave (km/s) = 2.34257 3.24485 2.82990
# Velocity P-wave (km/s) = 4.91687 7.40804 6.28708
#
# Compressibility (1/GPa) = 0.03533390
#
# Stress axis : x y z
#
# Youngs Moduli (GPa) = 21.15245 80.21088 38.24787
#
# Poissons Ratio (x) = 1.09848 0.11685
# Poissons Ratio (y) = 0.28968 0.32614
# Poissons Ratio (z) = 0.06462 0.68396
#
# Static dielectric constant tensor:
#      x y z
#    x 2.787220 0.000000 0.000000 
#    y 0.000000 3.549350 0.000000 
#    z 0.000000 0.000000 2.985530 
# 
# 
# High freq. dielectric constant tensor:
#      x y z
#    x 1.596980 0.000000 0.000000 
#    y 0.000000 1.666850 0.000000 
#    z 0.000000 0.000000 1.622120 
# 
# From -- ./inp_files/4787.got.cif
#   From: 2010.03.12/outbox.cif.g09.slc.cpg/sg47_3_cif.got.tgz:4787.got - 2010.04.14 03:12:58.
