data_PCOD8200935
_publ_section_title
;
Structure prediction by ZEFSAII (Michael W. Deem and Ramdas Pophale) SiO2 
 PCOD8200935
Probable space group: P M M M
;
_chemical_formula_sum "Si O2"
_cell_formula_units_Z 52
_cell_length_a 9.523897
_cell_length_b 13.676360
_cell_length_c 26.828386
_cell_angle_alpha 90.000000
_cell_angle_beta 90.000000
_cell_angle_gamma 90.000000
_cell_volume 3494.457479
_symmetry_space_group_name_H-M "P M M M"
_symmetry_group_IT_number 47
_symmetry_cell_setting 'orthorhombic'
loop_
_space_group_symop_operation_xyz
x,y,z
-x,-y,z
x,-y,-z
-x,y,-z
-x,-y,-z
x,y,-z
-x,y,z
x,-y,z
loop_
_atom_site_type_symbol
_atom_site_label
_atom_site_fract_x
_atom_site_fract_y
_atom_site_fract_z
Si Si1 0.841515 0.383260 0.000000
Si Si2 0.836424 0.204216 0.556570
Si Si3 0.657167 0.616428 0.909107
Si Si4 0.661968 0.890268 0.359668
Si Si5 0.664699 0.295604 0.299587
Si Si6 0.666582 0.391122 0.199956
Si Si7 0.160283 0.609432 0.617381
O O1 0.761878 0.342335 0.951141
O O2 0.841086 0.500000 0.000000
O O3 0.000000 0.342583 0.000000
O O4 0.784946 0.191388 0.500000
O O5 0.752025 0.129071 0.590940
O O6 0.804365 0.315662 0.572889
O O7 0.000000 0.179213 0.561814
O O8 0.500000 0.657974 0.918758
O O9 0.651112 0.500000 0.911193
O O10 0.715867 0.647964 0.854422
O O11 0.500000 0.876199 0.374519
O O12 0.703491 0.815608 0.315194
O O13 0.692053 0.000000 0.340454
O O14 0.500000 0.315879 0.304697
O O15 0.716358 0.316079 0.243056
O O16 0.741556 0.371773 0.335395
O O17 0.500000 0.398204 0.198309
O O18 0.727683 0.500000 0.210743
O O19 0.187373 0.500000 0.597209
O O20 0.000000 0.623076 0.635066
#
# Coordination Sequence:
#
# PCOD8200935 Si02
#       7
#     4   8   8   8   8   8   8
#     4   9  15  21  29  43  65  93 126 159 184 208
#     4   9  18  31  45  61  79  99 126 157 186 221
#     4   8  13  21  32  45  63  90 123 155 184 212
#     4   9  18  31  45  61  80 101 124 152 191 235
#     4   9  16  27  43  59  76 100 129 159 188 223
#     4   8  13  21  35  55  74  93 123 159 187 213
#     4   9  17  28  41  58  80 103 125 151 186 226
#
# _framework density 14.880706999999999
#
# number of rings (size 3 to 8) (size 9 to 14) (size 15 to 20)
#    0.000    3.308    0.000    1.615    0.000    3.077 
#    0.000    3.846    0.000    2.769    0.000    4.308 
#    0.000    0.000    0.000    0.692    0.000   18.846 
#
# Total GULP energy -644483.827448 kJ/mol
# GULP energy per Si atom -12393.919759 kJ/mol
# Density = 1.484684 g / cm^3
# Si number density = 14.880707 Si / 1000 Ang^3
#
#
#
# Elastic Constant Matrix: (Units=GPa)
#
#
# Indices 1 2 3 4 5 6 
#
# 1 45.7741 20.4618 42.2554 0.0000 0.0000 0.0000
# 2 20.4618 65.3148 38.4327 0.0000 0.0000 0.0000
# 3 42.2554 38.4327 134.3560 0.0000 0.0000 0.0000
# 4 0.0000 0.0000 0.0000 11.8906 0.0000 0.0000
# 5 0.0000 0.0000 0.0000 0.0000 13.0085 0.0000
# 6 0.0000 0.0000 0.0000 0.0000 0.0000 14.0345
#
#
#
# Elastic Compliance Matrix: (Units=1/GPa)
#
#
# Indices 1 2 3 4 5 6 
#
# 1 0.032058 -0.004942 -0.008669 0.000000 0.000000 0.000000
# 2 -0.004942 0.019171 -0.003930 0.000000 0.000000 0.000000
# 3 -0.008669 -0.003930 0.011293 0.000000 0.000000 0.000000
# 4 0.000000 0.000000 0.000000 0.084100 0.000000 0.000000
# 5 0.000000 0.000000 0.000000 0.000000 0.076873 0.000000
# 6 0.000000 0.000000 0.000000 0.000000 0.000000 0.071253
#
#
# Mechanical properties :
#
#
# Convention : Reuss Voigt Hill
#
# Bulk Modulus (GPa) = 36.44132 49.74942 43.09537
# Shear Modulus (GPa) = 14.75030 17.40638 16.07834
#
# Velocity S-wave (km/s) = 3.15181 3.42384 3.29064
# Velocity P-wave (km/s) = 6.14714 7.00963 6.59251
#
# Compressibility (1/GPa) = 0.02744138
#
# Stress axis : x y z
#
# Youngs Moduli (GPa) = 31.19353 52.16203 88.54845
#
# Poissons Ratio (x) = 0.25780 0.76759
# Poissons Ratio (y) = 0.15417 0.34795
# Poissons Ratio (z) = 0.27040 0.20497
#
# Static dielectric constant tensor:
#      x y z
#    x 2.839720 0.000000 0.000000 
#    y 0.000000 2.673240 0.000000 
#    z 0.000000 0.000000 3.139400 
# 
# 
# High freq. dielectric constant tensor:
#      x y z
#    x 1.558760 0.000000 0.000000 
#    y 0.000000 1.528930 0.000000 
#    z 0.000000 0.000000 1.568000 
# 
# From -- ./inp_files/8020.got.cif
#   From: 2010.03.12/outbox.cif.g09.slc.cpg/sg47_5_cif.got.tgz:8020.got - 2010.04.14 03:12:58.
