data_PCOD8200747
_publ_section_title
;
Structure prediction by ZEFSAII (Michael W. Deem and Ramdas Pophale) SiO2 
 PCOD8200747
Probable space group: P M M M
;
_chemical_formula_sum "Si O2"
_cell_formula_units_Z 64
_cell_length_a 15.478832
_cell_length_b 30.412631
_cell_length_c 9.281445
_cell_angle_alpha 90.000000
_cell_angle_beta 90.000000
_cell_angle_gamma 90.000000
_cell_volume 4369.258852
_symmetry_space_group_name_H-M "P M M M"
_symmetry_group_IT_number 47
_symmetry_cell_setting 'orthorhombic'
loop_
_space_group_symop_operation_xyz
x,y,z
-x,-y,z
x,-y,-z
-x,y,-z
-x,-y,-z
x,y,-z
-x,y,z
x,-y,z
loop_
_atom_site_type_symbol
_atom_site_label
_atom_site_fract_x
_atom_site_fract_y
_atom_site_fract_z
Si Si1 0.400871 0.119457 0.332242
Si Si2 0.258821 0.950046 0.331554
Si Si3 0.397151 0.288724 0.662980
Si Si4 0.908844 0.552158 0.839265
Si Si5 0.723921 0.549185 0.172223
Si Si6 0.905302 0.947769 0.837267
Si Si7 0.397315 0.794646 0.162653
Si Si8 0.600051 0.625648 0.831952
O O1 0.390885 0.131361 0.500000
O O2 0.500000 0.107521 0.295358
O O3 0.342794 0.077894 0.287570
O O4 0.367466 0.160937 0.241359
O O5 0.241993 0.948278 0.500000
O O6 0.172938 0.929262 0.259253
O O7 0.275907 0.000000 0.279476
O O8 0.361108 0.288143 0.500000
O O9 0.500000 0.286859 0.662506
O O10 0.359626 0.246848 0.749344
O O11 0.365451 0.332667 0.743044
O O12 0.905612 0.500000 0.848576
O O13 0.817673 0.566223 0.765586
O O14 0.000000 0.566711 0.760526
O O15 0.911997 0.571918 0.000000
O O16 0.701566 0.500000 0.229305
O O17 0.650671 0.582750 0.224546
O O18 0.729146 0.548103 0.000000
O O19 0.000000 0.930975 0.783017
O O20 0.904544 0.000000 0.829259
O O21 0.890119 0.931613 0.000000
O O22 0.500000 0.792010 0.160520
O O23 0.360522 0.793927 0.000000
O O24 0.500000 0.616444 0.801247
O O25 0.616800 0.635106 0.000000
#
# Coordination Sequence:
#
# PCOD8200747 Si02
#       8
#     8   8   8   8   8   8   8   8
#     4   9  17  28  40  55  79 110 139 164 191 226
#     4   9  17  27  39  57  80 107 139 170 195 221
#     4   9  16  26  40  55  71  93 121 153 190 229
#     4   7   9  14  25  41  62  88 116 147 184 219
#     4   8  13  20  30  46  69  97 127 155 181 211
#     4   8  14  25  40  56  74  98 128 163 205 246
#     4   9  16  26  41  59  76  94 121 159 199 234
#     4   9  16  24  34  50  73  99 125 152 180 212
#
# _framework density 14.647793
#
# number of rings (size 3 to 8) (size 9 to 14) (size 15 to 20)
#    0.000    3.500    0.000    2.250    0.000    4.250 
#    0.000    3.750    0.000    0.375    0.000    5.250 
#    0.000    1.500    0.000    8.375    0.000    5.375 
#
# Total GULP energy -792854.096644 kJ/mol
# GULP energy per Si atom -12388.345260 kJ/mol
# Density = 1.461445 g / cm^3
# Si number density = 14.647793 Si / 1000 Ang^3
#
#
#
# Elastic Constant Matrix: (Units=GPa)
#
#
# Indices 1 2 3 4 5 6 
#
# 1 84.1835 52.6527 33.3920 0.0000 0.0000 0.0000
# 2 52.6527 91.0064 41.5967 0.0000 0.0000 0.0000
# 3 33.3920 41.5967 55.1519 0.0000 0.0000 0.0000
# 4 0.0000 0.0000 0.0000 15.8245 0.0000 0.0000
# 5 0.0000 0.0000 0.0000 0.0000 12.5316 0.0000
# 6 0.0000 0.0000 0.0000 0.0000 0.0000 1.7762
#
#
#
# Elastic Compliance Matrix: (Units=1/GPa)
#
#
# Indices 1 2 3 4 5 6 
#
# 1 0.019488 -0.008976 -0.005029 0.000000 0.000000 0.000000
# 2 -0.008976 0.020904 -0.010331 0.000000 0.000000 0.000000
# 3 -0.005029 -0.010331 0.028968 0.000000 0.000000 0.000000
# 4 0.000000 0.000000 0.000000 0.063193 0.000000 0.000000
# 5 0.000000 0.000000 0.000000 0.000000 0.079798 0.000000
# 6 0.000000 0.000000 0.000000 0.000000 0.000000 0.562989
#
#
# Mechanical properties :
#
#
# Convention : Reuss Voigt Hill
#
# Bulk Modulus (GPa) = 48.33911 53.95828 51.14870
# Shear Modulus (GPa) = 6.01751 12.87316 9.44534
#
# Velocity S-wave (km/s) = 2.02905 2.96775 2.54211
# Velocity P-wave (km/s) = 6.20983 6.97571 6.60388
#
# Compressibility (1/GPa) = 0.02068718
#
# Stress axis : x y z
#
# Youngs Moduli (GPa) = 51.31422 47.83838 34.52026
#
# Poissons Ratio (x) = 0.42941 0.17360
# Poissons Ratio (y) = 0.46061 0.35664
# Poissons Ratio (z) = 0.25805 0.49423
#
# Static dielectric constant tensor:
#      x y z
#    x 3.026740 0.000000 0.000000 
#    y 0.000000 2.745690 0.000000 
#    z 0.000000 0.000000 2.733440 
# 
# 
# High freq. dielectric constant tensor:
#      x y z
#    x 1.539580 0.000000 0.000000 
#    y 0.000000 1.533130 0.000000 
#    z 0.000000 0.000000 1.539630 
# 
# From -- ./inp_files/8228.got.cif
#   From: 2010.03.12/outbox.cif.g09.slc.cpg/sg47_5_cif.got.tgz:8228.got - 2010.04.14 03:12:58.
