data_PCOD8200630
_publ_section_title
;
Structure prediction by ZEFSAII (Michael W. Deem and Ramdas Pophale) SiO2 
 PCOD8200630
Probable space group: P M M M
;
_chemical_formula_sum "Si O2"
_cell_formula_units_Z 48
_cell_length_a 8.882539
_cell_length_b 9.027992
_cell_length_c 31.038376
_cell_angle_alpha 90.000000
_cell_angle_beta 90.000000
_cell_angle_gamma 90.000000
_cell_volume 2489.013651
_symmetry_space_group_name_H-M "P M M M"
_symmetry_group_IT_number 47
_symmetry_cell_setting 'orthorhombic'
loop_
_space_group_symop_operation_xyz
x,y,z
-x,-y,z
x,-y,-z
-x,y,-z
-x,-y,-z
x,y,-z
-x,y,z
x,-y,z
loop_
_atom_site_type_symbol
_atom_site_label
_atom_site_fract_x
_atom_site_fract_y
_atom_site_fract_z
Si Si1 0.331739 0.824240 0.454434
Si Si2 0.679728 0.831841 0.361736
Si Si3 0.673283 0.170945 0.950426
Si Si4 0.326310 0.173421 0.204155
Si Si5 0.173347 0.673473 0.125271
Si Si6 0.175425 0.670527 0.716598
O O1 0.249836 0.775082 0.500000
O O2 0.500000 0.759005 0.456054
O O3 0.256626 0.775827 0.408828
O O4 0.340278 0.000000 0.452729
O O5 0.500000 0.826051 0.362036
O O6 0.741469 0.721169 0.326368
O O7 0.733327 0.000000 0.351710
O O8 0.500000 0.210218 0.940709
O O9 0.781339 0.273546 0.922251
O O10 0.704231 0.000000 0.939197
O O11 0.711924 0.203272 0.000000
O O12 0.500000 0.210303 0.213239
O O13 0.278133 0.245339 0.159453
O O14 0.228004 0.235757 0.242833
O O15 0.297585 0.000000 0.200735
O O16 0.201540 0.500000 0.129158
O O17 0.000000 0.713650 0.134132
O O18 0.214432 0.500000 0.725486
O O19 0.000000 0.696570 0.709876
#
# Coordination Sequence:
#
# PCOD8200630 Si02
#       6
#     8   8   8   8   8   8
#     4   7  10  19  39  69 102 131 161 205 259 307
#     4   9  17  30  51  79 106 133 171 216 261 313
#     4   9  19  37  60  85 113 147 190 236 276 316
#     4  11  24  41  62  86 108 133 172 220 267 318
#     4  11  24  39  56  83 118 151 183 220 264 317
#     4  11  24  39  54  75 105 140 177 215 258 312
#
# _framework density 19.284746999999999
#
# number of rings (size 3 to 8) (size 9 to 14) (size 15 to 20)
#    0.000    2.333    0.000    5.000    0.000   11.333 
#    0.000    2.500    0.000    1.000    0.000    5.833 
#    0.000    0.000    0.000    0.000    0.000    0.000 
#
# Total GULP energy -594935.915050 kJ/mol
# GULP energy per Si atom -12394.498230 kJ/mol
# Density = 1.924085 g / cm^3
# Si number density = 19.284747 Si / 1000 Ang^3
#
#
#
# Elastic Constant Matrix: (Units=GPa)
#
#
# Indices 1 2 3 4 5 6 
#
# 1 36.8483 35.7313 22.8359 0.0000 0.0000 0.0000
# 2 35.7313 64.9671 36.7723 0.0000 0.0000 0.0000
# 3 22.8359 36.7723 124.4551 0.0000 0.0000 0.0000
# 4 0.0000 0.0000 0.0000 -13.6767 0.0000 0.0000
# 5 0.0000 0.0000 0.0000 0.0000 -13.1883 0.0000
# 6 0.0000 0.0000 0.0000 0.0000 0.0000 24.0475
#
#
#
# Elastic Compliance Matrix: (Units=1/GPa)
#
#
# Indices 1 2 3 4 5 6 
#
# 1 0.058375 -0.031273 -0.001471 0.000000 0.000000 0.000000
# 2 -0.031273 0.035237 -0.004673 0.000000 0.000000 0.000000
# 3 -0.001471 -0.004673 0.009686 0.000000 0.000000 0.000000
# 4 0.000000 0.000000 0.000000 -0.073117 0.000000 0.000000
# 5 0.000000 0.000000 0.000000 0.000000 -0.075825 0.000000
# 6 0.000000 0.000000 0.000000 0.000000 0.000000 0.041584
#
#
# Mechanical properties :
#
#
# Convention : Reuss Voigt Hill
#
# Bulk Modulus (GPa) = 35.13266 46.32773 40.73020
# Shear Modulus (GPa) = 62.29469 8.16522 35.22996
#
# Velocity S-wave (km/s) = 5.68970 2.05991 4.27878
# Velocity P-wave (km/s) = 7.83715 5.45278 6.75107
#
# Compressibility (1/GPa) = 0.02846354
#
# Stress axis : x y z
#
# Youngs Moduli (GPa) = 17.13061 28.37886 103.24494
#
# Poissons Ratio (x) = 0.88750 0.15186
# Poissons Ratio (y) = 0.53573 0.48249
# Poissons Ratio (z) = 0.02520 0.13262
#
# Static dielectric constant tensor:
#      x y z
#    x 3.330900 0.000000 0.000000 
#    y 0.000000 3.365780 0.000000 
#    z 0.000000 0.000000 3.973150 
# 
# 
# High freq. dielectric constant tensor:
#      x y z
#    x 1.726870 0.000000 0.000000 
#    y 0.000000 1.731850 0.000000 
#    z 0.000000 0.000000 1.778210 
# 
# From -- ./inp_files/2500.got.cif
#   From: 2010.03.12/outbox.cif.g09.slc.cpg/sg47_2_cif.got.tgz:2500.got - 2010.04.14 03:12:58.
