data_PCOD8200993
_publ_section_title
;
Structure prediction by ZEFSAII (Michael W. Deem and Ramdas Pophale) SiO2 
 PCOD8200993
Probable space group: P M M M
;
_chemical_formula_sum "Si O2"
_cell_formula_units_Z 56
_cell_length_a 9.172427
_cell_length_b 18.007060
_cell_length_c 28.287687
_cell_angle_alpha 90.000000
_cell_angle_beta 90.000000
_cell_angle_gamma 90.000000
_cell_volume 4672.233227
_symmetry_space_group_name_H-M "P M M M"
_symmetry_group_IT_number 47
_symmetry_cell_setting 'orthorhombic'
loop_
_space_group_symop_operation_xyz
x,y,z
-x,-y,z
x,-y,-z
-x,y,-z
-x,-y,-z
x,y,-z
-x,y,z
x,-y,z
loop_
_atom_site_type_symbol
_atom_site_label
_atom_site_fract_x
_atom_site_fract_y
_atom_site_fract_z
Si Si1 0.835412 0.643379 0.056213
Si Si2 0.334880 0.500000 0.943581
Si Si3 0.670983 0.209941 0.054586
Si Si4 0.664792 0.911495 0.591611
Si Si5 0.165011 0.088528 0.500000
Si Si6 0.662023 0.911850 0.227810
Si Si7 0.163841 0.088603 0.317077
Si Si8 0.326470 0.082414 0.123670
O O1 0.748178 0.572460 0.076172
O O2 0.755056 0.717784 0.073396
O O3 0.000000 0.642112 0.076093
O O4 0.836194 0.640406 0.000000
O O5 0.500000 0.500000 0.924261
O O6 0.335099 0.500000 0.000000
O O7 0.500000 0.223810 0.062342
O O8 0.729997 0.139860 0.084363
O O9 0.706334 0.193310 0.000000
O O10 0.500000 0.880807 0.590211
O O11 0.751851 0.881098 0.546194
O O12 0.743230 0.881307 0.638698
O O13 0.664148 0.000000 0.591384
O O14 0.000000 0.119122 0.500000
O O15 0.164152 0.000000 0.500000
O O16 0.500000 0.878401 0.235248
O O17 0.766889 0.879862 0.268564
O O18 0.724721 0.890758 0.175892
O O19 0.652730 0.000000 0.231542
O O20 0.000000 0.119356 0.321363
O O21 0.163982 0.000000 0.316861
O O22 0.500000 0.078611 0.123572
O O23 0.264121 0.000000 0.112054
#
# Coordination Sequence:
#
# PCOD8200993 Si02
#       8
#     8   4   8   8   4   8   8   8
#     4   9  16  25  36  50  69  90 107 122 144 175
#     4   9  15  23  37  55  71  85 103 125 145 167
#     4   9  16  25  37  52  68  85 106 131 156 183
#     4   9  15  21  28  37  49  66  86 104 125 158
#     4   9  15  21  27  35  49  67  85 105 127 151
#     4   8  13  22  34  44  54  69  89 114 146 183
#     4   9  15  21  29  41  54  65  80 106 139 171
#     4   8  14  24  37  51  64  79 102 132 163 192
#
# _framework density 11.985703000000001
#
# number of rings (size 3 to 8) (size 9 to 14) (size 15 to 20)
#    0.000    3.286    0.000    2.571    0.000    7.143 
#    0.000    2.143    0.000    1.286    0.000    2.000 
#    0.000    0.000    0.000    0.000    0.000    0.000 
#
# Total GULP energy -694093.792119 kJ/mol
# GULP energy per Si atom -12394.532002 kJ/mol
# Density = 1.195842 g / cm^3
# Si number density = 11.985703 Si / 1000 Ang^3
#
#
#
# Elastic Constant Matrix: (Units=GPa)
#
#
# Indices 1 2 3 4 5 6 
#
# 1 86.6001 29.2145 41.2294 0.0000 0.0000 0.0000
# 2 29.2145 50.8311 32.6845 0.0000 0.0000 0.0000
# 3 41.2294 32.6845 77.1576 0.0000 0.0000 0.0000
# 4 0.0000 0.0000 0.0000 0.3805 0.0000 0.0000
# 5 0.0000 0.0000 0.0000 0.0000 11.4519 0.0000
# 6 0.0000 0.0000 0.0000 0.0000 0.0000 7.2683
#
#
#
# Elastic Compliance Matrix: (Units=1/GPa)
#
#
# Indices 1 2 3 4 5 6 
#
# 1 0.016437 -0.005222 -0.006571 0.000000 0.000000 0.000000
# 2 -0.005222 0.028696 -0.009366 0.000000 0.000000 0.000000
# 3 -0.006571 -0.009366 0.020439 0.000000 0.000000 0.000000
# 4 0.000000 0.000000 0.000000 2.627803 0.000000 0.000000
# 5 0.000000 0.000000 0.000000 0.000000 0.087322 0.000000
# 6 0.000000 0.000000 0.000000 0.000000 0.000000 0.137583
#
#
# Mechanical properties :
#
#
# Convention : Reuss Voigt Hill
#
# Bulk Modulus (GPa) = 43.00096 46.76064 44.88080
# Shear Modulus (GPa) = 1.68444 11.25085 6.46764
#
# Velocity S-wave (km/s) = 1.18677 3.06713 2.32548
# Velocity P-wave (km/s) = 6.15083 7.18620 6.68857
#
# Compressibility (1/GPa) = 0.02325529
#
# Stress axis : x y z
#
# Youngs Moduli (GPa) = 60.83651 34.84771 48.92523
#
# Poissons Ratio (x) = 0.18197 0.32151
# Poissons Ratio (y) = 0.31767 0.45822
# Poissons Ratio (z) = 0.39978 0.32637
#
# Static dielectric constant tensor:
#      x y z
#    x 2.593510 0.000000 0.000000 
#    y 0.000000 2.159780 0.000000 
#    z 0.000000 0.000000 2.517140 
# 
# 
# High freq. dielectric constant tensor:
#      x y z
#    x 1.460090 0.000000 0.000000 
#    y 0.000000 1.389660 0.000000 
#    z 0.000000 0.000000 1.439130 
# 
# From -- ./inp_files/34395.got.cif
#   From: 2010.03.12/outbox.cif.g09.slc.cpg/sg47_18_cif.got.tgz:34395.got - 2010.04.14 03:12:58.
