data_PCOD8200486
_publ_section_title
;
Structure prediction by ZEFSAII (Michael W. Deem and Ramdas Pophale) SiO2 
 PCOD8200486
Probable space group: P M M M
;
_chemical_formula_sum "Si O2"
_cell_formula_units_Z 36
_cell_length_a 9.005712
_cell_length_b 20.623243
_cell_length_c 11.501596
_cell_angle_alpha 90.000000
_cell_angle_beta 90.000000
_cell_angle_gamma 90.000000
_cell_volume 2136.156770
_symmetry_space_group_name_H-M "P M M M"
_symmetry_group_IT_number 47
_symmetry_cell_setting 'orthorhombic'
loop_
_space_group_symop_operation_xyz
x,y,z
-x,-y,z
x,-y,-z
-x,y,-z
-x,-y,-z
x,y,-z
-x,y,z
x,-y,z
loop_
_atom_site_type_symbol
_atom_site_label
_atom_site_fract_x
_atom_site_fract_y
_atom_site_fract_z
Si Si1 0.331768 0.500000 0.637208
Si Si2 0.332928 0.126581 0.638422
Si Si3 0.175383 0.614780 0.234977
Si Si4 0.827310 0.745106 0.367634
Si Si5 0.167275 0.000000 0.361248
Si Si6 0.674771 0.576313 0.000000
O O1 0.500000 0.500000 0.688522
O O2 0.336023 0.500000 0.500000
O O3 0.244891 0.437088 0.678415
O O4 0.327681 0.125171 0.500000
O O5 0.500000 0.124268 0.685672
O O6 0.257542 0.192554 0.683311
O O7 0.247722 0.063973 0.688423
O O8 0.213161 0.684919 0.286409
O O9 0.250910 0.609793 0.110265
O O10 0.000000 0.602625 0.224847
O O11 0.777967 0.729272 0.500000
O O12 0.000000 0.761653 0.363753
O O13 0.171678 0.000000 0.500000
O O14 0.000000 0.000000 0.314455
O O15 0.710218 0.500000 0.000000
O O16 0.500000 0.589701 0.000000
#
# Coordination Sequence:
#
# PCOD8200486 Si02
#       6
#     4   8   8   8   4   4
#     4  11  23  36  51  74 103 131 159 195 242 295
#     4   9  16  25  39  61  90 125 163 199 235 281
#     4  11  22  36  56  76  96 125 165 207 246 293
#     4   9  18  32  48  69  98 129 160 197 243 292
#     4   9  15  23  37  57  85 124 165 202 237 275
#     4  11  23  39  57  75  98 125 158 203 256 304
#
# _framework density 16.852695000000001
#
# number of rings (size 3 to 8) (size 9 to 14) (size 15 to 20)
#    0.000    2.111    1.111    3.000    0.000    8.000 
#    0.000    2.222    0.000    0.000    0.000    0.000 
#    0.000    0.889    0.000    9.333    0.000    7.111 
#
# Total GULP energy -446451.709102 kJ/mol
# GULP energy per Si atom -12401.436364 kJ/mol
# Density = 1.681434 g / cm^3
# Si number density = 16.852695 Si / 1000 Ang^3
#
#
#
# Elastic Constant Matrix: (Units=GPa)
#
#
# Indices 1 2 3 4 5 6 
#
# 1 128.0183 94.7367 41.4431 0.0000 0.0000 0.0000
# 2 94.7367 164.1585 48.3057 0.0000 0.0000 0.0000
# 3 41.4431 48.3057 65.9739 0.0000 0.0000 0.0000
# 4 0.0000 0.0000 0.0000 -8.5751 0.0000 0.0000
# 5 0.0000 0.0000 0.0000 0.0000 17.3773 0.0000
# 6 0.0000 0.0000 0.0000 0.0000 0.0000 21.7284
#
#
#
# Elastic Compliance Matrix: (Units=1/GPa)
#
#
# Indices 1 2 3 4 5 6 
#
# 1 0.014329 -0.007164 -0.003755 0.000000 0.000000 0.000000
# 2 -0.007164 0.011347 -0.003808 0.000000 0.000000 0.000000
# 3 -0.003755 -0.003808 0.020304 0.000000 0.000000 0.000000
# 4 0.000000 0.000000 0.000000 -0.116617 0.000000 0.000000
# 5 0.000000 0.000000 0.000000 0.000000 0.057546 0.000000
# 6 0.000000 0.000000 0.000000 0.000000 0.000000 0.046023
#
#
# Mechanical properties :
#
#
# Convention : Reuss Voigt Hill
#
# Bulk Modulus (GPa) = 60.51243 80.79130 70.65187
# Shear Modulus (GPa) = 73.64325 17.68380 45.66352
#
# Velocity S-wave (km/s) = 6.61763 3.24283 5.21100
# Velocity P-wave (km/s) = 9.71470 7.87814 8.84422
#
# Compressibility (1/GPa) = 0.01652553
#
# Stress axis : x y z
#
# Youngs Moduli (GPa) = 69.78978 88.13259 49.25034
#
# Poissons Ratio (x) = 0.63139 0.18496
# Poissons Ratio (y) = 0.49998 0.18752
# Poissons Ratio (z) = 0.26209 0.33557
#
# Static dielectric constant tensor:
#      x y z
#    x 3.380730 0.000000 0.000000 
#    y 0.000000 3.310710 0.000000 
#    z 0.000000 0.000000 2.788980 
# 
# 
# High freq. dielectric constant tensor:
#      x y z
#    x 1.668020 0.000000 0.000000 
#    y 0.000000 1.660520 0.000000 
#    z 0.000000 0.000000 1.597900 
# 
# From -- ./inp_files/15027.got.cif
#   From: 2010.03.12/outbox.cif.g09.slc.cpg/sg47_8_cif.got.tgz:15027.got - 2010.04.14 03:12:58.
