data_PCOD8200840
_publ_section_title
;
Structure prediction by ZEFSAII (Michael W. Deem and Ramdas Pophale) SiO2 
 PCOD8200840
Probable space group: P M M M
;
_chemical_formula_sum "Si O2"
_cell_formula_units_Z 52
_cell_length_a 17.637031
_cell_length_b 9.588835
_cell_length_c 25.417149
_cell_angle_alpha 90.000000
_cell_angle_beta 90.000000
_cell_angle_gamma 90.000000
_cell_volume 4298.512150
_symmetry_space_group_name_H-M "P M M M"
_symmetry_group_IT_number 47
_symmetry_cell_setting 'orthorhombic'
loop_
_space_group_symop_operation_xyz
x,y,z
-x,-y,z
x,-y,-z
-x,y,-z
-x,-y,-z
x,y,-z
-x,y,z
x,-y,z
loop_
_atom_site_type_symbol
_atom_site_label
_atom_site_fract_x
_atom_site_fract_y
_atom_site_fract_z
Si Si1 0.590088 0.654853 0.247265
Si Si2 0.590137 0.343610 0.941572
Si Si3 0.409417 0.842832 0.847000
Si Si4 0.864217 0.845145 0.562513
Si Si5 0.000000 0.342980 0.562842
Si Si6 0.412600 0.662940 0.634916
Si Si7 0.694430 0.837050 0.560646
O O1 0.500000 0.649360 0.244589
O O2 0.621667 0.500000 0.234206
O O3 0.622145 0.764593 0.204853
O O4 0.614608 0.700551 0.305902
O O5 0.500000 0.342360 0.939576
O O6 0.618993 0.500000 0.928561
O O7 0.622728 0.235965 0.898624
O O8 0.617697 0.298592 0.000000
O O9 0.500000 0.842698 0.847132
O O10 0.377680 0.000000 0.847055
O O11 0.868107 0.850614 0.500000
O O12 0.779714 0.799358 0.579505
O O13 0.925378 0.735538 0.584787
O O14 0.882968 0.000000 0.584436
O O15 0.000000 0.500000 0.585040
O O16 0.000000 0.343335 0.500000
O O17 0.500000 0.704617 0.627079
O O18 0.400684 0.500000 0.623979
O O19 0.364130 0.750021 0.594290
O O20 0.683091 0.795397 0.500000
O O21 0.678712 0.000000 0.568923
#
# Coordination Sequence:
#
# PCOD8200840 Si02
#       7
#     8   8   8   8   4   8   8
#     4   8  14  25  37  45  55  72  94 120 151 189
#     4   8  13  20  28  37  51  73  96 112 131 167
#     4   9  15  20  28  43  58  70  87 114 147 178
#     4   8  14  25  38  50  67  90 109 122 142 177
#     4   9  15  21  33  55  75  87 103 125 145 167
#     4   9  18  30  41  52  64  80 104 134 168 202
#     4   9  18  30  41  53  68  86 107 129 156 193
#
# _framework density 12.097208999999999
#
# number of rings (size 3 to 8) (size 9 to 14) (size 15 to 20)
#    0.000    3.462    0.000    3.000    0.000    5.231 
#    0.000    6.154    0.000    0.000    0.000    0.000 
#    0.000    0.000    0.000    0.000    0.000    0.000 
#
# Total GULP energy -644418.137250 kJ/mol
# GULP energy per Si atom -12392.656486 kJ/mol
# Density = 1.206967 g / cm^3
# Si number density = 12.097209 Si / 1000 Ang^3
#
#
#
# Elastic Constant Matrix: (Units=GPa)
#
#
# Indices 1 2 3 4 5 6 
#
# 1 43.4863 37.8721 29.4879 0.0000 0.0000 0.0000
# 2 37.8721 93.5468 55.8406 0.0000 0.0000 0.0000
# 3 29.4879 55.8406 74.9147 0.0000 0.0000 0.0000
# 4 0.0000 0.0000 0.0000 16.1205 0.0000 0.0000
# 5 0.0000 0.0000 0.0000 0.0000 -0.3338 0.0000
# 6 0.0000 0.0000 0.0000 0.0000 0.0000 12.4116
#
#
#
# Elastic Compliance Matrix: (Units=1/GPa)
#
#
# Indices 1 2 3 4 5 6 
#
# 1 0.037016 -0.011329 -0.006125 0.000000 0.000000 0.000000
# 2 -0.011329 0.022727 -0.012481 0.000000 0.000000 0.000000
# 3 -0.006125 -0.012481 0.025063 0.000000 0.000000 0.000000
# 4 0.000000 0.000000 0.000000 0.062033 0.000000 0.000000
# 5 0.000000 0.000000 0.000000 0.000000 -2.995845 0.000000
# 6 0.000000 0.000000 0.000000 0.000000 0.000000 0.080570
#
#
# Mechanical properties :
#
#
# Convention : Reuss Voigt Hill
#
# Bulk Modulus (GPa) = 40.10554 50.92767 45.51661
# Shear Modulus (GPa) = -1.85168 11.55613 4.85223
#
# Velocity S-wave (km/s) = -1.23854 3.09410 2.00493
# Velocity P-wave (km/s) = 5.58385 7.41314 6.56255
#
# Compressibility (1/GPa) = 0.02493421
#
# Stress axis : x y z
#
# Youngs Moduli (GPa) = 27.01524 44.00141 39.90011
#
# Poissons Ratio (x) = 0.49851 0.24441
# Poissons Ratio (y) = 0.30607 0.49798
# Poissons Ratio (z) = 0.16548 0.54917
#
# Static dielectric constant tensor:
#      x y z
#    x 2.173120 0.000000 0.000000 
#    y 0.000000 2.673970 0.000000 
#    z 0.000000 0.000000 2.487490 
# 
# 
# High freq. dielectric constant tensor:
#      x y z
#    x 1.400270 0.000000 0.000000 
#    y 0.000000 1.469410 0.000000 
#    z 0.000000 0.000000 1.439770 
# 
# From -- ./inp_files/32873.got.cif
#   From: 2010.03.12/outbox.cif.g09.slc.cpg/sg47_17_cif.got.tgz:32873.got - 2010.04.14 03:12:58.
