data_PCOD8200113
_publ_section_title
;
Structure prediction by ZEFSAII (Michael W. Deem and Ramdas Pophale) SiO2 
 PCOD8200113
Probable space group: P M M M
;
_chemical_formula_sum "Si O2"
_cell_formula_units_Z 56
_cell_length_a 14.877517
_cell_length_b 9.629031
_cell_length_c 19.816494
_cell_angle_alpha 90.000000
_cell_angle_beta 90.000000
_cell_angle_gamma 90.000000
_cell_volume 2838.833099
_symmetry_space_group_name_H-M "P M M M"
_symmetry_group_IT_number 47
_symmetry_cell_setting 'orthorhombic'
loop_
_space_group_symop_operation_xyz
x,y,z
-x,-y,z
x,-y,-z
-x,y,-z
-x,-y,-z
x,y,-z
-x,y,z
x,-y,z
loop_
_atom_site_type_symbol
_atom_site_label
_atom_site_fract_x
_atom_site_fract_y
_atom_site_fract_z
Si Si1 0.103110 0.840429 0.319565
Si Si2 0.603762 0.663196 0.342320
Si Si3 0.256658 0.159796 0.422476
Si Si4 0.106788 0.656492 0.805636
Si Si5 0.393278 0.844804 0.074402
Si Si6 0.606618 0.346406 0.808365
Si Si7 0.893130 0.155498 0.074990
O O1 0.163325 0.808495 0.384680
O O2 0.138271 0.741046 0.260005
O O3 0.000000 0.807110 0.338831
O O4 0.112624 0.000000 0.295543
O O5 0.500000 0.700157 0.355939
O O6 0.620222 0.500000 0.351988
O O7 0.662734 0.746939 0.395175
O O8 0.631896 0.708594 0.266253
O O9 0.240004 0.197868 0.500000
O O10 0.285122 0.000000 0.413151
O O11 0.145645 0.500000 0.802508
O O12 0.146423 0.734300 0.871554
O O13 0.000000 0.653837 0.809170
O O14 0.500000 0.846117 0.080453
O O15 0.350823 0.750906 0.133633
O O16 0.355557 0.000000 0.084018
O O17 0.365278 0.788622 0.000000
O O18 0.500000 0.352509 0.814769
O O19 0.646711 0.500000 0.819181
O O20 0.000000 0.158029 0.077113
O O21 0.859684 0.000000 0.093140
O O22 0.859182 0.196745 0.000000
#
# Coordination Sequence:
#
# PCOD8200113 Si02
#       7
#     8   8   8   8   8   8   8
#     4   9  18  34  55  76 102 138 174 209 255 312
#     4   9  19  36  56  78 106 141 178 213 254 308
#     4  10  22  38  56  82 110 133 166 212 258 307
#     4   9  16  25  40  65  96 129 168 214 258 301
#     4   8  13  20  31  53  88 126 162 202 248 295
#     4   8  14  25  41  62  89 123 166 210 245 285
#     4   8  13  21  34  55  87 128 171 212 254 302
#
# _framework density 19.726414999999999
#
# number of rings (size 3 to 8) (size 9 to 14) (size 15 to 20)
#    0.000    3.286    0.000    2.143    0.000    4.571 
#    0.000    7.143    0.000    0.000    0.000    4.000 
#    0.000    5.714    0.000    0.571    0.000    0.000 
#
# Total GULP energy -694121.714258 kJ/mol
# GULP energy per Si atom -12395.030612 kJ/mol
# Density = 1.968152 g / cm^3
# Si number density = 19.726415 Si / 1000 Ang^3
#
#
#
# Elastic Constant Matrix: (Units=GPa)
#
#
# Indices 1 2 3 4 5 6 
#
# 1 57.4219 35.5683 45.3297 0.0000 0.0000 0.0000
# 2 35.5683 116.5028 99.0102 0.0000 0.0000 0.0000
# 3 45.3297 99.0102 183.5353 0.0000 0.0000 0.0000
# 4 0.0000 0.0000 0.0000 32.0958 0.0000 0.0000
# 5 0.0000 0.0000 0.0000 0.0000 -32.4292 0.0000
# 6 0.0000 0.0000 0.0000 0.0000 0.0000 9.0698
#
#
#
# Elastic Compliance Matrix: (Units=1/GPa)
#
#
# Indices 1 2 3 4 5 6 
#
# 1 0.022590 -0.003980 -0.003432 0.000000 0.000000 0.000000
# 2 -0.003980 0.016551 -0.007946 0.000000 0.000000 0.000000
# 3 -0.003432 -0.007946 0.010583 0.000000 0.000000 0.000000
# 4 0.000000 0.000000 0.000000 0.031157 0.000000 0.000000
# 5 0.000000 0.000000 0.000000 0.000000 -0.030836 0.000000
# 6 0.000000 0.000000 0.000000 0.000000 0.000000 0.110256
#
#
# Mechanical properties :
#
#
# Convention : Reuss Voigt Hill
#
# Bulk Modulus (GPa) = 52.60964 79.69739 66.15352
# Shear Modulus (GPa) = 25.33546 13.58405 19.45976
#
# Velocity S-wave (km/s) = 3.58766 2.62701 3.14424
# Velocity P-wave (km/s) = 6.62490 7.04916 6.84032
#
# Compressibility (1/GPa) = 0.01900792
#
# Stress axis : x y z
#
# Youngs Moduli (GPa) = 44.26827 60.41818 94.49319
#
# Poissons Ratio (x) = 0.24044 0.32433
# Poissons Ratio (y) = 0.17617 0.75083
# Poissons Ratio (z) = 0.15194 0.48008
#
# Static dielectric constant tensor:
#      x y z
#    x 3.171590 0.000000 0.000000 
#    y 0.000000 3.795620 0.000000 
#    z 0.000000 0.000000 3.743690 
# 
# 
# High freq. dielectric constant tensor:
#      x y z
#    x 1.744750 0.000000 0.000000 
#    y 0.000000 1.761910 0.000000 
#    z 0.000000 0.000000 1.768760 
# 
# From -- ./inp_files/30967.got.cif
#   From: 2010.03.12/outbox.cif.g09.slc.cpg/sg47_16_cif.got.tgz:30967.got - 2010.04.14 03:12:58.
