data_PCOD8200923
_publ_section_title
;
Structure prediction by ZEFSAII (Michael W. Deem and Ramdas Pophale) SiO2 
 PCOD8200923
Probable space group: P M M M
;
_chemical_formula_sum "Si O2"
_cell_formula_units_Z 40
_cell_length_a 9.579397
_cell_length_b 22.949185
_cell_length_c 12.392427
_cell_angle_alpha 90.000000
_cell_angle_beta 90.000000
_cell_angle_gamma 90.000000
_cell_volume 2724.343145
_symmetry_space_group_name_H-M "P M M M"
_symmetry_group_IT_number 47
_symmetry_cell_setting 'orthorhombic'
loop_
_space_group_symop_operation_xyz
x,y,z
-x,-y,z
x,-y,-z
-x,y,-z
-x,-y,-z
x,y,-z
-x,y,z
x,-y,z
loop_
_atom_site_type_symbol
_atom_site_label
_atom_site_fract_x
_atom_site_fract_y
_atom_site_fract_z
Si Si1 0.843433 0.266018 0.871882
Si Si2 0.842953 0.605197 0.128397
Si Si3 0.657567 0.500000 0.871070
Si Si4 0.841637 0.930779 0.500000
Si Si5 0.338501 0.160425 0.122983
Si Si6 0.661004 0.067236 0.299039
O O1 0.797214 0.330333 0.830617
O O2 0.742371 0.215859 0.826611
O O3 0.000000 0.252491 0.832057
O O4 0.836507 0.265873 0.000000
O O5 0.736150 0.557228 0.174650
O O6 0.000000 0.590959 0.168549
O O7 0.840889 0.603645 0.000000
O O8 0.500000 0.500000 0.826475
O O9 0.658670 0.500000 0.000000
O O10 0.759219 0.908712 0.605474
O O11 0.000000 0.906236 0.500000
O O12 0.841817 0.000000 0.500000
O O13 0.500000 0.176713 0.129209
O O14 0.303011 0.103158 0.191615
O O15 0.292412 0.147257 0.000000
O O16 0.500000 0.075526 0.334239
O O17 0.692826 0.000000 0.272486
#
# Coordination Sequence:
#
# PCOD8200923 Si02
#       6
#     8   8   4   4   8   8
#     4   8  14  24  36  48  64  91 125 156 186 222
#     4   8  13  21  31  41  56  82 115 148 182 220
#     4   9  15  19  25  41  61  79 105 146 191 224
#     4   9  17  29  45  63  79  95 121 158 195 230
#     4   9  17  27  39  57  79 102 129 160 192 227
#     4   9  17  29  44  60  79 103 128 155 191 235
#
# _framework density 14.682437999999999
#
# number of rings (size 3 to 8) (size 9 to 14) (size 15 to 20)
#    0.000    3.400    0.000    1.800    0.000    4.400 
#    0.000    6.000    0.000    0.000    0.000    5.600 
#    0.000    0.000    0.000    0.000    0.000    1.000 
#
# Total GULP energy -495737.251185 kJ/mol
# GULP energy per Si atom -12393.431280 kJ/mol
# Density = 1.464902 g / cm^3
# Si number density = 14.682438 Si / 1000 Ang^3
#
#
#
# Elastic Constant Matrix: (Units=GPa)
#
#
# Indices 1 2 3 4 5 6 
#
# 1 91.6255 64.9740 34.5772 0.0000 0.0000 0.0000
# 2 64.9740 108.5877 35.7753 0.0000 0.0000 0.0000
# 3 34.5772 35.7753 42.5615 0.0000 0.0000 0.0000
# 4 0.0000 0.0000 0.0000 1.3158 0.0000 0.0000
# 5 0.0000 0.0000 0.0000 0.0000 10.9655 0.0000
# 6 0.0000 0.0000 0.0000 0.0000 0.0000 28.1552
#
#
#
# Elastic Compliance Matrix: (Units=1/GPa)
#
#
# Indices 1 2 3 4 5 6 
#
# 1 0.021226 -0.009708 -0.009084 0.000000 0.000000 0.000000
# 2 -0.009708 0.017176 -0.006551 0.000000 0.000000 0.000000
# 3 -0.009084 -0.006551 0.036382 0.000000 0.000000 0.000000
# 4 0.000000 0.000000 0.000000 0.759965 0.000000 0.000000
# 5 0.000000 0.000000 0.000000 0.000000 0.091195 0.000000
# 6 0.000000 0.000000 0.000000 0.000000 0.000000 0.035517
#
#
# Mechanical properties :
#
#
# Convention : Reuss Voigt Hill
#
# Bulk Modulus (GPa) = 41.49665 57.04750 49.27208
# Shear Modulus (GPa) = 4.90109 15.25052 10.07581
#
# Velocity S-wave (km/s) = 1.82902 3.22637 2.62248
# Velocity P-wave (km/s) = 5.72578 7.26759 6.54226
#
# Compressibility (1/GPa) = 0.02409833
#
# Stress axis : x y z
#
# Youngs Moduli (GPa) = 47.11128 58.22027 27.48628
#
# Poissons Ratio (x) = 0.56520 0.24969
# Poissons Ratio (y) = 0.45735 0.18005
# Poissons Ratio (z) = 0.42797 0.38138
#
# Static dielectric constant tensor:
#      x y z
#    x 3.037380 0.000000 0.000000 
#    y 0.000000 3.070970 0.000000 
#    z 0.000000 0.000000 2.374300 
# 
# 
# High freq. dielectric constant tensor:
#      x y z
#    x 1.567930 0.000000 0.000000 
#    y 0.000000 1.561880 0.000000 
#    z 0.000000 0.000000 1.491690 
# 
# From -- ./inp_files/13152.got.cif
#   From: 2010.03.12/outbox.cif.g09.slc.cpg/sg47_7_cif.got.tgz:13152.got - 2010.04.14 03:12:58.
