data_PCOD8200305
_publ_section_title
;
Structure prediction by ZEFSAII (Michael W. Deem and Ramdas Pophale) SiO2 
 PCOD8200305
Probable space group: P M M M
;
_chemical_formula_sum "Si O2"
_cell_formula_units_Z 48
_cell_length_a 9.244772
_cell_length_b 23.246322
_cell_length_c 16.898244
_cell_angle_alpha 90.000000
_cell_angle_beta 90.000000
_cell_angle_gamma 90.000000
_cell_volume 3631.550023
_symmetry_space_group_name_H-M "P M M M"
_symmetry_group_IT_number 47
_symmetry_cell_setting 'orthorhombic'
loop_
_space_group_symop_operation_xyz
x,y,z
-x,-y,z
x,-y,-z
-x,y,-z
-x,-y,-z
x,y,-z
-x,y,z
x,-y,z
loop_
_atom_site_type_symbol
_atom_site_label
_atom_site_fract_x
_atom_site_fract_y
_atom_site_fract_z
Si Si1 0.162246 0.829179 0.094323
Si Si2 0.329899 0.601534 0.821724
Si Si3 0.332652 0.281673 0.909596
Si Si4 0.337502 0.063356 0.905900
Si Si5 0.829296 0.437345 0.500000
Si Si6 0.833702 0.500000 0.906493
Si Si7 0.833929 0.568763 0.671190
O O1 0.244743 0.772508 0.124376
O O2 0.236140 0.886710 0.129743
O O3 0.000000 0.826861 0.127091
O O4 0.166335 0.831107 0.000000
O O5 0.500000 0.587660 0.824488
O O6 0.294476 0.664023 0.855879
O O7 0.245299 0.556099 0.874706
O O8 0.273091 0.599516 0.732136
O O9 0.500000 0.265145 0.904502
O O10 0.288715 0.296013 0.000000
O O11 0.500000 0.073250 0.874477
O O12 0.281539 0.000000 0.879032
O O13 0.336938 0.066748 0.000000
O O14 0.754865 0.500000 0.500000
O O15 0.787591 0.407069 0.416522
O O16 0.000000 0.446179 0.500000
O O17 0.000000 0.500000 0.877046
O O18 0.823837 0.500000 0.000000
O O19 0.814730 0.500000 0.675755
O O20 0.000000 0.585173 0.690372
#
# Coordination Sequence:
#
# PCOD8200305 Si02
#       7
#     8   8   8   8   4   4   8
#     4   9  16  24  35  51  68  86 112 150 189 218
#     4  11  21  31  44  60  77  95 119 153 192 229
#     4   9  18  31  42  50  65  94 127 154 184 224
#     4   8  13  21  33  48  66  89 114 139 173 219
#     4   7  12  24  43  63  79  99 120 136 163 214
#     4  11  23  35  45  56  71  94 123 155 192 231
#     4   9  16  28  45  62  80  99 119 142 175 220
#
# _framework density 13.217497
#
# number of rings (size 3 to 8) (size 9 to 14) (size 15 to 20)
#    0.000    2.833    0.833    3.250    0.000    5.000 
#    0.000    3.750    0.000    1.500    0.000    0.000 
#    0.000    0.000    0.000    0.000    0.000    0.000 
#
# Total GULP energy -594863.146550 kJ/mol
# GULP energy per Si atom -12392.982220 kJ/mol
# Density = 1.318741 g / cm^3
# Si number density = 13.217497 Si / 1000 Ang^3
#
#
#
# Elastic Constant Matrix: (Units=GPa)
#
#
# Indices 1 2 3 4 5 6 
#
# 1 84.1043 61.5717 32.5499 0.0000 0.0000 0.0000
# 2 61.5717 101.8384 34.3034 0.0000 0.0000 0.0000
# 3 32.5499 34.3034 62.4084 0.0000 0.0000 0.0000
# 4 0.0000 0.0000 0.0000 0.0508 0.0000 0.0000
# 5 0.0000 0.0000 0.0000 0.0000 12.8433 0.0000
# 6 0.0000 0.0000 0.0000 0.0000 0.0000 9.6925
#
#
#
# Elastic Compliance Matrix: (Units=1/GPa)
#
#
# Indices 1 2 3 4 5 6 
#
# 1 0.022658 -0.011926 -0.005262 0.000000 0.000000 0.000000
# 2 -0.011926 0.018328 -0.003854 0.000000 0.000000 0.000000
# 3 -0.005262 -0.003854 0.020886 0.000000 0.000000 0.000000
# 4 0.000000 0.000000 0.000000 19.683499 0.000000 0.000000
# 5 0.000000 0.000000 0.000000 0.000000 0.077862 0.000000
# 6 0.000000 0.000000 0.000000 0.000000 0.000000 0.103173
#
#
# Mechanical properties :
#
#
# Convention : Reuss Voigt Hill
#
# Bulk Modulus (GPa) = 50.53654 56.13344 53.33499
# Shear Modulus (GPa) = 0.25031 12.51239 6.38135
#
# Velocity S-wave (km/s) = 0.43565 3.08011 2.19964
# Velocity P-wave (km/s) = 6.21053 7.43039 6.84768
#
# Compressibility (1/GPa) = 0.01978766
#
# Stress axis : x y z
#
# Youngs Moduli (GPa) = 44.13525 54.56018 47.87825
#
# Poissons Ratio (x) = 0.65071 0.25193
# Poissons Ratio (y) = 0.52637 0.18452
# Poissons Ratio (z) = 0.23224 0.21028
#
# Static dielectric constant tensor:
#      x y z
#    x 2.729200 0.000000 0.000000 
#    y 0.000000 2.658870 0.000000 
#    z 0.000000 0.000000 2.533660 
# 
# 
# High freq. dielectric constant tensor:
#      x y z
#    x 1.507950 0.000000 0.000000 
#    y 0.000000 1.488540 0.000000 
#    z 0.000000 0.000000 1.458060 
# 
# From -- ./inp_files/26914.got.cif
#   From: 2010.03.12/outbox.cif.g09.slc.cpg/sg47_14_cif.got.tgz:26914.got - 2010.04.14 03:12:58.
