data_PCOD8200394
_publ_section_title
;
Structure prediction by ZEFSAII (Michael W. Deem and Ramdas Pophale) SiO2 
 PCOD8200394
Probable space group: P M M M
;
_chemical_formula_sum "Si O2"
_cell_formula_units_Z 36
_cell_length_a 19.011045
_cell_length_b 9.007906
_cell_length_c 10.609176
_cell_angle_alpha 90.000000
_cell_angle_beta 90.000000
_cell_angle_gamma 90.000000
_cell_volume 1816.818274
_symmetry_space_group_name_H-M "P M M M"
_symmetry_group_IT_number 47
_symmetry_cell_setting 'orthorhombic'
loop_
_space_group_symop_operation_xyz
x,y,z
-x,-y,z
x,-y,-z
-x,y,-z
-x,-y,-z
x,y,-z
-x,y,z
x,-y,z
loop_
_atom_site_type_symbol
_atom_site_label
_atom_site_fract_x
_atom_site_fract_y
_atom_site_fract_z
Si Si1 0.422779 0.824260 0.000000
Si Si2 0.423720 0.336762 0.354311
Si Si3 0.082937 0.829402 0.642351
Si Si4 0.681688 0.173937 0.213797
Si Si5 0.172904 0.324471 0.855030
O O1 0.378627 0.770913 0.881114
O O2 0.500000 0.750585 0.000000
O O3 0.428913 0.000000 0.000000
O O4 0.433580 0.356719 0.500000
O O5 0.500000 0.276059 0.301109
O O6 0.407780 0.500000 0.294946
O O7 0.356203 0.226698 0.341006
O O8 0.106565 0.779400 0.500000
O O9 0.116257 0.732554 0.753867
O O10 0.000000 0.810640 0.654265
O O11 0.105401 0.000000 0.662483
O O12 0.752997 0.256935 0.183325
O O13 0.697822 0.000000 0.211455
O O14 0.176815 0.500000 0.843801
O O15 0.153520 0.278339 0.000000
#
# Coordination Sequence:
#
# PCOD8200394 Si02
#       5
#     4   8   8   8   8
#     4   9  18  32  51  77 106 137 178 233 291 338
#     4   9  19  36  55  76 107 146 187 235 292 354
#     4   9  20  41  68  96 124 155 196 245 295 353
#     4  11  21  35  56  80 110 147 189 240 292 344
#     4  11  24  40  59  86 124 164 202 245 294 353
#
# _framework density 19.814861000000001
#
# number of rings (size 3 to 8) (size 9 to 14) (size 15 to 20)
#    0.000    2.111    1.111    3.333    0.000    5.333 
#    0.000    4.444    0.000    2.667    0.000    0.000 
#    0.000    0.000    0.000    0.000    0.000    0.000 
#
# Total GULP energy -445975.842857 kJ/mol
# GULP energy per Si atom -12388.217857 kJ/mol
# Density = 1.976976 g / cm^3
# Si number density = 19.814861 Si / 1000 Ang^3
#
#
#
# Elastic Constant Matrix: (Units=GPa)
#
#
# Indices 1 2 3 4 5 6 
#
# 1 96.4932 45.9853 54.7979 0.0000 0.0000 0.0000
# 2 45.9853 81.4917 51.7314 0.0000 0.0000 0.0000
# 3 54.7979 51.7314 103.7036 0.0000 0.0000 0.0000
# 4 0.0000 0.0000 0.0000 29.9662 0.0000 0.0000
# 5 0.0000 0.0000 0.0000 0.0000 42.3195 0.0000
# 6 0.0000 0.0000 0.0000 0.0000 0.0000 35.3740
#
#
#
# Elastic Compliance Matrix: (Units=1/GPa)
#
#
# Indices 1 2 3 4 5 6 
#
# 1 0.016315 -0.005464 -0.005895 0.000000 0.000000 0.000000
# 2 -0.005464 0.019788 -0.006984 0.000000 0.000000 0.000000
# 3 -0.005895 -0.006984 0.016242 0.000000 0.000000 0.000000
# 4 0.000000 0.000000 0.000000 0.033371 0.000000 0.000000
# 5 0.000000 0.000000 0.000000 0.000000 0.023630 0.000000
# 6 0.000000 0.000000 0.000000 0.000000 0.000000 0.028269
#
#
# Mechanical properties :
#
#
# Convention : Reuss Voigt Hill
#
# Bulk Modulus (GPa) = 63.86312 65.19086 64.52699
# Shear Modulus (GPa) = 27.85185 30.14355 28.99770
#
# Velocity S-wave (km/s) = 3.75321 3.90456 3.82963
# Velocity P-wave (km/s) = 7.14716 7.30061 7.22429
#
# Compressibility (1/GPa) = 0.01565849
#
# Stress axis : x y z
#
# Youngs Moduli (GPa) = 61.29144 50.53602 61.56959
#
# Poissons Ratio (x) = 0.27614 0.36298
# Poissons Ratio (y) = 0.33491 0.42998
# Poissons Ratio (z) = 0.36134 0.35292
#
# Static dielectric constant tensor:
#      x y z
#    x 3.637140 0.000000 0.000000 
#    y 0.000000 3.545320 0.000000 
#    z 0.000000 0.000000 3.819650 
# 
# 
# High freq. dielectric constant tensor:
#      x y z
#    x 1.776290 0.000000 0.000000 
#    y 0.000000 1.763820 0.000000 
#    z 0.000000 0.000000 1.777850 
# 
# From -- ./inp_files/8669.got.cif
#   From: 2010.03.12/outbox.cif.g09.slc.cpg/sg47_5_cif.got.tgz:8669.got - 2010.04.14 03:12:58.
