data_PCOD8200270
_publ_section_title
;
Structure prediction by ZEFSAII (Michael W. Deem and Ramdas Pophale) SiO2 
 PCOD8200270
Probable space group: P M M M
;
_chemical_formula_sum "Si O2"
_cell_formula_units_Z 64
_cell_length_a 9.138676
_cell_length_b 23.076997
_cell_length_c 19.150884
_cell_angle_alpha 90.000000
_cell_angle_beta 90.000000
_cell_angle_gamma 90.000000
_cell_volume 4038.791183
_symmetry_space_group_name_H-M "P M M M"
_symmetry_group_IT_number 47
_symmetry_cell_setting 'orthorhombic'
loop_
_space_group_symop_operation_xyz
x,y,z
-x,-y,z
x,-y,-z
-x,y,-z
-x,-y,-z
x,y,-z
-x,y,z
x,-y,z
loop_
_atom_site_type_symbol
_atom_site_label
_atom_site_fract_x
_atom_site_fract_y
_atom_site_fract_z
Si Si1 0.669744 0.769148 0.420709
Si Si2 0.673811 0.244506 0.924529
Si Si3 0.331992 0.433087 0.580465
Si Si4 0.826644 0.666662 0.653469
Si Si5 0.669807 0.113890 0.078650
Si Si6 0.668236 0.719333 0.221323
Si Si7 0.665738 0.841665 0.292395
Si Si8 0.831816 0.934114 0.206875
O O1 0.702731 0.787332 0.500000
O O2 0.500000 0.752022 0.409170
O O3 0.764732 0.713444 0.400931
O O4 0.709993 0.823561 0.371431
O O5 0.500000 0.240697 0.924355
O O6 0.732648 0.179156 0.915460
O O7 0.723739 0.284709 0.859442
O O8 0.727953 0.269664 0.000000
O O9 0.292722 0.420816 0.500000
O O10 0.500000 0.415700 0.594769
O O11 0.305855 0.500000 0.598737
O O12 0.225448 0.396544 0.629757
O O13 0.768499 0.678115 0.731699
O O14 0.000000 0.669697 0.653724
O O15 0.500000 0.112254 0.099476
O O16 0.754928 0.073474 0.132283
O O17 0.693266 0.090281 0.000000
O O18 0.500000 0.699290 0.229385
O O19 0.685371 0.786058 0.243177
O O20 0.500000 0.864364 0.289484
O O21 0.768185 0.893254 0.267276
O O22 0.000000 0.918044 0.197084
O O23 0.810025 0.000000 0.231756
#
# Coordination Sequence:
#
# PCOD8200270 Si02
#       8
#     8   8   8   8   8   8   8   8
#     4   9  18  33  52  71  91 115 144 182 228 274
#     4   8  13  24  45  69  89 111 144 186 228 268
#     4   9  18  33  51  68  90 126 168 202 231 265
#     4  11  21  29  42  69 102 130 157 189 222 261
#     4   9  17  31  50  68  85 109 146 188 224 262
#     4   9  16  29  48  67  90 120 152 187 229 271
#     4   9  17  31  50  69  85 108 145 184 224 269
#     4  11  23  34  44  61  88 119 147 179 221 272
#
# _framework density 15.846325999999999
#
# number of rings (size 3 to 8) (size 9 to 14) (size 15 to 20)
#    0.000    2.625    1.250    3.750    0.000    5.750 
#    0.000    1.875    0.000    0.750    0.000    2.625 
#    0.000    0.500    0.000    5.750    0.000    1.625 
#
# Total GULP energy -793388.239705 kJ/mol
# GULP energy per Si atom -12396.691245 kJ/mol
# Density = 1.581026 g / cm^3
# Si number density = 15.846326 Si / 1000 Ang^3
#
#
#
# Elastic Constant Matrix: (Units=GPa)
#
#
# Indices 1 2 3 4 5 6 
#
# 1 84.3182 45.6182 48.8418 0.0000 0.0000 0.0000
# 2 45.6182 68.1099 48.5835 0.0000 0.0000 0.0000
# 3 48.8418 48.5835 132.3658 0.0000 0.0000 0.0000
# 4 0.0000 0.0000 0.0000 22.5765 0.0000 0.0000
# 5 0.0000 0.0000 0.0000 0.0000 9.8997 0.0000
# 6 0.0000 0.0000 0.0000 0.0000 0.0000 14.8341
#
#
#
# Elastic Compliance Matrix: (Units=1/GPa)
#
#
# Indices 1 2 3 4 5 6 
#
# 1 0.019591 -0.010790 -0.003268 0.000000 0.000000 0.000000
# 2 -0.010790 0.025832 -0.005500 0.000000 0.000000 0.000000
# 3 -0.003268 -0.005500 0.010780 0.000000 0.000000 0.000000
# 4 0.000000 0.000000 0.000000 0.044294 0.000000 0.000000
# 5 0.000000 0.000000 0.000000 0.000000 0.101013 0.000000
# 6 0.000000 0.000000 0.000000 0.000000 0.000000 0.067412
#
#
# Mechanical properties :
#
#
# Convention : Reuss Voigt Hill
#
# Bulk Modulus (GPa) = 58.52872 63.43120 60.97996
# Shear Modulus (GPa) = 15.93709 18.91209 17.42459
#
# Velocity S-wave (km/s) = 3.17476 3.45841 3.31962
# Velocity P-wave (km/s) = 7.10311 7.48754 7.29786
#
# Compressibility (1/GPa) = 0.01708563
#
# Stress axis : x y z
#
# Youngs Moduli (GPa) = 51.04461 38.71143 92.76785
#
# Poissons Ratio (x) = 0.41769 0.30321
# Poissons Ratio (y) = 0.55077 0.51023
# Poissons Ratio (z) = 0.16684 0.21291
#
# Static dielectric constant tensor:
#      x y z
#    x 2.848450 0.000000 0.000000 
#    y 0.000000 2.721530 0.000000 
#    z 0.000000 0.000000 3.309770 
# 
# 
# High freq. dielectric constant tensor:
#      x y z
#    x 1.593900 0.000000 0.000000 
#    y 0.000000 1.572110 0.000000 
#    z 0.000000 0.000000 1.614130 
# 
# From -- ./inp_files/30142.got.cif
#   From: 2010.03.12/outbox.cif.g09.slc.cpg/sg47_16_cif.got.tgz:30142.got - 2010.04.14 03:12:58.
