data_PCOD8200418
_publ_section_title
;
Structure prediction by ZEFSAII (Michael W. Deem and Ramdas Pophale) SiO2 
 PCOD8200418
Probable space group: P M M M
;
_chemical_formula_sum "Si O2"
_cell_formula_units_Z 48
_cell_length_a 9.142066
_cell_length_b 17.210724
_cell_length_c 14.902336
_cell_angle_alpha 90.000000
_cell_angle_beta 90.000000
_cell_angle_gamma 90.000000
_cell_volume 2344.757013
_symmetry_space_group_name_H-M "P M M M"
_symmetry_group_IT_number 47
_symmetry_cell_setting 'orthorhombic'
loop_
_space_group_symop_operation_xyz
x,y,z
-x,-y,z
x,-y,-z
-x,y,-z
-x,-y,-z
x,y,-z
-x,y,z
x,-y,z
loop_
_atom_site_type_symbol
_atom_site_label
_atom_site_fract_x
_atom_site_fract_y
_atom_site_fract_z
Si Si1 0.672220 0.412267 0.137118
Si Si2 0.325198 0.859763 0.209161
Si Si3 0.673170 0.912425 0.401841
Si Si4 0.840318 0.593170 0.500000
Si Si5 0.832646 0.264986 0.901345
Si Si6 0.341658 0.410000 0.661425
Si Si7 0.173547 0.000000 0.894109
O O1 0.500000 0.395525 0.124590
O O2 0.706422 0.500000 0.104689
O O3 0.770455 0.351872 0.083020
O O4 0.722531 0.400752 0.239779
O O5 0.500000 0.867694 0.198503
O O6 0.276273 0.863434 0.314338
O O7 0.270269 0.777811 0.170525
O O8 0.245622 0.925188 0.151092
O O9 0.728086 0.879695 0.500000
O O10 0.500000 0.914439 0.402899
O O11 0.733187 0.000000 0.389573
O O12 0.844598 0.500000 0.500000
O O13 0.763583 0.628265 0.588208
O O14 0.000000 0.629128 0.500000
O O15 0.000000 0.266622 0.866994
O O16 0.826099 0.224728 0.000000
O O17 0.500000 0.368815 0.654394
O O18 0.361144 0.500000 0.638047
O O19 0.000000 0.000000 0.876403
O O20 0.207884 0.000000 0.000000
#
# Coordination Sequence:
#
# PCOD8200418 Si02
#       7
#     8   8   8   4   8   8   4
#     4   9  19  37  61  86 109 138 185 244 300 355
#     4  11  21  36  61  90 117 153 203 250 288 336
#     4   8  14  28  54  89 124 153 187 235 288 339
#     4   9  15  21  35  65 101 133 167 206 253 316
#     4  11  25  42  58  80 115 157 195 238 301 366
#     4   8  14  26  45  69  97 128 163 209 266 325
#     4  11  23  37  54  81 122 166 201 239 294 353
#
# _framework density 20.471205999999999
#
# number of rings (size 3 to 8) (size 9 to 14) (size 15 to 20)
#    0.000    2.500    0.833    3.500    0.000    6.333 
#    0.000    3.333    1.833    2.500    0.000    0.000 
#    0.000    0.000    0.000    0.000    0.000    0.000 
#
# Total GULP energy -594750.774459 kJ/mol
# GULP energy per Si atom -12390.641135 kJ/mol
# Density = 2.042461 g / cm^3
# Si number density = 20.471206 Si / 1000 Ang^3
#
#
#
# Elastic Constant Matrix: (Units=GPa)
#
#
# Indices 1 2 3 4 5 6 
#
# 1 93.1341 31.7609 54.3716 0.0000 0.0000 0.0000
# 2 31.7609 74.1218 37.5901 0.0000 0.0000 0.0000
# 3 54.3716 37.5901 154.2967 0.0000 0.0000 0.0000
# 4 0.0000 0.0000 0.0000 22.3989 0.0000 0.0000
# 5 0.0000 0.0000 0.0000 0.0000 0.6769 0.0000
# 6 0.0000 0.0000 0.0000 0.0000 0.0000 23.9192
#
#
#
# Elastic Compliance Matrix: (Units=1/GPa)
#
#
# Indices 1 2 3 4 5 6 
#
# 1 0.014557 -0.004149 -0.004119 0.000000 0.000000 0.000000
# 2 -0.004149 0.016575 -0.002576 0.000000 0.000000 0.000000
# 3 -0.004119 -0.002576 0.008560 0.000000 0.000000 0.000000
# 4 0.000000 0.000000 0.000000 0.044645 0.000000 0.000000
# 5 0.000000 0.000000 0.000000 0.000000 1.477346 0.000000
# 6 0.000000 0.000000 0.000000 0.000000 0.000000 0.041807
#
#
# Mechanical properties :
#
#
# Convention : Reuss Voigt Hill
#
# Bulk Modulus (GPa) = 55.54087 63.22197 59.38142
# Shear Modulus (GPa) = 3.06527 22.58766 12.82646
#
# Velocity S-wave (km/s) = 1.22499 3.32533 2.50584
# Velocity P-wave (km/s) = 5.40286 6.75975 6.11903
#
# Compressibility (1/GPa) = 0.01800476
#
# Stress axis : x y z
#
# Youngs Moduli (GPa) = 68.69770 60.33001 116.82175
#
# Poissons Ratio (x) = 0.25029 0.48116
# Poissons Ratio (y) = 0.28500 0.30096
# Poissons Ratio (z) = 0.28295 0.15543
#
# Static dielectric constant tensor:
#      x y z
#    x 3.616900 0.000000 0.000000 
#    y 0.000000 3.430690 0.000000 
#    z 0.000000 0.000000 4.096510 
# 
# 
# High freq. dielectric constant tensor:
#      x y z
#    x 1.779330 0.000000 0.000000 
#    y 0.000000 1.764520 0.000000 
#    z 0.000000 0.000000 1.820150 
# 
# From -- ./inp_files/21121.got.cif
#   From: 2010.03.12/outbox.cif.g09.slc.cpg/sg47_11_cif.got.tgz:21121.got - 2010.04.14 03:12:58.
