data_PCOD8200291
_publ_section_title
;
Structure prediction by ZEFSAII (Michael W. Deem and Ramdas Pophale) SiO2 
 PCOD8200291
Probable space group: P M M M
;
_chemical_formula_sum "Si O2"
_cell_formula_units_Z 52
_cell_length_a 9.093109
_cell_length_b 26.261254
_cell_length_c 13.740838
_cell_angle_alpha 90.000000
_cell_angle_beta 90.000000
_cell_angle_gamma 90.000000
_cell_volume 3281.263267
_symmetry_space_group_name_H-M "P M M M"
_symmetry_group_IT_number 47
_symmetry_cell_setting 'orthorhombic'
loop_
_space_group_symop_operation_xyz
x,y,z
-x,-y,z
x,-y,-z
-x,y,-z
-x,-y,-z
x,y,-z
-x,y,z
x,-y,z
loop_
_atom_site_type_symbol
_atom_site_label
_atom_site_fract_x
_atom_site_fract_y
_atom_site_fract_z
Si Si1 0.675354 0.609527 0.890167
Si Si2 0.673980 0.853194 0.714589
Si Si3 0.168653 0.300247 0.208641
Si Si4 0.171646 0.804502 0.888974
Si Si5 0.830881 0.941269 0.612070
Si Si6 0.660384 0.500000 0.115122
Si Si7 0.169487 0.236267 0.609929
O O1 0.500000 0.607939 0.886542
O O2 0.732553 0.651431 0.815633
O O3 0.739564 0.553648 0.856901
O O4 0.728479 0.622520 0.000000
O O5 0.500000 0.850976 0.718088
O O6 0.736270 0.842871 0.822319
O O7 0.725525 0.908739 0.681080
O O8 0.731785 0.811817 0.637664
O O9 0.210542 0.253642 0.137775
O O10 0.202685 0.284017 0.319859
O O11 0.000000 0.316022 0.194428
O O12 0.000000 0.814534 0.870078
O O13 0.216430 0.814665 0.000000
O O14 0.790986 0.930418 0.500000
O O15 0.000000 0.926501 0.631676
O O16 0.803132 0.000000 0.637652
O O17 0.500000 0.500000 0.165145
O O18 0.639771 0.500000 0.000000
O O19 0.204872 0.253245 0.500000
O O20 0.000000 0.219306 0.622581
#
# Coordination Sequence:
#
# PCOD8200291 Si02
#       7
#     8   8   8   8   8   4   8
#     4   9  16  26  41  60  84 115 146 174 208 255
#     4  11  21  30  45  71  99 121 142 178 227 268
#     4   9  17  28  43  65  88 109 139 181 224 258
#     4   9  18  33  50  65  86 121 159 186 211 254
#     4   9  18  33  52  71  91 119 154 186 216 258
#     4   7  12  24  39  55  78 111 148 176 201 247
#     4   9  18  33  49  62  83 119 156 183 211 257
#
# _framework density 15.847556000000001
#
# number of rings (size 3 to 8) (size 9 to 14) (size 15 to 20)
#    0.000    2.846    0.000    4.615    0.000    6.462 
#    0.000    1.154    0.000    1.846    0.000    3.769 
#    0.000    4.308    0.000    0.000    0.000    0.000 
#
# Total GULP energy -644586.452048 kJ/mol
# GULP energy per Si atom -12395.893309 kJ/mol
# Density = 1.581149 g / cm^3
# Si number density = 15.847556 Si / 1000 Ang^3
#
#
#
# Elastic Constant Matrix: (Units=GPa)
#
#
# Indices 1 2 3 4 5 6 
#
# 1 67.4251 49.8525 44.9665 0.0000 0.0000 0.0000
# 2 49.8525 110.5130 60.2004 0.0000 0.0000 0.0000
# 3 44.9665 60.2004 112.6636 0.0000 0.0000 0.0000
# 4 0.0000 0.0000 0.0000 22.8083 0.0000 0.0000
# 5 0.0000 0.0000 0.0000 0.0000 14.0491 0.0000
# 6 0.0000 0.0000 0.0000 0.0000 0.0000 23.1558
#
#
#
# Elastic Compliance Matrix: (Units=1/GPa)
#
#
# Indices 1 2 3 4 5 6 
#
# 1 0.024411 -0.008047 -0.005443 0.000000 0.000000 0.000000
# 2 -0.008047 0.015416 -0.005026 0.000000 0.000000 0.000000
# 3 -0.005443 -0.005026 0.013734 0.000000 0.000000 0.000000
# 4 0.000000 0.000000 0.000000 0.043844 0.000000 0.000000
# 5 0.000000 0.000000 0.000000 0.000000 0.071179 0.000000
# 6 0.000000 0.000000 0.000000 0.000000 0.000000 0.043186
#
#
# Mechanical properties :
#
#
# Convention : Reuss Voigt Hill
#
# Bulk Modulus (GPa) = 60.49759 66.73784 63.61771
# Shear Modulus (GPa) = 19.66091 21.04145 20.35118
#
# Velocity S-wave (km/s) = 3.52608 3.64777 3.58744
# Velocity P-wave (km/s) = 7.40508 7.74245 7.57564
#
# Compressibility (1/GPa) = 0.01652959
#
# Stress axis : x y z
#
# Youngs Moduli (GPa) = 40.96521 64.86606 72.81154
#
# Poissons Ratio (x) = 0.52195 0.39634
# Poissons Ratio (y) = 0.32963 0.36595
# Poissons Ratio (z) = 0.22299 0.32601
#
# Static dielectric constant tensor:
#      x y z
#    x 2.833960 0.000000 0.000000 
#    y 0.000000 3.040590 0.000000 
#    z 0.000000 0.000000 3.005280 
# 
# 
# High freq. dielectric constant tensor:
#      x y z
#    x 1.595210 0.000000 0.000000 
#    y 0.000000 1.602990 0.000000 
#    z 0.000000 0.000000 1.591940 
# 
# From -- ./inp_files/21790.got.cif
#   From: 2010.03.12/outbox.cif.g09.slc.cpg/sg47_11_cif.got.tgz:21790.got - 2010.04.14 03:12:58.
