data_PCOD8200929
_publ_section_title
;
Structure prediction by ZEFSAII (Michael W. Deem and Ramdas Pophale) SiO2 
 PCOD8200929
Probable space group: P M M M
;
_chemical_formula_sum "Si O2"
_cell_formula_units_Z 40
_cell_length_a 25.866666
_cell_length_b 9.571902
_cell_length_c 9.329336
_cell_angle_alpha 90.000000
_cell_angle_beta 90.000000
_cell_angle_gamma 90.000000
_cell_volume 2309.880080
_symmetry_space_group_name_H-M "P M M M"
_symmetry_group_IT_number 47
_symmetry_cell_setting 'orthorhombic'
loop_
_space_group_symop_operation_xyz
x,y,z
-x,-y,z
x,-y,-z
-x,y,-z
-x,-y,-z
x,y,-z
-x,y,z
x,-y,z
loop_
_atom_site_type_symbol
_atom_site_label
_atom_site_fract_x
_atom_site_fract_y
_atom_site_fract_z
Si Si1 0.906608 0.842881 0.829434
Si Si2 0.792327 0.156692 0.170239
Si Si3 0.698415 0.338209 0.833575
Si Si4 0.000000 0.657638 0.171295
Si Si5 0.596502 0.661070 0.668044
Si Si6 0.500000 0.158603 0.670383
O O1 0.849400 0.796544 0.775608
O O2 0.949219 0.736220 0.767967
O O3 0.919012 0.000000 0.775561
O O4 0.908125 0.841295 0.000000
O O5 0.747932 0.257598 0.231410
O O6 0.780564 0.000000 0.223439
O O7 0.791829 0.163249 0.000000
O O8 0.709594 0.500000 0.808062
O O9 0.647859 0.288974 0.748768
O O10 0.689460 0.303318 0.000000
O O11 0.000000 0.500000 0.230558
O O12 0.000000 0.658735 0.000000
O O13 0.605670 0.681403 0.500000
O O14 0.582945 0.500000 0.703834
O O15 0.550334 0.758644 0.725755
O O16 0.500000 0.158023 0.500000
O O17 0.500000 0.000000 0.730550
#
# Coordination Sequence:
#
# PCOD8200929 Si02
#       6
#     8   8   8   4   8   4
#     4   8  13  21  31  42  60  90 126 159 192 234
#     4   8  14  24  37  52  71  99 133 164 197 240
#     4   9  17  28  42  61  83 106 134 168 202 234
#     4   9  15  19  25  41  63  87 120 163 204 235
#     4   9  17  30  47  64  83 109 137 162 194 240
#     4   9  17  29  46  67  86 104 132 169 202 232
#
# _framework density 17.316917
#
# number of rings (size 3 to 8) (size 9 to 14) (size 15 to 20)
#    0.000    3.400    0.000    1.800    0.000    4.000 
#    0.000    4.500    0.000    3.000    0.000    0.000 
#    0.000    0.000    0.000    0.900    0.000   19.200 
#
# Total GULP energy -495777.320182 kJ/mol
# GULP energy per Si atom -12394.433005 kJ/mol
# Density = 1.727750 g / cm^3
# Si number density = 17.316917 Si / 1000 Ang^3
#
#
#
# Elastic Constant Matrix: (Units=GPa)
#
#
# Indices 1 2 3 4 5 6 
#
# 1 196.3346 109.2402 26.1073 0.0000 0.0000 0.0000
# 2 109.2402 117.7941 17.3168 0.0000 0.0000 0.0000
# 3 26.1073 17.3168 12.8502 0.0000 0.0000 0.0000
# 4 0.0000 0.0000 0.0000 8.6506 0.0000 0.0000
# 5 0.0000 0.0000 0.0000 0.0000 -0.5408 0.0000
# 6 0.0000 0.0000 0.0000 0.0000 0.0000 40.7552
#
#
#
# Elastic Compliance Matrix: (Units=1/GPa)
#
#
# Indices 1 2 3 4 5 6 
#
# 1 0.011733 -0.009199 -0.011441 0.000000 0.000000 0.000000
# 2 -0.009199 0.017799 -0.005296 0.000000 0.000000 0.000000
# 3 -0.011441 -0.005296 0.108202 0.000000 0.000000 0.000000
# 4 0.000000 0.000000 0.000000 0.115599 0.000000 0.000000
# 5 0.000000 0.000000 0.000000 0.000000 -1.848992 0.000000
# 6 0.000000 0.000000 0.000000 0.000000 0.000000 0.024537
#
#
# Mechanical properties :
#
#
# Convention : Reuss Voigt Hill
#
# Bulk Modulus (GPa) = 11.64675 70.25636 40.95155
# Shear Modulus (GPa) = -3.35429 21.39396 9.01984
#
# Velocity S-wave (km/s) = -1.39327 3.51869 2.28473
# Velocity P-wave (km/s) = 2.03764 7.56090 5.53711
#
# Compressibility (1/GPa) = 0.08586087
#
# Stress axis : x y z
#
# Youngs Moduli (GPa) = 85.22930 56.18264 9.24199
#
# Poissons Ratio (x) = 0.51683 0.10574
# Poissons Ratio (y) = 0.78403 0.04895
# Poissons Ratio (z) = 0.97511 0.29757
#
# Static dielectric constant tensor:
#      x y z
#    x 3.626590 0.000000 0.000000 
#    y 0.000000 3.376590 0.000000 
#    z 0.000000 0.000000 2.575680 
# 
# 
# High freq. dielectric constant tensor:
#      x y z
#    x 1.685700 0.000000 0.000000 
#    y 0.000000 1.668880 0.000000 
#    z 0.000000 0.000000 1.593060 
# 
# From -- ./inp_files/19736.got.cif
#   From: 2010.03.12/outbox.cif.g09.slc.cpg/sg47_10_cif.got.tgz:19736.got - 2010.04.14 03:12:58.
