data_PCOD8200918
_publ_section_title
;
Structure prediction by ZEFSAII (Michael W. Deem and Ramdas Pophale) SiO2 
 PCOD8200918
Probable space group: P M M M
;
_chemical_formula_sum "Si O2"
_cell_formula_units_Z 56
_cell_length_a 18.967000
_cell_length_b 18.905942
_cell_length_c 9.621428
_cell_angle_alpha 90.000000
_cell_angle_beta 90.000000
_cell_angle_gamma 90.000000
_cell_volume 3450.138264
_symmetry_space_group_name_H-M "P M M M"
_symmetry_group_IT_number 47
_symmetry_cell_setting 'orthorhombic'
loop_
_space_group_symop_operation_xyz
x,y,z
-x,-y,z
x,-y,-z
-x,y,-z
-x,-y,-z
x,y,-z
-x,y,z
x,-y,z
loop_
_atom_site_type_symbol
_atom_site_label
_atom_site_fract_x
_atom_site_fract_y
_atom_site_fract_z
Si Si1 0.923064 0.338841 0.663956
Si Si2 0.579734 0.205880 0.662843
Si Si3 0.583607 0.922435 0.154533
Si Si4 0.919047 0.918121 0.838716
Si Si5 0.286820 0.286923 0.336072
Si Si6 0.844546 0.802024 0.336696
Si Si7 0.790301 0.421799 0.333973
O O1 0.926865 0.347029 0.500000
O O2 0.900224 0.259253 0.700548
O O3 0.866902 0.396067 0.720722
O O4 0.000000 0.353593 0.730701
O O5 0.582598 0.190785 0.500000
O O6 0.500000 0.225924 0.709830
O O7 0.609444 0.135525 0.736020
O O8 0.632692 0.268934 0.706521
O O9 0.500000 0.925040 0.155596
O O10 0.613121 0.000000 0.196951
O O11 0.610408 0.902295 0.000000
O O12 0.865447 0.871910 0.747414
O O13 0.000000 0.902084 0.796770
O O14 0.901554 0.000000 0.809699
O O15 0.907063 0.900055 0.000000
O O16 0.277853 0.290830 0.500000
O O17 0.232436 0.226003 0.286057
O O18 0.267300 0.364970 0.277282
O O19 0.844933 0.820325 0.500000
O O20 0.789491 0.423916 0.500000
O O21 0.773873 0.500000 0.273575
#
# Coordination Sequence:
#
# PCOD8200918 Si02
#       7
#     8   8   8   8   8   8   8
#     4   8  13  20  32  54  80 101 126 163 199 230
#     4   9  16  26  42  61  80 107 141 173 206 245
#     4   8  14  25  40  58  81 105 127 158 201 242
#     4   9  18  31  44  59  82 110 138 172 210 239
#     4   8  15  27  40  57  82 107 134 171 208 241
#     4   9  16  27  43  59  78 107 139 170 206 246
#     4   8  13  21  34  52  77 111 138 153 187 244
#
# _framework density 16.231234000000001
#
# number of rings (size 3 to 8) (size 9 to 14) (size 15 to 20)
#    0.000    3.571    0.000    3.000    0.000    1.714 
#    0.000    5.000    0.000    4.714    0.000    3.000 
#    0.000   14.286    0.000   35.000    0.000   30.000 
#
# Total GULP energy -693787.453598 kJ/mol
# GULP energy per Si atom -12389.061671 kJ/mol
# Density = 1.619429 g / cm^3
# Si number density = 16.231234 Si / 1000 Ang^3
#
#
#
# Elastic Constant Matrix: (Units=GPa)
#
#
# Indices 1 2 3 4 5 6 
#
# 1 99.2936 66.9593 24.2761 0.0000 0.0000 0.0000
# 2 66.9593 128.0528 34.8667 0.0000 0.0000 0.0000
# 3 24.2761 34.8667 26.8683 0.0000 0.0000 0.0000
# 4 0.0000 0.0000 0.0000 1.0227 0.0000 0.0000
# 5 0.0000 0.0000 0.0000 0.0000 10.0936 0.0000
# 6 0.0000 0.0000 0.0000 0.0000 0.0000 18.9343
#
#
#
# Elastic Compliance Matrix: (Units=1/GPa)
#
#
# Indices 1 2 3 4 5 6 
#
# 1 0.016083 -0.006886 -0.005595 0.000000 0.000000 0.000000
# 2 -0.006886 0.015025 -0.013276 0.000000 0.000000 0.000000
# 3 -0.005595 -0.013276 0.059501 0.000000 0.000000 0.000000
# 4 0.000000 0.000000 0.000000 0.977802 0.000000 0.000000
# 5 0.000000 0.000000 0.000000 0.000000 0.099072 0.000000
# 6 0.000000 0.000000 0.000000 0.000000 0.000000 0.052814
#
#
# Mechanical properties :
#
#
# Convention : Reuss Voigt Hill
#
# Bulk Modulus (GPa) = 25.57852 56.26878 40.92365
# Shear Modulus (GPa) = 3.89152 14.55097 9.22125
#
# Velocity S-wave (km/s) = 1.55008 2.99738 2.38611
# Velocity P-wave (km/s) = 4.35852 6.83529 5.73228
#
# Compressibility (1/GPa) = 0.03909530
#
# Stress axis : x y z
#
# Youngs Moduli (GPa) = 62.17775 66.55575 16.80637
#
# Poissons Ratio (x) = 0.45833 0.09403
# Poissons Ratio (y) = 0.42818 0.22312
# Poissons Ratio (z) = 0.34787 0.88357
#
# Static dielectric constant tensor:
#      x y z
#    x 3.172740 0.000000 0.000000 
#    y 0.000000 3.305020 0.000000 
#    z 0.000000 0.000000 2.673450 
# 
# 
# High freq. dielectric constant tensor:
#      x y z
#    x 1.611960 0.000000 0.000000 
#    y 0.000000 1.620160 0.000000 
#    z 0.000000 0.000000 1.575580 
# 
# From -- ./inp_files/11512.got.cif
#   From: 2010.03.12/outbox.cif.g09.slc.cpg/sg47_6_cif.got.tgz:11512.got - 2010.04.14 03:12:58.
