data_PCOD8200409
_publ_section_title
;
Structure prediction by ZEFSAII (Michael W. Deem and Ramdas Pophale) SiO2 
 PCOD8200409
Probable space group: P M M M
;
_chemical_formula_sum "Si O2"
_cell_formula_units_Z 40
_cell_length_a 9.125665
_cell_length_b 10.265652
_cell_length_c 24.772628
_cell_angle_alpha 90.000000
_cell_angle_beta 90.000000
_cell_angle_gamma 90.000000
_cell_volume 2320.722115
_symmetry_space_group_name_H-M "P M M M"
_symmetry_group_IT_number 47
_symmetry_cell_setting 'orthorhombic'
loop_
_space_group_symop_operation_xyz
x,y,z
-x,-y,z
x,-y,-z
-x,y,-z
-x,-y,-z
x,y,-z
-x,y,z
x,-y,z
loop_
_atom_site_type_symbol
_atom_site_label
_atom_site_fract_x
_atom_site_fract_y
_atom_site_fract_z
Si Si1 0.833202 0.000000 0.936270
Si Si2 0.835746 0.845242 0.441291
Si Si3 0.326855 0.144268 0.776244
Si Si4 0.337427 0.844467 0.659727
Si Si5 0.829240 0.500000 0.936130
Si Si6 0.325452 0.248591 0.888828
O O1 0.743661 0.874462 0.918136
O O2 0.000000 0.000000 0.912960
O O3 0.841173 0.000000 0.000000
O O4 0.767929 0.805267 0.500000
O O5 0.749824 0.783165 0.390765
O O6 0.000000 0.791736 0.437915
O O7 0.834448 0.000000 0.436299
O O8 0.500000 0.131134 0.769649
O O9 0.266431 0.195676 0.718077
O O10 0.287460 0.241661 0.824893
O O11 0.263003 0.000000 0.789798
O O12 0.500000 0.787071 0.654598
O O13 0.339553 0.000000 0.656880
O O14 0.749336 0.624243 0.912005
O O15 0.000000 0.500000 0.919906
O O16 0.809970 0.500000 0.000000
O O17 0.500000 0.251003 0.898892
#
# Coordination Sequence:
#
# PCOD8200409 Si02
#       6
#     4   8   8   8   4   8
#     4  11  23  37  53  77 109 137 160 197 252 299
#     4   8  13  20  28  41  68 106 146 188 229 266
#     4   8  14  27  46  69  95 119 148 196 249 284
#     4   8  13  21  35  53  76 108 144 183 230 280
#     4  11  25  43  57  73 105 139 162 199 258 309
#     4  11  21  36  59  81 100 129 171 211 244 294
#
# _framework density 17.236014999999998
#
# number of rings (size 3 to 8) (size 9 to 14) (size 15 to 20)
#    0.000    2.800    1.000    3.600    0.000    4.400 
#    0.000    4.000    0.000    0.000    0.000    0.000 
#    0.000    0.000    0.000    0.900    0.000   19.200 
#
# Total GULP energy -495562.360186 kJ/mol
# GULP energy per Si atom -12389.059005 kJ/mol
# Density = 1.719678 g / cm^3
# Si number density = 17.236015 Si / 1000 Ang^3
#
#
#
# Elastic Constant Matrix: (Units=GPa)
#
#
# Indices 1 2 3 4 5 6 
#
# 1 93.4354 42.3339 66.9303 0.0000 0.0000 0.0000
# 2 42.3339 80.0220 46.4909 0.0000 0.0000 0.0000
# 3 66.9303 46.4909 157.5845 0.0000 0.0000 0.0000
# 4 0.0000 0.0000 0.0000 12.9938 0.0000 0.0000
# 5 0.0000 0.0000 0.0000 0.0000 9.3599 0.0000
# 6 0.0000 0.0000 0.0000 0.0000 0.0000 16.3387
#
#
#
# Elastic Compliance Matrix: (Units=1/GPa)
#
#
# Indices 1 2 3 4 5 6 
#
# 1 0.017448 -0.005944 -0.005657 0.000000 0.000000 0.000000
# 2 -0.005944 0.017106 -0.002522 0.000000 0.000000 0.000000
# 3 -0.005657 -0.002522 0.009493 0.000000 0.000000 0.000000
# 4 0.000000 0.000000 0.000000 0.076960 0.000000 0.000000
# 5 0.000000 0.000000 0.000000 0.000000 0.106838 0.000000
# 6 0.000000 0.000000 0.000000 0.000000 0.000000 0.061204
#
#
# Mechanical properties :
#
#
# Convention : Reuss Voigt Hill
#
# Bulk Modulus (GPa) = 63.28844 71.39468 67.34156
# Shear Modulus (GPa) = 15.50086 19.42427 17.46257
#
# Velocity S-wave (km/s) = 3.00214 3.36066 3.18645
# Velocity P-wave (km/s) = 6.98681 7.52133 7.25899
#
# Compressibility (1/GPa) = 0.01580067
#
# Stress axis : x y z
#
# Youngs Moduli (GPa) = 57.31351 58.45763 105.34519
#
# Poissons Ratio (x) = 0.34746 0.59594
# Poissons Ratio (y) = 0.34066 0.26571
# Poissons Ratio (z) = 0.32422 0.14745
#
# Static dielectric constant tensor:
#      x y z
#    x 3.293160 0.000000 0.000000 
#    y 0.000000 2.590930 0.000000 
#    z 0.000000 0.000000 3.830760 
# 
# 
# High freq. dielectric constant tensor:
#      x y z
#    x 1.652750 0.000000 0.000000 
#    y 0.000000 1.599540 0.000000 
#    z 0.000000 0.000000 1.692830 
# 
# From -- ./inp_files/33004.got.cif
#   From: 2010.03.12/outbox.cif.g09.slc.cpg/sg47_17_cif.got.tgz:33004.got - 2010.04.14 03:12:58.
