data_PCOD8200278
_publ_section_title
;
Structure prediction by ZEFSAII (Michael W. Deem and Ramdas Pophale) SiO2 
 PCOD8200278
Probable space group: P M M M
;
_chemical_formula_sum "Si O2"
_cell_formula_units_Z 48
_cell_length_a 23.989819
_cell_length_b 9.407139
_cell_length_c 14.205946
_cell_angle_alpha 90.000000
_cell_angle_beta 90.000000
_cell_angle_gamma 90.000000
_cell_volume 3205.934846
_symmetry_space_group_name_H-M "P M M M"
_symmetry_group_IT_number 47
_symmetry_cell_setting 'orthorhombic'
loop_
_space_group_symop_operation_xyz
x,y,z
-x,-y,z
x,-y,-z
-x,y,-z
-x,-y,-z
x,y,-z
-x,y,z
x,-y,z
loop_
_atom_site_type_symbol
_atom_site_label
_atom_site_fract_x
_atom_site_fract_y
_atom_site_fract_z
Si Si1 0.435181 0.845770 0.602063
Si Si2 0.163399 0.840916 0.388424
Si Si3 0.061768 0.340520 0.611950
Si Si4 0.374975 0.333885 0.260483
Si Si5 0.728429 0.666141 0.391404
Si Si6 0.436437 0.165462 0.890679
O O1 0.407604 0.816305 0.500000
O O2 0.500000 0.856504 0.589284
O O3 0.423635 0.714649 0.669918
O O4 0.413156 0.000000 0.640678
O O5 0.158637 0.846355 0.500000
O O6 0.108371 0.764971 0.345691
O O7 0.217588 0.752691 0.358704
O O8 0.167321 0.000000 0.346642
O O9 0.065392 0.341365 0.500000
O O10 0.073096 0.500000 0.649466
O O11 0.000000 0.289392 0.643799
O O12 0.377808 0.500000 0.240488
O O13 0.318310 0.290165 0.314874
O O14 0.387741 0.252670 0.162941
O O15 0.711243 0.703339 0.500000
O O16 0.742188 0.500000 0.384244
O O17 0.500000 0.209056 0.860921
O O18 0.427883 0.000000 0.868694
O O19 0.427827 0.198203 0.000000
#
# Coordination Sequence:
#
# PCOD8200278 Si02
#       6
#     8   8   8   8   8   8
#     4   9  18  31  44  58  79 108 137 162 192 234
#     4   9  16  24  35  52  72  96 131 174 211 236
#     4   8  13  21  33  48  67  95 130 165 204 248
#     4  11  21  30  44  66  86 104 130 166 206 243
#     4   9  18  31  42  53  77 112 142 166 197 241
#     4   9  19  36  54  68  83 105 131 159 197 249
#
# _framework density 14.972231000000001
#
# number of rings (size 3 to 8) (size 9 to 14) (size 15 to 20)
#    0.000    2.833    0.000    3.500    0.000    7.667 
#    0.000    5.000    0.000    0.000    0.000    0.000 
#    0.000    0.000    0.000    0.000    0.000    0.833 
#
# Total GULP energy -594665.673209 kJ/mol
# GULP energy per Si atom -12388.868192 kJ/mol
# Density = 1.493815 g / cm^3
# Si number density = 14.972231 Si / 1000 Ang^3
#
#
#
# Elastic Constant Matrix: (Units=GPa)
#
#
# Indices 1 2 3 4 5 6 
#
# 1 99.4148 61.6347 39.3486 0.0000 0.0000 0.0000
# 2 61.6347 79.1167 33.1101 0.0000 0.0000 0.0000
# 3 39.3486 33.1101 54.9716 0.0000 0.0000 0.0000
# 4 0.0000 0.0000 0.0000 16.4055 0.0000 0.0000
# 5 0.0000 0.0000 0.0000 0.0000 1.0362 0.0000
# 6 0.0000 0.0000 0.0000 0.0000 0.0000 21.1298
#
#
#
# Elastic Compliance Matrix: (Units=1/GPa)
#
#
# Indices 1 2 3 4 5 6 
#
# 1 0.021308 -0.013660 -0.007025 0.000000 0.000000 0.000000
# 2 -0.013660 0.025656 -0.005675 0.000000 0.000000 0.000000
# 3 -0.007025 -0.005675 0.026638 0.000000 0.000000 0.000000
# 4 0.000000 0.000000 0.000000 0.060955 0.000000 0.000000
# 5 0.000000 0.000000 0.000000 0.000000 0.965040 0.000000
# 6 0.000000 0.000000 0.000000 0.000000 0.000000 0.047326
#
#
# Mechanical properties :
#
#
# Convention : Reuss Voigt Hill
#
# Bulk Modulus (GPa) = 47.88779 55.74333 51.81556
# Shear Modulus (GPa) = 4.14386 14.34162 9.24274
#
# Velocity S-wave (km/s) = 1.66544 3.09832 2.48730
# Velocity P-wave (km/s) = 5.97931 7.07894 6.55223
#
# Compressibility (1/GPa) = 0.02088215
#
# Stress axis : x y z
#
# Youngs Moduli (GPa) = 46.93055 38.97686 37.54061
#
# Poissons Ratio (x) = 0.53242 0.26371
# Poissons Ratio (y) = 0.64107 0.21306
# Poissons Ratio (z) = 0.32967 0.22121
#
# Static dielectric constant tensor:
#      x y z
#    x 2.940400 0.000000 0.000000 
#    y 0.000000 3.050360 0.000000 
#    z 0.000000 0.000000 2.571850 
# 
# 
# High freq. dielectric constant tensor:
#      x y z
#    x 1.564800 0.000000 0.000000 
#    y 0.000000 1.581510 0.000000 
#    z 0.000000 0.000000 1.517840 
# 
# From -- ./inp_files/7493.got.cif
#   From: 2010.03.12/outbox.cif.g09.slc.cpg/sg47_4_cif.got.tgz:7493.got - 2010.04.14 03:12:58.
