data_PCOD8200981
_publ_section_title
;
Structure prediction by ZEFSAII (Michael W. Deem and Ramdas Pophale) SiO2 
 PCOD8200981
Probable space group: P M M M
;
_chemical_formula_sum "Si O2"
_cell_formula_units_Z 56
_cell_length_a 13.583096
_cell_length_b 29.229782
_cell_length_c 9.710660
_cell_angle_alpha 90.000000
_cell_angle_beta 90.000000
_cell_angle_gamma 90.000000
_cell_volume 3855.432419
_symmetry_space_group_name_H-M "P M M M"
_symmetry_group_IT_number 47
_symmetry_cell_setting 'orthorhombic'
loop_
_space_group_symop_operation_xyz
x,y,z
-x,-y,z
x,-y,-z
-x,y,-z
-x,-y,-z
x,y,-z
-x,y,z
x,-y,z
loop_
_atom_site_type_symbol
_atom_site_label
_atom_site_fract_x
_atom_site_fract_y
_atom_site_fract_z
Si Si1 0.610747 0.049912 0.836690
Si Si2 0.883064 0.550492 0.845339
Si Si3 0.610467 0.218819 0.657277
Si Si4 0.114295 0.367814 0.340751
Si Si5 0.110013 0.804265 0.842745
Si Si6 0.700828 0.857615 0.838890
Si Si7 0.198572 0.271740 0.659279
O O1 0.500000 0.059460 0.783251
O O2 0.682144 0.090630 0.785358
O O3 0.647096 0.000000 0.781453
O O4 0.610550 0.048738 0.000000
O O5 0.844412 0.500000 0.800861
O O6 0.841873 0.589272 0.743489
O O7 0.000000 0.550434 0.838613
O O8 0.847393 0.561653 0.000000
O O9 0.623612 0.202001 0.500000
O O10 0.500000 0.237387 0.683108
O O11 0.629426 0.176179 0.756714
O O12 0.686958 0.259896 0.688818
O O13 0.128143 0.379789 0.500000
O O14 0.178091 0.323796 0.296908
O O15 0.000000 0.358167 0.305961
O O16 0.185458 0.845320 0.808000
O O17 0.128110 0.760829 0.746814
O O18 0.000000 0.823067 0.817223
O O19 0.124329 0.787997 0.000000
O O20 0.674945 0.852688 0.000000
O O21 0.170468 0.264447 0.500000
#
# Coordination Sequence:
#
# PCOD8200981 Si02
#       7
#     8   8   8   8   8   8   8
#     4   8  13  21  35  56  77  94 117 152 190 226
#     4   8  14  24  36  50  70  97 126 152 180 217
#     4   9  17  28  41  57  78 102 125 152 188 227
#     4   9  16  24  35  52  73  97 124 153 182 211
#     4   9  17  27  38  54  76 100 126 157 190 220
#     4   9  16  26  41  58  75  98 127 156 185 220
#     4   9  17  28  40  55  76 101 129 157 185 222
#
# _framework density 14.524959000000001
#
# number of rings (size 3 to 8) (size 9 to 14) (size 15 to 20)
#    0.000    3.286    0.000    1.714    0.000    2.571 
#    0.000    2.857    0.000    0.857    0.000    5.000 
#    0.000    0.571    0.000   14.286    0.000    9.143 
#
# Total GULP energy -694043.089984 kJ/mol
# GULP energy per Si atom -12393.626607 kJ/mol
# Density = 1.449190 g / cm^3
# Si number density = 14.524959 Si / 1000 Ang^3
#
#
#
# Elastic Constant Matrix: (Units=GPa)
#
#
# Indices 1 2 3 4 5 6 
#
# 1 75.1704 53.8162 28.7333 0.0000 0.0000 0.0000
# 2 53.8162 143.6715 51.5502 0.0000 0.0000 0.0000
# 3 28.7333 51.5502 43.7470 0.0000 0.0000 0.0000
# 4 0.0000 0.0000 0.0000 15.6900 0.0000 0.0000
# 5 0.0000 0.0000 0.0000 0.0000 13.6365 0.0000
# 6 0.0000 0.0000 0.0000 0.0000 0.0000 17.4900
#
#
#
# Elastic Compliance Matrix: (Units=1/GPa)
#
#
# Indices 1 2 3 4 5 6 
#
# 1 0.019419 -0.004674 -0.007248 0.000000 0.000000 0.000000
# 2 -0.004674 0.013184 -0.012466 0.000000 0.000000 0.000000
# 3 -0.007248 -0.012466 0.042308 0.000000 0.000000 0.000000
# 4 0.000000 0.000000 0.000000 0.063735 0.000000 0.000000
# 5 0.000000 0.000000 0.000000 0.000000 0.073333 0.000000
# 6 0.000000 0.000000 0.000000 0.000000 0.000000 0.057175
#
#
# Mechanical properties :
#
#
# Convention : Reuss Voigt Hill
#
# Bulk Modulus (GPa) = 38.25902 58.97647 48.61774
# Shear Modulus (GPa) = 15.30735 17.92924 16.61829
#
# Velocity S-wave (km/s) = 3.24985 3.51718 3.38615
# Velocity P-wave (km/s) = 6.36234 7.56212 6.98803
#
# Compressibility (1/GPa) = 0.02613763
#
# Stress axis : x y z
#
# Youngs Moduli (GPa) = 51.49495 75.85123 23.63613
#
# Poissons Ratio (x) = 0.35450 0.17130
# Poissons Ratio (y) = 0.24067 0.29464
# Poissons Ratio (z) = 0.37321 0.94553
#
# Static dielectric constant tensor:
#      x y z
#    x 2.728240 0.000000 0.000000 
#    y 0.000000 3.041700 0.000000 
#    z 0.000000 0.000000 2.805150 
# 
# 
# High freq. dielectric constant tensor:
#      x y z
#    x 1.527070 0.000000 0.000000 
#    y 0.000000 1.549510 0.000000 
#    z 0.000000 0.000000 1.546790 
# 
# From -- ./inp_files/8145.got.cif
#   From: 2010.03.12/outbox.cif.g09.slc.cpg/sg47_5_cif.got.tgz:8145.got - 2010.04.14 03:12:58.
