data_PCOD8200548
_publ_section_title
;
Structure prediction by ZEFSAII (Michael W. Deem and Ramdas Pophale) SiO2 
 PCOD8200548
Probable space group: P M M M
;
_chemical_formula_sum "Si O2"
_cell_formula_units_Z 48
_cell_length_a 7.622742
_cell_length_b 9.354799
_cell_length_c 34.755376
_cell_angle_alpha 90.000000
_cell_angle_beta 90.000000
_cell_angle_gamma 90.000000
_cell_volume 2478.378727
_symmetry_space_group_name_H-M "P M M M"
_symmetry_group_IT_number 47
_symmetry_cell_setting 'orthorhombic'
loop_
_space_group_symop_operation_xyz
x,y,z
-x,-y,z
x,-y,-z
-x,y,-z
-x,-y,-z
x,y,-z
-x,y,z
x,-y,z
loop_
_atom_site_type_symbol
_atom_site_label
_atom_site_fract_x
_atom_site_fract_y
_atom_site_fract_z
Si Si1 0.000000 0.168765 0.210605
Si Si2 0.703862 0.332193 0.343104
Si Si3 0.297962 0.832197 0.846101
Si Si4 0.794855 0.340627 0.000000
Si Si5 0.707407 0.657462 0.570267
Si Si6 0.000000 0.171408 0.702150
Si Si7 0.290313 0.840535 0.500000
Si Si8 0.702444 0.658852 0.918527
O O1 0.176605 0.221818 0.189046
O O2 0.000000 0.226228 0.253929
O O3 0.000000 0.000000 0.211515
O O4 0.500000 0.296941 0.334733
O O5 0.740469 0.500000 0.335983
O O6 0.755302 0.290508 0.386859
O O7 0.823673 0.234715 0.316244
O O8 0.500000 0.791740 0.836726
O O9 0.221674 0.757022 0.884560
O O10 0.278133 0.000000 0.853133
O O11 0.732330 0.265534 0.960322
O O12 0.711879 0.500000 0.000000
O O13 0.000000 0.344964 0.000000
O O14 0.500000 0.648510 0.566315
O O15 0.787124 0.500000 0.562929
O O16 0.784726 0.763984 0.538239
O O17 0.000000 0.000000 0.698190
O O18 0.500000 0.839645 0.500000
O O19 0.215344 0.000000 0.500000
O O20 0.500000 0.643060 0.910225
O O21 0.790971 0.500000 0.917860
#
# Coordination Sequence:
#
# PCOD8200548 Si02
#       8
#     4   8   8   4   8   4   4   8
#     4   9  20  37  55  76 103 134 168 204 252 321
#     4   9  19  37  59  81 109 147 187 226 271 326
#     4   9  18  34  55  75  98 132 170 208 251 300
#     4   9  17  27  42  67  98 132 167 200 242 297
#     4   8  14  26  45  68  96 136 182 220 258 312
#     4  11  23  37  57  86 113 140 177 224 279 335
#     4   9  15  21  35  66 105 138 172 219 269 312
#     4   9  17  30  48  70  97 129 165 205 248 294
#
# _framework density 19.3675
#
# number of rings (size 3 to 8) (size 9 to 14) (size 15 to 20)
#    0.000    3.000    0.000    1.750    1.167    3.667 
#    0.000    5.417    0.000    5.000    0.000    3.500 
#    0.000    0.000    0.000    0.000    0.000    0.000 
#
# Total GULP energy -594853.437095 kJ/mol
# GULP energy per Si atom -12392.779939 kJ/mol
# Density = 1.932342 g / cm^3
# Si number density = 19.367500 Si / 1000 Ang^3
#
#
#
# Elastic Constant Matrix: (Units=GPa)
#
#
# Indices 1 2 3 4 5 6 
#
# 1 76.7443 36.9451 61.2914 0.0000 0.0000 0.0000
# 2 36.9451 78.5740 74.5279 0.0000 0.0000 0.0000
# 3 61.2914 74.5279 196.0732 0.0000 0.0000 0.0000
# 4 0.0000 0.0000 0.0000 35.5560 0.0000 0.0000
# 5 0.0000 0.0000 0.0000 0.0000 -82.7784 0.0000
# 6 0.0000 0.0000 0.0000 0.0000 0.0000 17.9639
#
#
#
# Elastic Compliance Matrix: (Units=1/GPa)
#
#
# Indices 1 2 3 4 5 6 
#
# 1 0.018561 -0.005042 -0.003886 0.000000 0.000000 0.000000
# 2 -0.005042 0.021272 -0.006509 0.000000 0.000000 0.000000
# 3 -0.003886 -0.006509 0.008789 0.000000 0.000000 0.000000
# 4 0.000000 0.000000 0.000000 0.028125 0.000000 0.000000
# 5 0.000000 0.000000 0.000000 0.000000 -0.012080 0.000000
# 6 0.000000 0.000000 0.000000 0.000000 0.000000 0.055667
#
#
# Mechanical properties :
#
#
# Convention : Reuss Voigt Hill
#
# Bulk Modulus (GPa) = 56.34447 77.43559 66.89003
# Shear Modulus (GPa) = 31.82247 6.05677 18.93962
#
# Velocity S-wave (km/s) = 4.05790 1.77033 3.13054
# Velocity P-wave (km/s) = 7.14918 6.65190 6.90502
#
# Compressibility (1/GPa) = 0.01774797
#
# Stress axis : x y z
#
# Youngs Moduli (GPa) = 53.87776 47.01103 113.77838
#
# Poissons Ratio (x) = 0.23701 0.44210
# Poissons Ratio (y) = 0.27163 0.74063
# Poissons Ratio (z) = 0.20935 0.30602
#
# Static dielectric constant tensor:
#      x y z
#    x 3.334650 0.000000 0.000000 
#    y 0.000000 3.545560 0.000000 
#    z 0.000000 0.000000 3.885370 
# 
# 
# High freq. dielectric constant tensor:
#      x y z
#    x 1.744860 0.000000 0.000000 
#    y 0.000000 1.723860 0.000000 
#    z 0.000000 0.000000 1.759440 
# 
# From -- ./inp_files/34239.got.cif
#   From: 2010.03.12/outbox.cif.g09.slc.cpg/sg47_18_cif.got.tgz:34239.got - 2010.04.14 03:12:58.
