data_PCOD8200368
_publ_section_title
;
Structure prediction by ZEFSAII (Michael W. Deem and Ramdas Pophale) SiO2 
 PCOD8200368
Probable space group: P M M M
;
_chemical_formula_sum "Si O2"
_cell_formula_units_Z 44
_cell_length_a 10.850467
_cell_length_b 9.273102
_cell_length_c 24.244419
_cell_angle_alpha 90.000000
_cell_angle_beta 90.000000
_cell_angle_gamma 90.000000
_cell_volume 2439.412519
_symmetry_space_group_name_H-M "P M M M"
_symmetry_group_IT_number 47
_symmetry_cell_setting 'orthorhombic'
loop_
_space_group_symop_operation_xyz
x,y,z
-x,-y,z
x,-y,-z
-x,y,-z
-x,-y,-z
x,y,-z
-x,y,z
x,-y,z
loop_
_atom_site_type_symbol
_atom_site_label
_atom_site_fract_x
_atom_site_fract_y
_atom_site_fract_z
Si Si1 0.857059 0.841917 0.060253
Si Si2 0.706192 0.668303 0.131424
Si Si3 0.137641 0.828774 0.437720
Si Si4 0.500000 0.829499 0.063815
Si Si5 0.356643 0.338718 0.252037
Si Si6 0.359139 0.829047 0.639298
O O1 0.835792 0.715518 0.105350
O O2 0.000000 0.853910 0.052543
O O3 0.805554 0.000000 0.079043
O O4 0.798255 0.803832 0.000000
O O5 0.675370 0.500000 0.124737
O O6 0.616424 0.764859 0.094968
O O7 0.709416 0.710900 0.195894
O O8 0.156338 0.772149 0.500000
O O9 0.253591 0.768288 0.402217
O O10 0.000000 0.779365 0.416527
O O11 0.142451 0.000000 0.436675
O O12 0.500000 0.000000 0.070284
O O13 0.500000 0.782007 0.000000
O O14 0.500000 0.334778 0.238379
O O15 0.315752 0.500000 0.269496
O O16 0.322189 0.230578 0.300955
O O17 0.500000 0.779743 0.622672
O O18 0.354348 0.000000 0.641869
#
# Coordination Sequence:
#
# PCOD8200368 Si02
#       6
#     8   8   8   4   8   8
#     4   9  19  36  54  71  95 127 161 199 248 305
#     4  11  21  34  52  74  98 126 164 207 248 296
#     4   8  14  26  45  70 102 136 163 194 246 303
#     4  11  23  35  49  73 103 131 158 195 250 309
#     4   9  18  34  50  66  95 132 163 195 244 296
#     4   9  17  28  46  74  99 122 164 213 246 282
#
# _framework density 18.037127999999999
#
# number of rings (size 3 to 8) (size 9 to 14) (size 15 to 20)
#    0.000    2.636    0.909    2.455    0.000    5.455 
#    0.000    3.636    0.000    4.364    0.000    3.818 
#    0.000    0.000    0.000    0.000    0.000    0.000 
#
# Total GULP energy -545093.185915 kJ/mol
# GULP energy per Si atom -12388.481498 kJ/mol
# Density = 1.799607 g / cm^3
# Si number density = 18.037128 Si / 1000 Ang^3
#
#
#
# Elastic Constant Matrix: (Units=GPa)
#
#
# Indices 1 2 3 4 5 6 
#
# 1 90.3249 27.8878 66.8055 0.0000 0.0000 0.0000
# 2 27.8878 41.5903 41.4226 0.0000 0.0000 0.0000
# 3 66.8055 41.4226 125.4600 0.0000 0.0000 0.0000
# 4 0.0000 0.0000 0.0000 10.7063 0.0000 0.0000
# 5 0.0000 0.0000 0.0000 0.0000-2211.9785 0.0000
# 6 0.0000 0.0000 0.0000 0.0000 0.0000 14.5073
#
#
#
# Elastic Compliance Matrix: (Units=1/GPa)
#
#
# Indices 1 2 3 4 5 6 
#
# 1 0.018680 -0.003902 -0.008658 0.000000 0.000000 0.000000
# 2 -0.003902 0.036639 -0.010019 0.000000 0.000000 0.000000
# 3 -0.008658 -0.010019 0.015889 0.000000 0.000000 0.000000
# 4 0.000000 0.000000 0.000000 0.093403 0.000000 0.000000
# 5 0.000000 0.000000 0.000000 0.000000 -0.000452 0.000000
# 6 0.000000 0.000000 0.000000 0.000000 0.000000 0.068931
#
#
# Mechanical properties :
#
#
# Convention : Reuss Voigt Hill
#
# Bulk Modulus (GPa) = 38.38929 58.84522 48.61725
# Shear Modulus (GPa) = 17.42575 -429.26900 -205.92163
#
# Velocity S-wave (km/s) = 3.11159 -15.44372 -10.69641
# Velocity P-wave (km/s) = 5.85141 16.89130 11.20440
#
# Compressibility (1/GPa) = 0.02604893
#
# Stress axis : x y z
#
# Youngs Moduli (GPa) = 53.53399 27.29303 62.93600
#
# Poissons Ratio (x) = 0.10650 0.54492
# Poissons Ratio (y) = 0.20889 0.63058
# Poissons Ratio (z) = 0.46352 0.27346
#
# Static dielectric constant tensor:
#      x y z
#    x 4.005690 0.000000 0.000000 
#    y 0.000000 3.157080 0.000000 
#    z 0.000000 0.000000 3.410220 
# 
# 
# High freq. dielectric constant tensor:
#      x y z
#    x 1.695760 0.000000 0.000000 
#    y 0.000000 1.675900 0.000000 
#    z 0.000000 0.000000 1.694110 
# 
# From -- ./inp_files/31868.got.cif
#   From: 2010.03.12/outbox.cif.g09.slc.cpg/sg47_16_cif.got.tgz:31868.got - 2010.04.14 03:12:58.
