data_PCOD8200419
_publ_section_title
;
Structure prediction by ZEFSAII (Michael W. Deem and Ramdas Pophale) SiO2 
 PCOD8200419
Probable space group: P M M M
;
_chemical_formula_sum "Si O2"
_cell_formula_units_Z 44
_cell_length_a 14.176808
_cell_length_b 17.872611
_cell_length_c 8.990462
_cell_angle_alpha 90.000000
_cell_angle_beta 90.000000
_cell_angle_gamma 90.000000
_cell_volume 2277.972466
_symmetry_space_group_name_H-M "P M M M"
_symmetry_group_IT_number 47
_symmetry_cell_setting 'orthorhombic'
loop_
_space_group_symop_operation_xyz
x,y,z
-x,-y,z
x,-y,-z
-x,y,-z
-x,-y,-z
x,y,-z
-x,y,z
x,-y,z
loop_
_atom_site_type_symbol
_atom_site_label
_atom_site_fract_x
_atom_site_fract_y
_atom_site_fract_z
Si Si1 0.393388 0.636944 0.170744
Si Si2 0.212684 0.147019 0.676017
Si Si3 0.109869 0.715055 0.173655
Si Si4 0.106076 0.000000 0.323205
Si Si5 0.606197 0.812035 0.170998
Si Si6 0.784834 0.414693 0.670371
O O1 0.500000 0.616947 0.218292
O O2 0.373871 0.724511 0.192001
O O3 0.322935 0.591356 0.274899
O O4 0.376334 0.614032 0.000000
O O5 0.208293 0.152991 0.500000
O O6 0.163722 0.219144 0.744158
O O7 0.159429 0.073482 0.735709
O O8 0.321254 0.141715 0.727800
O O9 0.145580 0.635286 0.231498
O O10 0.000000 0.722448 0.208636
O O11 0.132509 0.720605 0.000000
O O12 0.104180 0.000000 0.500000
O O13 0.000000 0.000000 0.258713
O O14 0.500000 0.831753 0.222440
O O15 0.620629 0.834880 0.000000
O O16 0.789844 0.388031 0.500000
O O17 0.818647 0.500000 0.686942
#
# Coordination Sequence:
#
# PCOD8200419 Si02
#       6
#     8   8   8   4   8   8
#     4   9  18  34  57  83 113 152 193 232 279 338
#     4  11  21  36  62  91 118 151 191 236 285 338
#     4  11  24  41  61  84 111 147 192 239 288 344
#     4   9  20  38  58  85 122 158 189 229 286 345
#     4   9  18  34  57  85 118 154 191 232 280 338
#     4  11  24  39  56  83 117 150 188 238 291 341
#
# _framework density 19.315422999999999
#
# number of rings (size 3 to 8) (size 9 to 14) (size 15 to 20)
#    0.000    1.909    1.818    3.273    0.000    5.091 
#    0.000    7.727    0.000    6.000    0.000    0.000 
#    0.000    0.000    0.000    0.000    0.000    0.000 
#
# Total GULP energy -545730.620769 kJ/mol
# GULP energy per Si atom -12402.968654 kJ/mol
# Density = 1.927146 g / cm^3
# Si number density = 19.315423 Si / 1000 Ang^3
#
#
#
# Elastic Constant Matrix: (Units=GPa)
#
#
# Indices 1 2 3 4 5 6 
#
# 1 128.5364 58.7261 58.9834 0.0000 0.0000 0.0000
# 2 58.7261 93.6790 37.2213 0.0000 0.0000 0.0000
# 3 58.9834 37.2213 78.5586 0.0000 0.0000 0.0000
# 4 0.0000 0.0000 0.0000 6.7698 0.0000 0.0000
# 5 0.0000 0.0000 0.0000 0.0000 28.5943 0.0000
# 6 0.0000 0.0000 0.0000 0.0000 0.0000 24.9553
#
#
#
# Elastic Compliance Matrix: (Units=1/GPa)
#
#
# Indices 1 2 3 4 5 6 
#
# 1 0.013929 -0.005638 -0.007787 0.000000 0.000000 0.000000
# 2 -0.005638 0.015432 -0.003079 0.000000 0.000000 0.000000
# 3 -0.007787 -0.003079 0.020035 0.000000 0.000000 0.000000
# 4 0.000000 0.000000 0.000000 0.147714 0.000000 0.000000
# 5 0.000000 0.000000 0.000000 0.000000 0.034972 0.000000
# 6 0.000000 0.000000 0.000000 0.000000 0.000000 0.040072
#
#
# Mechanical properties :
#
#
# Convention : Reuss Voigt Hill
#
# Bulk Modulus (GPa) = 61.01758 67.84841 64.43299
# Shear Modulus (GPa) = 16.09661 21.78678 18.94169
#
# Velocity S-wave (km/s) = 2.88992 3.36214 3.13493
# Velocity P-wave (km/s) = 6.54173 7.09047 6.82162
#
# Compressibility (1/GPa) = 0.01638872
#
# Stress axis : x y z
#
# Youngs Moduli (GPa) = 71.79202 64.79862 49.91339
#
# Poissons Ratio (x) = 0.36533 0.38867
# Poissons Ratio (y) = 0.40476 0.15367
# Poissons Ratio (z) = 0.55904 0.19950
#
# Static dielectric constant tensor:
#      x y z
#    x 3.752430 0.000000 0.000000 
#    y 0.000000 3.434080 0.000000 
#    z 0.000000 0.000000 3.446740 
# 
# 
# High freq. dielectric constant tensor:
#      x y z
#    x 1.766420 0.000000 0.000000 
#    y 0.000000 1.739820 0.000000 
#    z 0.000000 0.000000 1.745250 
# 
# From -- ./inp_files/6189.got.cif
#   From: 2010.03.12/outbox.cif.g09.slc.cpg/sg47_4_cif.got.tgz:6189.got - 2010.04.14 03:12:58.
