data_PCOD8200788
_publ_section_title
;
Structure prediction by ZEFSAII (Michael W. Deem and Ramdas Pophale) SiO2 
 PCOD8200788
Probable space group: P M M M
;
_chemical_formula_sum "Si O2"
_cell_formula_units_Z 48
_cell_length_a 30.319220
_cell_length_b 10.089125
_cell_length_c 9.505877
_cell_angle_alpha 90.000000
_cell_angle_beta 90.000000
_cell_angle_gamma 90.000000
_cell_volume 2907.794546
_symmetry_space_group_name_H-M "P M M M"
_symmetry_group_IT_number 47
_symmetry_cell_setting 'orthorhombic'
loop_
_space_group_symop_operation_xyz
x,y,z
-x,-y,z
x,-y,-z
-x,y,-z
-x,-y,-z
x,y,-z
-x,y,z
x,-y,z
loop_
_atom_site_type_symbol
_atom_site_label
_atom_site_fract_x
_atom_site_fract_y
_atom_site_fract_z
Si Si1 0.120294 0.851739 0.667416
Si Si2 0.218682 0.148142 0.332579
Si Si3 0.551105 0.150558 0.162956
Si Si4 0.710679 0.353088 0.332645
Si Si5 0.388647 0.347047 0.664224
Si Si6 0.950806 0.351746 0.332576
O O1 0.118202 0.848140 0.500000
O O2 0.169491 0.810892 0.717338
O O3 0.084732 0.750038 0.733003
O O4 0.109045 0.000000 0.720536
O O5 0.220830 0.151646 0.500000
O O6 0.254372 0.249377 0.267154
O O7 0.229867 0.000000 0.279109
O O8 0.500000 0.174600 0.196646
O O9 0.578707 0.252938 0.253176
O O10 0.564240 0.000000 0.202913
O O11 0.560930 0.176888 0.000000
O O12 0.713256 0.353224 0.500000
O O13 0.722490 0.500000 0.276291
O O14 0.661230 0.314098 0.286672
O O15 0.394436 0.318102 0.500000
O O16 0.399829 0.500000 0.697706
O O17 0.948800 0.347879 0.500000
O O18 0.939448 0.500000 0.279707
O O19 0.000000 0.311234 0.282301
#
# Coordination Sequence:
#
# PCOD8200788 Si02
#       6
#     8   8   8   8   8   8
#     4   8  13  19  25  34  48  66  91 125 165 210
#     4   8  13  20  29  42  60  81 107 139 174 217
#     4   9  19  35  51  67  89 116 146 179 212 248
#     4   8  14  24  36  51  73  98 121 148 185 228
#     4   9  18  31  46  67  93 116 141 175 212 252
#     4   8  13  19  24  30  41  58  84 121 164 210
#
# _framework density 16.507355
#
# number of rings (size 3 to 8) (size 9 to 14) (size 15 to 20)
#    0.000    3.667    0.000    3.000    0.000    3.000 
#    0.000    9.167    0.000    0.000    0.000    0.000 
#    0.000    0.000    0.000    0.000    0.000    0.000 
#
# Total GULP energy -594802.768244 kJ/mol
# GULP energy per Si atom -12391.724338 kJ/mol
# Density = 1.646978 g / cm^3
# Si number density = 16.507355 Si / 1000 Ang^3
#
#
#
# Elastic Constant Matrix: (Units=GPa)
#
#
# Indices 1 2 3 4 5 6 
#
# 1 139.7181 113.0692 31.4443 0.0000 0.0000 0.0000
# 2 113.0692 141.5388 32.2767 0.0000 0.0000 0.0000
# 3 31.4443 32.2767 17.4689 0.0000 0.0000 0.0000
# 4 0.0000 0.0000 0.0000 13.7375 0.0000 0.0000
# 5 0.0000 0.0000 0.0000 0.0000 -2.0434 0.0000
# 6 0.0000 0.0000 0.0000 0.0000 0.0000 43.4404
#
#
#
# Elastic Compliance Matrix: (Units=1/GPa)
#
#
# Indices 1 2 3 4 5 6 
#
# 1 0.021634 -0.014520 -0.012113 0.000000 0.000000 0.000000
# 2 -0.014520 0.021955 -0.014429 0.000000 0.000000 0.000000
# 3 -0.012113 -0.014429 0.105709 0.000000 0.000000 0.000000
# 4 0.000000 0.000000 0.000000 0.072794 0.000000 0.000000
# 5 0.000000 0.000000 0.000000 0.000000 -0.489377 0.000000
# 6 0.000000 0.000000 0.000000 0.000000 0.000000 0.023020
#
#
# Mechanical properties :
#
#
# Convention : Reuss Voigt Hill
#
# Bulk Modulus (GPa) = 14.88698 72.47846 43.68272
# Shear Modulus (GPa) = -35.77853 19.15594 -8.31130
#
# Velocity S-wave (km/s) = -4.66062 3.41023 -2.24629
# Velocity P-wave (km/s) = 4.46361 7.71416 4.44885
#
# Compressibility (1/GPa) = 0.06717281
#
# Stress axis : x y z
#
# Youngs Moduli (GPa) = 46.22293 45.54697 9.45995
#
# Poissons Ratio (x) = 0.66136 0.11459
# Poissons Ratio (y) = 0.67117 0.13650
# Poissons Ratio (z) = 0.55991 0.65721
#
# Static dielectric constant tensor:
#      x y z
#    x 3.374140 0.000000 0.000000 
#    y 0.000000 3.409050 0.000000 
#    z 0.000000 0.000000 2.383460 
# 
# 
# High freq. dielectric constant tensor:
#      x y z
#    x 1.645210 0.000000 0.000000 
#    y 0.000000 1.644650 0.000000 
#    z 0.000000 0.000000 1.554770 
# 
# From -- ./inp_files/19994.got.cif
#   From: 2010.03.12/outbox.cif.g09.slc.cpg/sg47_10_cif.got.tgz:19994.got - 2010.04.14 03:12:58.
