data_PCOD8200282
_publ_section_title
;
Structure prediction by ZEFSAII (Michael W. Deem and Ramdas Pophale) SiO2 
 PCOD8200282
Probable space group: P M M M
;
_chemical_formula_sum "Si O2"
_cell_formula_units_Z 52
_cell_length_a 13.847568
_cell_length_b 26.646688
_cell_length_c 8.894683
_cell_angle_alpha 90.000000
_cell_angle_beta 90.000000
_cell_angle_gamma 90.000000
_cell_volume 3282.065305
_symmetry_space_group_name_H-M "P M M M"
_symmetry_group_IT_number 47
_symmetry_cell_setting 'orthorhombic'
loop_
_space_group_symop_operation_xyz
x,y,z
-x,-y,z
x,-y,-z
-x,y,-z
-x,-y,-z
x,y,-z
-x,y,z
x,-y,z
loop_
_atom_site_type_symbol
_atom_site_label
_atom_site_fract_x
_atom_site_fract_y
_atom_site_fract_z
Si Si1 0.289593 0.704799 0.323216
Si Si2 0.784523 0.145553 0.823109
Si Si3 0.110938 0.057746 0.326744
Si Si4 0.390459 0.194929 0.677991
Si Si5 0.891204 0.764184 0.323864
Si Si6 0.614772 0.500000 0.665047
Si Si7 0.390820 0.607464 0.319813
O O1 0.301409 0.699757 0.500000
O O2 0.358922 0.749619 0.266549
O O3 0.179052 0.717943 0.278369
O O4 0.322354 0.651486 0.252628
O O5 0.819789 0.090398 0.778053
O O6 0.678141 0.153906 0.754728
O O7 0.861582 0.185704 0.762412
O O8 0.778005 0.150346 0.000000
O O9 0.127436 0.072546 0.500000
O O10 0.000000 0.067542 0.281939
O O11 0.138229 0.000000 0.299372
O O12 0.378080 0.190376 0.500000
O O13 0.500000 0.184876 0.728856
O O14 0.880641 0.776059 0.500000
O O15 0.000000 0.748841 0.280387
O O16 0.500000 0.500000 0.648698
O O17 0.662578 0.500000 0.500000
O O18 0.644382 0.552804 0.745924
O O19 0.386853 0.604737 0.500000
O O20 0.500000 0.619319 0.267794
#
# Coordination Sequence:
#
# PCOD8200282 Si02
#       7
#     8   8   8   8   8   4   8
#     4   8  13  21  35  55  74  97 135 177 210 239
#     4  11  21  30  44  67  93 117 138 166 208 254
#     4   9  18  33  52  71  90 114 144 176 208 243
#     4   9  17  30  47  64  83 111 147 180 207 241
#     4   9  17  29  43  58  79 108 142 177 209 246
#     4   7  10  14  20  36  65  99 128 155 197 251
#     4   8  11  15  25  43  69  98 128 164 204 247
#
# _framework density 15.843681999999999
#
# number of rings (size 3 to 8) (size 9 to 14) (size 15 to 20)
#    0.000    3.154    0.000    4.615    0.000    4.923 
#    0.000    0.769    0.000    0.462    0.000    3.769 
#    0.000    4.308    0.000   11.077    0.000  110.154 
#
# Total GULP energy -644356.599224 kJ/mol
# GULP energy per Si atom -12391.473062 kJ/mol
# Density = 1.580762 g / cm^3
# Si number density = 15.843682 Si / 1000 Ang^3
#
#
#
# Elastic Constant Matrix: (Units=GPa)
#
#
# Indices 1 2 3 4 5 6 
#
# 1 122.2751 65.4227 31.1966 0.0000 0.0000 0.0000
# 2 65.4227 117.0303 25.6719 0.0000 0.0000 0.0000
# 3 31.1966 25.6719 36.2893 0.0000 0.0000 0.0000
# 4 0.0000 0.0000 0.0000 1.2916 0.0000 0.0000
# 5 0.0000 0.0000 0.0000 0.0000 6.8378 0.0000
# 6 0.0000 0.0000 0.0000 0.0000 0.0000 25.8040
#
#
#
# Elastic Compliance Matrix: (Units=1/GPa)
#
#
# Indices 1 2 3 4 5 6 
#
# 1 0.013081 -0.005736 -0.007188 0.000000 0.000000 0.000000
# 2 -0.005736 0.012630 -0.004003 0.000000 0.000000 0.000000
# 3 -0.007188 -0.004003 0.036567 0.000000 0.000000 0.000000
# 4 0.000000 0.000000 0.000000 0.774214 0.000000 0.000000
# 5 0.000000 0.000000 0.000000 0.000000 0.146245 0.000000
# 6 0.000000 0.000000 0.000000 0.000000 0.000000 0.038754
#
#
# Mechanical properties :
#
#
# Convention : Reuss Voigt Hill
#
# Bulk Modulus (GPa) = 35.18147 57.79746 46.48946
# Shear Modulus (GPa) = 4.69563 17.00692 10.85128
#
# Velocity S-wave (km/s) = 1.72342 3.27986 2.61989
# Velocity P-wave (km/s) = 5.11994 7.13459 6.20951
#
# Compressibility (1/GPa) = 0.02842406
#
# Stress axis : x y z
#
# Youngs Moduli (GPa) = 76.44621 79.17955 27.34676
#
# Poissons Ratio (x) = 0.45417 0.19656
# Poissons Ratio (y) = 0.43849 0.10948
# Poissons Ratio (z) = 0.54947 0.31699
#
# Static dielectric constant tensor:
#      x y z
#    x 3.025890 0.000000 0.000000 
#    y 0.000000 3.277200 0.000000 
#    z 0.000000 0.000000 2.605740 
# 
# 
# High freq. dielectric constant tensor:
#      x y z
#    x 1.591410 0.000000 0.000000 
#    y 0.000000 1.608180 0.000000 
#    z 0.000000 0.000000 1.565900 
# 
# From -- ./inp_files/8032.got.cif
#   From: 2010.03.12/outbox.cif.g09.slc.cpg/sg47_5_cif.got.tgz:8032.got - 2010.04.14 03:12:58.
