data_PCOD8200058
_publ_section_title
;
Structure prediction by ZEFSAII (Michael W. Deem and Ramdas Pophale) SiO2 
 PCOD8200058
Probable space group: P M M M
;
_chemical_formula_sum "Si O2"
_cell_formula_units_Z 40
_cell_length_a 9.221986
_cell_length_b 28.383940
_cell_length_c 7.748104
_cell_angle_alpha 90.000000
_cell_angle_beta 90.000000
_cell_angle_gamma 90.000000
_cell_volume 2028.115014
_symmetry_space_group_name_H-M "P M M M"
_symmetry_group_IT_number 47
_symmetry_cell_setting 'orthorhombic'
loop_
_space_group_symop_operation_xyz
x,y,z
-x,-y,z
x,-y,-z
-x,y,-z
-x,-y,-z
x,y,-z
-x,y,z
x,-y,z
loop_
_atom_site_type_symbol
_atom_site_label
_atom_site_fract_x
_atom_site_fract_y
_atom_site_fract_z
Si Si1 0.326916 0.107203 0.500000
Si Si2 0.337733 0.640761 0.695391
Si Si3 0.833873 0.055329 0.197246
Si Si4 0.835214 0.727256 0.808459
Si Si5 0.835095 0.447063 0.797550
Si Si6 0.171465 0.205998 0.500000
O O1 0.500000 0.107753 0.500000
O O2 0.272825 0.081555 0.672838
O O3 0.265529 0.159443 0.500000
O O4 0.337082 0.658998 0.500000
O O5 0.500000 0.636616 0.768638
O O6 0.253663 0.678948 0.808108
O O7 0.266226 0.589464 0.699950
O O8 0.000000 0.069666 0.237885
O O9 0.813304 0.000000 0.224245
O O10 0.795135 0.069330 0.000000
O O11 0.780508 0.765209 0.669951
O O12 0.000000 0.713481 0.764622
O O13 0.821194 0.749576 0.000000
O O14 0.785388 0.500000 0.749267
O O15 0.000000 0.439110 0.737378
O O16 0.821130 0.438528 0.000000
O O17 0.000000 0.194346 0.500000
#
# Coordination Sequence:
#
# PCOD8200058 Si02
#       6
#     4   8   8   8   8   4
#     4  12  25  37  56  89 130 167 199 244 307 370
#     4  11  23  36  53  80 114 147 180 222 277 343
#     4   9  19  38  64  91 120 161 214 262 299 345
#     4  10  21  39  64  88 108 139 188 241 290 340
#     4   9  19  36  56  78 105 139 182 229 275 328
#     4  10  22  41  61  84 115 152 198 248 291 341
#
# _framework density 19.722749
#
# number of rings (size 3 to 8) (size 9 to 14) (size 15 to 20)
#    0.000    2.000    1.000    3.600    0.000    8.800 
#    0.000    6.000    0.000    0.000    0.000    0.000 
#    0.000    0.000    0.000    0.000    0.000    0.000 
#
# Total GULP energy -496055.049885 kJ/mol
# GULP energy per Si atom -12401.376247 kJ/mol
# Density = 1.967786 g / cm^3
# Si number density = 19.722749 Si / 1000 Ang^3
#
#
#
# Elastic Constant Matrix: (Units=GPa)
#
#
# Indices 1 2 3 4 5 6 
#
# 1 117.4551 69.7741 53.4637 0.0000 0.0000 0.0000
# 2 69.7741 116.9755 59.9022 0.0000 0.0000 0.0000
# 3 53.4637 59.9022 116.9168 0.0000 0.0000 0.0000
# 4 0.0000 0.0000 0.0000 153.3765 0.0000 0.0000
# 5 0.0000 0.0000 0.0000 0.0000 22.4678 0.0000
# 6 0.0000 0.0000 0.0000 0.0000 0.0000 -3.7830
#
#
#
# Elastic Compliance Matrix: (Units=1/GPa)
#
#
# Indices 1 2 3 4 5 6 
#
# 1 0.013852 -0.006804 -0.002848 0.000000 0.000000 0.000000
# 2 -0.006804 0.014932 -0.004539 0.000000 0.000000 0.000000
# 3 -0.002848 -0.004539 0.012181 0.000000 0.000000 0.000000
# 4 0.000000 0.000000 0.000000 0.006520 0.000000 0.000000
# 5 0.000000 0.000000 0.000000 0.000000 0.044508 0.000000
# 6 0.000000 0.000000 0.000000 0.000000 0.000000 -0.264342
#
#
# Mechanical properties :
#
#
# Convention : Reuss Voigt Hill
#
# Bulk Modulus (GPa) = 79.47542 79.73639 79.60591
# Shear Modulus (GPa) = -35.77250 45.62609 4.92680
#
# Velocity S-wave (km/s) = -4.26346 4.81497 1.58223
# Velocity P-wave (km/s) = 4.01842 8.45153 6.61725
#
# Compressibility (1/GPa) = 0.01258251
#
# Stress axis : x y z
#
# Youngs Moduli (GPa) = 72.18970 66.97183 82.09475
#
# Poissons Ratio (x) = 0.45568 0.23383
# Poissons Ratio (y) = 0.49119 0.37261
# Poissons Ratio (z) = 0.20562 0.30397
#
# Static dielectric constant tensor:
#      x y z
#    x 3.524810 0.000000 0.000000 
#    y 0.000000 3.472720 0.000000 
#    z 0.000000 0.000000 3.683860 
# 
# 
# High freq. dielectric constant tensor:
#      x y z
#    x 1.757110 0.000000 0.000000 
#    y 0.000000 1.763100 0.000000 
#    z 0.000000 0.000000 1.780360 
# 
# From -- ./inp_files/1737.got.cif
#   From: 2010.03.12/outbox.cif.g09.slc.cpg/sg47_1_cif.got.tgz:1737.got - 2010.04.14 03:12:58.
