data_PCOD8200223
_publ_section_title
;
Structure prediction by ZEFSAII (Michael W. Deem and Ramdas Pophale) SiO2 
 PCOD8200223
Probable space group: P M M M
;
_chemical_formula_sum "Si O2"
_cell_formula_units_Z 32
_cell_length_a 17.164638
_cell_length_b 8.995820
_cell_length_c 12.641058
_cell_angle_alpha 90.000000
_cell_angle_beta 90.000000
_cell_angle_gamma 90.000000
_cell_volume 1951.905688
_symmetry_space_group_name_H-M "P M M M"
_symmetry_group_IT_number 47
_symmetry_cell_setting 'orthorhombic'
loop_
_space_group_symop_operation_xyz
x,y,z
-x,-y,z
x,-y,-z
-x,y,-z
-x,-y,-z
x,y,-z
-x,y,z
x,-y,z
loop_
_atom_site_type_symbol
_atom_site_label
_atom_site_fract_x
_atom_site_fract_y
_atom_site_fract_z
Si Si1 0.000000 0.337553 0.125246
Si Si2 0.316281 0.824496 0.201494
Si Si3 0.589563 0.329410 0.377882
Si Si4 0.168059 0.322674 0.120905
Si Si5 0.587478 0.823303 0.000000
O O1 0.917841 0.259237 0.156550
O O2 0.000000 0.500000 0.178598
O O3 0.000000 0.357638 0.000000
O O4 0.356233 0.778513 0.310550
O O5 0.231166 0.751479 0.196974
O O6 0.368317 0.764493 0.104015
O O7 0.306883 0.000000 0.197204
O O8 0.610260 0.303118 0.500000
O O9 0.500000 0.287618 0.356084
O O10 0.605177 0.500000 0.346210
O O11 0.170013 0.500000 0.132422
O O12 0.185822 0.275641 0.000000
O O13 0.500000 0.757567 0.000000
O O14 0.584687 0.000000 0.000000
#
# Coordination Sequence:
#
# PCOD8200223 Si02
#       5
#     4   8   8   8   4
#     4   7  12  24  43  65  88 121 160 195 229 269
#     4  11  20  30  46  69  99 129 158 191 233 283
#     4   9  19  36  54  70  90 118 157 205 247 279
#     4   9  16  28  46  67  94 126 161 196 231 274
#     4   9  18  30  41  58  91 130 158 183 221 269
#
# _framework density 16.394235999999999
#
# number of rings (size 3 to 8) (size 9 to 14) (size 15 to 20)
#    0.000    2.750    1.250    3.750    0.000    2.000 
#    0.000    1.875    0.000    5.250    0.000    0.875 
#    0.000    7.000    0.000    0.000    0.000    0.000 
#
# Total GULP energy -396615.425213 kJ/mol
# GULP energy per Si atom -12394.232038 kJ/mol
# Density = 1.635692 g / cm^3
# Si number density = 16.394236 Si / 1000 Ang^3
#
#
#
# Elastic Constant Matrix: (Units=GPa)
#
#
# Indices 1 2 3 4 5 6 
#
# 1 145.1240 36.7650 49.0345 0.0000 0.0000 0.0000
# 2 36.7650 38.5243 23.0852 0.0000 0.0000 0.0000
# 3 49.0345 23.0852 63.8018 0.0000 0.0000 0.0000
# 4 0.0000 0.0000 0.0000 21.5691 0.0000 0.0000
# 5 0.0000 0.0000 0.0000 0.0000 19.3884 0.0000
# 6 0.0000 0.0000 0.0000 0.0000 0.0000 14.2344
#
#
#
# Elastic Compliance Matrix: (Units=1/GPa)
#
#
# Indices 1 2 3 4 5 6 
#
# 1 0.010477 -0.006606 -0.005662 0.000000 0.000000 0.000000
# 2 -0.006606 0.037309 -0.008423 0.000000 0.000000 0.000000
# 3 -0.005662 -0.008423 0.023073 0.000000 0.000000 0.000000
# 4 0.000000 0.000000 0.000000 0.046363 0.000000 0.000000
# 5 0.000000 0.000000 0.000000 0.000000 0.051577 0.000000
# 6 0.000000 0.000000 0.000000 0.000000 0.000000 0.070252
#
#
# Mechanical properties :
#
#
# Convention : Reuss Voigt Hill
#
# Bulk Modulus (GPa) = 33.92368 51.69106 42.80737
# Shear Modulus (GPa) = 17.22608 20.27608 18.75108
#
# Velocity S-wave (km/s) = 3.24503 3.52060 3.38562
# Velocity P-wave (km/s) = 5.89726 6.93720 6.43826
#
# Compressibility (1/GPa) = 0.02947794
#
# Stress axis : x y z
#
# Youngs Moduli (GPa) = 95.44489 26.80322 43.34150
#
# Poissons Ratio (x) = 0.17706 0.24540
# Poissons Ratio (y) = 0.63050 0.36504
# Poissons Ratio (z) = 0.54041 0.22575
#
# Static dielectric constant tensor:
#      x y z
#    x 3.395090 0.000000 0.000000 
#    y 0.000000 2.785410 0.000000 
#    z 0.000000 0.000000 2.798660 
# 
# 
# High freq. dielectric constant tensor:
#      x y z
#    x 1.643970 0.000000 0.000000 
#    y 0.000000 1.607870 0.000000 
#    z 0.000000 0.000000 1.594990 
# 
# From -- ./inp_files/3572.got.cif
#   From: 2010.03.12/outbox.cif.g09.slc.cpg/sg47_2_cif.got.tgz:3572.got - 2010.04.14 03:12:58.
