data_PCOD8200850
_publ_section_title
;
Structure prediction by ZEFSAII (Michael W. Deem and Ramdas Pophale) SiO2 
 PCOD8200850
Probable space group: P M M M
;
_chemical_formula_sum "Si O2"
_cell_formula_units_Z 44
_cell_length_a 9.311084
_cell_length_b 7.813772
_cell_length_c 30.399743
_cell_angle_alpha 90.000000
_cell_angle_beta 90.000000
_cell_angle_gamma 90.000000
_cell_volume 2211.723800
_symmetry_space_group_name_H-M "P M M M"
_symmetry_group_IT_number 47
_symmetry_cell_setting 'orthorhombic'
loop_
_space_group_symop_operation_xyz
x,y,z
-x,-y,z
x,-y,-z
-x,y,-z
-x,-y,-z
x,y,-z
-x,y,z
x,-y,z
loop_
_atom_site_type_symbol
_atom_site_label
_atom_site_fract_x
_atom_site_fract_y
_atom_site_fract_z
Si Si1 0.162144 0.796081 0.213962
Si Si2 0.336923 0.797053 0.702400
Si Si3 0.670368 0.310325 0.607764
Si Si4 0.161189 0.203497 0.048608
Si Si5 0.671636 0.000000 0.549580
Si Si6 0.338244 0.204306 0.130442
O O1 0.239564 0.727370 0.257857
O O2 0.247767 0.725498 0.171735
O O3 0.000000 0.725013 0.212570
O O4 0.162711 0.000000 0.213640
O O5 0.500000 0.734714 0.710597
O O6 0.272725 0.721372 0.657162
O O7 0.331834 0.000000 0.698996
O O8 0.500000 0.291959 0.608899
O O9 0.717473 0.500000 0.591940
O O10 0.732394 0.169054 0.574116
O O11 0.267726 0.277460 0.085621
O O12 0.000000 0.269983 0.058138
O O13 0.161830 0.000000 0.050397
O O14 0.211394 0.265239 0.000000
O O15 0.500000 0.000000 0.549590
O O16 0.731567 0.000000 0.500000
O O17 0.500000 0.274921 0.133777
O O18 0.337776 0.000000 0.130349
#
# Coordination Sequence:
#
# PCOD8200850 Si02
#       6
#     8   8   8   8   4   8
#     4   9  16  24  35  52  73  98 131 174 224 277
#     4   9  15  25  41  58  80 111 146 184 227 276
#     4   9  16  26  41  62  89 123 161 198 239 286
#     4   8  13  20  28  37  53  83 124 171 224 278
#     4   9  16  26  40  62  95 131 165 201 240 283
#     4   9  15  21  29  43  64  90 125 171 222 277
#
# _framework density 19.893984
#
# number of rings (size 3 to 8) (size 9 to 14) (size 15 to 20)
#    0.000    3.182    0.909    1.636    0.000    5.091 
#    0.000    3.636    0.000    0.545    0.000    0.000 
#    0.000    1.455    0.000    1.636    0.000    2.727 
#
# Total GULP energy -545385.120190 kJ/mol
# GULP energy per Si atom -12395.116368 kJ/mol
# Density = 1.984870 g / cm^3
# Si number density = 19.893984 Si / 1000 Ang^3
#
#
#
# Elastic Constant Matrix: (Units=GPa)
#
#
# Indices 1 2 3 4 5 6 
#
# 1 107.5835 18.0036 79.2198 0.0000 0.0000 0.0000
# 2 18.0036 55.1942 48.1629 0.0000 0.0000 0.0000
# 3 79.2198 48.1629 203.7339 0.0000 0.0000 0.0000
# 4 0.0000 0.0000 0.0000 -0.0598 0.0000 0.0000
# 5 0.0000 0.0000 0.0000 0.0000 13.6317 0.0000
# 6 0.0000 0.0000 0.0000 0.0000 0.0000 0.0635
#
#
#
# Elastic Compliance Matrix: (Units=1/GPa)
#
#
# Indices 1 2 3 4 5 6 
#
# 1 0.013026 0.000215 -0.005116 0.000000 0.000000 0.000000
# 2 0.000215 0.022830 -0.005481 0.000000 0.000000 0.000000
# 3 -0.005116 -0.005481 0.008193 0.000000 0.000000 0.000000
# 4 0.000000 0.000000 0.000000-16.731185 0.000000 0.000000
# 5 0.000000 0.000000 0.000000 0.000000 0.073359 0.000000
# 6 0.000000 0.000000 0.000000 0.000000 0.000000 15.737704
#
#
# Mechanical properties :
#
#
# Convention : Reuss Voigt Hill
#
# Bulk Modulus (GPa) = 42.94278 73.03156 57.98717
# Shear Modulus (GPa) = -5.89937 17.46878 5.78470
#
# Velocity S-wave (km/s) = -1.72390 2.96648 1.70707
# Velocity P-wave (km/s) = 4.20360 6.96587 5.75298
#
# Compressibility (1/GPa) = 0.02328680
#
# Stress axis : x y z
#
# Youngs Moduli (GPa) = 76.76772 43.80158 122.05025
#
# Poissons Ratio (x) = -0.00943 0.62441
# Poissons Ratio (y) = -0.01653 0.66893
# Poissons Ratio (z) = 0.39275 0.24007
#
# Static dielectric constant tensor:
#      x y z
#    x 3.415270 0.000000 0.000000 
#    y 0.000000 3.145260 0.000000 
#    z 0.000000 0.000000 3.896500 
# 
# 
# High freq. dielectric constant tensor:
#      x y z
#    x 1.734640 0.000000 0.000000 
#    y 0.000000 1.736460 0.000000 
#    z 0.000000 0.000000 1.785660 
# 
# From -- ./inp_files/33928.got.cif
#   From: 2010.03.12/outbox.cif.g09.slc.cpg/sg47_17_cif.got.tgz:33928.got - 2010.04.14 03:12:58.
