data_PCOD8200919
_publ_section_title
;
Structure prediction by ZEFSAII (Michael W. Deem and Ramdas Pophale) SiO2 
 PCOD8200919
Probable space group: P M M M
;
_chemical_formula_sum "Si O2"
_cell_formula_units_Z 60
_cell_length_a 9.430035
_cell_length_b 20.312802
_cell_length_c 28.210422
_cell_angle_alpha 90.000000
_cell_angle_beta 90.000000
_cell_angle_gamma 90.000000
_cell_volume 5403.718572
_symmetry_space_group_name_H-M "P M M M"
_symmetry_group_IT_number 47
_symmetry_cell_setting 'orthorhombic'
loop_
_space_group_symop_operation_xyz
x,y,z
-x,-y,z
x,-y,-z
-x,y,-z
-x,-y,-z
x,y,-z
-x,y,z
x,-y,z
loop_
_atom_site_type_symbol
_atom_site_label
_atom_site_fract_x
_atom_site_fract_y
_atom_site_fract_z
Si Si1 0.840844 0.072943 0.056377
Si Si2 0.338639 0.421603 0.500000
Si Si3 0.659095 0.421854 0.218354
Si Si4 0.164599 0.318636 0.054398
Si Si5 0.160579 0.421472 0.410348
Si Si6 0.834791 0.574876 0.130496
Si Si7 0.659757 0.578352 0.322948
Si Si8 0.340456 0.806799 0.056445
O O1 0.734888 0.127833 0.077411
O O2 0.000000 0.087034 0.074928
O O3 0.791038 0.000000 0.072844
O O4 0.840578 0.076537 0.000000
O O5 0.342184 0.500000 0.500000
O O6 0.500000 0.394232 0.500000
O O7 0.254491 0.395243 0.454088
O O8 0.500000 0.397424 0.207983
O O9 0.666206 0.500000 0.218196
O O10 0.759609 0.394339 0.176917
O O11 0.707578 0.396789 0.270567
O O12 0.206528 0.382624 0.084636
O O13 0.255155 0.257283 0.073587
O O14 0.000000 0.300033 0.060226
O O15 0.201182 0.335286 0.000000
O O16 0.158747 0.500000 0.410391
O O17 0.231416 0.393795 0.362061
O O18 0.000000 0.394303 0.414340
O O19 0.785405 0.500000 0.120289
O O20 0.000000 0.577940 0.141213
O O21 0.500000 0.603057 0.334174
O O22 0.660741 0.500000 0.324340
O O23 0.500000 0.803666 0.076489
O O24 0.340389 0.809600 0.000000
#
# Coordination Sequence:
#
# PCOD8200919 Si02
#       8
#     8   4   8   8   8   8   8   8
#     4   8  13  21  33  48  65  84 102 116 131 153
#     4   9  15  21  27  33  45  67  89 105 121 143
#     4   8  14  24  36  47  58  71  84 101 130 168
#     4   9  17  28  39  48  60  79  98 115 139 173
#     4   9  15  20  26  37  51  65  82 104 126 145
#     4   9  17  27  38  51  62  71  88 116 147 177
#     4   8  13  21  31  41  52  66  83  99 119 153
#     4   9  16  24  34  48  64  80  98 119 138 156
#
# _framework density 11.103465
#
# number of rings (size 3 to 8) (size 9 to 14) (size 15 to 20)
#    0.000    3.400    0.000    2.200    0.000    5.600 
#    0.000    5.333    0.000    0.000    0.000    3.733 
#    0.000    0.000    0.000    0.000    0.000    0.000 
#
# Total GULP energy -743560.297835 kJ/mol
# GULP energy per Si atom -12392.671631 kJ/mol
# Density = 1.107819 g / cm^3
# Si number density = 11.103465 Si / 1000 Ang^3
#
#
#
# Elastic Constant Matrix: (Units=GPa)
#
#
# Indices 1 2 3 4 5 6 
#
# 1 75.9389 30.9622 41.9791 0.0000 0.0000 0.0000
# 2 30.9622 42.2983 24.6492 0.0000 0.0000 0.0000
# 3 41.9791 24.6492 67.0767 0.0000 0.0000 0.0000
# 4 0.0000 0.0000 0.0000 0.2995 0.0000 0.0000
# 5 0.0000 0.0000 0.0000 0.0000 18.0581 0.0000
# 6 0.0000 0.0000 0.0000 0.0000 0.0000 8.2829
#
#
#
# Elastic Compliance Matrix: (Units=1/GPa)
#
#
# Indices 1 2 3 4 5 6 
#
# 1 0.023582 -0.011022 -0.010708 0.000000 0.000000 0.000000
# 2 -0.011022 0.035235 -0.006050 0.000000 0.000000 0.000000
# 3 -0.010708 -0.006050 0.023833 0.000000 0.000000 0.000000
# 4 0.000000 0.000000 0.000000 3.339450 0.000000 0.000000
# 5 0.000000 0.000000 0.000000 0.000000 0.055377 0.000000
# 6 0.000000 0.000000 0.000000 0.000000 0.000000 0.120731
#
#
# Mechanical properties :
#
#
# Convention : Reuss Voigt Hill
#
# Bulk Modulus (GPa) = 36.91413 42.27719 39.59566
# Shear Modulus (GPa) = 1.36508 11.17632 6.27070
#
# Velocity S-wave (km/s) = 1.10999 3.17608 2.37903
# Velocity P-wave (km/s) = 5.91274 7.18389 6.57909
#
# Compressibility (1/GPa) = 0.02708990
#
# Stress axis : x y z
#
# Youngs Moduli (GPa) = 42.40577 28.38065 41.95821
#
# Poissons Ratio (x) = 0.31280 0.44929
# Poissons Ratio (y) = 0.46738 0.25387
# Poissons Ratio (z) = 0.45409 0.17172
#
# Static dielectric constant tensor:
#      x y z
#    x 2.548390 0.000000 0.000000 
#    y 0.000000 2.081430 0.000000 
#    z 0.000000 0.000000 2.372850 
# 
# 
# High freq. dielectric constant tensor:
#      x y z
#    x 1.431370 0.000000 0.000000 
#    y 0.000000 1.362920 0.000000 
#    z 0.000000 0.000000 1.396960 
# 
# From -- ./inp_files/33503.got.cif
#   From: 2010.03.12/outbox.cif.g09.slc.cpg/sg47_17_cif.got.tgz:33503.got - 2010.04.14 03:12:58.
