data_PCOD8200352
_publ_section_title
;
Structure prediction by ZEFSAII (Michael W. Deem and Ramdas Pophale) SiO2 
 PCOD8200352
Probable space group: P M M M
;
_chemical_formula_sum "Si O2"
_cell_formula_units_Z 52
_cell_length_a 20.830907
_cell_length_b 8.877187
_cell_length_c 14.660843
_cell_angle_alpha 90.000000
_cell_angle_beta 90.000000
_cell_angle_gamma 90.000000
_cell_volume 2711.080988
_symmetry_space_group_name_H-M "P M M M"
_symmetry_group_IT_number 47
_symmetry_cell_setting 'orthorhombic'
loop_
_space_group_symop_operation_xyz
x,y,z
-x,-y,z
x,-y,-z
-x,y,-z
-x,-y,-z
x,y,-z
-x,y,z
x,-y,z
loop_
_atom_site_type_symbol
_atom_site_label
_atom_site_fract_x
_atom_site_fract_y
_atom_site_fract_z
Si Si1 0.000000 0.679291 0.104541
Si Si2 0.226423 0.826935 0.105338
Si Si3 0.628410 0.821269 0.901755
Si Si4 0.570338 0.179751 0.719993
Si Si5 0.686210 0.821052 0.601203
Si Si6 0.120582 0.677057 0.221464
Si Si7 0.169729 0.821950 0.604455
O O1 0.061428 0.739270 0.160953
O O2 0.000000 0.500000 0.099940
O O3 0.000000 0.742925 0.000000
O O4 0.299090 0.772352 0.121182
O O5 0.184654 0.719501 0.168128
O O6 0.217225 0.000000 0.136650
O O7 0.206492 0.807875 0.000000
O O8 0.580274 0.763815 0.823836
O O9 0.627709 0.000000 0.907621
O O10 0.606883 0.754248 0.000000
O O11 0.500000 0.236414 0.686588
O O12 0.628694 0.249429 0.661371
O O13 0.572972 0.000000 0.715076
O O14 0.674046 0.760182 0.500000
O O15 0.757590 0.772318 0.632888
O O16 0.682493 0.000000 0.603691
O O17 0.115321 0.500000 0.233363
O O18 0.120755 0.746933 0.323656
O O19 0.154924 0.769882 0.500000
O O20 0.162193 0.000000 0.610931
#
# Coordination Sequence:
#
# PCOD8200352 Si02
#       7
#     4   8   8   8   8   8   8
#     4   9  20  38  54  71 102 140 167 185 222 287
#     4   9  17  30  49  71  95 126 164 204 245 290
#     4   8  14  24  37  54  79 114 154 193 234 280
#     4   9  15  20  29  50  82 119 154 187 226 276
#     4   8  14  25  41  60  83 115 153 190 232 282
#     4  11  21  33  53  77 101 130 161 198 242 284
#     4   9  18  34  55  75  97 129 166 202 243 291
#
# _framework density 19.180541000000002
#
# number of rings (size 3 to 8) (size 9 to 14) (size 15 to 20)
#    0.000    3.000    0.000    3.692    0.000    4.308 
#    0.000    5.000    0.000    5.077    0.000    0.000 
#    0.000    9.846    0.000   27.077    0.000   27.077 
#
# Total GULP energy -644352.654895 kJ/mol
# GULP energy per Si atom -12391.397210 kJ/mol
# Density = 1.913689 g / cm^3
# Si number density = 19.180541 Si / 1000 Ang^3
#
#
#
# Elastic Constant Matrix: (Units=GPa)
#
#
# Indices 1 2 3 4 5 6 
#
# 1 86.6679 14.5879 70.7483 0.0000 0.0000 0.0000
# 2 14.5879 20.8996 21.7641 0.0000 0.0000 0.0000
# 3 70.7483 21.7641 130.1251 0.0000 0.0000 0.0000
# 4 0.0000 0.0000 0.0000 19.7669 0.0000 0.0000
# 5 0.0000 0.0000 0.0000 0.0000 32.2680 0.0000
# 6 0.0000 0.0000 0.0000 0.0000 0.0000 1.5784
#
#
#
# Elastic Compliance Matrix: (Units=1/GPa)
#
#
# Indices 1 2 3 4 5 6 
#
# 1 0.020937 -0.003342 -0.010824 0.000000 0.000000 0.000000
# 2 -0.003342 0.058473 -0.007963 0.000000 0.000000 0.000000
# 3 -0.010824 -0.007963 0.014902 0.000000 0.000000 0.000000
# 4 0.000000 0.000000 0.000000 0.050590 0.000000 0.000000
# 5 0.000000 0.000000 0.000000 0.000000 0.030991 0.000000
# 6 0.000000 0.000000 0.000000 0.000000 0.000000 0.633558
#
#
# Mechanical properties :
#
#
# Convention : Reuss Voigt Hill
#
# Bulk Modulus (GPa) = 19.97871 50.21036 35.09453
# Shear Modulus (GPa) = 5.74454 19.42880 12.58667
#
# Velocity S-wave (km/s) = 1.73248 3.18613 2.56446
# Velocity P-wave (km/s) = 3.80010 6.30633 5.20627
#
# Compressibility (1/GPa) = 0.05005328
#
# Stress axis : x y z
#
# Youngs Moduli (GPa) = 47.76274 17.10201 67.10573
#
# Poissons Ratio (x) = 0.05715 0.72637
# Poissons Ratio (y) = 0.15961 0.53436
# Poissons Ratio (z) = 0.51700 0.13618
#
# Static dielectric constant tensor:
#      x y z
#    x 3.636600 0.000000 0.000000 
#    y 0.000000 2.819490 0.000000 
#    z 0.000000 0.000000 3.958510 
# 
# 
# High freq. dielectric constant tensor:
#      x y z
#    x 1.739350 0.000000 0.000000 
#    y 0.000000 1.673280 0.000000 
#    z 0.000000 0.000000 1.762860 
# 
# From -- ./inp_files/25016.got.cif
#   From: 2010.03.12/outbox.cif.g09.slc.cpg/sg47_13_cif.got.tgz:25016.got - 2010.04.14 03:12:58.
