data_PCOD8200313
_publ_section_title
;
Structure prediction by ZEFSAII (Michael W. Deem and Ramdas Pophale) SiO2 
 PCOD8200313
Probable space group: P M M M
;
_chemical_formula_sum "Si O2"
_cell_formula_units_Z 36
_cell_length_a 11.789732
_cell_length_b 9.094631
_cell_length_c 20.311252
_cell_angle_alpha 90.000000
_cell_angle_beta 90.000000
_cell_angle_gamma 90.000000
_cell_volume 2177.838697
_symmetry_space_group_name_H-M "P M M M"
_symmetry_group_IT_number 47
_symmetry_cell_setting 'orthorhombic'
loop_
_space_group_symop_operation_xyz
x,y,z
-x,-y,z
x,-y,-z
-x,y,-z
-x,-y,-z
x,y,-z
-x,y,z
x,-y,z
loop_
_atom_site_type_symbol
_atom_site_label
_atom_site_fract_x
_atom_site_fract_y
_atom_site_fract_z
Si Si1 0.870207 0.169165 0.243411
Si Si2 0.864601 0.165724 0.500000
Si Si3 0.865148 0.334949 0.372794
Si Si4 0.222621 0.828565 0.105932
Si Si5 0.000000 0.341410 0.073454
Si Si6 0.366144 0.330649 0.000000
O O1 0.824412 0.261722 0.304948
O O2 0.778475 0.194783 0.185113
O O3 0.000000 0.216171 0.222337
O O4 0.872852 0.000000 0.264976
O O5 0.816302 0.246625 0.435249
O O6 0.000000 0.168463 0.500000
O O7 0.818425 0.000000 0.500000
O O8 0.817384 0.500000 0.375759
O O9 0.000000 0.333254 0.375493
O O10 0.106003 0.761745 0.083339
O O11 0.323167 0.746087 0.067337
O O12 0.228884 0.000000 0.087755
O O13 0.000000 0.500000 0.113644
O O14 0.000000 0.395133 0.000000
O O15 0.325631 0.500000 0.000000
O O16 0.500000 0.317218 0.000000
#
# Coordination Sequence:
#
# PCOD8200313 Si02
#       6
#     8   4   8   8   4   4
#     4   9  17  29  42  62  91 118 146 184 231 277
#     4   9  15  23  35  49  71 111 154 191 226 259
#     4   9  16  24  35  54  79 111 151 190 223 263
#     4  11  21  34  53  73  94 121 156 196 236 281
#     4  11  21  31  47  73 100 123 148 183 236 288
#     4  11  25  42  55  70  93 121 155 195 240 289
#
# _framework density 16.530149999999999
#
# number of rings (size 3 to 8) (size 9 to 14) (size 15 to 20)
#    0.000    2.111    2.222    2.333    0.000    7.111 
#    0.000    0.000    0.000    0.000    0.000    0.000 
#    0.000    0.000    0.000    1.000    0.000   18.778 
#
# Total GULP energy -446114.843589 kJ/mol
# GULP energy per Si atom -12392.078989 kJ/mol
# Density = 1.649253 g / cm^3
# Si number density = 16.530150 Si / 1000 Ang^3
#
#
#
# Elastic Constant Matrix: (Units=GPa)
#
#
# Indices 1 2 3 4 5 6 
#
# 1 39.2324 31.8577 26.4336 0.0000 0.0000 0.0000
# 2 31.8577 145.1519 80.6134 0.0000 0.0000 0.0000
# 3 26.4336 80.6134 131.3523 0.0000 0.0000 0.0000
# 4 0.0000 0.0000 0.0000 20.8822 0.0000 0.0000
# 5 0.0000 0.0000 0.0000 0.0000 -31.6894 0.0000
# 6 0.0000 0.0000 0.0000 0.0000 0.0000 16.6677
#
#
#
# Elastic Compliance Matrix: (Units=1/GPa)
#
#
# Indices 1 2 3 4 5 6 
#
# 1 0.031890 -0.005211 -0.003219 0.000000 0.000000 0.000000
# 2 -0.005211 0.011303 -0.005888 0.000000 0.000000 0.000000
# 3 -0.003219 -0.005888 0.011875 0.000000 0.000000 0.000000
# 4 0.000000 0.000000 0.000000 0.047888 0.000000 0.000000
# 5 0.000000 0.000000 0.000000 0.000000 -0.031556 0.000000
# 6 0.000000 0.000000 0.000000 0.000000 0.000000 0.059996
#
#
# Mechanical properties :
#
#
# Convention : Reuss Voigt Hill
#
# Bulk Modulus (GPa) = 37.83560 65.94954 51.89257
# Shear Modulus (GPa) = 29.61323 12.96089 21.28706
#
# Velocity S-wave (km/s) = 4.23716 2.80317 3.59245
# Velocity P-wave (km/s) = 6.84665 7.10353 6.97627
#
# Compressibility (1/GPa) = 0.02643014
#
# Stress axis : x y z
#
# Youngs Moduli (GPa) = 31.35794 88.46981 84.21213
#
# Poissons Ratio (x) = 0.46103 0.27111
# Poissons Ratio (y) = 0.16341 0.49587
# Poissons Ratio (z) = 0.10095 0.52094
#
# Static dielectric constant tensor:
#      x y z
#    x 2.477950 0.000000 0.000000 
#    y 0.000000 3.361270 0.000000 
#    z 0.000000 0.000000 3.407290 
# 
# 
# High freq. dielectric constant tensor:
#      x y z
#    x 1.551800 0.000000 0.000000 
#    y 0.000000 1.661370 0.000000 
#    z 0.000000 0.000000 1.648650 
# 
# From -- ./inp_files/30293.got.cif
#   From: 2010.03.12/outbox.cif.g09.slc.cpg/sg47_16_cif.got.tgz:30293.got - 2010.04.14 03:12:58.
