data_PCOD8200505
_publ_section_title
;
Structure prediction by ZEFSAII (Michael W. Deem and Ramdas Pophale) SiO2 
 PCOD8200505
Probable space group: P M M M
;
_chemical_formula_sum "Si O2"
_cell_formula_units_Z 44
_cell_length_a 8.983554
_cell_length_b 16.696975
_cell_length_c 14.777653
_cell_angle_alpha 90.000000
_cell_angle_beta 90.000000
_cell_angle_gamma 90.000000
_cell_volume 2216.621004
_symmetry_space_group_name_H-M "P M M M"
_symmetry_group_IT_number 47
_symmetry_cell_setting 'orthorhombic'
loop_
_space_group_symop_operation_xyz
x,y,z
-x,-y,z
x,-y,-z
-x,y,-z
-x,-y,-z
x,y,-z
-x,y,z
x,-y,z
loop_
_atom_site_type_symbol
_atom_site_label
_atom_site_fract_x
_atom_site_fract_y
_atom_site_fract_z
Si Si1 0.173984 0.091069 0.395499
Si Si2 0.326583 0.811771 0.756928
Si Si3 0.333815 0.594562 0.399659
Si Si4 0.176990 0.500000 0.103616
Si Si5 0.165157 0.905733 0.100069
Si Si6 0.175050 0.352672 0.773547
O O1 0.212872 0.106252 0.500000
O O2 0.261774 0.157312 0.338257
O O3 0.000000 0.102721 0.377221
O O4 0.220050 0.000000 0.368338
O O5 0.500000 0.798495 0.744266
O O6 0.293345 0.877097 0.833108
O O7 0.253551 0.730747 0.794911
O O8 0.292749 0.626691 0.500000
O O9 0.500000 0.624677 0.372597
O O10 0.331450 0.500000 0.400165
O O11 0.212222 0.625727 0.329804
O O12 0.234542 0.578987 0.157035
O O13 0.000000 0.500000 0.103567
O O14 0.237747 0.500000 0.000000
O O15 0.000000 0.879428 0.134293
O O16 0.173960 0.000000 0.095771
O O17 0.193242 0.869987 0.000000
O O18 0.000000 0.342455 0.783866
#
# Coordination Sequence:
#
# PCOD8200505 Si02
#       6
#     8   8   8   4   8   8
#     4   9  19  38  63  88 116 155 203 249 290 338
#     4  12  25  37  54  85 123 159 192 235 291 349
#     4   9  18  34  57  83 113 147 178 218 280 345
#     4   9  20  40  64  87 108 136 183 241 296 347
#     4   9  19  38  63  87 112 147 191 237 286 341
#     4  11  22  38  60  85 112 147 194 244 289 340
#
# _framework density 19.850031999999999
#
# number of rings (size 3 to 8) (size 9 to 14) (size 15 to 20)
#    0.000    2.091    0.909    4.364    0.000    5.455 
#    0.000    4.545    0.000    3.818    0.000    0.000 
#    0.000    0.000    0.000    0.000    0.000    0.000 
#
# Total GULP energy -545514.081906 kJ/mol
# GULP energy per Si atom -12398.047316 kJ/mol
# Density = 1.980485 g / cm^3
# Si number density = 19.850032 Si / 1000 Ang^3
#
#
#
# Elastic Constant Matrix: (Units=GPa)
#
#
# Indices 1 2 3 4 5 6 
#
# 1 87.1695 43.1623 40.4977 0.0000 0.0000 0.0000
# 2 43.1623 87.3437 47.0968 0.0000 0.0000 0.0000
# 3 40.4977 47.0968 117.1612 0.0000 0.0000 0.0000
# 4 0.0000 0.0000 0.0000 13.4521 0.0000 0.0000
# 5 0.0000 0.0000 0.0000 0.0000 9.5964 0.0000
# 6 0.0000 0.0000 0.0000 0.0000 0.0000 23.1862
#
#
#
# Elastic Compliance Matrix: (Units=1/GPa)
#
#
# Indices 1 2 3 4 5 6 
#
# 1 0.015973 -0.006277 -0.002998 0.000000 0.000000 0.000000
# 2 -0.006277 0.017084 -0.004698 0.000000 0.000000 0.000000
# 3 -0.002998 -0.004698 0.011460 0.000000 0.000000 0.000000
# 4 0.000000 0.000000 0.000000 0.074338 0.000000 0.000000
# 5 0.000000 0.000000 0.000000 0.000000 0.104206 0.000000
# 6 0.000000 0.000000 0.000000 0.000000 0.000000 0.043129
#
#
# Mechanical properties :
#
#
# Convention : Reuss Voigt Hill
#
# Bulk Modulus (GPa) = 60.34426 61.46535 60.90480
# Shear Modulus (GPa) = 16.68571 19.97479 18.33025
#
# Velocity S-wave (km/s) = 2.90244 3.17564 3.04211
# Velocity P-wave (km/s) = 6.45742 6.66921 6.56417
#
# Compressibility (1/GPa) = 0.01657158
#
# Stress axis : x y z
#
# Youngs Moduli (GPa) = 62.60733 58.53492 87.26014
#
# Poissons Ratio (x) = 0.36740 0.26160
# Poissons Ratio (y) = 0.39296 0.40994
# Poissons Ratio (z) = 0.18770 0.27499
#
# Static dielectric constant tensor:
#      x y z
#    x 3.585720 0.000000 0.000000 
#    y 0.000000 3.638490 0.000000 
#    z 0.000000 0.000000 4.363070 
# 
# 
# High freq. dielectric constant tensor:
#      x y z
#    x 1.753970 0.000000 0.000000 
#    y 0.000000 1.772080 0.000000 
#    z 0.000000 0.000000 1.782310 
# 
# From -- ./inp_files/20917.got.cif
#   From: 2010.03.12/outbox.cif.g09.slc.cpg/sg47_11_cif.got.tgz:20917.got - 2010.04.14 03:12:58.
