data_PCOD8200453
_publ_section_title
;
Structure prediction by ZEFSAII (Michael W. Deem and Ramdas Pophale) SiO2 
 PCOD8200453
Probable space group: P M M M
;
_chemical_formula_sum "Si O2"
_cell_formula_units_Z 44
_cell_length_a 18.082639
_cell_length_b 14.122185
_cell_length_c 9.132017
_cell_angle_alpha 90.000000
_cell_angle_beta 90.000000
_cell_angle_gamma 90.000000
_cell_volume 2332.010062
_symmetry_space_group_name_H-M "P M M M"
_symmetry_group_IT_number 47
_symmetry_cell_setting 'orthorhombic'
loop_
_space_group_symop_operation_xyz
x,y,z
-x,-y,z
x,-y,-z
-x,y,-z
-x,-y,-z
x,y,-z
-x,y,z
x,-y,z
loop_
_atom_site_type_symbol
_atom_site_label
_atom_site_fract_x
_atom_site_fract_y
_atom_site_fract_z
Si Si1 0.000000 0.387932 0.168557
Si Si2 0.415717 0.389483 0.833740
Si Si3 0.237182 0.107718 0.174712
Si Si4 0.922204 0.887588 0.836521
Si Si5 0.707874 0.279983 0.327781
Si Si6 0.145409 0.609914 0.671088
O O1 0.074555 0.346499 0.243181
O O2 0.000000 0.500000 0.192865
O O3 0.000000 0.358705 0.000000
O O4 0.500000 0.357198 0.807993
O O5 0.407461 0.500000 0.802434
O O6 0.364937 0.335231 0.719442
O O7 0.391526 0.366092 0.000000
O O8 0.155778 0.140404 0.238302
O O9 0.295377 0.177369 0.250320
O O10 0.255911 0.000000 0.220524
O O11 0.239313 0.117661 0.000000
O O12 0.000000 0.853612 0.758061
O O13 0.921675 0.000000 0.846112
O O14 0.923275 0.845543 0.000000
O O15 0.706323 0.265701 0.500000
O O16 0.780625 0.337093 0.276776
O O17 0.130374 0.623835 0.500000
O O18 0.156599 0.500000 0.710916
#
# Coordination Sequence:
#
# PCOD8200453 Si02
#       6
#     4   8   8   8   8   8
#     4   9  17  29  47  71  96 127 174 227 269 302
#     4   9  19  37  61  88 116 143 170 207 259 316
#     4   9  18  33  52  73 101 140 184 229 276 321
#     4   7  10  20  41  66  89 117 160 216 272 317
#     4  11  22  34  52  80 111 144 179 216 262 319
#     4   9  18  33  50  68  98 141 179 210 254 315
#
# _framework density 18.867843000000001
#
# number of rings (size 3 to 8) (size 9 to 14) (size 15 to 20)
#    0.000    3.000    0.000    3.545    0.000    4.364 
#    1.636    2.727    0.000    0.545    0.000    6.364 
#    0.000    0.000    0.000    0.000    0.000    0.000 
#
# Total GULP energy -545238.088797 kJ/mol
# GULP energy per Si atom -12391.774745 kJ/mol
# Density = 1.882490 g / cm^3
# Si number density = 18.867843 Si / 1000 Ang^3
#
#
#
# Elastic Constant Matrix: (Units=GPa)
#
#
# Indices 1 2 3 4 5 6 
#
# 1 101.4247 47.4083 42.2633 0.0000 0.0000 0.0000
# 2 47.4083 61.6414 34.9151 0.0000 0.0000 0.0000
# 3 42.2633 34.9151 57.7911 0.0000 0.0000 0.0000
# 4 0.0000 0.0000 0.0000 18.0643 0.0000 0.0000
# 5 0.0000 0.0000 0.0000 0.0000 28.6814 0.0000
# 6 0.0000 0.0000 0.0000 0.0000 0.0000 23.9350
#
#
#
# Elastic Compliance Matrix: (Units=1/GPa)
#
#
# Indices 1 2 3 4 5 6 
#
# 1 0.017031 -0.009188 -0.006904 0.000000 0.000000 0.000000
# 2 -0.009188 0.029620 -0.011176 0.000000 0.000000 0.000000
# 3 -0.006904 -0.011176 0.029105 0.000000 0.000000 0.000000
# 4 0.000000 0.000000 0.000000 0.055358 0.000000 0.000000
# 5 0.000000 0.000000 0.000000 0.000000 0.034866 0.000000
# 6 0.000000 0.000000 0.000000 0.000000 0.000000 0.041780
#
#
# Mechanical properties :
#
#
# Convention : Reuss Voigt Hill
#
# Bulk Modulus (GPa) = 47.12568 52.22563 49.67566
# Shear Modulus (GPa) = 18.56202 20.55417 19.55810
#
# Velocity S-wave (km/s) = 3.13995 3.30415 3.22309
# Velocity P-wave (km/s) = 6.17872 6.50356 6.34322
#
# Compressibility (1/GPa) = 0.02121985
#
# Stress axis : x y z
#
# Youngs Moduli (GPa) = 58.71608 33.76152 34.35887
#
# Poissons Ratio (x) = 0.31020 0.23721
# Poissons Ratio (y) = 0.53948 0.38398
# Poissons Ratio (z) = 0.40538 0.37731
#
# Static dielectric constant tensor:
#      x y z
#    x 3.576390 0.000000 0.000000 
#    y 0.000000 3.306580 0.000000 
#    z 0.000000 0.000000 3.122630 
# 
# 
# High freq. dielectric constant tensor:
#      x y z
#    x 1.725620 0.000000 0.000000 
#    y 0.000000 1.727040 0.000000 
#    z 0.000000 0.000000 1.704440 
# 
# From -- ./inp_files/9019.got.cif
#   From: 2010.03.12/outbox.cif.g09.slc.cpg/sg47_5_cif.got.tgz:9019.got - 2010.04.14 03:12:58.
