data_PCOD8200429
_publ_section_title
;
Structure prediction by ZEFSAII (Michael W. Deem and Ramdas Pophale) SiO2 
 PCOD8200429
Probable space group: P M M M
;
_chemical_formula_sum "Si O2"
_cell_formula_units_Z 64
_cell_length_a 18.501255
_cell_length_b 20.867494
_cell_length_c 9.321249
_cell_angle_alpha 90.000000
_cell_angle_beta 90.000000
_cell_angle_gamma 90.000000
_cell_volume 3598.699602
_symmetry_space_group_name_H-M "P M M M"
_symmetry_group_IT_number 47
_symmetry_cell_setting 'orthorhombic'
loop_
_space_group_symop_operation_xyz
x,y,z
-x,-y,z
x,-y,-z
-x,y,-z
-x,-y,-z
x,y,-z
-x,y,z
x,-y,z
loop_
_atom_site_type_symbol
_atom_site_label
_atom_site_fract_x
_atom_site_fract_y
_atom_site_fract_z
Si Si1 0.583479 0.574016 0.664828
Si Si2 0.085873 0.070209 0.338838
Si Si3 0.916599 0.808612 0.168534
Si Si4 0.419213 0.932152 0.329839
Si Si5 0.662395 0.317683 0.170425
Si Si6 0.586303 0.206013 0.336407
Si Si7 0.826994 0.312215 0.829566
Si Si8 0.918851 0.570850 0.170722
O O1 0.599655 0.592108 0.500000
O O2 0.500000 0.588231 0.699807
O O3 0.601759 0.500000 0.693766
O O4 0.632873 0.615589 0.769081
O O5 0.113628 0.082897 0.500000
O O6 0.115563 0.126422 0.237459
O O7 0.000000 0.070495 0.334909
O O8 0.113571 0.000000 0.286222
O O9 0.869813 0.749607 0.229101
O O10 0.000000 0.796722 0.211420
O O11 0.907904 0.816238 0.000000
O O12 0.423467 0.929638 0.500000
O O13 0.500000 0.934494 0.266661
O O14 0.383346 0.864234 0.282824
O O15 0.379989 0.000000 0.282127
O O16 0.617134 0.258658 0.230336
O O17 0.744699 0.309693 0.222416
O O18 0.655507 0.318915 0.000000
O O19 0.610643 0.220682 0.500000
O O20 0.500000 0.206498 0.327101
O O21 0.864422 0.376180 0.765367
O O22 0.831927 0.313484 0.000000
O O23 0.894835 0.500000 0.223876
O O24 0.000000 0.586052 0.224634
O O25 0.917619 0.572903 0.000000
#
# Coordination Sequence:
#
# PCOD8200429 Si02
#       8
#     8   8   8   8   8   8   8   8
#     4   9  19  37  58  75  92 118 153 193 234 273
#     4   8  14  25  41  63  92 120 144 181 238 292
#     4   9  16  27  46  68  88 116 157 200 233 266
#     4   7  10  19  39  67  91 108 136 184 235 273
#     4  11  22  32  45  68  99 131 157 185 224 273
#     4   9  17  30  49  70  92 121 156 194 234 273
#     4   9  18  30  41  60  94 127 151 182 227 270
#     4   8  13  23  42  65  86 112 147 183 219 263
#
# _framework density 17.784202000000001
#
# number of rings (size 3 to 8) (size 9 to 14) (size 15 to 20)
#    0.000    3.250    0.000    3.375    0.000    4.500 
#    0.000    4.375    0.000    1.125    0.000    5.250 
#    0.000    0.000    0.000   12.750    0.000   11.500 
#
# Total GULP energy -792928.225044 kJ/mol
# GULP energy per Si atom -12389.503516 kJ/mol
# Density = 1.774372 g / cm^3
# Si number density = 17.784202 Si / 1000 Ang^3
#
#
#
# Elastic Constant Matrix: (Units=GPa)
#
#
# Indices 1 2 3 4 5 6 
#
# 1 65.2723 59.0873 29.6842 0.0000 0.0000 0.0000
# 2 59.0873 168.3394 46.8590 0.0000 0.0000 0.0000
# 3 29.6842 46.8590 44.1916 0.0000 0.0000 0.0000
# 4 0.0000 0.0000 0.0000 18.2303 0.0000 0.0000
# 5 0.0000 0.0000 0.0000 0.0000 7.2760 0.0000
# 6 0.0000 0.0000 0.0000 0.0000 0.0000 3.2903
#
#
#
# Elastic Compliance Matrix: (Units=1/GPa)
#
#
# Indices 1 2 3 4 5 6 
#
# 1 0.025702 -0.005981 -0.010922 0.000000 0.000000 0.000000
# 2 -0.005981 0.009820 -0.006395 0.000000 0.000000 0.000000
# 3 -0.010922 -0.006395 0.036746 0.000000 0.000000 0.000000
# 4 0.000000 0.000000 0.000000 0.054854 0.000000 0.000000
# 5 0.000000 0.000000 0.000000 0.000000 0.137439 0.000000
# 6 0.000000 0.000000 0.000000 0.000000 0.000000 0.303921
#
#
# Mechanical properties :
#
#
# Convention : Reuss Voigt Hill
#
# Bulk Modulus (GPa) = 38.95378 61.00713 49.98046
# Shear Modulus (GPa) = 8.01750 15.23750 11.62750
#
# Velocity S-wave (km/s) = 2.12556 2.93029 2.55975
# Velocity P-wave (km/s) = 5.28915 6.76959 6.07464
#
# Compressibility (1/GPa) = 0.02567145
#
# Stress axis : x y z
#
# Youngs Moduli (GPa) = 38.90757 101.83455 27.21351
#
# Poissons Ratio (x) = 0.60908 0.29724
# Poissons Ratio (y) = 0.23271 0.17403
# Poissons Ratio (z) = 0.42496 0.65123
#
# Static dielectric constant tensor:
#      x y z
#    x 3.066500 0.000000 0.000000 
#    y 0.000000 3.883350 0.000000 
#    z 0.000000 0.000000 2.899900 
# 
# 
# High freq. dielectric constant tensor:
#      x y z
#    x 1.651690 0.000000 0.000000 
#    y 0.000000 1.716000 0.000000 
#    z 0.000000 0.000000 1.642240 
# 
# From -- ./inp_files/10005.got.cif
#   From: 2010.03.12/outbox.cif.g09.slc.cpg/sg47_6_cif.got.tgz:10005.got - 2010.04.14 03:12:58.
