data_PCOD8200414
_publ_section_title
;
Structure prediction by ZEFSAII (Michael W. Deem and Ramdas Pophale) SiO2 
 PCOD8200414
Probable space group: P M M M
;
_chemical_formula_sum "Si O2"
_cell_formula_units_Z 48
_cell_length_a 27.834783
_cell_length_b 9.621837
_cell_length_c 9.618159
_cell_angle_alpha 90.000000
_cell_angle_beta 90.000000
_cell_angle_gamma 90.000000
_cell_volume 2575.952127
_symmetry_space_group_name_H-M "P M M M"
_symmetry_group_IT_number 47
_symmetry_cell_setting 'orthorhombic'
loop_
_space_group_symop_operation_xyz
x,y,z
-x,-y,z
x,-y,-z
-x,y,-z
-x,-y,-z
x,y,-z
-x,y,z
x,-y,z
loop_
_atom_site_type_symbol
_atom_site_label
_atom_site_fract_x
_atom_site_fract_y
_atom_site_fract_z
Si Si1 0.556987 0.500000 0.338547
Si Si2 0.110525 0.166320 0.231846
Si Si3 0.390381 0.729963 0.834344
Si Si4 0.447420 0.000000 0.838666
Si Si5 0.806343 0.340322 0.662323
Si Si6 0.696051 0.662261 0.656649
Si Si7 0.057140 0.663407 0.000000
Si Si8 0.052288 0.838350 0.500000
O O1 0.500000 0.500000 0.330830
O O2 0.574353 0.500000 0.500000
O O3 0.577144 0.628337 0.254315
O O4 0.163776 0.231510 0.243682
O O5 0.079125 0.252856 0.126321
O O6 0.083372 0.205749 0.370688
O O7 0.113092 0.000000 0.199372
O O8 0.415187 0.872233 0.796106
O O9 0.336451 0.736274 0.773127
O O10 0.389314 0.695537 0.000000
O O11 0.500000 0.000000 0.763607
O O12 0.457799 0.000000 0.000000
O O13 0.815838 0.312533 0.500000
O O14 0.819779 0.500000 0.699388
O O15 0.751029 0.310949 0.698426
O O16 0.686132 0.718817 0.500000
O O17 0.683808 0.500000 0.660402
O O18 0.071747 0.500000 0.000000
O O19 0.000000 0.679364 0.000000
O O20 0.000000 0.763047 0.500000
O O21 0.042762 0.000000 0.500000
#
# Coordination Sequence:
#
# PCOD8200414 Si02
#       8
#     4   8   8   4   8   8   4   4
#     4  11  23  37  57  87 121 153 189 241 296 351
#     4  11  21  37  61  88 121 156 198 248 300 357
#     4  11  21  36  60  86 114 150 198 246 293 351
#     4   9  20  38  57  79 115 155 189 233 296 357
#     4   9  18  35  59  84 114 157 199 240 293 353
#     4   9  18  35  58  82 114 156 194 237 294 351
#     4  11  25  43  61  85 121 163 205 247 302 363
#     4   9  18  32  55  87 119 149 185 235 292 351
#
# _framework density 18.633887000000001
#
# number of rings (size 3 to 8) (size 9 to 14) (size 15 to 20)
#    0.000    2.000    1.667    3.500    0.000    2.667 
#    3.000    1.667    0.000    5.000    0.000    0.000 
#    0.000    0.000    0.000    0.000    0.000    0.000 
#
# Total GULP energy -594789.946534 kJ/mol
# GULP energy per Si atom -12391.457219 kJ/mol
# Density = 1.859148 g / cm^3
# Si number density = 18.633887 Si / 1000 Ang^3
#
#
#
# Elastic Constant Matrix: (Units=GPa)
#
#
# Indices 1 2 3 4 5 6 
#
# 1 138.3054 70.4650 61.8478 0.0000 0.0000 0.0000
# 2 70.4650 133.6618 60.6034 0.0000 0.0000 0.0000
# 3 61.8478 60.6034 121.0993 0.0000 0.0000 0.0000
# 4 0.0000 0.0000 0.0000 22.4053 0.0000 0.0000
# 5 0.0000 0.0000 0.0000 0.0000 35.5293 0.0000
# 6 0.0000 0.0000 0.0000 0.0000 0.0000 35.7948
#
#
#
# Elastic Compliance Matrix: (Units=1/GPa)
#
#
# Indices 1 2 3 4 5 6 
#
# 1 0.010916 -0.004174 -0.003486 0.000000 0.000000 0.000000
# 2 -0.004174 0.011274 -0.003510 0.000000 0.000000 0.000000
# 3 -0.003486 -0.003510 0.011795 0.000000 0.000000 0.000000
# 4 0.000000 0.000000 0.000000 0.044632 0.000000 0.000000
# 5 0.000000 0.000000 0.000000 0.000000 0.028146 0.000000
# 6 0.000000 0.000000 0.000000 0.000000 0.000000 0.027937
#
#
# Mechanical properties :
#
#
# Convention : Reuss Voigt Hill
#
# Bulk Modulus (GPa) = 85.88268 86.54432 86.21350
# Shear Modulus (GPa) = 31.07115 32.08922 31.58018
#
# Velocity S-wave (km/s) = 4.08788 4.15431 4.12123
# Velocity P-wave (km/s) = 8.27469 8.34005 8.30744
#
# Compressibility (1/GPa) = 0.01164379
#
# Stress axis : x y z
#
# Youngs Moduli (GPa) = 91.60885 88.70293 84.78428
#
# Poissons Ratio (x) = 0.37026 0.29556
# Poissons Ratio (y) = 0.38239 0.29759
# Poissons Ratio (z) = 0.31936 0.31134
#
# Static dielectric constant tensor:
#      x y z
#    x 3.684160 0.000000 0.000000 
#    y 0.000000 3.244950 0.000000 
#    z 0.000000 0.000000 3.463910 
# 
# 
# High freq. dielectric constant tensor:
#      x y z
#    x 1.742160 0.000000 0.000000 
#    y 0.000000 1.712520 0.000000 
#    z 0.000000 0.000000 1.717220 
# 
# From -- ./inp_files/14008.got.cif
#   From: 2010.03.12/outbox.cif.g09.slc.cpg/sg47_8_cif.got.tgz:14008.got - 2010.04.14 03:12:58.
