data_PCOD8200518
_publ_section_title
;
Structure prediction by ZEFSAII (Michael W. Deem and Ramdas Pophale) SiO2 
 PCOD8200518
Probable space group: P M M M
;
_chemical_formula_sum "Si O2"
_cell_formula_units_Z 32
_cell_length_a 12.553090
_cell_length_b 7.949775
_cell_length_c 15.429995
_cell_angle_alpha 90.000000
_cell_angle_beta 90.000000
_cell_angle_gamma 90.000000
_cell_volume 1539.824641
_symmetry_space_group_name_H-M "P M M M"
_symmetry_group_IT_number 47
_symmetry_cell_setting 'orthorhombic'
loop_
_space_group_symop_operation_xyz
x,y,z
-x,-y,z
x,-y,-z
-x,y,-z
-x,-y,-z
x,y,-z
-x,y,z
x,-y,z
loop_
_atom_site_type_symbol
_atom_site_label
_atom_site_fract_x
_atom_site_fract_y
_atom_site_fract_z
Si Si1 0.270903 0.189349 0.845929
Si Si2 0.620111 0.500000 0.907948
Si Si3 0.625118 0.800915 0.500000
Si Si4 0.000000 0.301104 0.593778
Si Si5 0.772752 0.302436 0.339679
Si Si6 0.882947 0.197336 0.000000
O O1 0.361566 0.328919 0.855139
O O2 0.244247 0.190240 0.744924
O O3 0.309100 0.000000 0.870915
O O4 0.176404 0.248742 0.910666
O O5 0.500000 0.500000 0.932845
O O6 0.684434 0.500000 0.000000
O O7 0.500000 0.741889 0.500000
O O8 0.685873 0.733081 0.585311
O O9 0.630329 0.000000 0.500000
O O10 0.891378 0.241128 0.637644
O O11 0.000000 0.500000 0.586603
O O12 0.000000 0.216866 0.500000
O O13 0.768800 0.500000 0.317552
O O14 0.000000 0.283765 0.000000
O O15 0.897202 0.000000 0.000000
#
# Coordination Sequence:
#
# PCOD8200518 Si02
#       6
#     8   4   4   4   8   4
#     4  11  23  42  66  95 132 168 213 264 316 381
#     4  11  24  44  68  93 124 165 217 268 320 379
#     4  11  25  44  63  88 124 167 218 272 326 384
#     4   9  18  36  62  91 126 164 205 263 321 379
#     4  11  22  40  66  95 128 166 214 263 319 388
#     4   9  20  39  63  94 133 173 212 260 318 382
#
# _framework density 20.781587999999999
#
# number of rings (size 3 to 8) (size 9 to 14) (size 15 to 20)
#    0.000    1.500    3.750    1.125    1.750    2.500 
#    0.000    5.000    0.000    0.000    0.000    0.000 
#    0.000    0.000    0.000    0.000    0.000    0.000 
#
# Total GULP energy -396446.747345 kJ/mol
# GULP energy per Si atom -12388.960855 kJ/mol
# Density = 2.073429 g / cm^3
# Si number density = 20.781588 Si / 1000 Ang^3
#
#
#
# Elastic Constant Matrix: (Units=GPa)
#
#
# Indices 1 2 3 4 5 6 
#
# 1 125.7772 34.6568 52.7449 0.0000 0.0000 0.0000
# 2 34.6568 107.4487 25.5608 0.0000 0.0000 0.0000
# 3 52.7449 25.5608 154.2856 0.0000 0.0000 0.0000
# 4 0.0000 0.0000 0.0000 39.1549 0.0000 0.0000
# 5 0.0000 0.0000 0.0000 0.0000 15.8274 0.0000
# 6 0.0000 0.0000 0.0000 0.0000 0.0000 4.8017
#
#
#
# Elastic Compliance Matrix: (Units=1/GPa)
#
#
# Indices 1 2 3 4 5 6 
#
# 1 0.009878 -0.002480 -0.002966 0.000000 0.000000 0.000000
# 2 -0.002480 0.010311 -0.000860 0.000000 0.000000 0.000000
# 3 -0.002966 -0.000860 0.007638 0.000000 0.000000 0.000000
# 4 0.000000 0.000000 0.000000 0.025540 0.000000 0.000000
# 5 0.000000 0.000000 0.000000 0.000000 0.063182 0.000000
# 6 0.000000 0.000000 0.000000 0.000000 0.000000 0.208258
#
#
# Mechanical properties :
#
#
# Convention : Reuss Voigt Hill
#
# Bulk Modulus (GPa) = 65.72984 68.15963 66.94473
# Shear Modulus (GPa) = 14.59892 30.26006 22.42949
#
# Velocity S-wave (km/s) = 2.65333 3.82003 3.28883
# Velocity P-wave (km/s) = 6.40972 7.23368 6.83413
#
# Compressibility (1/GPa) = 0.01521379
#
# Stress axis : x y z
#
# Youngs Moduli (GPa) = 101.23701 96.97926 130.92471
#
# Poissons Ratio (x) = 0.24055 0.38832
# Poissons Ratio (y) = 0.25111 0.11264
# Poissons Ratio (z) = 0.30026 0.08344
#
# Static dielectric constant tensor:
#      x y z
#    x 3.923690 0.000000 0.000000 
#    y 0.000000 3.658490 0.000000 
#    z 0.000000 0.000000 3.934120 
# 
# 
# High freq. dielectric constant tensor:
#      x y z
#    x 1.803830 0.000000 0.000000 
#    y 0.000000 1.811550 0.000000 
#    z 0.000000 0.000000 1.826630 
# 
# From -- ./inp_files/22370.got.cif
#   From: 2010.03.12/outbox.cif.g09.slc.cpg/sg47_12_cif.got.tgz:22370.got - 2010.04.14 03:12:58.
