data_PCOD8200044
_publ_section_title
;
Structure prediction by ZEFSAII (Michael W. Deem and Ramdas Pophale) SiO2 
 PCOD8200044
Probable space group: P M M M
;
_chemical_formula_sum "Si O2"
_cell_formula_units_Z 52
_cell_length_a 19.859955
_cell_length_b 8.825093
_cell_length_c 14.996197
_cell_angle_alpha 90.000000
_cell_angle_beta 90.000000
_cell_angle_gamma 90.000000
_cell_volume 2628.322711
_symmetry_space_group_name_H-M "P M M M"
_symmetry_group_IT_number 47
_symmetry_cell_setting 'orthorhombic'
loop_
_space_group_symop_operation_xyz
x,y,z
-x,-y,z
x,-y,-z
-x,y,-z
-x,-y,-z
x,y,-z
-x,y,z
x,-y,z
loop_
_atom_site_type_symbol
_atom_site_label
_atom_site_fract_x
_atom_site_fract_y
_atom_site_fract_z
Si Si1 0.701698 0.674255 0.901229
Si Si2 0.217561 0.324853 0.601672
Si Si3 0.369581 0.325999 0.661083
Si Si4 0.813416 0.177700 0.779044
Si Si5 0.577001 0.178671 0.164308
Si Si6 0.574696 0.837230 0.500000
Si Si7 0.922135 0.673509 0.897757
O O1 0.694608 0.500000 0.872900
O O2 0.748261 0.749748 0.826339
O O3 0.626831 0.746434 0.907997
O O4 0.734399 0.690721 0.000000
O O5 0.204212 0.265213 0.500000
O O6 0.196841 0.500000 0.607085
O O7 0.294670 0.299969 0.626335
O O8 0.175802 0.234326 0.677036
O O9 0.383834 0.500000 0.685753
O O10 0.387915 0.220287 0.743187
O O11 0.416603 0.270782 0.583364
O O12 0.880104 0.218167 0.833794
O O13 0.802552 0.000000 0.778497
O O14 0.500000 0.240469 0.156173
O O15 0.576567 0.000000 0.151215
O O16 0.500000 0.894240 0.500000
O O17 0.616315 0.000000 0.500000
O O18 0.898749 0.500000 0.883820
O O19 0.000000 0.692053 0.872387
O O20 0.910030 0.721731 0.000000
#
# Coordination Sequence:
#
# PCOD8200044 Si02
#       7
#     8   8   8   8   8   4   8
#     4  11  24  41  61  84 112 151 201 250 294 351
#     4  10  21  39  61  84 113 151 198 248 295 348
#     4  11  21  36  57  79 104 140 189 242 296 358
#     4  12  24  37  60  93 128 162 195 240 299 355
#     4  11  24  40  57  79 109 145 187 240 305 369
#     4  11  23  35  49  73 107 143 180 233 302 367
#     4   9  19  38  65  96 130 169 209 244 282 336
#
# _framework density 19.784481
#
# number of rings (size 3 to 8) (size 9 to 14) (size 15 to 20)
#    0.000    1.308    2.308    4.385    0.000    8.615 
#    0.000    2.308    0.000    0.462    0.000    3.231 
#    0.000    0.000    0.000    0.000    0.000    0.000 
#
# Total GULP energy -644579.954592 kJ/mol
# GULP energy per Si atom -12395.768358 kJ/mol
# Density = 1.973945 g / cm^3
# Si number density = 19.784481 Si / 1000 Ang^3
#
#
#
# Elastic Constant Matrix: (Units=GPa)
#
#
# Indices 1 2 3 4 5 6 
#
# 1 76.1755 39.2997 37.5026 0.0000 0.0000 0.0000
# 2 39.2997 94.2213 48.9625 0.0000 0.0000 0.0000
# 3 37.5026 48.9625 130.8178 0.0000 0.0000 0.0000
# 4 0.0000 0.0000 0.0000 -224.8078 0.0000 0.0000
# 5 0.0000 0.0000 0.0000 0.0000 27.9260 0.0000
# 6 0.0000 0.0000 0.0000 0.0000 0.0000 28.7002
#
#
#
# Elastic Compliance Matrix: (Units=1/GPa)
#
#
# Indices 1 2 3 4 5 6 
#
# 1 0.017539 -0.005838 -0.002843 0.000000 0.000000 0.000000
# 2 -0.005838 0.015119 -0.003985 0.000000 0.000000 0.000000
# 3 -0.002843 -0.003985 0.009951 0.000000 0.000000 0.000000
# 4 0.000000 0.000000 0.000000 -0.004448 0.000000 0.000000
# 5 0.000000 0.000000 0.000000 0.000000 0.035809 0.000000
# 6 0.000000 0.000000 0.000000 0.000000 0.000000 0.034843
#
#
# Mechanical properties :
#
#
# Convention : Reuss Voigt Hill
#
# Bulk Modulus (GPa) = 57.88176 61.41603 59.64889
# Shear Modulus (GPa) = 35.73863 -21.93966 6.89948
#
# Velocity S-wave (km/s) = 4.25478 -3.33368 1.86946
# Velocity P-wave (km/s) = 7.31145 4.03634 5.90548
#
# Compressibility (1/GPa) = 0.01727660
#
# Stress axis : x y z
#
# Youngs Moduli (GPa) = 57.01503 66.14037 100.49440
#
# Poissons Ratio (x) = 0.38614 0.28570
# Poissons Ratio (y) = 0.33287 0.40049
# Poissons Ratio (z) = 0.16209 0.26358
#
# Static dielectric constant tensor:
#      x y z
#    x 3.492070 0.000000 0.000000 
#    y 0.000000 3.580090 0.000000 
#    z 0.000000 0.000000 3.890270 
# 
# 
# High freq. dielectric constant tensor:
#      x y z
#    x 1.749590 0.000000 0.000000 
#    y 0.000000 1.774490 0.000000 
#    z 0.000000 0.000000 1.781110 
# 
# From -- ./inp_files/25031.got.cif
#   From: 2010.03.12/outbox.cif.g09.slc.cpg/sg47_13_cif.got.tgz:25031.got - 2010.04.14 03:12:58.
