data_PCOD8200984
_publ_section_title
;
Structure prediction by ZEFSAII (Michael W. Deem and Ramdas Pophale) SiO2 
 PCOD8200984
Probable space group: P M M M
;
_chemical_formula_sum "Si O2"
_cell_formula_units_Z 56
_cell_length_a 9.764054
_cell_length_b 18.928892
_cell_length_c 18.305717
_cell_angle_alpha 90.000000
_cell_angle_beta 90.000000
_cell_angle_gamma 90.000000
_cell_volume 3383.312474
_symmetry_space_group_name_H-M "P M M M"
_symmetry_group_IT_number 47
_symmetry_cell_setting 'orthorhombic'
loop_
_space_group_symop_operation_xyz
x,y,z
-x,-y,z
x,-y,-z
-x,y,-z
-x,-y,-z
x,y,-z
-x,y,z
x,-y,z
loop_
_atom_site_type_symbol
_atom_site_label
_atom_site_fract_x
_atom_site_fract_y
_atom_site_fract_z
Si Si1 0.337759 0.577116 0.082166
Si Si2 0.155840 0.164889 0.918439
Si Si3 0.846530 0.577923 0.586759
Si Si4 0.159036 0.080699 0.777276
Si Si5 0.657107 0.804942 0.289989
Si Si6 0.657891 0.702796 0.416335
Si Si7 0.659400 0.279376 0.147358
O O1 0.500000 0.574290 0.081325
O O2 0.281680 0.500000 0.108587
O O3 0.289439 0.639731 0.136487
O O4 0.284416 0.592726 0.000000
O O5 0.190598 0.103250 0.860671
O O6 0.255679 0.230863 0.907855
O O7 0.000000 0.191118 0.907154
O O8 0.177089 0.134126 0.000000
O O9 0.840329 0.577009 0.500000
O O10 0.803883 0.500000 0.616092
O O11 0.743292 0.637177 0.616440
O O12 0.000000 0.596450 0.613177
O O13 0.246581 0.127515 0.721135
O O14 0.000000 0.090994 0.757986
O O15 0.204823 0.000000 0.767950
O O16 0.500000 0.830202 0.284422
O O17 0.690089 0.772494 0.369263
O O18 0.687948 0.744092 0.230369
O O19 0.697476 0.720135 0.500000
O O20 0.500000 0.680946 0.408884
O O21 0.500000 0.271403 0.126713
#
# Coordination Sequence:
#
# PCOD8200984 Si02
#       7
#     8   8   8   8   8   8   8
#     4   8  13  21  35  56  79 104 138 178 214 244
#     4   9  17  28  43  65  91 116 141 171 208 249
#     4   8  14  25  41  62  88 116 146 180 217 258
#     4   9  18  32  49  68  89 115 145 173 206 253
#     4   9  18  31  46  66  89 112 141 177 219 265
#     4   9  17  29  45  65  89 116 147 184 224 267
#     4   9  16  27  43  61  83 111 144 181 217 254
#
# _framework density 16.551825999999998
#
# number of rings (size 3 to 8) (size 9 to 14) (size 15 to 20)
#    0.000    3.286    0.000    1.286    0.000    2.286 
#    0.000    3.571    0.000    3.429    0.000    9.000 
#    0.000    0.000    0.000    0.000    0.000    0.000 
#
# Total GULP energy -694087.063596 kJ/mol
# GULP energy per Si atom -12394.411850 kJ/mol
# Density = 1.651415 g / cm^3
# Si number density = 16.551826 Si / 1000 Ang^3
#
#
#
# Elastic Constant Matrix: (Units=GPa)
#
#
# Indices 1 2 3 4 5 6 
#
# 1 60.6964 60.4651 35.2785 0.0000 0.0000 0.0000
# 2 60.4651 146.7651 52.2484 0.0000 0.0000 0.0000
# 3 35.2785 52.2484 64.9605 0.0000 0.0000 0.0000
# 4 0.0000 0.0000 0.0000 18.6675 0.0000 0.0000
# 5 0.0000 0.0000 0.0000 0.0000 17.2721 0.0000
# 6 0.0000 0.0000 0.0000 0.0000 0.0000 27.7265
#
#
#
# Elastic Compliance Matrix: (Units=1/GPa)
#
#
# Indices 1 2 3 4 5 6 
#
# 1 0.031540 -0.009663 -0.009356 0.000000 0.000000 0.000000
# 2 -0.009663 0.012508 -0.004812 0.000000 0.000000 0.000000
# 3 -0.009356 -0.004812 0.024346 0.000000 0.000000 0.000000
# 4 0.000000 0.000000 0.000000 0.053569 0.000000 0.000000
# 5 0.000000 0.000000 0.000000 0.000000 0.057897 0.000000
# 6 0.000000 0.000000 0.000000 0.000000 0.000000 0.036067
#
#
# Mechanical properties :
#
#
# Convention : Reuss Voigt Hill
#
# Bulk Modulus (GPa) = 48.23975 63.15624 55.69799
# Shear Modulus (GPa) = 18.48427 21.02855 19.75641
#
# Velocity S-wave (km/s) = 3.34541 3.56823 3.45861
# Velocity P-wave (km/s) = 6.64306 7.43074 7.04791
#
# Compressibility (1/GPa) = 0.02072979
#
# Stress axis : x y z
#
# Youngs Moduli (GPa) = 31.70573 79.94944 41.07459
#
# Poissons Ratio (x) = 0.77256 0.38431
# Poissons Ratio (y) = 0.30638 0.19767
# Poissons Ratio (z) = 0.29665 0.38475
#
# Static dielectric constant tensor:
#      x y z
#    x 3.059680 0.000000 0.000000 
#    y 0.000000 3.244680 0.000000 
#    z 0.000000 0.000000 2.956530 
# 
# 
# High freq. dielectric constant tensor:
#      x y z
#    x 1.623830 0.000000 0.000000 
#    y 0.000000 1.630540 0.000000 
#    z 0.000000 0.000000 1.613770 
# 
# From -- ./inp_files/27642.got.cif
#   From: 2010.03.12/outbox.cif.g09.slc.cpg/sg47_14_cif.got.tgz:27642.got - 2010.04.14 03:12:58.
