data_PCOD8200039
_publ_section_title
;
Structure prediction by ZEFSAII (Michael W. Deem and Ramdas Pophale) SiO2 
 PCOD8200039
Probable space group: P M M M
;
_chemical_formula_sum "Si O2"
_cell_formula_units_Z 56
_cell_length_a 15.003158
_cell_length_b 22.499860
_cell_length_c 8.659246
_cell_angle_alpha 90.000000
_cell_angle_beta 90.000000
_cell_angle_gamma 90.000000
_cell_volume 2923.092619
_symmetry_space_group_name_H-M "P M M M"
_symmetry_group_IT_number 47
_symmetry_cell_setting 'orthorhombic'
loop_
_space_group_symop_operation_xyz
x,y,z
-x,-y,z
x,-y,-z
-x,y,-z
-x,-y,-z
x,y,-z
-x,y,z
x,-y,z
loop_
_atom_site_type_symbol
_atom_site_label
_atom_site_fract_x
_atom_site_fract_y
_atom_site_fract_z
Si Si1 0.322203 0.376379 0.818772
Si Si2 0.000000 0.433250 0.818434
Si Si3 0.401210 0.500000 0.817070
Si Si4 0.599698 0.066192 0.816598
Si Si5 0.899857 0.786659 0.681000
Si Si6 0.138315 0.346359 0.679691
Si Si7 0.598672 0.269509 0.678529
Si Si8 0.276180 0.171229 0.182850
O O1 0.348473 0.441952 0.761751
O O2 0.241099 0.353957 0.715894
O O3 0.400828 0.330554 0.776997
O O4 0.299639 0.375078 0.000000
O O5 0.087538 0.398511 0.767085
O O6 0.000000 0.500000 0.747668
O O7 0.000000 0.437870 0.000000
O O8 0.500000 0.500000 0.743680
O O9 0.409994 0.500000 0.000000
O O10 0.500000 0.084408 0.759078
O O11 0.674752 0.111681 0.754626
O O12 0.623132 0.000000 0.755435
O O13 0.600228 0.066387 0.000000
O O14 0.879581 0.790450 0.500000
O O15 0.892685 0.718483 0.738096
O O16 0.827691 0.828149 0.767784
O O17 0.000000 0.809698 0.719070
O O18 0.117660 0.352798 0.500000
O O19 0.618780 0.282990 0.500000
O O20 0.500000 0.241422 0.699966
O O21 0.674478 0.226573 0.741738
O O22 0.283452 0.176271 0.000000
#
# Coordination Sequence:
#
# PCOD8200039 Si02
#       8
#     8   4   4   8   8   8   8   8
#     4  11  22  37  58  81 105 137 181 229 280 336
#     4  11  25  41  59  83 111 141 182 235 290 343
#     4   9  20  38  57  76 101 134 173 221 274 327
#     4   8  15  30  53  83 121 160 193 229 277 333
#     4  10  21  39  59  78 108 148 186 228 282 343
#     4  11  22  39  59  80 108 142 181 225 284 348
#     4  11  23  37  53  77 113 152 186 226 279 336
#     4  11  21  33  56  89 117 145 189 239 286 337
#
# _framework density 19.157791
#
# number of rings (size 3 to 8) (size 9 to 14) (size 15 to 20)
#    0.000    1.714    2.143    3.214    1.000    3.714 
#    0.000    1.071    0.000    4.714    0.000    8.000 
#    0.000    0.000    0.000    0.000    0.000    0.000 
#
# Total GULP energy -694376.353341 kJ/mol
# GULP energy per Si atom -12399.577738 kJ/mol
# Density = 1.911419 g / cm^3
# Si number density = 19.157791 Si / 1000 Ang^3
#
#
#
# Elastic Constant Matrix: (Units=GPa)
#
#
# Indices 1 2 3 4 5 6 
#
# 1 124.6008 55.4471 23.6963 0.0000 0.0000 0.0000
# 2 55.4471 121.0515 25.7499 0.0000 0.0000 0.0000
# 3 23.6963 25.7499 39.3694 0.0000 0.0000 0.0000
# 4 0.0000 0.0000 0.0000 7.5596 0.0000 0.0000
# 5 0.0000 0.0000 0.0000 0.0000 29.2585 0.0000
# 6 0.0000 0.0000 0.0000 0.0000 0.0000 30.5769
#
#
#
# Elastic Compliance Matrix: (Units=1/GPa)
#
#
# Indices 1 2 3 4 5 6 
#
# 1 0.010524 -0.004034 -0.003696 0.000000 0.000000 0.000000
# 2 -0.004034 0.011143 -0.004860 0.000000 0.000000 0.000000
# 3 -0.003696 -0.004860 0.030803 0.000000 0.000000 0.000000
# 4 0.000000 0.000000 0.000000 0.132282 0.000000 0.000000
# 5 0.000000 0.000000 0.000000 0.000000 0.034178 0.000000
# 6 0.000000 0.000000 0.000000 0.000000 0.000000 0.032704
#
#
# Mechanical properties :
#
#
# Convention : Reuss Voigt Hill
#
# Bulk Modulus (GPa) = 36.64265 54.97871 45.81068
# Shear Modulus (GPa) = 17.48804 25.48756 21.48780
#
# Velocity S-wave (km/s) = 3.02461 3.65142 3.35270
# Velocity P-wave (km/s) = 5.60053 6.82183 6.24112
#
# Compressibility (1/GPa) = 0.02729060
#
# Stress axis : x y z
#
# Youngs Moduli (GPa) = 95.02401 89.74607 32.46403
#
# Poissons Ratio (x) = 0.36205 0.11997
# Poissons Ratio (y) = 0.38335 0.15777
# Poissons Ratio (z) = 0.35117 0.43614
#
# Static dielectric constant tensor:
#      x y z
#    x 3.645300 0.000000 0.000000 
#    y 0.000000 3.668640 0.000000 
#    z 0.000000 0.000000 3.270790 
# 
# 
# High freq. dielectric constant tensor:
#      x y z
#    x 1.754160 0.000000 0.000000 
#    y 0.000000 1.732490 0.000000 
#    z 0.000000 0.000000 1.729000 
# 
# From -- ./inp_files/7429.got.cif
#   From: 2010.03.12/outbox.cif.g09.slc.cpg/sg47_4_cif.got.tgz:7429.got - 2010.04.14 03:12:58.
