data_PCOD8200197
_publ_section_title
;
Structure prediction by ZEFSAII (Michael W. Deem and Ramdas Pophale) SiO2 
 PCOD8200197
Probable space group: P M M M
;
_chemical_formula_sum "Si O2"
_cell_formula_units_Z 52
_cell_length_a 25.578094
_cell_length_b 13.980642
_cell_length_c 10.712303
_cell_angle_alpha 90.000000
_cell_angle_beta 90.000000
_cell_angle_gamma 90.000000
_cell_volume 3830.700006
_symmetry_space_group_name_H-M "P M M M"
_symmetry_group_IT_number 47
_symmetry_cell_setting 'orthorhombic'
loop_
_space_group_symop_operation_xyz
x,y,z
-x,-y,z
x,-y,-z
-x,y,-z
-x,-y,-z
x,y,-z
-x,y,z
x,-y,z
loop_
_atom_site_type_symbol
_atom_site_label
_atom_site_fract_x
_atom_site_fract_y
_atom_site_fract_z
Si Si1 0.805643 0.107743 0.144984
Si Si2 0.500000 0.896589 0.646323
Si Si3 0.000000 0.102654 0.858900
Si Si4 0.061358 0.392100 0.143686
Si Si5 0.612877 0.885260 0.358424
Si Si6 0.096550 0.206213 0.749057
Si Si7 0.062157 0.889276 0.500000
Si Si8 0.312109 0.886208 0.139520
O O1 0.845114 0.176815 0.215413
O O2 0.747065 0.146857 0.167706
O O3 0.811622 0.000000 0.197740
O O4 0.819424 0.108305 0.000000
O O5 0.500000 0.914409 0.500000
O O6 0.445074 0.843747 0.679018
O O7 0.500000 0.000000 0.714589
O O8 0.947584 0.160977 0.836400
O O9 0.000000 0.000000 0.782771
O O10 0.000000 0.073799 0.000000
O O11 0.078291 0.500000 0.177765
O O12 0.092461 0.320891 0.235830
O O13 0.000000 0.378632 0.165218
O O14 0.075619 0.369480 0.000000
O O15 0.628961 0.852120 0.500000
O O16 0.651994 0.844880 0.251931
O O17 0.611156 0.000000 0.356105
O O18 0.086005 0.169684 0.612130
O O19 0.000000 0.881707 0.500000
O O20 0.080369 0.000000 0.500000
O O21 0.314148 0.000000 0.138928
O O22 0.329409 0.849972 0.000000
#
# Coordination Sequence:
#
# PCOD8200197 Si02
#       8
#     8   4   4   8   8   8   4   8
#     4   9  17  28  41  56  73  94 123 159 194 230
#     4   7  10  16  27  43  61  81 109 149 186 215
#     4  11  20  27  42  64  77  91 123 160 190 232
#     4   9  17  30  48  68  84  95 116 157 203 239
#     4   8  12  19  31  45  61  84 116 149 183 219
#     4  12  20  31  45  58  79 104 129 151 190 237
#     4  11  22  34  43  55  83 115 130 147 185 233
#     4   8  14  24  34  45  65  90 114 147 190 227
#
# _framework density 13.574543
#
# number of rings (size 3 to 8) (size 9 to 14) (size 15 to 20)
#    0.000    2.692    1.538    5.077    0.000    1.231 
#    1.385    0.769    0.000    3.692    0.000    0.000 
#    0.000    0.000    0.000    0.000    0.000    0.000 
#
# Total GULP energy -644197.387579 kJ/mol
# GULP energy per Si atom -12388.411300 kJ/mol
# Density = 1.354365 g / cm^3
# Si number density = 13.574543 Si / 1000 Ang^3
#
#
#
# Elastic Constant Matrix: (Units=GPa)
#
#
# Indices 1 2 3 4 5 6 
#
# 1 93.4422 24.9154 53.5622 0.0000 0.0000 0.0000
# 2 24.9154 63.8901 33.1754 0.0000 0.0000 0.0000
# 3 53.5622 33.1754 86.0136 0.0000 0.0000 0.0000
# 4 0.0000 0.0000 0.0000 11.6787 0.0000 0.0000
# 5 0.0000 0.0000 0.0000 0.0000 24.1981 0.0000
# 6 0.0000 0.0000 0.0000 0.0000 0.0000 3.6608
#
#
#
# Elastic Compliance Matrix: (Units=1/GPa)
#
#
# Indices 1 2 3 4 5 6 
#
# 1 0.016741 -0.001395 -0.009887 0.000000 0.000000 0.000000
# 2 -0.001395 0.019688 -0.006725 0.000000 0.000000 0.000000
# 3 -0.009887 -0.006725 0.020377 0.000000 0.000000 0.000000
# 4 0.000000 0.000000 0.000000 0.085626 0.000000 0.000000
# 5 0.000000 0.000000 0.000000 0.000000 0.041326 0.000000
# 6 0.000000 0.000000 0.000000 0.000000 0.000000 0.273161
#
#
# Mechanical properties :
#
#
# Convention : Reuss Voigt Hill
#
# Bulk Modulus (GPa) = 48.09528 51.85021 49.97275
# Shear Modulus (GPa) = 10.00275 16.68705 13.34490
#
# Velocity S-wave (km/s) = 2.71749 3.50993 3.13882
# Velocity P-wave (km/s) = 6.73452 7.39633 7.07317
#
# Compressibility (1/GPa) = 0.02079206
#
# Stress axis : x y z
#
# Youngs Moduli (GPa) = 59.73344 50.79281 49.07549
#
# Poissons Ratio (x) = 0.07084 0.48521
# Poissons Ratio (y) = 0.08331 0.33004
# Poissons Ratio (z) = 0.59059 0.34159
#
# Static dielectric constant tensor:
#      x y z
#    x 2.914180 0.000000 0.000000 
#    y 0.000000 2.383960 0.000000 
#    z 0.000000 0.000000 2.320580 
# 
# 
# High freq. dielectric constant tensor:
#      x y z
#    x 1.509340 0.000000 0.000000 
#    y 0.000000 1.461000 0.000000 
#    z 0.000000 0.000000 1.512940 
# 
# From -- ./inp_files/19709.got.cif
#   From: 2010.03.12/outbox.cif.g09.slc.cpg/sg47_10_cif.got.tgz:19709.got - 2010.04.14 03:12:58.
