data_PCOD8200995
_publ_section_title
;
Structure prediction by ZEFSAII (Michael W. Deem and Ramdas Pophale) SiO2 
 PCOD8200995
Probable space group: P M M M
;
_chemical_formula_sum "Si O2"
_cell_formula_units_Z 52
_cell_length_a 33.945113
_cell_length_b 9.265392
_cell_length_c 9.746765
_cell_angle_alpha 90.000000
_cell_angle_beta 90.000000
_cell_angle_gamma 90.000000
_cell_volume 3065.501634
_symmetry_space_group_name_H-M "P M M M"
_symmetry_group_IT_number 47
_symmetry_cell_setting 'orthorhombic'
loop_
_space_group_symop_operation_xyz
x,y,z
-x,-y,z
x,-y,-z
-x,y,-z
-x,-y,-z
x,y,-z
-x,y,z
x,-y,z
loop_
_atom_site_type_symbol
_atom_site_label
_atom_site_fract_x
_atom_site_fract_y
_atom_site_fract_z
Si Si1 0.348528 0.662709 0.836333
Si Si2 0.956841 0.662527 0.662983
Si Si3 0.424116 0.163691 0.836510
Si Si4 0.118213 0.170046 0.342480
Si Si5 0.188013 0.171938 0.846960
Si Si6 0.725356 0.160926 0.163212
Si Si7 0.500000 0.663922 0.163519
O O1 0.352025 0.500000 0.779517
O O2 0.385103 0.756615 0.781177
O O3 0.308205 0.732823 0.778861
O O4 0.348457 0.661918 0.000000
O O5 0.956847 0.668425 0.500000
O O6 0.949042 0.500000 0.714128
O O7 0.922045 0.763799 0.719627
O O8 0.000000 0.715232 0.716186
O O9 0.461735 0.251776 0.780937
O O10 0.425220 0.000000 0.779686
O O11 0.424321 0.161484 0.000000
O O12 0.124831 0.216154 0.500000
O O13 0.154949 0.232343 0.256145
O O14 0.114592 0.000000 0.326884
O O15 0.231385 0.220771 0.794274
O O16 0.187389 0.000000 0.850544
O O17 0.179628 0.232400 0.000000
O O18 0.718205 0.000000 0.223064
O O19 0.723303 0.153020 0.000000
O O20 0.500000 0.500000 0.220187
O O21 0.500000 0.661449 0.000000
#
# Coordination Sequence:
#
# PCOD8200995 Si02
#       7
#     8   8   8   8   8   8   4
#     4   9  15  21  29  42  59  76  97 133 179 215
#     4   8  14  25  40  57  78 104 130 154 185 227
#     4   9  15  21  28  37  50  71 100 132 168 215
#     4   9  16  25  40  63  84  99 123 162 197 221
#     4   8  14  25  40  56  76 103 129 152 186 233
#     4   8  13  22  35  47  59  81 113 141 166 206
#     4   9  15  21  27  35  49  69  95 131 176 219
#
# _framework density 16.962966999999999
#
# number of rings (size 3 to 8) (size 9 to 14) (size 15 to 20)
#    0.000    3.462    0.000    2.538    0.000    4.923 
#    0.000    2.308    0.000    1.846    0.000    3.231 
#    0.000    0.000    0.000    0.000    0.000    0.000 
#
# Total GULP energy -644409.675313 kJ/mol
# GULP energy per Si atom -12392.493756 kJ/mol
# Density = 1.692436 g / cm^3
# Si number density = 16.962967 Si / 1000 Ang^3
#
#
#
# Elastic Constant Matrix: (Units=GPa)
#
#
# Indices 1 2 3 4 5 6 
#
# 1 192.8238 77.8668 31.1130 0.0000 0.0000 0.0000
# 2 77.8668 100.2289 14.9366 0.0000 0.0000 0.0000
# 3 31.1130 14.9366 18.7053 0.0000 0.0000 0.0000
# 4 0.0000 0.0000 0.0000 4.7421 0.0000 0.0000
# 5 0.0000 0.0000 0.0000 0.0000 3.0041 0.0000
# 6 0.0000 0.0000 0.0000 0.0000 0.0000 21.6032
#
#
#
# Elastic Compliance Matrix: (Units=1/GPa)
#
#
# Indices 1 2 3 4 5 6 
#
# 1 0.009155 -0.005497 -0.010838 0.000000 0.000000 0.000000
# 2 -0.005497 0.014626 -0.002536 0.000000 0.000000 0.000000
# 3 -0.010838 -0.002536 0.073512 0.000000 0.000000 0.000000
# 4 0.000000 0.000000 0.000000 0.210878 0.000000 0.000000
# 5 0.000000 0.000000 0.000000 0.000000 0.332880 0.000000
# 6 0.000000 0.000000 0.000000 0.000000 0.000000 0.046289
#
#
# Mechanical properties :
#
#
# Convention : Reuss Voigt Hill
#
# Bulk Modulus (GPa) = 16.79213 62.17676 39.48444
# Shear Modulus (GPa) = 6.71204 18.39265 12.55234
#
# Velocity S-wave (km/s) = 1.99135 3.29642 2.72322
# Velocity P-wave (km/s) = 3.89975 7.15699 5.76327
#
# Compressibility (1/GPa) = 0.05955172
#
# Stress axis : x y z
#
# Youngs Moduli (GPa) = 109.23466 68.37313 13.60327
#
# Poissons Ratio (x) = 0.37585 0.14743
# Poissons Ratio (y) = 0.60047 0.03449
# Poissons Ratio (z) = 1.18383 0.17336
#
# Static dielectric constant tensor:
#      x y z
#    x 3.685150 0.000000 0.000000 
#    y 0.000000 3.187620 0.000000 
#    z 0.000000 0.000000 2.513770 
# 
# 
# High freq. dielectric constant tensor:
#      x y z
#    x 1.676780 0.000000 0.000000 
#    y 0.000000 1.643820 0.000000 
#    z 0.000000 0.000000 1.562820 
# 
# From -- ./inp_files/20040.got.cif
#   From: 2010.03.12/outbox.cif.g09.slc.cpg/sg47_11_cif.got.tgz:20040.got - 2010.04.14 03:12:58.
