data_PCOD8200871
_publ_section_title
;
Structure prediction by ZEFSAII (Michael W. Deem and Ramdas Pophale) SiO2 
 PCOD8200871
Probable space group: P M M M
;
_chemical_formula_sum "Si O2"
_cell_formula_units_Z 48
_cell_length_a 20.468035
_cell_length_b 9.599967
_cell_length_c 20.435005
_cell_angle_alpha 90.000000
_cell_angle_beta 90.000000
_cell_angle_gamma 90.000000
_cell_volume 4015.324414
_symmetry_space_group_name_H-M "P M M M"
_symmetry_group_IT_number 47
_symmetry_cell_setting 'orthorhombic'
loop_
_space_group_symop_operation_xyz
x,y,z
-x,-y,z
x,-y,-z
-x,y,-z
-x,-y,-z
x,y,-z
-x,y,z
x,-y,z
loop_
_atom_site_type_symbol
_atom_site_label
_atom_site_fract_x
_atom_site_fract_y
_atom_site_fract_z
Si Si1 0.575953 0.662167 0.186747
Si Si2 0.577704 0.157410 0.689874
Si Si3 0.186424 0.345675 0.922273
Si Si4 0.927934 0.844135 0.077781
Si Si5 0.577712 0.343788 0.427120
Si Si6 0.330117 0.334375 0.927565
O O1 0.500000 0.686681 0.171672
O O2 0.589856 0.500000 0.202446
O O3 0.600505 0.754338 0.247406
O O4 0.615431 0.716167 0.123513
O O5 0.500000 0.154207 0.686850
O O6 0.606207 0.233830 0.625243
O O7 0.605601 0.000000 0.693415
O O8 0.178066 0.500000 0.892381
O O9 0.129037 0.251201 0.891397
O O10 0.258012 0.283116 0.904693
O O11 0.179974 0.352812 0.000000
O O12 0.000000 0.788322 0.098401
O O13 0.918100 0.000000 0.104806
O O14 0.922401 0.844794 0.000000
O O15 0.601004 0.299989 0.500000
O O16 0.500000 0.343340 0.423859
O O17 0.602707 0.500000 0.410539
O O18 0.328286 0.500000 0.931448
O O19 0.347281 0.274864 0.000000
#
# Coordination Sequence:
#
# PCOD8200871 Si02
#       6
#     8   8   8   8   8   8
#     4   9  16  25  37  49  59  75 100 129 162 199
#     4   9  16  24  33  45  62  81  98 119 148 182
#     4   8  13  21  32  44  58  75  93 115 145 181
#     4   8  13  20  29  42  60  78  93 110 133 164
#     4   8  13  21  33  48  64  80  97 116 138 169
#     4   8  14  24  36  49  62  74  94 129 168 199
#
# _framework density 11.954202
#
# number of rings (size 3 to 8) (size 9 to 14) (size 15 to 20)
#    0.000    3.667    0.000    2.500    0.000    3.000 
#    0.000    5.833    0.000    1.500    0.000    2.333 
#    0.000    0.000    0.000    0.000    0.000    0.000 
#
# Total GULP energy -594726.503882 kJ/mol
# GULP energy per Si atom -12390.135498 kJ/mol
# Density = 1.192699 g / cm^3
# Si number density = 11.954202 Si / 1000 Ang^3
#
#
#
# Elastic Constant Matrix: (Units=GPa)
#
#
# Indices 1 2 3 4 5 6 
#
# 1 53.2852 30.5768 33.4517 0.0000 0.0000 0.0000
# 2 30.5768 63.3669 40.4120 0.0000 0.0000 0.0000
# 3 33.4517 40.4120 70.8892 0.0000 0.0000 0.0000
# 4 0.0000 0.0000 0.0000 8.9131 0.0000 0.0000
# 5 0.0000 0.0000 0.0000 0.0000 0.4256 0.0000
# 6 0.0000 0.0000 0.0000 0.0000 0.0000 8.8577
#
#
#
# Elastic Compliance Matrix: (Units=1/GPa)
#
#
# Indices 1 2 3 4 5 6 
#
# 1 0.029226 -0.008339 -0.009037 0.000000 0.000000 0.000000
# 2 -0.008339 0.027175 -0.011557 0.000000 0.000000 0.000000
# 3 -0.009037 -0.011557 0.024959 0.000000 0.000000 0.000000
# 4 0.000000 0.000000 0.000000 0.112194 0.000000 0.000000
# 5 0.000000 0.000000 0.000000 0.000000 2.349378 0.000000
# 6 0.000000 0.000000 0.000000 0.000000 0.000000 0.112896
#
#
# Mechanical properties :
#
#
# Convention : Reuss Voigt Hill
#
# Bulk Modulus (GPa) = 42.56406 44.04691 43.30549
# Shear Modulus (GPa) = 1.83720 9.17935 5.50827
#
# Velocity S-wave (km/s) = 1.24105 2.77406 2.14891
# Velocity P-wave (km/s) = 6.14303 6.86928 6.51628
#
# Compressibility (1/GPa) = 0.02349400
#
# Stress axis : x y z
#
# Youngs Moduli (GPa) = 34.21653 36.79820 40.06500
#
# Poissons Ratio (x) = 0.30685 0.36209
# Poissons Ratio (y) = 0.28533 0.46303
# Poissons Ratio (z) = 0.30923 0.42527
#
# Static dielectric constant tensor:
#      x y z
#    x 2.392600 0.000000 0.000000 
#    y 0.000000 2.599480 0.000000 
#    z 0.000000 0.000000 2.392020 
# 
# 
# High freq. dielectric constant tensor:
#      x y z
#    x 1.417050 0.000000 0.000000 
#    y 0.000000 1.448800 0.000000 
#    z 0.000000 0.000000 1.418090 
# 
# From -- ./inp_files/9702.got.cif
#   From: 2010.03.12/outbox.cif.g09.slc.cpg/sg47_5_cif.got.tgz:9702.got - 2010.04.14 03:12:58.
