data_PCOD8200792
_publ_section_title
;
Structure prediction by ZEFSAII (Michael W. Deem and Ramdas Pophale) SiO2 
 PCOD8200792
Probable space group: P M M M
;
_chemical_formula_sum "Si O2"
_cell_formula_units_Z 52
_cell_length_a 10.057009
_cell_length_b 29.790951
_cell_length_c 12.986551
_cell_angle_alpha 90.000000
_cell_angle_beta 90.000000
_cell_angle_gamma 90.000000
_cell_volume 3890.872784
_symmetry_space_group_name_H-M "P M M M"
_symmetry_group_IT_number 47
_symmetry_cell_setting 'orthorhombic'
loop_
_space_group_symop_operation_xyz
x,y,z
-x,-y,z
x,-y,-z
-x,y,-z
-x,-y,-z
x,y,-z
-x,y,z
x,-y,z
loop_
_atom_site_type_symbol
_atom_site_label
_atom_site_fract_x
_atom_site_fract_y
_atom_site_fract_z
Si Si1 0.851162 0.877146 0.622533
Si Si2 0.658750 0.449363 0.500000
Si Si3 0.653019 0.701342 0.621418
Si Si4 0.851232 0.777185 0.622293
Si Si5 0.657976 0.394809 0.305705
Si Si6 0.658185 0.550509 0.114057
Si Si7 0.648836 0.050002 0.377458
O O1 0.843960 0.878343 0.500000
O O2 0.813098 0.827145 0.661695
O O3 0.749651 0.913464 0.670687
O O4 0.000000 0.889508 0.659113
O O5 0.712918 0.500000 0.500000
O O6 0.500000 0.448564 0.500000
O O7 0.715481 0.424325 0.399395
O O8 0.672042 0.693067 0.500000
O O9 0.500000 0.713151 0.646005
O O10 0.743902 0.741733 0.664628
O O11 0.701195 0.656837 0.681185
O O12 0.847779 0.776913 0.500000
O O13 0.000000 0.764401 0.660316
O O14 0.500000 0.397912 0.307975
O O15 0.715538 0.414744 0.198597
O O16 0.500000 0.551424 0.116430
O O17 0.706885 0.500000 0.140178
O O18 0.708721 0.564651 0.000000
O O19 0.653386 0.051852 0.500000
O O20 0.500000 0.061388 0.339081
O O21 0.690074 0.000000 0.340397
#
# Coordination Sequence:
#
# PCOD8200792 Si02
#       7
#     8   4   8   8   8   8   8
#     4   8  13  20  28  37  48  64  89 120 151 183
#     4   9  14  18  26  40  59  83 103 121 154 193
#     4   9  15  22  31  44  62  81 100 124 156 191
#     4   8  14  23  32  41  55  75  99 126 154 188
#     4   9  14  20  28  41  62  83 103 129 157 188
#     4   8  13  20  29  41  59  85 111 129 151 188
#     4   8  13  19  25  34  49  67  87 115 152 191
#
# _framework density 13.364611
#
# number of rings (size 3 to 8) (size 9 to 14) (size 15 to 20)
#    0.000    3.615    0.769    2.308    0.000    2.769 
#    0.000    4.615    0.000    0.000    0.000    0.000 
#    0.000    3.692    0.000    1.692    0.000    1.538 
#
# Total GULP energy -644291.598560 kJ/mol
# GULP energy per Si atom -12390.223049 kJ/mol
# Density = 1.333419 g / cm^3
# Si number density = 13.364611 Si / 1000 Ang^3
#
#
#
# Elastic Constant Matrix: (Units=GPa)
#
#
# Indices 1 2 3 4 5 6 
#
# 1 56.5066 64.7897 16.4518 0.0000 0.0000 0.0000
# 2 64.7897 133.0571 35.0691 0.0000 0.0000 0.0000
# 3 16.4518 35.0691 43.1087 0.0000 0.0000 0.0000
# 4 0.0000 0.0000 0.0000 6.5934 0.0000 0.0000
# 5 0.0000 0.0000 0.0000 0.0000 1.9999 0.0000
# 6 0.0000 0.0000 0.0000 0.0000 0.0000 7.5713
#
#
#
# Elastic Compliance Matrix: (Units=1/GPa)
#
#
# Indices 1 2 3 4 5 6 
#
# 1 0.040085 -0.019714 0.000739 0.000000 0.000000 0.000000
# 2 -0.019714 0.019262 -0.008146 0.000000 0.000000 0.000000
# 3 0.000739 -0.008146 0.029542 0.000000 0.000000 0.000000
# 4 0.000000 0.000000 0.000000 0.151668 0.000000 0.000000
# 5 0.000000 0.000000 0.000000 0.000000 0.500013 0.000000
# 6 0.000000 0.000000 0.000000 0.000000 0.000000 0.132078
#
#
# Mechanical properties :
#
#
# Convention : Reuss Voigt Hill
#
# Bulk Modulus (GPa) = 28.86184 51.69930 40.28057
# Shear Modulus (GPa) = 5.32800 10.99037 8.15918
#
# Velocity S-wave (km/s) = 1.99883 2.87077 2.47352
# Velocity P-wave (km/s) = 5.19323 7.05380 6.19378
#
# Compressibility (1/GPa) = 0.03464783
#
# Stress axis : x y z
#
# Youngs Moduli (GPa) = 24.94690 51.91632 33.85013
#
# Poissons Ratio (x) = 1.02346 -0.02502
# Poissons Ratio (y) = 0.49179 0.27575
# Poissons Ratio (z) = -0.01844 0.42292
#
# Static dielectric constant tensor:
#      x y z
#    x 2.524920 0.000000 0.000000 
#    y 0.000000 2.965490 0.000000 
#    z 0.000000 0.000000 2.344170 
# 
# 
# High freq. dielectric constant tensor:
#      x y z
#    x 1.477130 0.000000 0.000000 
#    y 0.000000 1.519490 0.000000 
#    z 0.000000 0.000000 1.442420 
# 
# From -- ./inp_files/16843.got.cif
#   From: 2010.03.12/outbox.cif.g09.slc.cpg/sg47_9_cif.got.tgz:16843.got - 2010.04.14 03:12:58.
