data_PCOD8200084
_publ_section_title
;
Structure prediction by ZEFSAII (Michael W. Deem and Ramdas Pophale) SiO2 
 PCOD8200084
Probable space group: P M M M
;
_chemical_formula_sum "Si O2"
_cell_formula_units_Z 64
_cell_length_a 9.337712
_cell_length_b 14.860669
_cell_length_c 24.478454
_cell_angle_alpha 90.000000
_cell_angle_beta 90.000000
_cell_angle_gamma 90.000000
_cell_volume 3396.744035
_symmetry_space_group_name_H-M "P M M M"
_symmetry_group_IT_number 47
_symmetry_cell_setting 'orthorhombic'
loop_
_space_group_symop_operation_xyz
x,y,z
-x,-y,z
x,-y,-z
-x,y,-z
-x,-y,-z
x,y,-z
-x,y,z
x,-y,z
loop_
_atom_site_type_symbol
_atom_site_label
_atom_site_fract_x
_atom_site_fract_y
_atom_site_fract_z
Si Si1 0.665678 0.244824 0.562610
Si Si2 0.665452 0.602877 0.853858
Si Si3 0.161539 0.393243 0.249999
Si Si4 0.334322 0.755179 0.937390
Si Si5 0.170450 0.896882 0.131972
Si Si6 0.843665 0.106241 0.250002
Si Si7 0.170450 0.103118 0.631969
Si Si8 0.665452 0.397123 0.646144
O O1 0.708769 0.259655 0.500000
O O2 0.500000 0.218758 0.569135
O O3 0.758223 0.163457 0.585979
O O4 0.700711 0.338056 0.593117
O O5 0.500000 0.609633 0.836657
O O6 0.707344 0.500000 0.867743
O O7 0.758308 0.642419 0.803850
O O8 0.700709 0.661945 0.906885
O O9 0.167038 0.500000 0.249999
O O10 0.241693 0.357580 0.303847
O O11 0.000000 0.356279 0.249999
O O12 0.500000 0.781245 0.930866
O O13 0.241778 0.836544 0.914018
O O14 0.291228 0.740353 0.000000
O O15 0.232382 0.867315 0.192456
O O16 0.000000 0.884445 0.130831
O O17 0.211603 0.000000 0.119435
O O18 0.767617 0.132683 0.307547
O O19 0.000000 0.152134 0.250002
O O20 0.864468 0.000000 0.250001
O O21 0.000000 0.115555 0.630829
O O22 0.211601 0.000000 0.619431
O O23 0.500000 0.390366 0.663345
O O24 0.707344 0.500000 0.632260
#
# Coordination Sequence:
#
# PCOD8200084 Si02
#       8
#     8   8   8   8   8   8   8   8
#     4  10  22  37  51  72 102 135 174 217 257 297
#     4   9  18  34  55  76 101 135 172 210 253 303
#     4   9  17  30  51  80 109 133 162 204 255 309
#     4  10  22  37  51  72 102 135 174 217 257 297
#     4   9  18  34  56  79 103 133 168 206 251 306
#     4   7  12  27  51  76  99 123 156 199 245 294
#     4   9  18  34  56  79 103 133 168 206 251 306
#     4   9  18  34  55  76 101 135 172 210 253 303
#
# _framework density 18.841573
#
# number of rings (size 3 to 8) (size 9 to 14) (size 15 to 20)
#    0.000    3.000    0.000    1.875    0.000    5.500 
#    0.000    8.125    0.000    2.250    0.000    5.250 
#    0.000    0.000    0.000    0.000    0.000    0.000 
#
# Total GULP energy -793215.109437 kJ/mol
# GULP energy per Si atom -12393.986085 kJ/mol
# Density = 1.879869 g / cm^3
# Si number density = 18.841573 Si / 1000 Ang^3
#
#
#
# Elastic Constant Matrix: (Units=GPa)
#
#
# Indices 1 2 3 4 5 6 
#
# 1 62.8486 43.5180 64.3947 0.0000 0.0000 0.0000
# 2 43.5180 93.6969 72.6286 0.0000 0.0000 0.0000
# 3 64.3947 72.6286 180.7036 0.0000 0.0000 0.0000
# 4 0.0000 0.0000 0.0000 24.6988 0.0000 0.0000
# 5 0.0000 0.0000 0.0000 0.0000 25.9345 0.0000
# 6 0.0000 0.0000 0.0000 0.0000 0.0000 17.4324
#
#
#
# Elastic Compliance Matrix: (Units=1/GPa)
#
#
# Indices 1 2 3 4 5 6 
#
# 1 0.028507 -0.007794 -0.007026 0.000000 0.000000 0.000000
# 2 -0.007794 0.017633 -0.004310 0.000000 0.000000 0.000000
# 3 -0.007026 -0.004310 0.009770 0.000000 0.000000 0.000000
# 4 0.000000 0.000000 0.000000 0.040488 0.000000 0.000000
# 5 0.000000 0.000000 0.000000 0.000000 0.038559 0.000000
# 6 0.000000 0.000000 0.000000 0.000000 0.000000 0.057365
#
#
# Mechanical properties :
#
#
# Convention : Reuss Voigt Hill
#
# Bulk Modulus (GPa) = 56.65547 77.59240 67.12393
# Shear Modulus (GPa) = 21.14485 24.06032 22.60258
#
# Velocity S-wave (km/s) = 3.35363 3.57736 3.46730
# Velocity P-wave (km/s) = 6.71792 7.63769 7.19252
#
# Compressibility (1/GPa) = 0.01765055
#
# Stress axis : x y z
#
# Youngs Moduli (GPa) = 35.07927 56.71064 102.35531
#
# Poissons Ratio (x) = 0.44200 0.71915
# Poissons Ratio (y) = 0.27341 0.44113
# Poissons Ratio (z) = 0.24647 0.24441
#
# Static dielectric constant tensor:
#      x y z
#    x 3.271980 0.000000 0.000000 
#    y 0.000000 3.314780 0.000000 
#    z 0.000000 0.000000 3.639980 
# 
# 
# High freq. dielectric constant tensor:
#      x y z
#    x 1.707700 0.000000 0.000000 
#    y 0.000000 1.727860 0.000000 
#    z 0.000000 0.000000 1.736780 
# 
# From -- ./inp_files/21906.got.cif
#   From: 2010.03.12/outbox.cif.g09.slc.cpg/sg47_11_cif.got.tgz:21906.got - 2010.04.14 03:12:58.
