data_PCOD8200185
_publ_section_title
;
Structure prediction by ZEFSAII (Michael W. Deem and Ramdas Pophale) SiO2 
 PCOD8200185
Probable space group: P M M M
;
_chemical_formula_sum "Si O2"
_cell_formula_units_Z 52
_cell_length_a 8.947797
_cell_length_b 13.854346
_cell_length_c 21.645856
_cell_angle_alpha 90.000000
_cell_angle_beta 90.000000
_cell_angle_gamma 90.000000
_cell_volume 2683.347492
_symmetry_space_group_name_H-M "P M M M"
_symmetry_group_IT_number 47
_symmetry_cell_setting 'orthorhombic'
loop_
_space_group_symop_operation_xyz
x,y,z
-x,-y,z
x,-y,-z
-x,y,-z
-x,-y,-z
x,y,-z
-x,y,z
x,-y,z
loop_
_atom_site_type_symbol
_atom_site_label
_atom_site_fract_x
_atom_site_fract_y
_atom_site_fract_z
Si Si1 0.322479 0.706098 0.116776
Si Si2 0.169519 0.614051 0.000000
Si Si3 0.337192 0.604992 0.571858
Si Si4 0.675948 0.108764 0.431055
Si Si5 0.174336 0.109722 0.928345
Si Si6 0.823494 0.387368 0.765109
Si Si7 0.171045 0.740735 0.649618
O O1 0.500000 0.705307 0.114889
O O2 0.266018 0.817270 0.115275
O O3 0.266409 0.648851 0.176098
O O4 0.256811 0.649546 0.059270
O O5 0.165590 0.500000 0.000000
O O6 0.000000 0.655703 0.000000
O O7 0.322482 0.593000 0.500000
O O8 0.500000 0.652431 0.588534
O O9 0.328145 0.500000 0.603282
O O10 0.197553 0.666783 0.593955
O O11 0.719883 0.150514 0.500000
O O12 0.500000 0.111810 0.424330
O O13 0.742485 0.163248 0.371253
O O14 0.735975 0.000000 0.426836
O O15 0.000000 0.121656 0.913775
O O16 0.225154 0.000000 0.913781
O O17 0.206932 0.134432 0.000000
O O18 0.784265 0.500000 0.750905
O O19 0.770129 0.314797 0.710616
O O20 0.000000 0.377036 0.776781
O O21 0.000000 0.768428 0.656862
#
# Coordination Sequence:
#
# PCOD8200185 Si02
#       7
#     8   4   8   8   8   8   8
#     4  12  24  37  58  90 120 147 187 244 299 345
#     4  11  23  39  60  83 112 153 193 232 288 357
#     4   9  18  32  50  74 106 144 183 222 270 332
#     4   9  19  37  60  85 115 153 194 235 285 348
#     4   9  18  35  61  89 117 153 191 223 267 337
#     4  10  23  43  61  77 108 157 203 238 282 347
#     4  11  22  35  55  83 111 143 187 238 288 338
#
# _framework density 19.378779000000002
#
# number of rings (size 3 to 8) (size 9 to 14) (size 15 to 20)
#    0.000    1.923    0.769    4.846    0.000    8.000 
#    0.000    3.077    0.000    0.923    0.000    0.000 
#    0.000    0.000    0.000    0.000    0.000    0.000 
#
# Total GULP energy -644399.334301 kJ/mol
# GULP energy per Si atom -12392.294890 kJ/mol
# Density = 1.933467 g / cm^3
# Si number density = 19.378779 Si / 1000 Ang^3
#
#
#
# Elastic Constant Matrix: (Units=GPa)
#
#
# Indices 1 2 3 4 5 6 
#
# 1 77.8519 48.5659 53.4195 0.0000 0.0000 0.0000
# 2 48.5659 115.9433 62.9502 0.0000 0.0000 0.0000
# 3 53.4195 62.9502 103.0494 0.0000 0.0000 0.0000
# 4 0.0000 0.0000 0.0000 59.4284 0.0000 0.0000
# 5 0.0000 0.0000 0.0000 0.0000 40.1161 0.0000
# 6 0.0000 0.0000 0.0000 0.0000 0.0000 37.8063
#
#
#
# Elastic Compliance Matrix: (Units=1/GPa)
#
#
# Indices 1 2 3 4 5 6 
#
# 1 0.021329 -0.004386 -0.008378 0.000000 0.000000 0.000000
# 2 -0.004386 0.013807 -0.006161 0.000000 0.000000 0.000000
# 3 -0.008378 -0.006161 0.017810 0.000000 0.000000 0.000000
# 4 0.000000 0.000000 0.000000 0.016827 0.000000 0.000000
# 5 0.000000 0.000000 0.000000 0.000000 0.024928 0.000000
# 6 0.000000 0.000000 0.000000 0.000000 0.000000 0.026451
#
#
# Mechanical properties :
#
#
# Convention : Reuss Voigt Hill
#
# Bulk Modulus (GPa) = 66.23295 69.63508 67.93402
# Shear Modulus (GPa) = 30.48163 36.26409 33.37286
#
# Velocity S-wave (km/s) = 3.97033 4.33058 4.15436
# Velocity P-wave (km/s) = 7.43440 7.81133 7.62520
#
# Compressibility (1/GPa) = 0.01509822
#
# Stress axis : x y z
#
# Youngs Moduli (GPa) = 46.88370 72.42743 56.14688
#
# Poissons Ratio (x) = 0.31765 0.47038
# Poissons Ratio (y) = 0.20562 0.34591
# Poissons Ratio (z) = 0.39278 0.44621
#
# Static dielectric constant tensor:
#      x y z
#    x 3.505410 0.000000 0.000000 
#    y 0.000000 3.843320 0.000000 
#    z 0.000000 0.000000 3.392750 
# 
# 
# High freq. dielectric constant tensor:
#      x y z
#    x 1.744360 0.000000 0.000000 
#    y 0.000000 1.769590 0.000000 
#    z 0.000000 0.000000 1.738470 
# 
# From -- ./inp_files/29559.got.cif
#   From: 2010.03.12/outbox.cif.g09.slc.cpg/sg47_15_cif.got.tgz:29559.got - 2010.04.14 03:12:58.
