data_PCOD8200667
_publ_section_title
;
Structure prediction by ZEFSAII (Michael W. Deem and Ramdas Pophale) SiO2 
 PCOD8200667
Probable space group: P M M M
;
_chemical_formula_sum "Si O2"
_cell_formula_units_Z 36
_cell_length_a 14.386215
_cell_length_b 15.178848
_cell_length_c 8.993294
_cell_angle_alpha 90.000000
_cell_angle_beta 90.000000
_cell_angle_gamma 90.000000
_cell_volume 1963.831173
_symmetry_space_group_name_H-M "P M M M"
_symmetry_group_IT_number 47
_symmetry_cell_setting 'orthorhombic'
loop_
_space_group_symop_operation_xyz
x,y,z
-x,-y,z
x,-y,-z
-x,y,-z
-x,-y,-z
x,y,-z
-x,y,z
x,-y,z
loop_
_atom_site_type_symbol
_atom_site_label
_atom_site_fract_x
_atom_site_fract_y
_atom_site_fract_z
Si Si1 0.890809 0.000000 0.160678
Si Si2 0.720748 0.748286 0.674754
Si Si3 0.894831 0.809533 0.822364
Si Si4 0.392212 0.398815 0.170053
Si Si5 0.607707 0.100360 0.828362
O O1 0.866421 0.092429 0.241372
O O2 0.000000 0.000000 0.132131
O O3 0.840014 0.000000 0.000000
O O4 0.731699 0.751363 0.500000
O O5 0.823243 0.742095 0.747891
O O6 0.666885 0.660399 0.719460
O O7 0.667165 0.835124 0.727444
O O8 0.000000 0.784271 0.775336
O O9 0.885517 0.808179 0.000000
O O10 0.500000 0.382371 0.204238
O O11 0.365765 0.500000 0.199356
O O12 0.370219 0.372801 0.000000
O O13 0.500000 0.110821 0.785599
O O14 0.640513 0.000000 0.799105
O O15 0.622912 0.125926 0.000000
#
# Coordination Sequence:
#
# PCOD8200667 Si02
#       5
#     4   8   8   8   8
#     4   7  12  26  49  73  92 119 170 229 271 298
#     4  12  24  33  49  80 116 147 172 209 269 335
#     4   9  18  34  55  76 100 137 187 235 270 306
#     4   9  19  38  63  86 106 133 176 227 269 310
#     4   9  19  36  55  73  98 139 189 231 261 299
#
# _framework density 18.331515
#
# number of rings (size 3 to 8) (size 9 to 14) (size 15 to 20)
#    0.000    2.556    0.000    5.333    1.556    4.889 
#    0.000    2.222    0.000    2.667    0.000    4.667 
#    0.000    0.000    0.000    0.000    0.000    0.000 
#
# Total GULP energy -446225.502129 kJ/mol
# GULP energy per Si atom -12395.152837 kJ/mol
# Density = 1.828979 g / cm^3
# Si number density = 18.331515 Si / 1000 Ang^3
#
#
#
# Elastic Constant Matrix: (Units=GPa)
#
#
# Indices 1 2 3 4 5 6 
#
# 1 95.6899 53.2682 50.6563 0.0000 0.0000 0.0000
# 2 53.2682 83.5820 39.9718 0.0000 0.0000 0.0000
# 3 50.6563 39.9718 81.4429 0.0000 0.0000 0.0000
# 4 0.0000 0.0000 0.0000 15.2212 0.0000 0.0000
# 5 0.0000 0.0000 0.0000 0.0000 -0.6042 0.0000
# 6 0.0000 0.0000 0.0000 0.0000 0.0000 22.2246
#
#
#
# Elastic Compliance Matrix: (Units=1/GPa)
#
#
# Indices 1 2 3 4 5 6 
#
# 1 0.019392 -0.008612 -0.007835 0.000000 0.000000 0.000000
# 2 -0.008612 0.019458 -0.004194 0.000000 0.000000 0.000000
# 3 -0.007835 -0.004194 0.019210 0.000000 0.000000 0.000000
# 4 0.000000 0.000000 0.000000 0.065698 0.000000 0.000000
# 5 0.000000 0.000000 0.000000 0.000000 -1.655192 0.000000
# 6 0.000000 0.000000 0.000000 0.000000 0.000000 0.044995
#
#
# Mechanical properties :
#
#
# Convention : Reuss Voigt Hill
#
# Bulk Modulus (GPa) = 59.59642 60.94526 60.27084
# Shear Modulus (GPa) = -3.47327 15.15623 5.84148
#
# Velocity S-wave (km/s) = -1.37797 2.87851 1.78704
# Velocity P-wave (km/s) = 5.48171 6.66079 6.09981
#
# Compressibility (1/GPa) = 0.01677953
#
# Stress axis : x y z
#
# Youngs Moduli (GPa) = 51.56722 51.39180 52.05650
#
# Poissons Ratio (x) = 0.44259 0.40786
# Poissons Ratio (y) = 0.44410 0.21830
# Poissons Ratio (z) = 0.40402 0.21551
#
# Static dielectric constant tensor:
#      x y z
#    x 3.435310 0.000000 0.000000 
#    y 0.000000 3.391170 0.000000 
#    z 0.000000 0.000000 3.040830 
# 
# 
# High freq. dielectric constant tensor:
#      x y z
#    x 1.715530 0.000000 0.000000 
#    y 0.000000 1.697750 0.000000 
#    z 0.000000 0.000000 1.679950 
# 
# From -- ./inp_files/5479.got.cif
#   From: 2010.03.12/outbox.cif.g09.slc.cpg/sg47_3_cif.got.tgz:5479.got - 2010.04.14 03:12:58.
