data_PCOD8200061
_publ_section_title
;
Structure prediction by ZEFSAII (Michael W. Deem and Ramdas Pophale) SiO2 
 PCOD8200061
Probable space group: P M M M
;
_chemical_formula_sum "Si O2"
_cell_formula_units_Z 44
_cell_length_a 9.388049
_cell_length_b 30.328879
_cell_length_c 7.645415
_cell_angle_alpha 90.000000
_cell_angle_beta 90.000000
_cell_angle_gamma 90.000000
_cell_volume 2176.871384
_symmetry_space_group_name_H-M "P M M M"
_symmetry_group_IT_number 47
_symmetry_cell_setting 'orthorhombic'
loop_
_space_group_symop_operation_xyz
x,y,z
-x,-y,z
x,-y,-z
-x,y,-z
-x,-y,-z
x,y,-z
-x,y,z
x,-y,z
loop_
_atom_site_type_symbol
_atom_site_label
_atom_site_fract_x
_atom_site_fract_y
_atom_site_fract_z
Si Si1 0.162576 0.194442 0.204069
Si Si2 0.335166 0.051920 0.000000
Si Si3 0.830699 0.546636 0.804053
Si Si4 0.163916 0.902320 0.697041
Si Si5 0.339413 0.277125 0.208511
Si Si6 0.160690 0.641017 0.790502
O O1 0.203641 0.149326 0.300579
O O2 0.260945 0.233452 0.279049
O O3 0.000000 0.208087 0.241209
O O4 0.189446 0.186507 0.000000
O O5 0.263909 0.070552 0.825399
O O6 0.500000 0.065745 0.000000
O O7 0.314655 0.000000 0.000000
O O8 0.783862 0.500000 0.709179
O O9 0.781810 0.593207 0.716883
O O10 0.000000 0.548857 0.810699
O O11 0.769396 0.544706 0.000000
O O12 0.187237 0.919972 0.500000
O O13 0.000000 0.908499 0.756718
O O14 0.500000 0.276857 0.279386
O O15 0.261462 0.320525 0.283687
O O16 0.333686 0.277655 0.000000
O O17 0.000000 0.650419 0.725328
O O18 0.163400 0.639638 0.000000
#
# Coordination Sequence:
#
# PCOD8200061 Si02
#       6
#     8   4   8   8   8   8
#     4   9  16  29  49  72  99 131 167 211 264 320
#     4  11  25  43  63  89 125 165 199 235 280 333
#     4   7   9  13  22  36  53  77 117 172 231 289
#     4  10  21  39  64  92 119 150 193 243 291 337
#     4   9  16  23  33  53  80 112 150 194 244 301
#     4   8  12  18  28  42  62  91 131 182 238 295
#
# _framework density 20.212495000000001
#
# number of rings (size 3 to 8) (size 9 to 14) (size 15 to 20)
#    0.000    3.182    0.909    2.455    0.000    4.364 
#    0.000    1.818    0.000    0.545    0.000    3.818 
#    0.000    0.000    0.000    0.000    0.000    0.909 
#
# Total GULP energy -545109.756627 kJ/mol
# GULP energy per Si atom -12388.858105 kJ/mol
# Density = 2.016649 g / cm^3
# Si number density = 20.212495 Si / 1000 Ang^3
#
#
#
# Elastic Constant Matrix: (Units=GPa)
#
#
# Indices 1 2 3 4 5 6 
#
# 1 119.5260 87.9573 31.8565 0.0000 0.0000 0.0000
# 2 87.9573 148.2798 39.1995 0.0000 0.0000 0.0000
# 3 31.8565 39.1995 52.0532 0.0000 0.0000 0.0000
# 4 0.0000 0.0000 0.0000 -8.1242 0.0000 0.0000
# 5 0.0000 0.0000 0.0000 0.0000 5.6932 0.0000
# 6 0.0000 0.0000 0.0000 0.0000 0.0000 10.6117
#
#
#
# Elastic Compliance Matrix: (Units=1/GPa)
#
#
# Indices 1 2 3 4 5 6 
#
# 1 0.015250 -0.008214 -0.003147 0.000000 0.000000 0.000000
# 2 -0.008214 0.012845 -0.004646 0.000000 0.000000 0.000000
# 3 -0.003147 -0.004646 0.024636 0.000000 0.000000 0.000000
# 4 0.000000 0.000000 0.000000 -0.123089 0.000000 0.000000
# 5 0.000000 0.000000 0.000000 0.000000 0.175650 0.000000
# 6 0.000000 0.000000 0.000000 0.000000 0.000000 0.094236
#
#
# Mechanical properties :
#
#
# Convention : Reuss Voigt Hill
#
# Bulk Modulus (GPa) = 48.27156 70.87618 59.57387
# Shear Modulus (GPa) = 20.96915 12.35917 16.66416
#
# Velocity S-wave (km/s) = 3.22442 2.47546 2.87444
# Velocity P-wave (km/s) = 6.14788 6.58120 6.36822
#
# Compressibility (1/GPa) = 0.02071613
#
# Stress axis : x y z
#
# Youngs Moduli (GPa) = 65.57544 77.85404 40.59125
#
# Poissons Ratio (x) = 0.63948 0.12775
# Poissons Ratio (y) = 0.53863 0.18858
# Poissons Ratio (z) = 0.20638 0.36170
#
# Static dielectric constant tensor:
#      x y z
#    x 3.469700 0.000000 0.000000 
#    y 0.000000 4.104450 0.000000 
#    z 0.000000 0.000000 3.530750 
# 
# 
# High freq. dielectric constant tensor:
#      x y z
#    x 1.750950 0.000000 0.000000 
#    y 0.000000 1.808600 0.000000 
#    z 0.000000 0.000000 1.747780 
# 
# From -- ./inp_files/2283.got.cif
#   From: 2010.03.12/outbox.cif.g09.slc.cpg/sg47_2_cif.got.tgz:2283.got - 2010.04.14 03:12:58.
