data_PCOD8200685
_publ_section_title
;
Structure prediction by ZEFSAII (Michael W. Deem and Ramdas Pophale) SiO2 
 PCOD8200685
Probable space group: P M M M
;
_chemical_formula_sum "Si O2"
_cell_formula_units_Z 44
_cell_length_a 23.018179
_cell_length_b 9.547703
_cell_length_c 15.202831
_cell_angle_alpha 90.000000
_cell_angle_beta 90.000000
_cell_angle_gamma 90.000000
_cell_volume 3341.137369
_symmetry_space_group_name_H-M "P M M M"
_symmetry_group_IT_number 47
_symmetry_cell_setting 'orthorhombic'
loop_
_space_group_symop_operation_xyz
x,y,z
-x,-y,z
x,-y,-z
-x,y,-z
-x,-y,-z
x,y,-z
-x,y,z
x,-y,z
loop_
_atom_site_type_symbol
_atom_site_label
_atom_site_fract_x
_atom_site_fract_y
_atom_site_fract_z
Si Si1 0.375213 0.657908 0.105440
Si Si2 0.730502 0.158389 0.104649
Si Si3 0.500000 0.334131 0.096070
Si Si4 0.069018 0.157586 0.403276
Si Si5 0.066223 0.662302 0.242737
Si Si6 0.160416 0.338228 0.898818
O O1 0.360240 0.500000 0.136946
O O2 0.326564 0.763601 0.142383
O O3 0.438865 0.707139 0.143484
O O4 0.377562 0.660714 0.000000
O O5 0.787202 0.242321 0.136502
O O6 0.732431 0.000000 0.141439
O O7 0.728240 0.158919 0.000000
O O8 0.500000 0.500000 0.084425
O O9 0.500000 0.262385 0.000000
O O10 0.091771 0.205611 0.500000
O O11 0.093338 0.257483 0.326737
O O12 0.000000 0.164830 0.403312
O O13 0.090203 0.000000 0.383873
O O14 0.069681 0.500000 0.266358
O O15 0.103198 0.699203 0.156492
O O16 0.000000 0.708610 0.223055
O O17 0.178873 0.500000 0.887109
O O18 0.145529 0.304986 0.000000
#
# Coordination Sequence:
#
# PCOD8200685 Si02
#       6
#     8   8   4   8   8   8
#     4   8  12  19  31  44  58  77 101 129 163 202
#     4   9  16  24  33  45  60  79 107 142 174 201
#     4   7  10  16  27  43  59  75  97 125 158 199
#     4   8  14  25  40  56  73  92 110 127 155 201
#     4   9  17  27  39  56  73  87 108 141 178 211
#     4   9  17  28  39  49  64  89 118 145 175 211
#
# _framework density 13.169168000000001
#
# number of rings (size 3 to 8) (size 9 to 14) (size 15 to 20)
#    0.000    3.545    0.000    2.182    0.000    3.636 
#    0.000    4.091    0.000    2.727    0.000    5.091 
#    0.000    0.000    0.000    0.000    0.000    0.000 
#
# Total GULP energy -545135.228463 kJ/mol
# GULP energy per Si atom -12389.437011 kJ/mol
# Density = 1.313919 g / cm^3
# Si number density = 13.169168 Si / 1000 Ang^3
#
#
#
# Elastic Constant Matrix: (Units=GPa)
#
#
# Indices 1 2 3 4 5 6 
#
# 1 90.6912 50.3852 34.4325 0.0000 0.0000 0.0000
# 2 50.3852 70.5365 30.9503 0.0000 0.0000 0.0000
# 3 34.4325 30.9503 47.7599 0.0000 0.0000 0.0000
# 4 0.0000 0.0000 0.0000 14.1977 0.0000 0.0000
# 5 0.0000 0.0000 0.0000 0.0000 0.7655 0.0000
# 6 0.0000 0.0000 0.0000 0.0000 0.0000 11.7690
#
#
#
# Elastic Compliance Matrix: (Units=1/GPa)
#
#
# Indices 1 2 3 4 5 6 
#
# 1 0.019898 -0.011065 -0.007175 0.000000 0.000000 0.000000
# 2 -0.011065 0.025963 -0.008848 0.000000 0.000000 0.000000
# 3 -0.007175 -0.008848 0.031844 0.000000 0.000000 0.000000
# 4 0.000000 0.000000 0.000000 0.070434 0.000000 0.000000
# 5 0.000000 0.000000 0.000000 0.000000 1.306291 0.000000
# 6 0.000000 0.000000 0.000000 0.000000 0.000000 0.084969
#
#
# Mechanical properties :
#
#
# Convention : Reuss Voigt Hill
#
# Bulk Modulus (GPa) = 42.49855 48.94705 45.72280
# Shear Modulus (GPa) = 3.12223 11.56110 7.34167
#
# Velocity S-wave (km/s) = 1.54143 2.96614 2.36368
# Velocity P-wave (km/s) = 5.95897 6.99852 6.49956
#
# Compressibility (1/GPa) = 0.02353021
#
# Stress axis : x y z
#
# Youngs Moduli (GPa) = 50.25662 38.51583 31.40270
#
# Poissons Ratio (x) = 0.42618 0.22530
# Poissons Ratio (y) = 0.55610 0.27785
# Poissons Ratio (z) = 0.36058 0.34078
#
# Static dielectric constant tensor:
#      x y z
#    x 2.762590 0.000000 0.000000 
#    y 0.000000 2.726990 0.000000 
#    z 0.000000 0.000000 2.364240 
# 
# 
# High freq. dielectric constant tensor:
#      x y z
#    x 1.492060 0.000000 0.000000 
#    y 0.000000 1.500530 0.000000 
#    z 0.000000 0.000000 1.440760 
# 
# From -- ./inp_files/4454.got.cif
#   From: 2010.03.12/outbox.cif.g09.slc.cpg/sg47_3_cif.got.tgz:4454.got - 2010.04.14 03:12:58.
