data_PCOD8200805
_publ_section_title
;
Structure prediction by ZEFSAII (Michael W. Deem and Ramdas Pophale) SiO2 
 PCOD8200805
Probable space group: P M M M
;
_chemical_formula_sum "Si O2"
_cell_formula_units_Z 36
_cell_length_a 23.149443
_cell_length_b 9.062911
_cell_length_c 10.029249
_cell_angle_alpha 90.000000
_cell_angle_beta 90.000000
_cell_angle_gamma 90.000000
_cell_volume 2104.149896
_symmetry_space_group_name_H-M "P M M M"
_symmetry_group_IT_number 47
_symmetry_cell_setting 'orthorhombic'
loop_
_space_group_symop_operation_xyz
x,y,z
-x,-y,z
x,-y,-z
-x,y,-z
-x,-y,-z
x,y,-z
-x,y,z
x,-y,z
loop_
_atom_site_type_symbol
_atom_site_label
_atom_site_fract_x
_atom_site_fract_y
_atom_site_fract_z
Si Si1 0.064295 0.175633 0.149243
Si Si2 0.287135 0.175317 0.649243
Si Si3 0.158504 0.824390 0.649188
Si Si4 0.500000 0.334094 0.158267
Si Si5 0.385183 0.825869 0.153450
O O1 0.111587 0.244662 0.249565
O O2 0.000000 0.228524 0.191374
O O3 0.066772 0.000000 0.153500
O O4 0.078557 0.231083 0.000000
O O5 0.303413 0.230368 0.500000
O O6 0.222835 0.231445 0.687810
O O7 0.332566 0.236459 0.757239
O O8 0.287756 0.000000 0.651896
O O9 0.142858 0.771510 0.500000
O O10 0.156893 0.000000 0.656170
O O11 0.500000 0.500000 0.215234
O O12 0.556876 0.249908 0.209135
O O13 0.500000 0.333418 0.000000
O O14 0.393236 0.000000 0.169179
O O15 0.372568 0.783116 0.000000
#
# Coordination Sequence:
#
# PCOD8200805 Si02
#       5
#     8   8   8   4   8
#     4   8  13  19  25  35  54  81 113 149 187 223
#     4   8  14  24  36  51  72  95 119 152 195 235
#     4   8  13  20  29  41  58  82 113 148 184 222
#     4   9  17  29  44  61  82 106 128 153 190 232
#     4   9  16  26  42  62  79  97 127 163 192 223
#
# _framework density 17.109045999999999
#
# number of rings (size 3 to 8) (size 9 to 14) (size 15 to 20)
#    0.000    3.667    0.000    2.333    0.000    2.667 
#    0.000    7.222    0.000    4.000    0.000    0.000 
#    0.000    0.000    0.000    0.000    0.000    1.111 
#
# Total GULP energy -446101.476995 kJ/mol
# GULP energy per Si atom -12391.707694 kJ/mol
# Density = 1.707010 g / cm^3
# Si number density = 17.109046 Si / 1000 Ang^3
#
#
#
# Elastic Constant Matrix: (Units=GPa)
#
#
# Indices 1 2 3 4 5 6 
#
# 1 181.1711 20.2719 109.2645 0.0000 0.0000 0.0000
# 2 20.2719 15.2523 14.6515 0.0000 0.0000 0.0000
# 3 109.2645 14.6515 111.4206 0.0000 0.0000 0.0000
# 4 0.0000 0.0000 0.0000 3.7429 0.0000 0.0000
# 5 0.0000 0.0000 0.0000 0.0000 31.9425 0.0000
# 6 0.0000 0.0000 0.0000 0.0000 0.0000 0.3510
#
#
#
# Elastic Compliance Matrix: (Units=1/GPa)
#
#
# Indices 1 2 3 4 5 6 
#
# 1 0.014005 -0.006205 -0.012918 0.000000 0.000000 0.000000
# 2 -0.006205 0.077792 -0.004145 0.000000 0.000000 0.000000
# 3 -0.012918 -0.004145 0.022188 0.000000 0.000000 0.000000
# 4 0.000000 0.000000 0.000000 0.267174 0.000000 0.000000
# 5 0.000000 0.000000 0.000000 0.000000 0.031306 0.000000
# 6 0.000000 0.000000 0.000000 0.000000 0.000000 2.849142
#
#
# Mechanical properties :
#
#
# Convention : Reuss Voigt Hill
#
# Bulk Modulus (GPa) = 14.82583 66.24665 40.53624
# Shear Modulus (GPa) = 1.50122 18.11767 9.80945
#
# Velocity S-wave (km/s) = 0.93774 3.25769 2.39707
# Velocity P-wave (km/s) = 3.13955 7.27697 5.60407
#
# Compressibility (1/GPa) = 0.06744983
#
# Stress axis : x y z
#
# Youngs Moduli (GPa) = 71.40530 12.85482 45.06994
#
# Poissons Ratio (x) = 0.07976 0.58220
# Poissons Ratio (y) = 0.44304 0.18681
# Poissons Ratio (z) = 0.92239 0.05328
#
# Static dielectric constant tensor:
#      x y z
#    x 3.614320 0.000000 0.000000 
#    y 0.000000 2.519830 0.000000 
#    z 0.000000 0.000000 3.356750 
# 
# 
# High freq. dielectric constant tensor:
#      x y z
#    x 1.673360 0.000000 0.000000 
#    y 0.000000 1.583820 0.000000 
#    z 0.000000 0.000000 1.651490 
# 
# From -- ./inp_files/3744.got.cif
#   From: 2010.03.12/outbox.cif.g09.slc.cpg/sg47_2_cif.got.tgz:3744.got - 2010.04.14 03:12:58.
