data_PCOD8200386
_publ_section_title
;
Structure prediction by ZEFSAII (Michael W. Deem and Ramdas Pophale) SiO2 
 PCOD8200386
Probable space group: P M M M
;
_chemical_formula_sum "Si O2"
_cell_formula_units_Z 52
_cell_length_a 8.291847
_cell_length_b 11.626198
_cell_length_c 29.156320
_cell_angle_alpha 90.000000
_cell_angle_beta 90.000000
_cell_angle_gamma 90.000000
_cell_volume 2810.746658
_symmetry_space_group_name_H-M "P M M M"
_symmetry_group_IT_number 47
_symmetry_cell_setting 'orthorhombic'
loop_
_space_group_symop_operation_xyz
x,y,z
-x,-y,z
x,-y,-z
-x,y,-z
-x,-y,-z
x,y,-z
-x,y,z
x,-y,z
loop_
_atom_site_type_symbol
_atom_site_label
_atom_site_fract_x
_atom_site_fract_y
_atom_site_fract_z
Si Si1 0.315058 0.741905 0.199301
Si Si2 0.318024 0.863885 0.894749
Si Si3 0.809799 0.368572 0.448676
Si Si4 0.187095 0.128905 0.285872
Si Si5 0.817386 0.500000 0.691691
Si Si6 0.683984 0.713764 0.640950
Si Si7 0.191164 0.500000 0.792187
Si Si8 0.000000 0.863174 0.052104
O O1 0.500000 0.739568 0.213964
O O2 0.283843 0.826636 0.157119
O O3 0.217495 0.786588 0.243283
O O4 0.256924 0.615310 0.183608
O O5 0.500000 0.820866 0.910397
O O6 0.167614 0.815958 0.925156
O O7 0.316520 0.000000 0.896844
O O8 0.754781 0.333956 0.500000
O O9 0.756075 0.500000 0.438269
O O10 0.726927 0.280232 0.413081
O O11 0.000000 0.357853 0.443945
O O12 0.276826 0.168696 0.332338
O O13 0.000000 0.130195 0.297186
O O14 0.247455 0.000000 0.273982
O O15 0.786883 0.612386 0.662530
O O16 0.729658 0.500000 0.740952
O O17 0.000000 0.500000 0.706477
O O18 0.500000 0.681602 0.647356
O O19 0.000000 0.500000 0.795607
O O20 0.000000 0.000000 0.055142
O O21 0.000000 0.819336 0.000000
#
# Coordination Sequence:
#
# PCOD8200386 Si02
#       8
#     8   8   8   8   4   8   4   4
#     4  11  22  36  55  79 111 146 182 226 275 324
#     4   9  19  34  53  80 114 150 186 230 283 336
#     4   9  18  33  54  78 105 138 172 210 260 319
#     4  11  24  39  56  77 103 142 186 223 261 316
#     4  11  21  35  52  72 104 142 179 216 261 317
#     4  12  23  34  54  80 108 139 172 217 271 318
#     4  11  23  35  53  78 107 147 187 224 266 318
#     4   9  18  32  54  83 113 149 191 234 280 333
#
# _framework density 18.500423000000001
#
# number of rings (size 3 to 8) (size 9 to 14) (size 15 to 20)
#    0.000    1.615    2.308    3.692    2.154    3.077 
#    0.000    2.308    0.000    0.462    0.000    4.308 
#    0.000    2.462    0.000    0.000    0.000    0.000 
#
# Total GULP energy -644643.852630 kJ/mol
# GULP energy per Si atom -12396.997166 kJ/mol
# Density = 1.845832 g / cm^3
# Si number density = 18.500423 Si / 1000 Ang^3
#
#
#
# Elastic Constant Matrix: (Units=GPa)
#
#
# Indices 1 2 3 4 5 6 
#
# 1 90.6840 16.6007 48.7566 0.0000 0.0000 0.0000
# 2 16.6007 50.6246 10.9062 0.0000 0.0000 0.0000
# 3 48.7566 10.9062 96.3327 0.0000 0.0000 0.0000
# 4 0.0000 0.0000 0.0000 15.0087 0.0000 0.0000
# 5 0.0000 0.0000 0.0000 0.0000 24.7247 0.0000
# 6 0.0000 0.0000 0.0000 0.0000 0.0000 5.6530
#
#
#
# Elastic Compliance Matrix: (Units=1/GPa)
#
#
# Indices 1 2 3 4 5 6 
#
# 1 0.015743 -0.003532 -0.007568 0.000000 0.000000 0.000000
# 2 -0.003532 0.021039 -0.000594 0.000000 0.000000 0.000000
# 3 -0.007568 -0.000594 0.014278 0.000000 0.000000 0.000000
# 4 0.000000 0.000000 0.000000 0.066628 0.000000 0.000000
# 5 0.000000 0.000000 0.000000 0.000000 0.040445 0.000000
# 6 0.000000 0.000000 0.000000 0.000000 0.000000 0.176896
#
#
# Mechanical properties :
#
#
# Convention : Reuss Voigt Hill
#
# Bulk Modulus (GPa) = 36.13757 43.35206 39.74481
# Shear Modulus (GPa) = 13.60015 19.83581 16.71798
#
# Velocity S-wave (km/s) = 2.71426 3.27797 3.00935
# Velocity P-wave (km/s) = 5.42206 6.14904 5.79696
#
# Compressibility (1/GPa) = 0.02767203
#
# Stress axis : x y z
#
# Youngs Moduli (GPa) = 63.52093 47.52969 70.03608
#
# Poissons Ratio (x) = 0.16787 0.53003
# Poissons Ratio (y) = 0.22435 0.04163
# Poissons Ratio (z) = 0.48073 0.02825
#
# Static dielectric constant tensor:
#      x y z
#    x 3.589110 0.000000 0.000000 
#    y 0.000000 3.373090 0.000000 
#    z 0.000000 0.000000 3.449820 
# 
# 
# High freq. dielectric constant tensor:
#      x y z
#    x 1.731720 0.000000 0.000000 
#    y 0.000000 1.684810 0.000000 
#    z 0.000000 0.000000 1.706900 
# 
# From -- ./inp_files/34322.got.cif
#   From: 2010.03.12/outbox.cif.g09.slc.cpg/sg47_18_cif.got.tgz:34322.got - 2010.04.14 03:12:58.
