data_PCOD8200707
_publ_section_title
;
Structure prediction by ZEFSAII (Michael W. Deem and Ramdas Pophale) SiO2 
 PCOD8200707
Probable space group: P M M M
;
_chemical_formula_sum "Si O2"
_cell_formula_units_Z 44
_cell_length_a 9.761768
_cell_length_b 28.187656
_cell_length_c 9.711241
_cell_angle_alpha 90.000000
_cell_angle_beta 90.000000
_cell_angle_gamma 90.000000
_cell_volume 2672.158265
_symmetry_space_group_name_H-M "P M M M"
_symmetry_group_IT_number 47
_symmetry_cell_setting 'orthorhombic'
loop_
_space_group_symop_operation_xyz
x,y,z
-x,-y,z
x,-y,-z
-x,y,-z
-x,-y,-z
x,y,-z
-x,y,z
x,-y,z
loop_
_atom_site_type_symbol
_atom_site_label
_atom_site_fract_x
_atom_site_fract_y
_atom_site_fract_z
Si Si1 0.151645 0.772144 0.163544
Si Si2 0.656643 0.054895 0.341410
Si Si3 0.663712 0.398303 0.654621
Si Si4 0.160286 0.121978 0.158495
Si Si5 0.350283 0.500000 0.663190
Si Si6 0.340806 0.312212 0.839349
O O1 0.195099 0.824820 0.211778
O O2 0.260105 0.733590 0.217759
O O3 0.000000 0.759508 0.220425
O O4 0.147471 0.772117 0.000000
O O5 0.690504 0.065551 0.500000
O O6 0.500000 0.068519 0.308602
O O7 0.756012 0.085184 0.247715
O O8 0.682490 0.000000 0.307745
O O9 0.714026 0.385904 0.500000
O O10 0.500000 0.401682 0.657128
O O11 0.724222 0.450088 0.703472
O O12 0.716104 0.358015 0.758540
O O13 0.000000 0.111626 0.176774
O O14 0.204005 0.115896 0.000000
O O15 0.500000 0.500000 0.733722
O O16 0.368181 0.500000 0.500000
O O17 0.500000 0.303199 0.808677
O O18 0.313177 0.321037 0.000000
#
# Coordination Sequence:
#
# PCOD8200707 Si02
#       6
#     8   8   8   8   4   8
#     4   8  15  29  46  62  84 115 145 171 206 255
#     4   9  19  35  51  68  94 126 155 182 217 265
#     4   8  13  22  36  54  78 107 136 166 203 248
#     4   9  18  32  50  72  94 116 149 192 229 262
#     4   7  10  18  33  51  72 103 138 164 194 245
#     4   9  16  25  39  61  85 106 133 171 210 246
#
# _framework density 16.466089
#
# number of rings (size 3 to 8) (size 9 to 14) (size 15 to 20)
#    0.000    3.545    0.000    2.727    0.000    2.182 
#    0.000    5.909    0.000    6.545    0.000    0.636 
#    0.000    5.091    0.000    0.000    0.000    0.000 
#
# Total GULP energy -545183.620260 kJ/mol
# GULP energy per Si atom -12390.536824 kJ/mol
# Density = 1.642861 g / cm^3
# Si number density = 16.466089 Si / 1000 Ang^3
#
#
#
# Elastic Constant Matrix: (Units=GPa)
#
#
# Indices 1 2 3 4 5 6 
#
# 1 53.6261 64.1522 36.9336 0.0000 0.0000 0.0000
# 2 64.1522 145.9102 63.4243 0.0000 0.0000 0.0000
# 3 36.9336 63.4243 57.5954 0.0000 0.0000 0.0000
# 4 0.0000 0.0000 0.0000 -11.9074 0.0000 0.0000
# 5 0.0000 0.0000 0.0000 0.0000 18.2049 0.0000
# 6 0.0000 0.0000 0.0000 0.0000 0.0000 1.1838
#
#
#
# Elastic Compliance Matrix: (Units=1/GPa)
#
#
# Indices 1 2 3 4 5 6 
#
# 1 0.044065 -0.013602 -0.013278 0.000000 0.000000 0.000000
# 2 -0.013602 0.017345 -0.010378 0.000000 0.000000 0.000000
# 3 -0.013278 -0.010378 0.037305 0.000000 0.000000 0.000000
# 4 0.000000 0.000000 0.000000 -0.083981 0.000000 0.000000
# 5 0.000000 0.000000 0.000000 0.000000 0.054930 0.000000
# 6 0.000000 0.000000 0.000000 0.000000 0.000000 0.844726
#
#
# Mechanical properties :
#
#
# Convention : Reuss Voigt Hill
#
# Bulk Modulus (GPa) = 41.32445 65.12798 53.22622
# Shear Modulus (GPa) = 5.01518 7.67103 6.34310
#
# Velocity S-wave (km/s) = 1.74710 2.16074 1.96484
# Velocity P-wave (km/s) = 5.40565 6.77228 6.12718
#
# Compressibility (1/GPa) = 0.02419875
#
# Stress axis : x y z
#
# Youngs Moduli (GPa) = 22.69389 57.65323 26.80574
#
# Poissons Ratio (x) = 0.78421 0.35593
# Poissons Ratio (y) = 0.30869 0.27819
# Poissons Ratio (z) = 0.30133 0.59832
#
# Static dielectric constant tensor:
#      x y z
#    x 2.883980 0.000000 0.000000 
#    y 0.000000 3.474920 0.000000 
#    z 0.000000 0.000000 2.859200 
# 
# 
# High freq. dielectric constant tensor:
#      x y z
#    x 1.600350 0.000000 0.000000 
#    y 0.000000 1.649790 0.000000 
#    z 0.000000 0.000000 1.604980 
# 
# From -- ./inp_files/2172.got.cif
#   From: 2010.03.12/outbox.cif.g09.slc.cpg/sg47_2_cif.got.tgz:2172.got - 2010.04.14 03:12:58.
