data_PCOD8200647
_publ_section_title
;
Structure prediction by ZEFSAII (Michael W. Deem and Ramdas Pophale) SiO2 
 PCOD8200647
Probable space group: P M M M
;
_chemical_formula_sum "Si O2"
_cell_formula_units_Z 48
_cell_length_a 9.698150
_cell_length_b 17.520225
_cell_length_c 14.432069
_cell_angle_alpha 90.000000
_cell_angle_beta 90.000000
_cell_angle_gamma 90.000000
_cell_volume 2452.207254
_symmetry_space_group_name_H-M "P M M M"
_symmetry_group_IT_number 47
_symmetry_cell_setting 'orthorhombic'
loop_
_space_group_symop_operation_xyz
x,y,z
-x,-y,z
x,-y,-z
-x,y,-z
-x,-y,-z
x,y,-z
-x,y,z
x,-y,z
loop_
_atom_site_type_symbol
_atom_site_label
_atom_site_fract_x
_atom_site_fract_y
_atom_site_fract_z
Si Si1 0.841805 0.587584 0.891625
Si Si2 0.000000 0.090058 0.610563
Si Si3 0.256456 0.157319 0.714307
Si Si4 0.500000 0.088876 0.602486
Si Si5 0.847718 0.590014 0.602911
Si Si6 0.335088 0.670514 0.254352
Si Si7 0.841457 0.089434 0.103464
O O1 0.811830 0.500000 0.861994
O O2 0.736868 0.645093 0.841405
O O3 0.000000 0.608219 0.866197
O O4 0.816615 0.598060 0.000000
O O5 0.124123 0.135702 0.655484
O O6 0.000000 0.098826 0.500000
O O7 0.000000 0.000000 0.638371
O O8 0.371197 0.110961 0.662416
O O9 0.288544 0.246186 0.714307
O O10 0.250385 0.132805 0.821722
O O11 0.500000 0.128168 0.500000
O O12 0.500000 0.000000 0.586368
O O13 0.824843 0.623582 0.500000
O O14 0.844701 0.500000 0.599347
O O15 0.721641 0.615600 0.666259
O O16 0.000000 0.616536 0.639781
O O17 0.500000 0.664065 0.245119
O O18 0.000000 0.113074 0.117693
O O19 0.823404 0.000000 0.118302
O O20 0.792650 0.112827 0.000000
#
# Coordination Sequence:
#
# PCOD8200647 Si02
#       7
#     8   4   8   4   8   8   8
#     4   9  20  41  70  99 125 161 211 261 307 361
#     4  11  24  42  67  95 118 151 211 279 331 380
#     4  12  24  41  60  93 128 162 207 260 320 373
#     4  11  24  44  67  85 116 169 215 257 319 388
#     4   9  20  40  65  90 116 154 204 255 306 360
#     4  12  26  40  55  89 131 171 206 245 305 372
#     4   9  18  35  62  92 118 148 191 247 309 369
#
# _framework density 19.574202
#
# number of rings (size 3 to 8) (size 9 to 14) (size 15 to 20)
#    0.000    1.667    1.667    4.500    2.333    6.667 
#    0.000    3.750    0.000    1.500    0.000    0.000 
#    0.000    0.000    0.000    0.000    0.000    0.000 
#
# Total GULP energy -595023.934417 kJ/mol
# GULP energy per Si atom -12396.331967 kJ/mol
# Density = 1.952965 g / cm^3
# Si number density = 19.574202 Si / 1000 Ang^3
#
#
#
# Elastic Constant Matrix: (Units=GPa)
#
#
# Indices 1 2 3 4 5 6 
#
# 1 151.5543 47.9867 62.0971 0.0000 0.0000 0.0000
# 2 47.9867 63.8028 32.7391 0.0000 0.0000 0.0000
# 3 62.0971 32.7391 129.4655 0.0000 0.0000 0.0000
# 4 0.0000 0.0000 0.0000 -20.9172 0.0000 0.0000
# 5 0.0000 0.0000 0.0000 0.0000 61.6246 0.0000
# 6 0.0000 0.0000 0.0000 0.0000 0.0000 32.9921
#
#
#
# Elastic Compliance Matrix: (Units=1/GPa)
#
#
# Indices 1 2 3 4 5 6 
#
# 1 0.009709 -0.005645 -0.003229 0.000000 0.000000 0.000000
# 2 -0.005645 0.021293 -0.002677 0.000000 0.000000 0.000000
# 3 -0.003229 -0.002677 0.009950 0.000000 0.000000 0.000000
# 4 0.000000 0.000000 0.000000 -0.047808 0.000000 0.000000
# 5 0.000000 0.000000 0.000000 0.000000 0.016227 0.000000
# 6 0.000000 0.000000 0.000000 0.000000 0.000000 0.030310
#
#
# Mechanical properties :
#
#
# Convention : Reuss Voigt Hill
#
# Bulk Modulus (GPa) = 56.02569 70.05207 63.03888
# Shear Modulus (GPa) = 72.74493 28.20654 50.47574
#
# Velocity S-wave (km/s) = 6.10282 3.80018 5.08359
# Velocity P-wave (km/s) = 8.85119 7.42434 8.16897
#
# Compressibility (1/GPa) = 0.01784896
#
# Stress axis : x y z
#
# Youngs Moduli (GPa) = 102.99893 46.96474 100.50393
#
# Poissons Ratio (x) = 0.26512 0.32455
# Poissons Ratio (y) = 0.58144 0.26903
# Poissons Ratio (z) = 0.33261 0.12572
#
# Static dielectric constant tensor:
#      x y z
#    x 3.498270 0.000000 0.000000 
#    y 0.000000 3.468360 0.000000 
#    z 0.000000 0.000000 3.511000 
# 
# 
# High freq. dielectric constant tensor:
#      x y z
#    x 1.755700 0.000000 0.000000 
#    y 0.000000 1.755760 0.000000 
#    z 0.000000 0.000000 1.783380 
# 
# From -- ./inp_files/21158.got.cif
#   From: 2010.03.12/outbox.cif.g09.slc.cpg/sg47_11_cif.got.tgz:21158.got - 2010.04.14 03:12:58.
