data_PCOD8200859
_publ_section_title
;
Structure prediction by ZEFSAII (Michael W. Deem and Ramdas Pophale) SiO2 
 PCOD8200859
Probable space group: P M M M
;
_chemical_formula_sum "Si O2"
_cell_formula_units_Z 40
_cell_length_a 25.967023
_cell_length_b 9.821401
_cell_length_c 9.264385
_cell_angle_alpha 90.000000
_cell_angle_beta 90.000000
_cell_angle_gamma 90.000000
_cell_volume 2362.719691
_symmetry_space_group_name_H-M "P M M M"
_symmetry_group_IT_number 47
_symmetry_cell_setting 'orthorhombic'
loop_
_space_group_symop_operation_xyz
x,y,z
-x,-y,z
x,-y,-z
-x,y,-z
-x,-y,-z
x,y,-z
-x,y,z
x,-y,z
loop_
_atom_site_type_symbol
_atom_site_label
_atom_site_fract_x
_atom_site_fract_y
_atom_site_fract_z
Si Si1 0.852130 0.842238 0.669094
Si Si2 0.346632 0.162615 0.337410
Si Si3 0.443122 0.161897 0.837890
Si Si4 0.248551 0.838074 0.162930
Si Si5 0.057034 0.652526 0.671427
O O1 0.842516 0.816789 0.500000
O O2 0.802211 0.788236 0.753562
O O3 0.900869 0.758531 0.730430
O O4 0.863153 0.000000 0.701103
O O5 0.342324 0.218368 0.500000
O O6 0.399442 0.220554 0.268233
O O7 0.298562 0.219408 0.245639
O O8 0.346546 0.000000 0.336452
O O9 0.500000 0.210325 0.786169
O O10 0.440895 0.000000 0.837477
O O11 0.432352 0.214924 0.000000
O O12 0.250426 0.000000 0.161942
O O13 0.248100 0.780609 0.000000
O O14 0.056727 0.657533 0.500000
O O15 0.071012 0.500000 0.724052
O O16 0.000000 0.693229 0.728695
#
# Coordination Sequence:
#
# PCOD8200859 Si02
#       5
#     8   8   8   8   8
#     4   9  16  25  39  60  82 101 127 166 202 229
#     4   9  15  21  30  44  62  85 116 156 198 236
#     4   8  13  20  28  38  55  82 117 155 193 234
#     4   9  16  25  36  49  68  95 124 154 193 241
#     4   8  14  25  41  61  84 108 132 158 192 236
#
# _framework density 16.929642000000001
#
# number of rings (size 3 to 8) (size 9 to 14) (size 15 to 20)
#    0.000    3.400    0.000    2.400    0.000    5.600 
#    0.000    4.000    0.000    1.200    0.000    4.200 
#    0.000    0.000    0.000    0.000    0.000    1.000 
#
# Total GULP energy -495743.101200 kJ/mol
# GULP energy per Si atom -12393.577530 kJ/mol
# Density = 1.689111 g / cm^3
# Si number density = 16.929642 Si / 1000 Ang^3
#
#
#
# Elastic Constant Matrix: (Units=GPa)
#
#
# Indices 1 2 3 4 5 6 
#
# 1 186.8391 41.7773 79.3967 0.0000 0.0000 0.0000
# 2 41.7773 25.7284 20.3166 0.0000 0.0000 0.0000
# 3 79.3967 20.3166 97.5466 0.0000 0.0000 0.0000
# 4 0.0000 0.0000 0.0000 4.0054 0.0000 0.0000
# 5 0.0000 0.0000 0.0000 0.0000 19.1535 0.0000
# 6 0.0000 0.0000 0.0000 0.0000 0.0000 1.7474
#
#
#
# Elastic Compliance Matrix: (Units=1/GPa)
#
#
# Indices 1 2 3 4 5 6 
#
# 1 0.010802 -0.012683 -0.006150 0.000000 0.000000 0.000000
# 2 -0.012683 0.061410 -0.002467 0.000000 0.000000 0.000000
# 3 -0.006150 -0.002467 0.015771 0.000000 0.000000 0.000000
# 4 0.000000 0.000000 0.000000 0.249666 0.000000 0.000000
# 5 0.000000 0.000000 0.000000 0.000000 0.052210 0.000000
# 6 0.000000 0.000000 0.000000 0.000000 0.000000 0.572275
#
#
# Mechanical properties :
#
#
# Convention : Reuss Voigt Hill
#
# Bulk Modulus (GPa) = 22.03502 65.89946 43.96724
# Shear Modulus (GPa) = 4.90262 16.22282 10.56272
#
# Velocity S-wave (km/s) = 1.70357 3.09892 2.50055
# Velocity P-wave (km/s) = 4.11260 7.19822 5.86207
#
# Compressibility (1/GPa) = 0.04538230
#
# Stress axis : x y z
#
# Youngs Moduli (GPa) = 92.57843 16.28396 63.40616
#
# Poissons Ratio (x) = 0.20653 0.38997
# Poissons Ratio (y) = 1.17416 0.15644
# Poissons Ratio (z) = 0.56939 0.04018
#
# Static dielectric constant tensor:
#      x y z
#    x 3.585110 0.000000 0.000000 
#    y 0.000000 2.569250 0.000000 
#    z 0.000000 0.000000 3.124360 
# 
# 
# High freq. dielectric constant tensor:
#      x y z
#    x 1.672940 0.000000 0.000000 
#    y 0.000000 1.572660 0.000000 
#    z 0.000000 0.000000 1.637040 
# 
# From -- ./inp_files/1656.got.cif
#   From: 2010.03.12/outbox.cif.g09.slc.cpg/sg47_1_cif.got.tgz:1656.got - 2010.04.14 03:12:58.
