data_PCOD8200034
_publ_section_title
;
Structure prediction by ZEFSAII (Michael W. Deem and Ramdas Pophale) SiO2 
 PCOD8200034
Probable space group: P M M M
;
_chemical_formula_sum "Si O2"
_cell_formula_units_Z 40
_cell_length_a 21.961634
_cell_length_b 10.550280
_cell_length_c 8.782387
_cell_angle_alpha 90.000000
_cell_angle_beta 90.000000
_cell_angle_gamma 90.000000
_cell_volume 2034.891257
_symmetry_space_group_name_H-M "P M M M"
_symmetry_group_IT_number 47
_symmetry_cell_setting 'orthorhombic'
loop_
_space_group_symop_operation_xyz
x,y,z
-x,-y,z
x,-y,-z
-x,y,-z
-x,-y,-z
x,y,-z
-x,y,z
x,-y,z
loop_
_atom_site_type_symbol
_atom_site_label
_atom_site_fract_x
_atom_site_fract_y
_atom_site_fract_z
Si Si1 0.934043 0.646456 0.832181
Si Si2 0.374940 0.353911 0.319738
Si Si3 0.933562 0.000000 0.679919
Si Si4 0.500000 0.649382 0.830658
Si Si5 0.840963 0.210776 0.322675
Si Si6 0.286080 0.145829 0.179292
O O1 0.942987 0.500000 0.851197
O O2 0.874404 0.659317 0.721931
O O3 0.000000 0.700135 0.768670
O O4 0.920882 0.705575 0.000000
O O5 0.375578 0.349031 0.500000
O O6 0.360185 0.500000 0.266677
O O7 0.440215 0.306704 0.259294
O O8 0.327051 0.251839 0.259768
O O9 0.895234 0.119915 0.732624
O O10 0.939748 0.000000 0.500000
O O11 0.000000 0.000000 0.757633
O O12 0.500000 0.500000 0.843278
O O13 0.500000 0.710033 0.000000
O O14 0.823379 0.201833 0.500000
O O15 0.782331 0.178122 0.224725
O O16 0.301953 0.000000 0.228944
O O17 0.294411 0.160573 0.000000
#
# Coordination Sequence:
#
# PCOD8200034 Si02
#       6
#     8   8   4   4   8   8
#     4   9  19  36  55  76 106 142 179 225 283 344
#     4  10  21  38  63  94 125 158 200 247 294 347
#     4   9  18  32  51  77 105 132 169 222 281 335
#     4   9  17  33  60  93 128 163 198 240 292 345
#     4  11  21  35  56  79 107 142 182 230 284 342
#     4  11  24  41  60  83 117 159 202 246 297 355
#
# _framework density 19.657070999999998
#
# number of rings (size 3 to 8) (size 9 to 14) (size 15 to 20)
#    0.000    2.000    1.000    3.300    0.000    6.000 
#    0.000    1.500    0.000    5.400    0.000    0.000 
#    0.000    0.000    0.000    0.000    0.000    0.000 
#
# Total GULP energy -495522.788931 kJ/mol
# GULP energy per Si atom -12388.069723 kJ/mol
# Density = 1.961233 g / cm^3
# Si number density = 19.657071 Si / 1000 Ang^3
#
#
#
# Elastic Constant Matrix: (Units=GPa)
#
#
# Indices 1 2 3 4 5 6 
#
# 1 145.8556 62.5176 39.1209 0.0000 0.0000 0.0000
# 2 62.5176 85.7545 34.2818 0.0000 0.0000 0.0000
# 3 39.1209 34.2818 71.1867 0.0000 0.0000 0.0000
# 4 0.0000 0.0000 0.0000 25.1965 0.0000 0.0000
# 5 0.0000 0.0000 0.0000 0.0000 38.1814 0.0000
# 6 0.0000 0.0000 0.0000 0.0000 0.0000 49.0655
#
#
#
# Elastic Compliance Matrix: (Units=1/GPa)
#
#
# Indices 1 2 3 4 5 6 
#
# 1 0.010330 -0.006516 -0.002539 0.000000 0.000000 0.000000
# 2 -0.006516 0.018551 -0.005353 0.000000 0.000000 0.000000
# 3 -0.002539 -0.005353 0.018021 0.000000 0.000000 0.000000
# 4 0.000000 0.000000 0.000000 0.039688 0.000000 0.000000
# 5 0.000000 0.000000 0.000000 0.000000 0.026191 0.000000
# 6 0.000000 0.000000 0.000000 0.000000 0.000000 0.020381
#
#
# Mechanical properties :
#
#
# Convention : Reuss Voigt Hill
#
# Bulk Modulus (GPa) = 55.29048 63.84860 59.56954
# Shear Modulus (GPa) = 29.76071 33.61376 31.68723
#
# Velocity S-wave (km/s) = 3.89523 4.13971 4.01933
# Velocity P-wave (km/s) = 6.95838 7.44321 7.20487
#
# Compressibility (1/GPa) = 0.01808630
#
# Stress axis : x y z
#
# Youngs Moduli (GPa) = 96.80570 53.90412 55.49139
#
# Poissons Ratio (x) = 0.35123 0.14089
# Poissons Ratio (y) = 0.63077 0.29705
# Poissons Ratio (z) = 0.24579 0.28856
#
# Static dielectric constant tensor:
#      x y z
#    x 3.849050 0.000000 0.000000 
#    y 0.000000 3.638660 0.000000 
#    z 0.000000 0.000000 3.577730 
# 
# 
# High freq. dielectric constant tensor:
#      x y z
#    x 1.772470 0.000000 0.000000 
#    y 0.000000 1.756730 0.000000 
#    z 0.000000 0.000000 1.765630 
# 
# From -- ./inp_files/10702.got.cif
#   From: 2010.03.12/outbox.cif.g09.slc.cpg/sg47_6_cif.got.tgz:10702.got - 2010.04.14 03:12:58.
