data_PCOD8200182
_publ_section_title
;
Structure prediction by ZEFSAII (Michael W. Deem and Ramdas Pophale) SiO2 
 PCOD8200182
Probable space group: P M M M
;
_chemical_formula_sum "Si O2"
_cell_formula_units_Z 48
_cell_length_a 9.093194
_cell_length_b 13.924824
_cell_length_c 20.458443
_cell_angle_alpha 90.000000
_cell_angle_beta 90.000000
_cell_angle_gamma 90.000000
_cell_volume 2590.471090
_symmetry_space_group_name_H-M "P M M M"
_symmetry_group_IT_number 47
_symmetry_cell_setting 'orthorhombic'
loop_
_space_group_symop_operation_xyz
x,y,z
-x,-y,z
x,-y,-z
-x,y,-z
-x,-y,-z
x,y,-z
-x,y,z
x,-y,z
loop_
_atom_site_type_symbol
_atom_site_label
_atom_site_fract_x
_atom_site_fract_y
_atom_site_fract_z
Si Si1 0.830082 0.111550 0.755181
Si Si2 0.330166 0.391011 0.575905
Si Si3 0.325809 0.216319 0.872019
Si Si4 0.171604 0.788427 0.618566
Si Si5 0.828974 0.609392 0.074749
Si Si6 0.325232 0.107092 0.000000
Si Si7 0.332554 0.113407 0.500000
O O1 0.729795 0.161429 0.808785
O O2 0.794401 0.162459 0.687203
O O3 0.000000 0.124314 0.774493
O O4 0.787220 0.000000 0.749646
O O5 0.306449 0.364564 0.500000
O O6 0.500000 0.378437 0.595119
O O7 0.279132 0.500000 0.589483
O O8 0.231694 0.320624 0.619854
O O9 0.500000 0.221396 0.869382
O O10 0.262534 0.324030 0.875869
O O11 0.266708 0.160238 0.935657
O O12 0.253704 0.849533 0.564331
O O13 0.000000 0.787247 0.602333
O O14 0.797772 0.500000 0.095435
O O15 0.000000 0.633824 0.081833
O O16 0.777467 0.626087 0.000000
O O17 0.500000 0.104561 0.000000
O O18 0.259656 0.000000 0.000000
O O19 0.500000 0.151141 0.500000
O O20 0.324872 0.000000 0.500000
#
# Coordination Sequence:
#
# PCOD8200182 Si02
#       7
#     8   8   8   8   8   4   4
#     4  10  23  42  59  78 112 156 196 234 281 338
#     4   9  18  34  57  85 118 152 184 226 281 337
#     4  11  21  35  57  85 115 148 187 235 287 338
#     4  11  22  37  59  86 114 147 189 238 286 333
#     4   9  18  34  57  84 115 151 188 229 280 338
#     4   9  18  32  50  77 112 142 175 227 284 333
#     4  11  23  37  56  83 114 147 187 234 282 339
#
# _framework density 18.529449
#
# number of rings (size 3 to 8) (size 9 to 14) (size 15 to 20)
#    0.000    2.000    1.667    3.250    0.000    4.333 
#    0.000    2.500    0.000    3.000    0.000    0.000 
#    0.000    0.000    0.000    0.000    0.000    0.000 
#
# Total GULP energy -595342.747089 kJ/mol
# GULP energy per Si atom -12402.973898 kJ/mol
# Density = 1.848728 g / cm^3
# Si number density = 18.529449 Si / 1000 Ang^3
#
#
#
# Elastic Constant Matrix: (Units=GPa)
#
#
# Indices 1 2 3 4 5 6 
#
# 1 95.9213 69.0461 66.4467 0.0000 0.0000 0.0000
# 2 69.0461 143.9768 67.4459 0.0000 0.0000 0.0000
# 3 66.4467 67.4459 105.5342 0.0000 0.0000 0.0000
# 4 0.0000 0.0000 0.0000 31.7395 0.0000 0.0000
# 5 0.0000 0.0000 0.0000 0.0000 25.8493 0.0000
# 6 0.0000 0.0000 0.0000 0.0000 0.0000 33.0574
#
#
#
# Elastic Compliance Matrix: (Units=1/GPa)
#
#
# Indices 1 2 3 4 5 6 
#
# 1 0.021240 -0.005597 -0.009796 0.000000 0.000000 0.000000
# 2 -0.005597 0.011388 -0.003754 0.000000 0.000000 0.000000
# 3 -0.009796 -0.003754 0.018043 0.000000 0.000000 0.000000
# 4 0.000000 0.000000 0.000000 0.031506 0.000000 0.000000
# 5 0.000000 0.000000 0.000000 0.000000 0.038686 0.000000
# 6 0.000000 0.000000 0.000000 0.000000 0.000000 0.030250
#
#
# Mechanical properties :
#
#
# Convention : Reuss Voigt Hill
#
# Bulk Modulus (GPa) = 80.79899 83.47885 82.13892
# Shear Modulus (GPa) = 25.83521 27.62880 26.73201
#
# Velocity S-wave (km/s) = 3.73805 3.86563 3.80238
# Velocity P-wave (km/s) = 7.89501 8.06684 7.98139
#
# Compressibility (1/GPa) = 0.01237639
#
# Stress axis : x y z
#
# Youngs Moduli (GPa) = 47.08076 87.80946 55.42359
#
# Poissons Ratio (x) = 0.49146 0.54295
# Poissons Ratio (y) = 0.26351 0.20807
# Poissons Ratio (z) = 0.46122 0.32966
#
# Static dielectric constant tensor:
#      x y z
#    x 3.318010 0.000000 0.000000 
#    y 0.000000 3.601790 0.000000 
#    z 0.000000 0.000000 3.362100 
# 
# 
# High freq. dielectric constant tensor:
#      x y z
#    x 1.714710 0.000000 0.000000 
#    y 0.000000 1.737760 0.000000 
#    z 0.000000 0.000000 1.703260 
# 
# From -- ./inp_files/26502.got.cif
#   From: 2010.03.12/outbox.cif.g09.slc.cpg/sg47_14_cif.got.tgz:26502.got - 2010.04.14 03:12:58.
