data_PCOD8200847
_publ_section_title
;
Structure prediction by ZEFSAII (Michael W. Deem and Ramdas Pophale) SiO2 
 PCOD8200847
Probable space group: P M M M
;
_chemical_formula_sum "Si O2"
_cell_formula_units_Z 36
_cell_length_a 9.487893
_cell_length_b 9.540935
_cell_length_c 23.431678
_cell_angle_alpha 90.000000
_cell_angle_beta 90.000000
_cell_angle_gamma 90.000000
_cell_volume 2121.114467
_symmetry_space_group_name_H-M "P M M M"
_symmetry_group_IT_number 47
_symmetry_cell_setting 'orthorhombic'
loop_
_space_group_symop_operation_xyz
x,y,z
-x,-y,z
x,-y,-z
-x,y,-z
-x,-y,-z
x,y,-z
-x,y,z
x,-y,z
loop_
_atom_site_type_symbol
_atom_site_label
_atom_site_fract_x
_atom_site_fract_y
_atom_site_fract_z
Si Si1 0.158688 0.832595 0.000000
Si Si2 0.667589 0.157206 0.563318
Si Si3 0.342821 0.833240 0.104138
Si Si4 0.668391 0.342026 0.666574
Si Si5 0.332252 0.843597 0.229914
O O1 0.237611 0.773825 0.056142
O O2 0.000000 0.774072 0.000000
O O3 0.159512 0.000000 0.000000
O O4 0.718907 0.203033 0.500000
O O5 0.500000 0.158428 0.565428
O O6 0.728210 0.264514 0.610204
O O7 0.721350 0.000000 0.577172
O O8 0.500000 0.772965 0.092875
O O9 0.286808 0.788816 0.167004
O O10 0.349572 0.000000 0.101440
O O11 0.500000 0.341208 0.666556
O O12 0.727022 0.500000 0.667030
O O13 0.727285 0.262037 0.722395
O O14 0.500000 0.849955 0.232327
O O15 0.272171 0.000000 0.241614
#
# Coordination Sequence:
#
# PCOD8200847 Si02
#       5
#     4   8   8   8   8
#     4   9  15  21  31  51  78  99 114 144 192 231
#     4   8  13  20  28  37  52  79 114 146 175 213
#     4   8  13  21  33  48  67  94 125 151 178 221
#     4   9  15  20  27  41  60  80 105 144 190 223
#     4   8  13  21  32  44  59  83 115 146 175 213
#
# _framework density 16.972208999999999
#
# number of rings (size 3 to 8) (size 9 to 14) (size 15 to 20)
#    0.000    3.667    0.000    3.000    0.000    4.444 
#    0.000    2.222    0.000    0.000    0.000    0.778 
#    0.000    7.111    0.000    0.000    0.000    1.111 
#
# Total GULP energy -446072.443563 kJ/mol
# GULP energy per Si atom -12390.901210 kJ/mol
# Density = 1.693358 g / cm^3
# Si number density = 16.972209 Si / 1000 Ang^3
#
#
#
# Elastic Constant Matrix: (Units=GPa)
#
#
# Indices 1 2 3 4 5 6 
#
# 1 33.7544 15.6831 36.8945 0.0000 0.0000 0.0000
# 2 15.6831 86.4314 78.7997 0.0000 0.0000 0.0000
# 3 36.8945 78.7997 189.6370 0.0000 0.0000 0.0000
# 4 0.0000 0.0000 0.0000 6.6734 0.0000 0.0000
# 5 0.0000 0.0000 0.0000 0.0000 1.4212 0.0000
# 6 0.0000 0.0000 0.0000 0.0000 0.0000 2.3534
#
#
#
# Elastic Compliance Matrix: (Units=1/GPa)
#
#
# Indices 1 2 3 4 5 6 
#
# 1 0.037631 -0.000247 -0.007219 0.000000 0.000000 0.000000
# 2 -0.000247 0.018628 -0.007692 0.000000 0.000000 0.000000
# 3 -0.007219 -0.007692 0.009874 0.000000 0.000000 0.000000
# 4 0.000000 0.000000 0.000000 0.149849 0.000000 0.000000
# 5 0.000000 0.000000 0.000000 0.000000 0.703625 0.000000
# 6 0.000000 0.000000 0.000000 0.000000 0.000000 0.424911
#
#
# Mechanical properties :
#
#
# Convention : Reuss Voigt Hill
#
# Bulk Modulus (GPa) = 27.91992 63.61971 45.76982
# Shear Modulus (GPa) = 3.60550 13.98598 8.79574
#
# Velocity S-wave (km/s) = 1.45910 2.87374 2.27897
# Velocity P-wave (km/s) = 4.39599 6.96974 5.82675
#
# Compressibility (1/GPa) = 0.03581672
#
# Stress axis : x y z
#
# Youngs Moduli (GPa) = 26.57415 53.68318 101.27584
#
# Poissons Ratio (x) = 0.01326 0.73106
# Poissons Ratio (y) = 0.00656 0.77905
# Poissons Ratio (z) = 0.19183 0.41295
#
# Static dielectric constant tensor:
#      x y z
#    x 2.550540 0.000000 0.000000 
#    y 0.000000 3.002010 0.000000 
#    z 0.000000 0.000000 3.686420 
# 
# 
# High freq. dielectric constant tensor:
#      x y z
#    x 1.570690 0.000000 0.000000 
#    y 0.000000 1.615100 0.000000 
#    z 0.000000 0.000000 1.678160 
# 
# From -- ./inp_files/32272.got.cif
#   From: 2010.03.12/outbox.cif.g09.slc.cpg/sg47_17_cif.got.tgz:32272.got - 2010.04.14 03:12:58.
