data_PCOD8200696
_publ_section_title
;
Structure prediction by ZEFSAII (Michael W. Deem and Ramdas Pophale) SiO2 
 PCOD8200696
Probable space group: P M M M
;
_chemical_formula_sum "Si O2"
_cell_formula_units_Z 60
_cell_length_a 29.008101
_cell_length_b 13.219900
_cell_length_c 9.575195
_cell_angle_alpha 90.000000
_cell_angle_beta 90.000000
_cell_angle_gamma 90.000000
_cell_volume 3671.935941
_symmetry_space_group_name_H-M "P M M M"
_symmetry_group_IT_number 47
_symmetry_cell_setting 'orthorhombic'
loop_
_space_group_symop_operation_xyz
x,y,z
-x,-y,z
x,-y,-z
-x,y,-z
-x,-y,-z
x,y,-z
-x,y,z
x,-y,z
loop_
_atom_site_type_symbol
_atom_site_label
_atom_site_fract_x
_atom_site_fract_y
_atom_site_fract_z
Si Si1 0.198182 0.111266 0.157347
Si Si2 0.554721 0.500000 0.346901
Si Si3 0.854957 0.304616 0.163601
Si Si4 0.551991 0.719247 0.667225
Si Si5 0.623489 0.115036 0.666096
Si Si6 0.225473 0.387554 0.340587
Si Si7 0.950059 0.614311 0.165748
Si Si8 0.722405 0.809661 0.336906
O O1 0.157594 0.188625 0.196547
O O2 0.241511 0.119246 0.259002
O O3 0.176605 0.000000 0.172096
O O4 0.215775 0.132307 0.000000
O O5 0.500000 0.500000 0.362486
O O6 0.577808 0.500000 0.500000
O O7 0.568565 0.392296 0.273530
O O8 0.819122 0.376298 0.243245
O O9 0.906854 0.320573 0.221866
O O10 0.851726 0.331568 0.000000
O O11 0.554026 0.714215 0.500000
O O12 0.500000 0.742876 0.717353
O O13 0.583943 0.810030 0.725296
O O14 0.621556 0.113369 0.500000
O O15 0.671798 0.161772 0.718211
O O16 0.616816 0.000000 0.723089
O O17 0.209419 0.370381 0.500000
O O18 0.245990 0.500000 0.319104
O O19 0.265830 0.307717 0.302342
O O20 0.943379 0.500000 0.218953
O O21 0.000000 0.655995 0.219957
O O22 0.950260 0.616784 0.000000
O O23 0.726514 0.833400 0.500000
#
# Coordination Sequence:
#
# PCOD8200696 Si02
#       8
#     8   4   8   8   8   8   8   8
#     4   9  17  28  42  60  80 102 132 170 204 232
#     4   7  10  18  30  42  60  88 121 151 179 221
#     4   9  16  26  42  61  79 103 135 166 196 233
#     4   8  13  21  32  47  68  94 123 155 192 231
#     4   9  16  24  34  50  71  96 128 161 191 229
#     4   9  17  28  40  56  81 107 130 161 200 239
#     4   8  13  21  35  57  81 101 125 159 194 229
#     4   9  17  29  42  57  79 107 135 161 196 240
#
# _framework density 16.340153999999998
#
# number of rings (size 3 to 8) (size 9 to 14) (size 15 to 20)
#    0.000    3.400    0.000    2.000    0.000    1.867 
#    1.200    1.333    0.000    0.800    0.000    4.667 
#    0.000    0.533    0.000    9.467    0.000   13.600 
#
# Total GULP energy -743313.319465 kJ/mol
# GULP energy per Si atom -12388.555324 kJ/mol
# Density = 1.630296 g / cm^3
# Si number density = 16.340154 Si / 1000 Ang^3
#
#
#
# Elastic Constant Matrix: (Units=GPa)
#
#
# Indices 1 2 3 4 5 6 
#
# 1 125.6097 77.0483 16.6604 0.0000 0.0000 0.0000
# 2 77.0483 138.0652 17.3421 0.0000 0.0000 0.0000
# 3 16.6604 17.3421 16.7506 0.0000 0.0000 0.0000
# 4 0.0000 0.0000 0.0000 10.9331 0.0000 0.0000
# 5 0.0000 0.0000 0.0000 0.0000 9.6407 0.0000
# 6 0.0000 0.0000 0.0000 0.0000 0.0000 21.4673
#
#
#
# Elastic Compliance Matrix: (Units=1/GPa)
#
#
# Indices 1 2 3 4 5 6 
#
# 1 0.012616 -0.006281 -0.006045 0.000000 0.000000 0.000000
# 2 -0.006281 0.011453 -0.005610 0.000000 0.000000 0.000000
# 3 -0.006045 -0.005610 0.071520 0.000000 0.000000 0.000000
# 4 0.000000 0.000000 0.000000 0.091466 0.000000 0.000000
# 5 0.000000 0.000000 0.000000 0.000000 0.103727 0.000000
# 6 0.000000 0.000000 0.000000 0.000000 0.000000 0.046583
#
#
# Mechanical properties :
#
#
# Convention : Reuss Voigt Hill
#
# Bulk Modulus (GPa) = 16.74580 55.83633 36.29107
# Shear Modulus (GPa) = 12.71809 19.69986 16.20897
#
# Velocity S-wave (km/s) = 2.79289 3.47596 3.15298
# Velocity P-wave (km/s) = 4.54652 7.09613 5.95928
#
# Compressibility (1/GPa) = 0.05971645
#
# Stress axis : x y z
#
# Youngs Moduli (GPa) = 79.26655 87.31523 13.98211
#
# Poissons Ratio (x) = 0.54842 0.08452
# Poissons Ratio (y) = 0.49787 0.07844
# Poissons Ratio (z) = 0.47916 0.48984
#
# Static dielectric constant tensor:
#      x y z
#    x 3.221940 0.000000 0.000000 
#    y 0.000000 3.361650 0.000000 
#    z 0.000000 0.000000 2.653100 
# 
# 
# High freq. dielectric constant tensor:
#      x y z
#    x 1.615980 0.000000 0.000000 
#    y 0.000000 1.638220 0.000000 
#    z 0.000000 0.000000 1.572790 
# 
# From -- ./inp_files/20127.got.cif
#   From: 2010.03.12/outbox.cif.g09.slc.cpg/sg47_11_cif.got.tgz:20127.got - 2010.04.14 03:12:58.
