data_PCOD8200041
_publ_section_title
;
Structure prediction by ZEFSAII (Michael W. Deem and Ramdas Pophale) SiO2 
 PCOD8200041
Probable space group: P M M M
;
_chemical_formula_sum "Si O2"
_cell_formula_units_Z 64
_cell_length_a 8.737472
_cell_length_b 14.827712
_cell_length_c 24.852434
_cell_angle_alpha 90.000000
_cell_angle_beta 90.000000
_cell_angle_gamma 90.000000
_cell_volume 3219.799794
_symmetry_space_group_name_H-M "P M M M"
_symmetry_group_IT_number 47
_symmetry_cell_setting 'orthorhombic'
loop_
_space_group_symop_operation_xyz
x,y,z
-x,-y,z
x,-y,-z
-x,y,-z
-x,-y,-z
x,y,-z
-x,y,z
x,-y,z
loop_
_atom_site_type_symbol
_atom_site_label
_atom_site_fract_x
_atom_site_fract_y
_atom_site_fract_z
Si Si1 0.318358 0.788554 0.440897
Si Si2 0.822736 0.774337 0.247018
Si Si3 0.672755 0.600589 0.285518
Si Si4 0.677218 0.760762 0.865991
Si Si5 0.318159 0.102535 0.661650
Si Si6 0.828328 0.101877 0.937421
Si Si7 0.318135 0.399048 0.060154
Si Si8 0.325310 0.596873 0.587643
O O1 0.275983 0.828339 0.500000
O O2 0.500000 0.781878 0.433480
O O3 0.252514 0.852138 0.393501
O O4 0.247895 0.686519 0.437517
O O5 0.790216 0.670079 0.259861
O O6 0.772178 0.789633 0.186111
O O7 0.733972 0.841520 0.286651
O O8 0.000000 0.795537 0.253532
O O9 0.500000 0.624393 0.266869
O O10 0.716051 0.500000 0.265895
O O11 0.684285 0.607782 0.348948
O O12 0.500000 0.750053 0.850547
O O13 0.698717 0.840838 0.908119
O O14 0.742977 0.669610 0.894233
O O15 0.500000 0.102938 0.660430
O O16 0.255928 0.000000 0.664900
O O17 0.000000 0.138316 0.925337
O O18 0.814755 0.000000 0.916588
O O19 0.792432 0.107067 0.000000
O O20 0.500000 0.394266 0.059057
O O21 0.262999 0.500000 0.075314
O O22 0.257221 0.373584 0.000000
O O23 0.500000 0.592513 0.568520
O O24 0.247938 0.500000 0.570554
#
# Coordination Sequence:
#
# PCOD8200041 Si02
#       8
#     8   8   8   8   8   8   8   8
#     4   9  16  27  49  83 118 144 173 223 283 340
#     4  12  25  39  56  79 111 149 189 236 288 344
#     4   9  17  33  58  82 107 143 185 227 270 321
#     4  11  22  35  56  85 114 145 188 237 283 333
#     4  10  21  39  61  81 106 142 187 238 290 347
#     4   9  19  37  59  82 112 149 183 220 276 342
#     4   8  15  30  53  82 115 148 182 221 266 316
#     4   8  13  23  44  75 110 144 174 210 260 317
#
# _framework density 19.877013999999999
#
# number of rings (size 3 to 8) (size 9 to 14) (size 15 to 20)
#    0.000    2.500    1.250    3.375    0.000    3.000 
#    0.000    4.375    0.000    1.500    0.000    5.250 
#    0.000    2.000    0.000    0.000    0.000    0.000 
#
# Total GULP energy -793159.921259 kJ/mol
# GULP energy per Si atom -12393.123770 kJ/mol
# Density = 1.983177 g / cm^3
# Si number density = 19.877014 Si / 1000 Ang^3
#
#
#
# Elastic Constant Matrix: (Units=GPa)
#
#
# Indices 1 2 3 4 5 6 
#
# 1 25.4689 16.8714 12.6151 0.0000 0.0000 0.0000
# 2 16.8714 130.9489 62.9178 0.0000 0.0000 0.0000
# 3 12.6151 62.9178 102.7730 0.0000 0.0000 0.0000
# 4 0.0000 0.0000 0.0000 12.1831 0.0000 0.0000
# 5 0.0000 0.0000 0.0000 0.0000 6.8869 0.0000
# 6 0.0000 0.0000 0.0000 0.0000 0.0000 16.5432
#
#
#
# Elastic Compliance Matrix: (Units=1/GPa)
#
#
# Indices 1 2 3 4 5 6 
#
# 1 0.043450 -0.004301 -0.002701 0.000000 0.000000 0.000000
# 2 -0.004301 0.011245 -0.006356 0.000000 0.000000 0.000000
# 3 -0.002701 -0.006356 0.013953 0.000000 0.000000 0.000000
# 4 0.000000 0.000000 0.000000 0.082081 0.000000 0.000000
# 5 0.000000 0.000000 0.000000 0.000000 0.145202 0.000000
# 6 0.000000 0.000000 0.000000 0.000000 0.000000 0.060448
#
#
# Mechanical properties :
#
#
# Convention : Reuss Voigt Hill
#
# Bulk Modulus (GPa) = 23.84752 49.33327 36.59040
# Shear Modulus (GPa) = 12.59224 18.24177 15.41700
#
# Velocity S-wave (km/s) = 2.51969 3.03270 2.78802
# Velocity P-wave (km/s) = 4.52644 6.09394 5.36772
#
# Compressibility (1/GPa) = 0.04193308
#
# Stress axis : x y z
#
# Youngs Moduli (GPa) = 23.01497 88.93173 71.66982
#
# Poissons Ratio (x) = 0.38245 0.19355
# Poissons Ratio (y) = 0.09898 0.45554
# Poissons Ratio (z) = 0.06215 0.56526
#
# Static dielectric constant tensor:
#      x y z
#    x 3.086740 0.000000 0.000000 
#    y 0.000000 3.904620 0.000000 
#    z 0.000000 0.000000 3.658920 
# 
# 
# High freq. dielectric constant tensor:
#      x y z
#    x 1.716550 0.000000 0.000000 
#    y 0.000000 1.786070 0.000000 
#    z 0.000000 0.000000 1.777520 
# 
# From -- ./inp_files/32129.got.cif
#   From: 2010.03.12/outbox.cif.g09.slc.cpg/sg47_17_cif.got.tgz:32129.got - 2010.04.14 03:12:58.
