data_PCOD8200088
_publ_section_title
;
Structure prediction by ZEFSAII (Michael W. Deem and Ramdas Pophale) SiO2 
 PCOD8200088
Probable space group: P M M M
;
_chemical_formula_sum "Si O2"
_cell_formula_units_Z 64
_cell_length_a 9.405160
_cell_length_b 24.319932
_cell_length_c 14.908152
_cell_angle_alpha 90.000000
_cell_angle_beta 90.000000
_cell_angle_gamma 90.000000
_cell_volume 3409.984120
_symmetry_space_group_name_H-M "P M M M"
_symmetry_group_IT_number 47
_symmetry_cell_setting 'orthorhombic'
loop_
_space_group_symop_operation_xyz
x,y,z
-x,-y,z
x,-y,-z
-x,y,-z
-x,-y,-z
x,y,-z
-x,y,z
x,-y,z
loop_
_atom_site_type_symbol
_atom_site_label
_atom_site_fract_x
_atom_site_fract_y
_atom_site_fract_z
Si Si1 0.835244 0.650433 0.396803
Si Si2 0.660369 0.245181 0.393634
Si Si3 0.342915 0.253055 0.106273
Si Si4 0.833122 0.149933 0.103230
Si Si5 0.165296 0.140319 0.397167
Si Si6 0.167627 0.060829 0.757897
Si Si7 0.667987 0.624987 0.897448
Si Si8 0.835804 0.437155 0.750219
O O1 0.797563 0.636754 0.500000
O O2 0.741683 0.700823 0.358857
O O3 0.795816 0.597274 0.338347
O O4 0.000000 0.667007 0.387476
O O5 0.660655 0.245384 0.500000
O O6 0.500000 0.244936 0.355270
O O7 0.743309 0.191294 0.360090
O O8 0.500000 0.242009 0.146435
O O9 0.237827 0.205690 0.141038
O O10 0.287807 0.313481 0.135086
O O11 0.351738 0.252174 0.000000
O O12 0.774623 0.098595 0.160819
O O13 0.000000 0.157953 0.116358
O O14 0.792672 0.138594 0.000000
O O15 0.201697 0.125819 0.500000
O O16 0.206628 0.087470 0.337938
O O17 0.000000 0.155984 0.385916
O O18 0.000000 0.055449 0.767917
O O19 0.237277 0.000000 0.763502
O O20 0.500000 0.617468 0.888316
O O21 0.745490 0.580910 0.835844
O O22 0.715855 0.614890 0.000000
O O23 0.799541 0.500000 0.727548
O O24 0.000000 0.429129 0.775472
#
# Coordination Sequence:
#
# PCOD8200088 Si02
#       8
#     8   8   8   8   8   8   8   8
#     4   9  18  34  55  76 101 134 168 204 248 298
#     4   9  17  30  50  76 103 128 157 197 246 298
#     4   8  15  30  51  73  97 124 155 193 238 288
#     4   9  17  29  47  71  96 122 153 191 237 286
#     4   9  17  30  49  71  95 124 157 195 240 288
#     4   9  18  31  46  67  94 123 160 202 236 273
#     4   9  19  36  56  77 102 134 170 206 248 300
#     4  10  22  37  52  75 104 133 170 212 251 293
#
# _framework density 18.768415999999998
#
# number of rings (size 3 to 8) (size 9 to 14) (size 15 to 20)
#    0.000    3.000    0.000    1.125    0.000    5.000 
#    0.000   10.625    0.000    1.500    0.000    6.125 
#    0.000    0.000    0.000    0.000    0.000    0.000 
#
# Total GULP energy -793451.877372 kJ/mol
# GULP energy per Si atom -12397.685584 kJ/mol
# Density = 1.872570 g / cm^3
# Si number density = 18.768416 Si / 1000 Ang^3
#
#
#
# Elastic Constant Matrix: (Units=GPa)
#
#
# Indices 1 2 3 4 5 6 
#
# 1 52.0992 37.6009 19.6110 0.0000 0.0000 0.0000
# 2 37.6009 116.9865 28.8646 0.0000 0.0000 0.0000
# 3 19.6110 28.8646 64.2071 0.0000 0.0000 0.0000
# 4 0.0000 0.0000 0.0000 28.3129 0.0000 0.0000
# 5 0.0000 0.0000 0.0000 0.0000 13.4523 0.0000
# 6 0.0000 0.0000 0.0000 0.0000 0.0000 11.3061
#
#
#
# Elastic Compliance Matrix: (Units=1/GPa)
#
#
# Indices 1 2 3 4 5 6 
#
# 1 0.026217 -0.007255 -0.004746 0.000000 0.000000 0.000000
# 2 -0.007255 0.011622 -0.003009 0.000000 0.000000 0.000000
# 3 -0.004746 -0.003009 0.018377 0.000000 0.000000 0.000000
# 4 0.000000 0.000000 0.000000 0.035320 0.000000 0.000000
# 5 0.000000 0.000000 0.000000 0.000000 0.074337 0.000000
# 6 0.000000 0.000000 0.000000 0.000000 0.000000 0.088448
#
#
# Mechanical properties :
#
#
# Convention : Reuss Voigt Hill
#
# Bulk Modulus (GPa) = 38.17398 45.04953 41.61175
# Shear Modulus (GPa) = 17.06064 20.42869 18.74466
#
# Velocity S-wave (km/s) = 3.01825 3.30276 3.16370
# Velocity P-wave (km/s) = 5.70351 6.21283 5.96361
#
# Compressibility (1/GPa) = 0.02619586
#
# Stress axis : x y z
#
# Youngs Moduli (GPa) = 38.14323 86.04089 54.41650
#
# Poissons Ratio (x) = 0.62427 0.25825
# Poissons Ratio (y) = 0.27675 0.16373
# Poissons Ratio (z) = 0.18102 0.25888
#
# Static dielectric constant tensor:
#      x y z
#    x 3.364020 0.000000 0.000000 
#    y 0.000000 3.642650 0.000000 
#    z 0.000000 0.000000 3.358690 
# 
# 
# High freq. dielectric constant tensor:
#      x y z
#    x 1.706230 0.000000 0.000000 
#    y 0.000000 1.727220 0.000000 
#    z 0.000000 0.000000 1.727210 
# 
# From -- ./inp_files/7774.got.cif
#   From: 2010.03.12/outbox.cif.g09.slc.cpg/sg47_4_cif.got.tgz:7774.got - 2010.04.14 03:12:58.
