data_PCOD8200163
_publ_section_title
;
Structure prediction by ZEFSAII (Michael W. Deem and Ramdas Pophale) SiO2 
 PCOD8200163
Probable space group: P M M M
;
_chemical_formula_sum "Si O2"
_cell_formula_units_Z 48
_cell_length_a 9.170385
_cell_length_b 15.290679
_cell_length_c 17.186265
_cell_angle_alpha 90.000000
_cell_angle_beta 90.000000
_cell_angle_gamma 90.000000
_cell_volume 2409.882368
_symmetry_space_group_name_H-M "P M M M"
_symmetry_group_IT_number 47
_symmetry_cell_setting 'orthorhombic'
loop_
_space_group_symop_operation_xyz
x,y,z
-x,-y,z
x,-y,-z
-x,y,-z
-x,-y,-z
x,y,-z
-x,y,z
x,-y,z
loop_
_atom_site_type_symbol
_atom_site_label
_atom_site_fract_x
_atom_site_fract_y
_atom_site_fract_z
Si Si1 0.832417 0.247582 0.908085
Si Si2 0.159815 0.352150 0.500000
Si Si3 0.342596 0.398493 0.648217
Si Si4 0.671080 0.102830 0.815097
Si Si5 0.837589 0.101005 0.335341
Si Si6 0.327355 0.601019 0.819620
Si Si7 0.838159 0.147673 0.500000
O O1 0.749407 0.159982 0.880746
O O2 0.759075 0.336540 0.877795
O O3 0.000000 0.243354 0.879967
O O4 0.821358 0.249682 0.000000
O O5 0.233909 0.382491 0.578597
O O6 0.153596 0.249923 0.500000
O O7 0.000000 0.394217 0.500000
O O8 0.500000 0.354985 0.628361
O O9 0.368271 0.500000 0.659262
O O10 0.284785 0.365855 0.732186
O O11 0.500000 0.122113 0.816282
O O12 0.732928 0.137380 0.732057
O O13 0.703040 0.000000 0.829894
O O14 0.760915 0.117095 0.419833
O O15 0.000000 0.145425 0.332467
O O16 0.856510 0.000000 0.320016
O O17 0.500000 0.611638 0.832688
O O18 0.280503 0.500000 0.834389
O O19 0.000000 0.105134 0.500000
#
# Coordination Sequence:
#
# PCOD8200163 Si02
#       7
#     8   4   8   8   8   8   4
#     4  11  25  42  62  90 122 155 191 236 292 354
#     4  11  22  31  45  77 116 149 188 237 281 328
#     4   9  19  37  57  76 104 145 191 236 282 334
#     4  10  22  40  62  89 120 154 195 244 296 349
#     4   9  17  33  57  80 107 149 195 236 282 337
#     4   9  20  40  65  91 119 155 198 242 291 348
#     4   9  19  32  47  76 114 149 188 233 278 329
#
# _framework density 19.917984000000001
#
# number of rings (size 3 to 8) (size 9 to 14) (size 15 to 20)
#    0.000    2.333    0.000    2.750    2.333    6.333 
#    0.000    6.250    0.000    2.000    0.000    0.000 
#    0.000    0.000    0.000    0.000    0.000    0.000 
#
# Total GULP energy -594895.150906 kJ/mol
# GULP energy per Si atom -12393.648977 kJ/mol
# Density = 1.987265 g / cm^3
# Si number density = 19.917984 Si / 1000 Ang^3
#
#
#
# Elastic Constant Matrix: (Units=GPa)
#
#
# Indices 1 2 3 4 5 6 
#
# 1 113.9441 46.6050 67.2024 0.0000 0.0000 0.0000
# 2 46.6050 73.4742 43.1785 0.0000 0.0000 0.0000
# 3 67.2024 43.1785 126.1604 0.0000 0.0000 0.0000
# 4 0.0000 0.0000 0.0000 33.1298 0.0000 0.0000
# 5 0.0000 0.0000 0.0000 0.0000 29.0592 0.0000
# 6 0.0000 0.0000 0.0000 0.0000 0.0000 26.5773
#
#
#
# Elastic Compliance Matrix: (Units=1/GPa)
#
#
# Indices 1 2 3 4 5 6 
#
# 1 0.014566 -0.005858 -0.005754 0.000000 0.000000 0.000000
# 2 -0.005858 0.019393 -0.003517 0.000000 0.000000 0.000000
# 3 -0.005754 -0.003517 0.012195 0.000000 0.000000 0.000000
# 4 0.000000 0.000000 0.000000 0.030184 0.000000 0.000000
# 5 0.000000 0.000000 0.000000 0.000000 0.034413 0.000000
# 6 0.000000 0.000000 0.000000 0.000000 0.000000 0.037626
#
#
# Mechanical properties :
#
#
# Convention : Reuss Voigt Hill
#
# Bulk Modulus (GPa) = 62.90791 69.72783 66.31787
# Shear Modulus (GPa) = 27.18395 28.19278 27.68837
#
# Velocity S-wave (km/s) = 3.69832 3.76632 3.73247
# Velocity P-wave (km/s) = 7.06320 7.34827 7.20714
#
# Compressibility (1/GPa) = 0.01589625
#
# Stress axis : x y z
#
# Youngs Moduli (GPa) = 68.65427 51.56625 82.00022
#
# Poissons Ratio (x) = 0.30206 0.47183
# Poissons Ratio (y) = 0.40215 0.28839
# Poissons Ratio (z) = 0.39504 0.18135
#
# Static dielectric constant tensor:
#      x y z
#    x 3.657040 0.000000 0.000000 
#    y 0.000000 3.548280 0.000000 
#    z 0.000000 0.000000 3.598040 
# 
# 
# High freq. dielectric constant tensor:
#      x y z
#    x 1.766680 0.000000 0.000000 
#    y 0.000000 1.773300 0.000000 
#    z 0.000000 0.000000 1.784440 
# 
# From -- ./inp_files/26517.got.cif
#   From: 2010.03.12/outbox.cif.g09.slc.cpg/sg47_14_cif.got.tgz:26517.got - 2010.04.14 03:12:58.
