data_PCOD8200236
_publ_section_title
;
Structure prediction by ZEFSAII (Michael W. Deem and Ramdas Pophale) SiO2 
 PCOD8200236
Probable space group: P M M M
;
_chemical_formula_sum "Si O2"
_cell_formula_units_Z 52
_cell_length_a 23.196575
_cell_length_b 14.113340
_cell_length_c 8.719528
_cell_angle_alpha 90.000000
_cell_angle_beta 90.000000
_cell_angle_gamma 90.000000
_cell_volume 2854.609102
_symmetry_space_group_name_H-M "P M M M"
_symmetry_group_IT_number 47
_symmetry_cell_setting 'orthorhombic'
loop_
_space_group_symop_operation_xyz
x,y,z
-x,-y,z
x,-y,-z
-x,y,-z
-x,-y,-z
x,y,-z
-x,y,z
x,-y,z
loop_
_atom_site_type_symbol
_atom_site_label
_atom_site_fract_x
_atom_site_fract_y
_atom_site_fract_z
Si Si1 0.217929 0.607041 0.822554
Si Si2 0.647894 0.393145 0.177879
Si Si3 0.936680 0.106030 0.681927
Si Si4 0.500000 0.893337 0.180961
Si Si5 0.824656 0.788449 0.680223
Si Si6 0.716775 0.111135 0.177739
Si Si7 0.391723 0.790397 0.321328
O O1 0.202226 0.500000 0.774476
O O2 0.284998 0.627306 0.792209
O O3 0.180503 0.677280 0.718299
O O4 0.203296 0.624182 0.000000
O O5 0.632286 0.500000 0.229126
O O6 0.610227 0.320506 0.276904
O O7 0.633253 0.378667 0.000000
O O8 0.937148 0.104441 0.500000
O O9 0.887316 0.177511 0.739480
O O10 0.000000 0.139165 0.741780
O O11 0.923379 0.000000 0.743061
O O12 0.443390 0.839676 0.233775
O O13 0.500000 0.000000 0.248354
O O14 0.500000 0.896802 0.000000
O O15 0.816098 0.805804 0.500000
O O16 0.778139 0.848637 0.772946
O O17 0.667687 0.159532 0.278011
O O18 0.715668 0.000000 0.209152
O O19 0.705800 0.135366 0.000000
O O20 0.403093 0.800154 0.500000
#
# Coordination Sequence:
#
# PCOD8200236 Si02
#       7
#     8   8   8   4   8   8   8
#     4   9  18  33  53  76 106 145 182 216 263 327
#     4   9  18  35  59  83 110 147 185 219 263 325
#     4   8  15  29  48  71 104 145 182 217 265 326
#     4  11  25  45  66  83 106 149 195 226 262 323
#     4  11  20  30  51  83 110 134 174 229 280 322
#     4  11  23  37  53  75 108 148 183 217 265 326
#     4  12  24  38  59  87 115 142 177 229 279 319
#
# _framework density 18.216155000000001
#
# number of rings (size 3 to 8) (size 9 to 14) (size 15 to 20)
#    0.000    1.923    1.538    4.846    0.000    4.923 
#    0.000    1.923    0.000    4.615    0.000    8.615 
#    0.000    0.000    0.000    0.000    0.000    0.000 
#
# Total GULP energy -644842.365976 kJ/mol
# GULP energy per Si atom -12400.814730 kJ/mol
# Density = 1.817469 g / cm^3
# Si number density = 18.216155 Si / 1000 Ang^3
#
#
#
# Elastic Constant Matrix: (Units=GPa)
#
#
# Indices 1 2 3 4 5 6 
#
# 1 100.9471 55.5421 18.3233 0.0000 0.0000 0.0000
# 2 55.5421 123.1258 35.0901 0.0000 0.0000 0.0000
# 3 18.3233 35.0901 47.7307 0.0000 0.0000 0.0000
# 4 0.0000 0.0000 0.0000 23.5909 0.0000 0.0000
# 5 0.0000 0.0000 0.0000 0.0000 30.6316 0.0000
# 6 0.0000 0.0000 0.0000 0.0000 0.0000 38.4701
#
#
#
# Elastic Compliance Matrix: (Units=1/GPa)
#
#
# Indices 1 2 3 4 5 6 
#
# 1 0.013205 -0.005708 -0.000873 0.000000 0.000000 0.000000
# 2 -0.005708 0.012742 -0.007176 0.000000 0.000000 0.000000
# 3 -0.000873 -0.007176 0.026562 0.000000 0.000000 0.000000
# 4 0.000000 0.000000 0.000000 0.042389 0.000000 0.000000
# 5 0.000000 0.000000 0.000000 0.000000 0.032646 0.000000
# 6 0.000000 0.000000 0.000000 0.000000 0.000000 0.025994
#
#
# Mechanical properties :
#
#
# Convention : Reuss Voigt Hill
#
# Bulk Modulus (GPa) = 40.00892 54.41274 47.21083
# Shear Modulus (GPa) = 26.40135 29.39505 27.89820
#
# Velocity S-wave (km/s) = 3.81115 4.02142 3.91769
# Velocity P-wave (km/s) = 6.43254 7.17620 6.81452
#
# Compressibility (1/GPa) = 0.02499442
#
# Stress axis : x y z
#
# Youngs Moduli (GPa) = 75.72709 78.48133 37.64827
#
# Poissons Ratio (x) = 0.44798 0.03286
# Poissons Ratio (y) = 0.43226 0.27017
# Poissons Ratio (z) = 0.06610 0.56319
#
# Static dielectric constant tensor:
#      x y z
#    x 3.809350 0.000000 0.000000 
#    y 0.000000 3.578640 0.000000 
#    z 0.000000 0.000000 3.214270 
# 
# 
# High freq. dielectric constant tensor:
#      x y z
#    x 1.691670 0.000000 0.000000 
#    y 0.000000 1.717640 0.000000 
#    z 0.000000 0.000000 1.694600 
# 
# From -- ./inp_files/10943.got.cif
#   From: 2010.03.12/outbox.cif.g09.slc.cpg/sg47_6_cif.got.tgz:10943.got - 2010.04.14 03:12:58.
