data_PCOD8200037
_publ_section_title
;
Structure prediction by ZEFSAII (Michael W. Deem and Ramdas Pophale) SiO2 
 PCOD8200037
Probable space group: P M M M
;
_chemical_formula_sum "Si O2"
_cell_formula_units_Z 44
_cell_length_a 14.215171
_cell_length_b 10.161147
_cell_length_c 14.997626
_cell_angle_alpha 90.000000
_cell_angle_beta 90.000000
_cell_angle_gamma 90.000000
_cell_volume 2166.293726
_symmetry_space_group_name_H-M "P M M M"
_symmetry_group_IT_number 47
_symmetry_cell_setting 'orthorhombic'
loop_
_space_group_symop_operation_xyz
x,y,z
-x,-y,z
x,-y,-z
-x,y,-z
-x,-y,-z
x,y,-z
-x,y,z
x,-y,z
loop_
_atom_site_type_symbol
_atom_site_label
_atom_site_fract_x
_atom_site_fract_y
_atom_site_fract_z
Si Si1 0.698562 0.653946 0.100328
Si Si2 0.705971 0.238218 0.399844
Si Si3 0.895323 0.349561 0.358309
Si Si4 0.395937 0.500000 0.605240
Si Si5 0.100632 0.650727 0.148683
Si Si6 0.392593 0.145262 0.235492
O O1 0.693798 0.500000 0.130764
O O2 0.806553 0.708548 0.101505
O O3 0.637405 0.742917 0.165811
O O4 0.659377 0.668978 0.000000
O O5 0.672084 0.198860 0.500000
O O6 0.818984 0.254020 0.403493
O O7 0.660903 0.373227 0.363189
O O8 0.670767 0.136287 0.325630
O O9 0.876576 0.500000 0.387952
O O10 0.885197 0.334592 0.253366
O O11 0.000000 0.306904 0.389460
O O12 0.500000 0.500000 0.648545
O O13 0.403992 0.500000 0.500000
O O14 0.092823 0.500000 0.120640
O O15 0.000000 0.718404 0.120404
O O16 0.500000 0.173808 0.263466
O O17 0.383315 0.000000 0.191152
#
# Coordination Sequence:
#
# PCOD8200037 Si02
#       6
#     8   8   8   4   8   8
#     4  10  21  38  64  96 124 152 192 243 295 348
#     4  11  21  35  57  85 118 154 197 248 297 349
#     4   9  16  28  50  83 123 161 195 236 292 356
#     4   9  18  30  47  79 114 144 184 239 299 343
#     4   8  14  27  51  85 123 157 188 229 283 341
#     4  11  26  45  63  84 114 157 201 243 300 362
#
# _framework density 20.311188000000001
#
# number of rings (size 3 to 8) (size 9 to 14) (size 15 to 20)
#    0.000    2.273    2.727    1.636    1.273    3.273 
#    0.000    5.455    0.000    2.182    0.000    2.545 
#    0.000    0.000    0.000    0.000    0.000    0.000 
#
# Total GULP energy -545199.458821 kJ/mol
# GULP energy per Si atom -12390.896791 kJ/mol
# Density = 2.026496 g / cm^3
# Si number density = 20.311188 Si / 1000 Ang^3
#
#
#
# Elastic Constant Matrix: (Units=GPa)
#
#
# Indices 1 2 3 4 5 6 
#
# 1 134.5208 37.7614 33.1366 0.0000 0.0000 0.0000
# 2 37.7614 68.0055 33.4843 0.0000 0.0000 0.0000
# 3 33.1366 33.4843 91.2195 0.0000 0.0000 0.0000
# 4 0.0000 0.0000 0.0000 15.3470 0.0000 0.0000
# 5 0.0000 0.0000 0.0000 0.0000 18.1495 0.0000
# 6 0.0000 0.0000 0.0000 0.0000 0.0000 14.4733
#
#
#
# Elastic Compliance Matrix: (Units=1/GPa)
#
#
# Indices 1 2 3 4 5 6 
#
# 1 0.009032 -0.004150 -0.001758 0.000000 0.000000 0.000000
# 2 -0.004150 0.019855 -0.005781 0.000000 0.000000 0.000000
# 3 -0.001758 -0.005781 0.013723 0.000000 0.000000 0.000000
# 4 0.000000 0.000000 0.000000 0.065159 0.000000 0.000000
# 5 0.000000 0.000000 0.000000 0.000000 0.055098 0.000000
# 6 0.000000 0.000000 0.000000 0.000000 0.000000 0.069093
#
#
# Mechanical properties :
#
#
# Convention : Reuss Voigt Hill
#
# Bulk Modulus (GPa) = 51.99236 55.83449 53.91343
# Shear Modulus (GPa) = 19.10240 22.21820 20.66030
#
# Velocity S-wave (km/s) = 3.07006 3.31099 3.19280
# Velocity P-wave (km/s) = 6.18227 6.49354 6.33982
#
# Compressibility (1/GPa) = 0.01923359
#
# Stress axis : x y z
#
# Youngs Moduli (GPa) = 110.72266 50.36463 72.86992
#
# Poissons Ratio (x) = 0.20899 0.12808
# Poissons Ratio (y) = 0.45945 0.42126
# Poissons Ratio (z) = 0.19461 0.29116
#
# Static dielectric constant tensor:
#      x y z
#    x 4.016010 0.000000 0.000000 
#    y 0.000000 3.254760 0.000000 
#    z 0.000000 0.000000 3.461240 
# 
# 
# High freq. dielectric constant tensor:
#      x y z
#    x 1.810160 0.000000 0.000000 
#    y 0.000000 1.732210 0.000000 
#    z 0.000000 0.000000 1.785880 
# 
# From -- ./inp_files/23491.got.cif
#   From: 2010.03.12/outbox.cif.g09.slc.cpg/sg47_12_cif.got.tgz:23491.got - 2010.04.14 03:12:58.
