data_PCOD8200378
_publ_section_title
;
Structure prediction by ZEFSAII (Michael W. Deem and Ramdas Pophale) SiO2 
 PCOD8200378
Probable space group: P M M M
;
_chemical_formula_sum "Si O2"
_cell_formula_units_Z 36
_cell_length_a 8.028933
_cell_length_b 11.811868
_cell_length_c 22.302978
_cell_angle_alpha 90.000000
_cell_angle_beta 90.000000
_cell_angle_gamma 90.000000
_cell_volume 2115.140762
_symmetry_space_group_name_H-M "P M M M"
_symmetry_group_IT_number 47
_symmetry_cell_setting 'orthorhombic'
loop_
_space_group_symop_operation_xyz
x,y,z
-x,-y,z
x,-y,-z
-x,y,-z
-x,-y,-z
x,y,-z
-x,y,z
x,-y,z
loop_
_atom_site_type_symbol
_atom_site_label
_atom_site_fract_x
_atom_site_fract_y
_atom_site_fract_z
Si Si1 0.313626 0.865165 0.856819
Si Si2 0.808928 0.500000 0.434158
Si Si3 0.307133 0.267087 0.613708
Si Si4 0.000000 0.134986 0.067929
Si Si5 0.696239 0.874441 0.723103
Si Si6 0.806525 0.132773 0.500000
O O1 0.500000 0.820466 0.875087
O O2 0.169108 0.818197 0.900735
O O3 0.266298 0.825745 0.789479
O O4 0.318282 0.000000 0.858294
O O5 0.717172 0.500000 0.500000
O O6 0.768854 0.390095 0.395519
O O7 0.000000 0.500000 0.448563
O O8 0.500000 0.285506 0.623921
O O9 0.226564 0.209550 0.673114
O O10 0.277806 0.185026 0.558081
O O11 0.000000 0.000000 0.070580
O O12 0.000000 0.179575 0.000000
O O13 0.500000 0.884823 0.713512
O O14 0.775664 0.000000 0.715352
O O15 0.000000 0.164268 0.500000
O O16 0.773231 0.000000 0.500000
#
# Coordination Sequence:
#
# PCOD8200378 Si02
#       6
#     8   4   8   4   8   4
#     4   8  14  26  41  58  87 124 156 191 235 276
#     4  11  23  39  53  65  92 124 152 191 244 303
#     4  11  21  34  55  74  88 116 160 203 241 284
#     4   9  16  24  36  60  90 122 165 200 220 260
#     4   8  15  29  48  70  94 118 150 194 242 286
#     4  11  23  36  47  68 101 125 147 187 242 295
#
# _framework density 17.020143999999998
#
# number of rings (size 3 to 8) (size 9 to 14) (size 15 to 20)
#    0.000    2.556    1.111    3.333    0.000    2.667 
#    4.000    2.222    0.000    0.000    0.000    0.000 
#    0.000    0.000    0.000    2.000    0.000   17.778 
#
# Total GULP energy -446176.051963 kJ/mol
# GULP energy per Si atom -12393.779221 kJ/mol
# Density = 1.698141 g / cm^3
# Si number density = 17.020144 Si / 1000 Ang^3
#
#
#
# Elastic Constant Matrix: (Units=GPa)
#
#
# Indices 1 2 3 4 5 6 
#
# 1 76.9490 22.6256 53.7348 0.0000 0.0000 0.0000
# 2 22.6256 70.6974 42.3056 0.0000 0.0000 0.0000
# 3 53.7348 42.3056 147.3655 0.0000 0.0000 0.0000
# 4 0.0000 0.0000 0.0000 -10.1249 0.0000 0.0000
# 5 0.0000 0.0000 0.0000 0.0000 18.1975 0.0000
# 6 0.0000 0.0000 0.0000 0.0000 0.0000 19.4375
#
#
#
# Elastic Compliance Matrix: (Units=1/GPa)
#
#
# Indices 1 2 3 4 5 6 
#
# 1 0.017708 -0.002177 -0.005832 0.000000 0.000000 0.000000
# 2 -0.002177 0.017346 -0.004186 0.000000 0.000000 0.000000
# 3 -0.005832 -0.004186 0.010114 0.000000 0.000000 0.000000
# 4 0.000000 0.000000 0.000000 -0.098767 0.000000 0.000000
# 5 0.000000 0.000000 0.000000 0.000000 0.054953 0.000000
# 6 0.000000 0.000000 0.000000 0.000000 0.000000 0.051447
#
#
# Mechanical properties :
#
#
# Convention : Reuss Voigt Hill
#
# Bulk Modulus (GPa) = 48.12683 59.14931 53.63807
# Shear Modulus (GPa) = 59.43972 17.25841 38.34907
#
# Velocity S-wave (km/s) = 5.91599 3.18779 4.75189
# Velocity P-wave (km/s) = 8.66043 6.95538 7.85431
#
# Compressibility (1/GPa) = 0.02077843
#
# Stress axis : x y z
#
# Youngs Moduli (GPa) = 56.47017 57.64860 98.87183
#
# Poissons Ratio (x) = 0.12552 0.57663
# Poissons Ratio (y) = 0.12296 0.41386
# Poissons Ratio (z) = 0.32934 0.24131
#
# Static dielectric constant tensor:
#      x y z
#    x 3.289570 0.000000 0.000000 
#    y 0.000000 2.850450 0.000000 
#    z 0.000000 0.000000 3.368850 
# 
# 
# High freq. dielectric constant tensor:
#      x y z
#    x 1.657740 0.000000 0.000000 
#    y 0.000000 1.603480 0.000000 
#    z 0.000000 0.000000 1.655550 
# 
# From -- ./inp_files/29289.got.cif
#   From: 2010.03.12/outbox.cif.g09.slc.cpg/sg47_15_cif.got.tgz:29289.got - 2010.04.14 03:12:58.
