data_PCOD8200184
_publ_section_title
;
Structure prediction by ZEFSAII (Michael W. Deem and Ramdas Pophale) SiO2 
 PCOD8200184
Probable space group: P M M M
;
_chemical_formula_sum "Si O2"
_cell_formula_units_Z 56
_cell_length_a 23.595395
_cell_length_b 7.699754
_cell_length_c 14.503130
_cell_angle_alpha 90.000000
_cell_angle_beta 90.000000
_cell_angle_gamma 90.000000
_cell_volume 2634.910341
_symmetry_space_group_name_H-M "P M M M"
_symmetry_group_IT_number 47
_symmetry_cell_setting 'orthorhombic'
loop_
_space_group_symop_operation_xyz
x,y,z
-x,-y,z
x,-y,-z
-x,y,-z
-x,-y,-z
x,y,-z
-x,y,z
x,-y,z
loop_
_atom_site_type_symbol
_atom_site_label
_atom_site_fract_x
_atom_site_fract_y
_atom_site_fract_z
Si Si1 0.562472 0.293539 0.774799
Si Si2 0.374836 0.699344 0.600932
Si Si3 0.933170 0.702359 0.776482
Si Si4 0.132516 0.302352 0.601409
Si Si5 0.746112 0.807850 0.609295
Si Si6 0.250585 0.000000 0.890428
Si Si7 0.878125 0.000000 0.890406
Si Si8 0.668193 0.302199 0.108813
O O1 0.500000 0.218434 0.798521
O O2 0.560279 0.500000 0.769888
O O3 0.582110 0.217871 0.675056
O O4 0.607839 0.237016 0.851552
O O5 0.380675 0.791708 0.500000
O O6 0.389687 0.500000 0.588196
O O7 0.311147 0.713866 0.642874
O O8 0.915728 0.500000 0.793665
O O9 0.909338 0.775258 0.678638
O O10 0.000000 0.723489 0.774860
O O11 0.908373 0.823801 0.856563
O O12 0.125797 0.209654 0.500000
O O13 0.115668 0.500000 0.587945
O O14 0.196857 0.290395 0.639596
O O15 0.744239 0.814043 0.500000
O O16 0.747743 0.000000 0.652631
O O17 0.282331 0.174302 0.854508
O O18 0.186479 0.000000 0.853433
O O19 0.250618 0.000000 0.000000
O O20 0.881239 0.000000 0.000000
O O21 0.682442 0.500000 0.139972
O O22 0.662331 0.289773 0.000000
#
# Coordination Sequence:
#
# PCOD8200184 Si02
#       8
#     8   8   8   8   8   4   4   8
#     4   9  18  32  50  75 105 138 183 230 272 332
#     4   9  17  30  48  69  98 138 181 228 281 330
#     4  10  23  42  63  91 125 161 205 249 290 348
#     4   9  18  34  57  85 119 156 192 237 293 351
#     4   9  17  29  47  73 106 143 184 229 278 335
#     4   9  20  39  61  88 117 143 182 232 286 352
#     4  11  25  44  66  91 120 157 201 253 307 354
#     4   9  18  35  59  84 113 146 176 220 284 345
#
# _framework density 21.253095999999999
#
# number of rings (size 3 to 8) (size 9 to 14) (size 15 to 20)
#    0.000    2.714    0.000    0.643    1.000    5.143 
#    1.286    9.643    0.000    2.143    0.000    2.000 
#    0.000    0.000    0.000    0.000    0.000    0.000 
#
# Total GULP energy -693977.181246 kJ/mol
# GULP energy per Si atom -12392.449665 kJ/mol
# Density = 2.120472 g / cm^3
# Si number density = 21.253096 Si / 1000 Ang^3
#
#
#
# Elastic Constant Matrix: (Units=GPa)
#
#
# Indices 1 2 3 4 5 6 
#
# 1 141.8514 34.8612 34.1356 0.0000 0.0000 0.0000
# 2 34.8612 70.6167 23.8184 0.0000 0.0000 0.0000
# 3 34.1356 23.8184 53.9999 0.0000 0.0000 0.0000
# 4 0.0000 0.0000 0.0000 18.2730 0.0000 0.0000
# 5 0.0000 0.0000 0.0000 0.0000 35.8884 0.0000
# 6 0.0000 0.0000 0.0000 0.0000 0.0000 19.0161
#
#
#
# Elastic Compliance Matrix: (Units=1/GPa)
#
#
# Indices 1 2 3 4 5 6 
#
# 1 0.008791 -0.002896 -0.004280 0.000000 0.000000 0.000000
# 2 -0.002896 0.017590 -0.005928 0.000000 0.000000 0.000000
# 3 -0.004280 -0.005928 0.023839 0.000000 0.000000 0.000000
# 4 0.000000 0.000000 0.000000 0.054726 0.000000 0.000000
# 5 0.000000 0.000000 0.000000 0.000000 0.027864 0.000000
# 6 0.000000 0.000000 0.000000 0.000000 0.000000 0.052587
#
#
# Mechanical properties :
#
#
# Convention : Reuss Voigt Hill
#
# Bulk Modulus (GPa) = 41.64561 50.23317 45.93939
# Shear Modulus (GPa) = 22.76772 26.21235 24.49004
#
# Velocity S-wave (km/s) = 3.27657 3.51571 3.39824
# Velocity P-wave (km/s) = 5.82685 6.33777 6.08767
#
# Compressibility (1/GPa) = 0.02401214
#
# Stress axis : x y z
#
# Youngs Moduli (GPa) = 113.74782 56.84967 41.94870
#
# Poissons Ratio (x) = 0.16466 0.17953
# Poissons Ratio (y) = 0.32947 0.24866
# Poissons Ratio (z) = 0.48682 0.33699
#
# Static dielectric constant tensor:
#      x y z
#    x 4.077380 0.000000 0.000000 
#    y 0.000000 3.736460 0.000000 
#    z 0.000000 0.000000 3.921700 
# 
# 
# High freq. dielectric constant tensor:
#      x y z
#    x 1.830990 0.000000 0.000000 
#    y 0.000000 1.814820 0.000000 
#    z 0.000000 0.000000 1.827810 
# 
# From -- ./inp_files/25248.got.cif
#   From: 2010.03.12/outbox.cif.g09.slc.cpg/sg47_13_cif.got.tgz:25248.got - 2010.04.14 03:12:58.
