data_PCOD8200921
_publ_section_title
;
Structure prediction by ZEFSAII (Michael W. Deem and Ramdas Pophale) SiO2 
 PCOD8200921
Probable space group: P M M M
;
_chemical_formula_sum "Si O2"
_cell_formula_units_Z 44
_cell_length_a 28.604214
_cell_length_b 9.813328
_cell_length_c 9.383363
_cell_angle_alpha 90.000000
_cell_angle_beta 90.000000
_cell_angle_gamma 90.000000
_cell_volume 2633.933773
_symmetry_space_group_name_H-M "P M M M"
_symmetry_group_IT_number 47
_symmetry_cell_setting 'orthorhombic'
loop_
_space_group_symop_operation_xyz
x,y,z
-x,-y,z
x,-y,-z
-x,y,-z
-x,-y,-z
x,y,-z
-x,y,z
x,-y,z
loop_
_atom_site_type_symbol
_atom_site_label
_atom_site_fract_x
_atom_site_fract_y
_atom_site_fract_z
Si Si1 0.133822 0.342881 0.667561
Si Si2 0.778400 0.338206 0.159672
Si Si3 0.675269 0.337847 0.160499
Si Si4 0.051831 0.152810 0.669384
Si Si5 0.500000 0.662328 0.838155
Si Si6 0.588700 0.662598 0.661109
O O1 0.139203 0.323690 0.500000
O O2 0.125440 0.500000 0.709046
O O3 0.181207 0.282696 0.736640
O O4 0.090009 0.258203 0.730012
O O5 0.778422 0.500000 0.163675
O O6 0.726923 0.286604 0.208944
O O7 0.788761 0.286204 0.000000
O O8 0.673777 0.500000 0.162092
O O9 0.636397 0.279730 0.268526
O O10 0.664466 0.286647 0.000000
O O11 0.052092 0.158279 0.500000
O O12 0.000000 0.194107 0.724755
O O13 0.064192 0.000000 0.721231
O O14 0.500000 0.500000 0.840994
O O15 0.545406 0.717168 0.754532
O O16 0.500000 0.718999 0.000000
O O17 0.584710 0.718762 0.500000
O O18 0.588742 0.500000 0.659965
#
# Coordination Sequence:
#
# PCOD8200921 Si02
#       6
#     8   8   8   8   4   8
#     4   9  16  24  37  59  80  95 119 159 197 223
#     4   8  14  24  36  49  68  94 118 141 177 227
#     4   8  13  21  31  41  54  76 106 134 164 211
#     4   8  14  25  40  57  78 104 130 154 185 228
#     4   9  15  21  27  33  45  69 101 137 176 219
#     4   9  15  20  26  37  52  70  96 135 181 220
#
# _framework density 16.705051000000001
#
# number of rings (size 3 to 8) (size 9 to 14) (size 15 to 20)
#    0.000    3.545    0.000    2.455    0.000    4.364 
#    0.000    5.455    0.000    1.091    0.000    3.818 
#    0.000    0.000    0.000    0.000    0.000    0.000 
#
# Total GULP energy -545216.537043 kJ/mol
# GULP energy per Si atom -12391.284933 kJ/mol
# Density = 1.666703 g / cm^3
# Si number density = 16.705051 Si / 1000 Ang^3
#
#
#
# Elastic Constant Matrix: (Units=GPa)
#
#
# Indices 1 2 3 4 5 6 
#
# 1 182.6481 38.0163 76.6441 0.0000 0.0000 0.0000
# 2 38.0163 23.0445 18.4659 0.0000 0.0000 0.0000
# 3 76.6441 18.4659 86.9209 0.0000 0.0000 0.0000
# 4 0.0000 0.0000 0.0000 3.4968 0.0000 0.0000
# 5 0.0000 0.0000 0.0000 0.0000 25.2102 0.0000
# 6 0.0000 0.0000 0.0000 0.0000 0.0000 1.5813
#
#
#
# Elastic Compliance Matrix: (Units=1/GPa)
#
#
# Indices 1 2 3 4 5 6 
#
# 1 0.011066 -0.012578 -0.007086 0.000000 0.000000 0.000000
# 2 -0.012578 0.066594 -0.003056 0.000000 0.000000 0.000000
# 3 -0.007086 -0.003056 0.018402 0.000000 0.000000 0.000000
# 4 0.000000 0.000000 0.000000 0.285974 0.000000 0.000000
# 5 0.000000 0.000000 0.000000 0.000000 0.039666 0.000000
# 6 0.000000 0.000000 0.000000 0.000000 0.000000 0.632400
#
#
# Mechanical properties :
#
#
# Convention : Reuss Voigt Hill
#
# Bulk Modulus (GPa) = 19.75455 62.09624 40.92539
# Shear Modulus (GPa) = 4.47861 16.69014 10.58438
#
# Velocity S-wave (km/s) = 1.63915 3.16430 2.51988
# Velocity P-wave (km/s) = 3.92856 7.11359 5.74616
#
# Compressibility (1/GPa) = 0.05062125
#
# Stress axis : x y z
#
# Youngs Moduli (GPa) = 90.36297 15.01646 54.34157
#
# Poissons Ratio (x) = 0.18888 0.38506
# Poissons Ratio (y) = 1.13661 0.16609
# Poissons Ratio (z) = 0.64030 0.04590
#
# Static dielectric constant tensor:
#      x y z
#    x 3.658960 0.000000 0.000000 
#    y 0.000000 2.518090 0.000000 
#    z 0.000000 0.000000 3.100410 
# 
# 
# High freq. dielectric constant tensor:
#      x y z
#    x 1.664430 0.000000 0.000000 
#    y 0.000000 1.559860 0.000000 
#    z 0.000000 0.000000 1.627530 
# 
# From -- ./inp_files/13177.got.cif
#   From: 2010.03.12/outbox.cif.g09.slc.cpg/sg47_7_cif.got.tgz:13177.got - 2010.04.14 03:12:58.
