data_PCOD8200503
_publ_section_title
;
Structure prediction by ZEFSAII (Michael W. Deem and Ramdas Pophale) SiO2 
 PCOD8200503
Probable space group: P M M M
;
_chemical_formula_sum "Si O2"
_cell_formula_units_Z 40
_cell_length_a 9.164153
_cell_length_b 10.221800
_cell_length_c 24.323018
_cell_angle_alpha 90.000000
_cell_angle_beta 90.000000
_cell_angle_gamma 90.000000
_cell_volume 2278.437772
_symmetry_space_group_name_H-M "P M M M"
_symmetry_group_IT_number 47
_symmetry_cell_setting 'orthorhombic'
loop_
_space_group_symop_operation_xyz
x,y,z
-x,-y,z
x,-y,-z
-x,y,-z
-x,-y,-z
x,y,-z
-x,y,z
x,-y,z
loop_
_atom_site_type_symbol
_atom_site_label
_atom_site_fract_x
_atom_site_fract_y
_atom_site_fract_z
Si Si1 0.336324 0.656062 0.335949
Si Si2 0.334892 0.500000 0.064774
Si Si3 0.828425 0.252232 0.111879
Si Si4 0.835979 0.655559 0.439652
Si Si5 0.671007 0.000000 0.935014
Si Si6 0.167388 0.648725 0.769745
O O1 0.500000 0.708668 0.334652
O O2 0.328342 0.500000 0.336960
O O3 0.262609 0.714896 0.390975
O O4 0.257431 0.708012 0.281127
O O5 0.500000 0.500000 0.089614
O O6 0.245695 0.625755 0.082938
O O7 0.346376 0.500000 0.000000
O O8 0.805221 0.261338 0.177365
O O9 0.000000 0.249141 0.097039
O O10 0.748581 0.124437 0.090792
O O11 0.777192 0.699745 0.500000
O O12 0.834553 0.500000 0.436382
O O13 0.000000 0.707526 0.431358
O O14 0.500000 0.000000 0.920066
O O15 0.694689 0.000000 0.000000
O O16 0.215991 0.500000 0.784018
O O17 0.000000 0.650249 0.751525
#
# Coordination Sequence:
#
# PCOD8200503 Si02
#       6
#     8   4   8   8   4   8
#     4   9  16  23  34  56  83 114 153 196 244 293
#     4  11  23  37  55  81 111 139 166 205 258 309
#     4  11  22  38  59  82 104 134 176 217 255 302
#     4   8  13  21  32  46  69 108 155 197 239 287
#     4  11  25  43  59  79 109 141 170 205 260 321
#     4   9  17  31  48  68  95 124 159 204 251 297
#
# _framework density 17.555889000000001
#
# number of rings (size 3 to 8) (size 9 to 14) (size 15 to 20)
#    0.000    2.400    1.000    3.000    0.000    8.400 
#    0.000    2.000    0.000    0.000    0.000    0.000 
#    0.000    0.000    0.000    0.900    0.000   17.800 
#
# Total GULP energy -495883.568518 kJ/mol
# GULP energy per Si atom -12397.089213 kJ/mol
# Density = 1.751593 g / cm^3
# Si number density = 17.555889 Si / 1000 Ang^3
#
#
#
# Elastic Constant Matrix: (Units=GPa)
#
#
# Indices 1 2 3 4 5 6 
#
# 1 144.4529 51.8621 90.7079 0.0000 0.0000 0.0000
# 2 51.8621 80.9784 42.6564 0.0000 0.0000 0.0000
# 3 90.7079 42.6564 140.2083 0.0000 0.0000 0.0000
# 4 0.0000 0.0000 0.0000 10.9869 0.0000 0.0000
# 5 0.0000 0.0000 0.0000 0.0000 20.7518 0.0000
# 6 0.0000 0.0000 0.0000 0.0000 0.0000 59.1325
#
#
#
# Elastic Compliance Matrix: (Units=1/GPa)
#
#
# Indices 1 2 3 4 5 6 
#
# 1 0.012968 -0.004628 -0.006982 0.000000 0.000000 0.000000
# 2 -0.004628 0.016357 -0.001983 0.000000 0.000000 0.000000
# 3 -0.006982 -0.001983 0.012252 0.000000 0.000000 0.000000
# 4 0.000000 0.000000 0.000000 0.091018 0.000000 0.000000
# 5 0.000000 0.000000 0.000000 0.000000 0.048189 0.000000
# 6 0.000000 0.000000 0.000000 0.000000 0.000000 0.016911
#
#
# Mechanical properties :
#
#
# Convention : Reuss Voigt Hill
#
# Bulk Modulus (GPa) = 69.47605 81.78807 75.63206
# Shear Modulus (GPa) = 21.76963 30.20178 25.98571
#
# Velocity S-wave (km/s) = 3.52521 4.15218 3.85147
# Velocity P-wave (km/s) = 7.49864 8.34720 7.93427
#
# Compressibility (1/GPa) = 0.01439345
#
# Stress axis : x y z
#
# Youngs Moduli (GPa) = 77.11036 61.13571 81.61641
#
# Poissons Ratio (x) = 0.28292 0.56985
# Poissons Ratio (y) = 0.35684 0.16181
# Poissons Ratio (z) = 0.53839 0.12120
#
# Static dielectric constant tensor:
#      x y z
#    x 3.502850 0.000000 0.000000 
#    y 0.000000 2.816760 0.000000 
#    z 0.000000 0.000000 3.557550 
# 
# 
# High freq. dielectric constant tensor:
#      x y z
#    x 1.690580 0.000000 0.000000 
#    y 0.000000 1.611920 0.000000 
#    z 0.000000 0.000000 1.697380 
# 
# From -- ./inp_files/32994.got.cif
#   From: 2010.03.12/outbox.cif.g09.slc.cpg/sg47_17_cif.got.tgz:32994.got - 2010.04.14 03:12:58.
