data_PCOD8200076
_publ_section_title
;
Structure prediction by ZEFSAII (Michael W. Deem and Ramdas Pophale) SiO2 
 PCOD8200076
Probable space group: P M M M
;
_chemical_formula_sum "Si O2"
_cell_formula_units_Z 48
_cell_length_a 15.385785
_cell_length_b 17.420291
_cell_length_c 8.910923
_cell_angle_alpha 90.000000
_cell_angle_beta 90.000000
_cell_angle_gamma 90.000000
_cell_volume 2388.348818
_symmetry_space_group_name_H-M "P M M M"
_symmetry_group_IT_number 47
_symmetry_cell_setting 'orthorhombic'
loop_
_space_group_symop_operation_xyz
x,y,z
-x,-y,z
x,-y,-z
-x,y,-z
-x,-y,-z
x,y,-z
-x,y,z
x,-y,z
loop_
_atom_site_type_symbol
_atom_site_label
_atom_site_fract_x
_atom_site_fract_y
_atom_site_fract_z
Si Si1 0.354366 0.318137 0.327295
Si Si2 0.500000 0.409386 0.169534
Si Si3 0.097580 0.500000 0.821562
Si Si4 0.097861 0.197930 0.672946
Si Si5 0.827848 0.339607 0.178072
Si Si6 0.234895 0.911202 0.171968
Si Si7 0.402709 0.854834 0.671336
O O1 0.337771 0.339189 0.500000
O O2 0.414192 0.382781 0.255042
O O3 0.264786 0.314996 0.239532
O O4 0.400228 0.236520 0.309221
O O5 0.500000 0.500000 0.167850
O O6 0.500000 0.376689 0.000000
O O7 0.147066 0.424325 0.762707
O O8 0.000000 0.500000 0.756686
O O9 0.094884 0.500000 0.000000
O O10 0.120492 0.213756 0.500000
O O11 0.103062 0.278013 0.761794
O O12 0.165982 0.135997 0.732062
O O13 0.000000 0.165723 0.692475
O O14 0.827176 0.337174 0.000000
O O15 0.333464 0.896657 0.223667
O O16 0.212126 0.000000 0.192539
O O17 0.226737 0.885164 0.000000
O O18 0.381855 0.877489 0.500000
O O19 0.500000 0.882150 0.715819
#
# Coordination Sequence:
#
# PCOD8200076 Si02
#       7
#     8   4   4   8   8   8   8
#     4  11  22  39  61  88 122 160 205 254 310 371
#     4  11  25  41  59  87 124 165 214 263 313 370
#     4   9  20  38  59  86 121 158 197 247 304 361
#     4  11  24  42  65  93 125 164 211 260 313 376
#     4  11  22  38  63  92 123 161 208 256 308 370
#     4  11  25  43  64  94 129 163 204 257 315 376
#     4  10  21  40  65  91 122 161 204 249 301 368
#
# _framework density 20.097566
#
# number of rings (size 3 to 8) (size 9 to 14) (size 15 to 20)
#    0.000    1.333    2.500    2.750    1.167    5.667 
#    0.000    4.583    0.000    3.000    0.000    0.000 
#    0.000    0.000    0.000    0.000    0.000    0.000 
#
# Total GULP energy -595416.063015 kJ/mol
# GULP energy per Si atom -12404.501313 kJ/mol
# Density = 2.005182 g / cm^3
# Si number density = 20.097566 Si / 1000 Ang^3
#
#
#
# Elastic Constant Matrix: (Units=GPa)
#
#
# Indices 1 2 3 4 5 6 
#
# 1 118.1933 28.1433 46.7032 0.0000 0.0000 0.0000
# 2 28.1433 79.5769 41.3312 0.0000 0.0000 0.0000
# 3 46.7032 41.3312 111.9090 0.0000 0.0000 0.0000
# 4 0.0000 0.0000 0.0000 18.4699 0.0000 0.0000
# 5 0.0000 0.0000 0.0000 0.0000 -43.2112 0.0000
# 6 0.0000 0.0000 0.0000 0.0000 0.0000 21.5953
#
#
#
# Elastic Compliance Matrix: (Units=1/GPa)
#
#
# Indices 1 2 3 4 5 6 
#
# 1 0.010324 -0.001749 -0.003663 0.000000 0.000000 0.000000
# 2 -0.001749 0.015845 -0.005122 0.000000 0.000000 0.000000
# 3 -0.003663 -0.005122 0.012356 0.000000 0.000000 0.000000
# 4 0.000000 0.000000 0.000000 0.054142 0.000000 0.000000
# 5 0.000000 0.000000 0.000000 0.000000 -0.023142 0.000000
# 6 0.000000 0.000000 0.000000 0.000000 0.000000 0.046306
#
#
# Mechanical properties :
#
#
# Convention : Reuss Voigt Hill
#
# Bulk Modulus (GPa) = 57.28002 60.22607 58.75305
# Shear Modulus (GPa) = 35.03361 12.27089 23.65225
#
# Velocity S-wave (km/s) = 4.17967 2.47364 3.43428
# Velocity P-wave (km/s) = 7.20109 6.17984 6.70992
#
# Compressibility (1/GPa) = 0.01745809
#
# Stress axis : x y z
#
# Youngs Moduli (GPa) = 96.85700 63.10965 80.93074
#
# Poissons Ratio (x) = 0.11038 0.29643
# Poissons Ratio (y) = 0.16940 0.41455
# Poissons Ratio (z) = 0.35477 0.32327
#
# Static dielectric constant tensor:
#      x y z
#    x 3.684660 0.000000 0.000000 
#    y 0.000000 3.696500 0.000000 
#    z 0.000000 0.000000 3.729480 
# 
# 
# High freq. dielectric constant tensor:
#      x y z
#    x 1.797280 0.000000 0.000000 
#    y 0.000000 1.785170 0.000000 
#    z 0.000000 0.000000 1.786770 
# 
# From -- ./inp_files/6404.got.cif
#   From: 2010.03.12/outbox.cif.g09.slc.cpg/sg47_4_cif.got.tgz:6404.got - 2010.04.14 03:12:58.
