data_PCOD8200014
_publ_section_title
;
Structure prediction by ZEFSAII (Michael W. Deem and Ramdas Pophale) SiO2 
 PCOD8200014
Probable space group: P M M M
;
_chemical_formula_sum "Si O2"
_cell_formula_units_Z 34
_cell_length_a 7.791054
_cell_length_b 27.532911
_cell_length_c 7.621436
_cell_angle_alpha 90.000000
_cell_angle_beta 90.000000
_cell_angle_gamma 90.000000
_cell_volume 1634.877257
_symmetry_space_group_name_H-M "P M M M"
_symmetry_group_IT_number 47
_symmetry_cell_setting 'orthorhombic'
loop_
_space_group_symop_operation_xyz
x,y,z
-x,-y,z
x,-y,-z
-x,y,-z
-x,-y,-z
x,y,-z
-x,y,z
x,-y,z
loop_
_atom_site_type_symbol
_atom_site_label
_atom_site_fract_x
_atom_site_fract_y
_atom_site_fract_z
Si Si1 0.314985 0.395783 0.297560
Si Si2 0.704375 0.176083 0.000000
Si Si3 0.295837 0.896095 0.304479
Si Si4 0.808394 0.500000 0.793084
Si Si5 0.000000 0.252971 0.000000
Si Si6 0.686943 0.000000 0.707518
Si Si7 0.000000 0.332597 0.711802
O O1 0.321062 0.383195 0.500000
O O2 0.500000 0.382075 0.211953
O O3 0.288004 0.452837 0.274601
O O4 0.163224 0.363334 0.217842
O O5 0.759626 0.145683 0.828801
O O6 0.500000 0.189039 0.000000
O O7 0.822055 0.223416 0.000000
O O8 0.229078 0.882311 0.500000
O O9 0.500000 0.901512 0.306876
O O10 0.218599 0.948962 0.242362
O O11 0.000000 0.500000 0.714847
O O12 0.811297 0.500000 0.000000
O O13 0.000000 0.282719 0.181821
O O14 0.500000 0.000000 0.798997
O O15 0.664116 0.000000 0.500000
O O16 0.000000 0.323777 0.500000
#
# Coordination Sequence:
#
# PCOD8200014 Si02
#       7
#     8   4   8   4   2   4   4
#     4  10  21  38  61  88 118 155 195 232 278 339
#     4  10  22  39  58  84 111 144 189 236 294 348
#     4   8  14  27  50  81 117 152 187 228 274 334
#     4  11  22  33  54  89 131 166 195 224 268 330
#     4  12  28  44  64  86 110 140 194 252 300 362
#     4   7  10  19  41  77 115 150 187 222 262 324
#     4  10  24  45  65  85 113 148 189 247 303 342
#
# _framework density 20.796666999999999
#
# number of rings (size 3 to 8) (size 9 to 14) (size 15 to 20)
#    0.000    2.588    1.176    2.118    1.647    4.706 
#    0.000    2.353    0.000    1.412    0.000    2.471 
#    0.000    0.000    0.000    0.000    0.000    0.000 
#
# Total GULP energy -421196.085449 kJ/mol
# GULP energy per Si atom -12388.120160 kJ/mol
# Density = 2.074933 g / cm^3
# Si number density = 20.796667 Si / 1000 Ang^3
#
#
#
# Elastic Constant Matrix: (Units=GPa)
#
#
# Indices 1 2 3 4 5 6 
#
# 1 131.7835 66.4201 28.6680 0.0000 0.0000 0.0000
# 2 66.4201 154.8790 51.2804 0.0000 0.0000 0.0000
# 3 28.6680 51.2804 79.9512 0.0000 0.0000 0.0000
# 4 0.0000 0.0000 0.0000 39.8035 0.0000 0.0000
# 5 0.0000 0.0000 0.0000 0.0000 7.5627 0.0000
# 6 0.0000 0.0000 0.0000 0.0000 0.0000 -9.0863
#
#
#
# Elastic Compliance Matrix: (Units=1/GPa)
#
#
# Indices 1 2 3 4 5 6 
#
# 1 0.009747 -0.003838 -0.001033 0.000000 0.000000 0.000000
# 2 -0.003838 0.009709 -0.004851 0.000000 0.000000 0.000000
# 3 -0.001033 -0.004851 0.015990 0.000000 0.000000 0.000000
# 4 0.000000 0.000000 0.000000 0.025123 0.000000 0.000000
# 5 0.000000 0.000000 0.000000 0.000000 0.132228 0.000000
# 6 0.000000 0.000000 0.000000 0.000000 0.000000 -0.110056
#
#
# Mechanical properties :
#
#
# Convention : Reuss Voigt Hill
#
# Bulk Modulus (GPa) = 62.49645 73.26119 67.87882
# Shear Modulus (GPa) = 46.50336 22.33901 34.42118
#
# Velocity S-wave (km/s) = 4.73387 3.28100 4.07274
# Velocity P-wave (km/s) = 7.74569 7.04678 7.40449
#
# Compressibility (1/GPa) = 0.01600091
#
# Stress axis : x y z
#
# Youngs Moduli (GPa) = 102.59135 102.99992 62.54081
#
# Poissons Ratio (x) = 0.39532 0.06463
# Poissons Ratio (y) = 0.39375 0.30338
# Poissons Ratio (z) = 0.10602 0.49965
#
# Static dielectric constant tensor:
#      x y z
#    x 3.877970 0.000000 0.000000 
#    y 0.000000 3.722640 0.000000 
#    z 0.000000 0.000000 3.763930 
# 
# 
# High freq. dielectric constant tensor:
#      x y z
#    x 1.798310 0.000000 0.000000 
#    y 0.000000 1.800670 0.000000 
#    z 0.000000 0.000000 1.807590 
# 
# From -- ./inp_files/1221.got.cif
#   From: 2010.03.12/outbox.cif.g09.slc.cpg/sg47_1_cif.got.tgz:1221.got - 2010.04.14 03:12:58.
