data_PCOD8200706
_publ_section_title
;
Structure prediction by ZEFSAII (Michael W. Deem and Ramdas Pophale) SiO2 
 PCOD8200706
Probable space group: P M M M
;
_chemical_formula_sum "Si O2"
_cell_formula_units_Z 36
_cell_length_a 14.972578
_cell_length_b 9.919240
_cell_length_c 17.781744
_cell_angle_alpha 90.000000
_cell_angle_beta 90.000000
_cell_angle_gamma 90.000000
_cell_volume 2640.884065
_symmetry_space_group_name_H-M "P M M M"
_symmetry_group_IT_number 47
_symmetry_cell_setting 'orthorhombic'
loop_
_space_group_symop_operation_xyz
x,y,z
-x,-y,z
x,-y,-z
-x,y,-z
-x,-y,-z
x,y,-z
-x,y,z
x,-y,z
loop_
_atom_site_type_symbol
_atom_site_label
_atom_site_fract_x
_atom_site_fract_y
_atom_site_fract_z
Si Si1 0.402528 0.159557 0.000000
Si Si2 0.252594 0.345103 0.413543
Si Si3 0.606761 0.848504 0.838666
Si Si4 0.602632 0.654876 0.707747
Si Si5 0.901055 0.848853 0.410714
O O1 0.353723 0.198290 0.079096
O O2 0.500000 0.229249 0.000000
O O3 0.414974 0.000000 0.000000
O O4 0.273373 0.308130 0.500000
O O5 0.223228 0.500000 0.405330
O O6 0.342195 0.313703 0.367453
O O7 0.171948 0.255901 0.379555
O O8 0.500000 0.845110 0.843937
O O9 0.641323 0.746164 0.775222
O O10 0.639117 0.000000 0.818436
O O11 0.500000 0.690732 0.689670
O O12 0.613021 0.500000 0.732704
O O13 0.902645 0.840995 0.500000
O O14 0.000000 0.810928 0.380007
O O15 0.875417 0.000000 0.384550
#
# Coordination Sequence:
#
# PCOD8200706 Si02
#       5
#     4   8   8   8   8
#     4   7  10  18  33  51  67  83 108 143 178 213
#     4   9  17  27  38  52  69  93 126 157 182 210
#     4   8  13  22  36  51  66  87 116 147 179 215
#     4   9  17  27  36  48  70  98 126 156 185 208
#     4   8  14  25  40  56  72  88 107 138 184 230
#
# _framework density 13.631798
#
# number of rings (size 3 to 8) (size 9 to 14) (size 15 to 20)
#    0.000    3.667    0.000    2.000    0.000    1.778 
#    0.000    5.000    0.000    3.333    0.000    6.222 
#    0.000    0.000    0.000    1.000    0.000   19.667 
#
# Total GULP energy -445985.506326 kJ/mol
# GULP energy per Si atom -12388.486287 kJ/mol
# Density = 1.360077 g / cm^3
# Si number density = 13.631798 Si / 1000 Ang^3
#
#
#
# Elastic Constant Matrix: (Units=GPa)
#
#
# Indices 1 2 3 4 5 6 
#
# 1 57.4558 41.2046 36.0215 0.0000 0.0000 0.0000
# 2 41.2046 68.2866 46.9549 0.0000 0.0000 0.0000
# 3 36.0215 46.9549 78.8701 0.0000 0.0000 0.0000
# 4 0.0000 0.0000 0.0000 19.9261 0.0000 0.0000
# 5 0.0000 0.0000 0.0000 0.0000 1.5099 0.0000
# 6 0.0000 0.0000 0.0000 0.0000 0.0000 18.5821
#
#
#
# Elastic Compliance Matrix: (Units=1/GPa)
#
#
# Indices 1 2 3 4 5 6 
#
# 1 0.031925 -0.015641 -0.005269 0.000000 0.000000 0.000000
# 2 -0.015641 0.032457 -0.012180 0.000000 0.000000 0.000000
# 3 -0.005269 -0.012180 0.022337 0.000000 0.000000 0.000000
# 4 0.000000 0.000000 0.000000 0.050185 0.000000 0.000000
# 5 0.000000 0.000000 0.000000 0.000000 0.662305 0.000000
# 6 0.000000 0.000000 0.000000 0.000000 0.000000 0.053815
#
#
# Mechanical properties :
#
#
# Convention : Reuss Voigt Hill
#
# Bulk Modulus (GPa) = 48.68645 50.33048 49.50847
# Shear Modulus (GPa) = 5.39928 13.36571 9.38250
#
# Velocity S-wave (km/s) = 1.99234 3.13466 2.62636
# Velocity P-wave (km/s) = 6.40979 7.07835 6.75235
#
# Compressibility (1/GPa) = 0.02053959
#
# Stress axis : x y z
#
# Youngs Moduli (GPa) = 31.32362 30.81036 44.76947
#
# Poissons Ratio (x) = 0.48189 0.23590
# Poissons Ratio (y) = 0.48992 0.54527
# Poissons Ratio (z) = 0.16505 0.37526
#
# Static dielectric constant tensor:
#      x y z
#    x 2.539350 0.000000 0.000000 
#    y 0.000000 2.786500 0.000000 
#    z 0.000000 0.000000 2.786380 
# 
# 
# High freq. dielectric constant tensor:
#      x y z
#    x 1.477250 0.000000 0.000000 
#    y 0.000000 1.517740 0.000000 
#    z 0.000000 0.000000 1.501610 
# 
# From -- ./inp_files/5959.got.cif
#   From: 2010.03.12/outbox.cif.g09.slc.cpg/sg47_3_cif.got.tgz:5959.got - 2010.04.14 03:12:58.
