data_PCOD8200778
_publ_section_title
;
Structure prediction by ZEFSAII (Michael W. Deem and Ramdas Pophale) SiO2 
 PCOD8200778
Probable space group: P M M M
;
_chemical_formula_sum "Si O2"
_cell_formula_units_Z 56
_cell_length_a 9.629048
_cell_length_b 18.760913
_cell_length_c 19.115420
_cell_angle_alpha 90.000000
_cell_angle_beta 90.000000
_cell_angle_gamma 90.000000
_cell_volume 3453.195496
_symmetry_space_group_name_H-M "P M M M"
_symmetry_group_IT_number 47
_symmetry_cell_setting 'orthorhombic'
loop_
_space_group_symop_operation_xyz
x,y,z
-x,-y,z
x,-y,-z
-x,y,-z
-x,-y,-z
x,y,-z
-x,y,z
x,-y,z
loop_
_atom_site_type_symbol
_atom_site_label
_atom_site_fract_x
_atom_site_fract_y
_atom_site_fract_z
Si Si1 0.164768 0.697172 0.924097
Si Si2 0.840497 0.351531 0.221440
Si Si3 0.165203 0.078911 0.218063
Si Si4 0.337797 0.715357 0.419745
Si Si5 0.165142 0.142831 0.076236
Si Si6 0.340780 0.420267 0.667242
Si Si7 0.840004 0.789746 0.691249
O O1 0.215480 0.649061 0.858848
O O2 0.224316 0.777024 0.916717
O O3 0.000000 0.701862 0.919631
O O4 0.210468 0.664870 0.000000
O O5 0.750106 0.408261 0.263625
O O6 0.821946 0.272192 0.251751
O O7 0.000000 0.376130 0.226177
O O8 0.224935 0.096119 0.140374
O O9 0.216642 0.136904 0.274612
O O10 0.000000 0.082122 0.215208
O O11 0.217163 0.000000 0.240049
O O12 0.292166 0.720159 0.500000
O O13 0.500000 0.731596 0.409941
O O14 0.300045 0.635775 0.393137
O O15 0.251799 0.774144 0.377073
O O16 0.000000 0.144630 0.080735
O O17 0.210335 0.111320 0.000000
O O18 0.500000 0.410049 0.689456
O O19 0.313287 0.500000 0.638400
O O20 0.000000 0.796545 0.667728
#
# Coordination Sequence:
#
# PCOD8200778 Si02
#       7
#     8   8   8   8   8   8   8
#     4   8  12  19  34  56  81 109 143 183 220 248
#     4   9  15  25  43  63  84 113 148 181 210 243
#     4   9  15  22  34  55  86 121 151 179 214 255
#     4   9  18  32  50  70  88 108 135 167 204 248
#     4   8  12  18  29  49  81 117 148 178 215 256
#     4   9  18  31  46  66  91 114 133 159 202 255
#     4   9  16  27  43  64  89 115 144 176 211 250
#
# _framework density 16.216863
#
# number of rings (size 3 to 8) (size 9 to 14) (size 15 to 20)
#    0.000    3.286    1.429    0.857    0.000    1.143 
#    0.000    2.857    0.000    1.714    0.000   10.000 
#    0.000    0.571    0.000    1.286    0.000    1.429 
#
# Total GULP energy -693923.353757 kJ/mol
# GULP energy per Si atom -12391.488460 kJ/mol
# Density = 1.617995 g / cm^3
# Si number density = 16.216863 Si / 1000 Ang^3
#
#
#
# Elastic Constant Matrix: (Units=GPa)
#
#
# Indices 1 2 3 4 5 6 
#
# 1 29.2063 23.0483 38.1494 0.0000 0.0000 0.0000
# 2 23.0483 79.6913 55.2925 0.0000 0.0000 0.0000
# 3 38.1494 55.2925 143.9171 0.0000 0.0000 0.0000
# 4 0.0000 0.0000 0.0000 19.3318 0.0000 0.0000
# 5 0.0000 0.0000 0.0000 0.0000 10.0922 0.0000
# 6 0.0000 0.0000 0.0000 0.0000 0.0000 12.4857
#
#
#
# Elastic Compliance Matrix: (Units=1/GPa)
#
#
# Indices 1 2 3 4 5 6 
#
# 1 0.055900 -0.008026 -0.011735 0.000000 0.000000 0.000000
# 2 -0.008026 0.018261 -0.004889 0.000000 0.000000 0.000000
# 3 -0.011735 -0.004889 0.011937 0.000000 0.000000 0.000000
# 4 0.000000 0.000000 0.000000 0.051728 0.000000 0.000000
# 5 0.000000 0.000000 0.000000 0.000000 0.099087 0.000000
# 6 0.000000 0.000000 0.000000 0.000000 0.000000 0.080092
#
#
# Mechanical properties :
#
#
# Convention : Reuss Voigt Hill
#
# Bulk Modulus (GPa) = 27.17283 53.97723 40.57503
# Shear Modulus (GPa) = 13.20758 17.47023 15.33890
#
# Velocity S-wave (km/s) = 2.85693 3.28577 3.07882
# Velocity P-wave (km/s) = 5.26070 6.91028 6.14113
#
# Compressibility (1/GPa) = 0.03680147
#
# Stress axis : x y z
#
# Youngs Moduli (GPa) = 17.88895 54.76018 83.77157
#
# Poissons Ratio (x) = 0.43948 0.98303
# Poissons Ratio (y) = 0.14357 0.40952
# Poissons Ratio (z) = 0.20992 0.26770
#
# Static dielectric constant tensor:
#      x y z
#    x 2.660720 0.000000 0.000000 
#    y 0.000000 3.014050 0.000000 
#    z 0.000000 0.000000 3.255330 
# 
# 
# High freq. dielectric constant tensor:
#      x y z
#    x 1.572030 0.000000 0.000000 
#    y 0.000000 1.603660 0.000000 
#    z 0.000000 0.000000 1.626420 
# 
# From -- ./inp_files/9805.got.cif
#   From: 2010.03.12/outbox.cif.g09.slc.cpg/sg47_5_cif.got.tgz:9805.got - 2010.04.14 03:12:58.
