data_PCOD8200019
_publ_section_title
;
Structure prediction by ZEFSAII (Michael W. Deem and Ramdas Pophale) SiO2 
 PCOD8200019
Probable space group: P M M M
;
_chemical_formula_sum "Si O2"
_cell_formula_units_Z 64
_cell_length_a 15.300399
_cell_length_b 23.720355
_cell_length_c 8.900537
_cell_angle_alpha 90.000000
_cell_angle_beta 90.000000
_cell_angle_gamma 90.000000
_cell_volume 3230.279868
_symmetry_space_group_name_H-M "P M M M"
_symmetry_group_IT_number 47
_symmetry_cell_setting 'orthorhombic'
loop_
_space_group_symop_operation_xyz
x,y,z
-x,-y,z
x,-y,-z
-x,y,-z
-x,-y,-z
x,y,-z
-x,y,z
x,-y,z
loop_
_atom_site_type_symbol
_atom_site_label
_atom_site_fract_x
_atom_site_fract_y
_atom_site_fract_z
Si Si1 0.098874 0.637920 0.827600
Si Si2 0.098407 0.129426 0.671330
Si Si3 0.346800 0.245751 0.177130
Si Si4 0.401570 0.866444 0.327931
Si Si5 0.243446 0.435368 0.324026
Si Si6 0.251803 0.935177 0.824666
Si Si7 0.838969 0.747640 0.326965
Si Si8 0.402571 0.642661 0.327877
O O1 0.162092 0.589961 0.764916
O O2 0.106384 0.695254 0.733980
O O3 0.000000 0.615427 0.812438
O O4 0.123442 0.650412 0.000000
O O5 0.121644 0.113320 0.500000
O O6 0.164461 0.097814 0.780394
O O7 0.103610 0.196540 0.693086
O O8 0.000000 0.110467 0.711699
O O9 0.397720 0.192853 0.243961
O O10 0.248207 0.245471 0.232553
O O11 0.395075 0.302475 0.225443
O O12 0.348311 0.240591 0.000000
O O13 0.374488 0.856256 0.500000
O O14 0.500000 0.890308 0.314158
O O15 0.336437 0.912047 0.259439
O O16 0.224871 0.428788 0.500000
O O17 0.254547 0.500000 0.276634
O O18 0.332553 0.403899 0.276527
O O19 0.239334 0.000000 0.780196
O O20 0.267647 0.926730 0.000000
O O21 0.814473 0.736412 0.500000
O O22 0.385486 0.660502 0.500000
O O23 0.500000 0.617174 0.308250
#
# Coordination Sequence:
#
# PCOD8200019 Si02
#       8
#     8   8   8   8   8   8   8   8
#     4  11  24  40  60  89 123 160 200 245 303 363
#     4  10  22  40  64  93 123 159 202 248 300 358
#     4  12  23  36  60  93 127 161 197 241 300 362
#     4  11  24  42  65  92 122 160 205 250 301 361
#     4  10  22  40  62  87 116 157 207 255 302 354
#     4  11  25  43  63  89 122 162 206 253 306 360
#     4  11  21  37  63  92 123 159 199 244 299 360
#     4  10  21  38  61  89 122 160 200 244 297 358
#
# _framework density 19.812524
#
# number of rings (size 3 to 8) (size 9 to 14) (size 15 to 20)
#    0.000    1.250    2.500    3.375    0.000    7.250 
#    0.000    5.000    0.000    0.000    0.000    1.750 
#    0.000    0.000    0.000    0.000    0.000    0.000 
#
# Total GULP energy -793915.273791 kJ/mol
# GULP energy per Si atom -12404.926153 kJ/mol
# Density = 1.976743 g / cm^3
# Si number density = 19.812524 Si / 1000 Ang^3
#
#
#
# Elastic Constant Matrix: (Units=GPa)
#
#
# Indices 1 2 3 4 5 6 
#
# 1 130.6145 47.2353 51.0161 0.0000 0.0000 0.0000
# 2 47.2353 114.6905 60.8153 0.0000 0.0000 0.0000
# 3 51.0161 60.8153 116.2550 0.0000 0.0000 0.0000
# 4 0.0000 0.0000 0.0000 -26.7006 0.0000 0.0000
# 5 0.0000 0.0000 0.0000 0.0000 17.5698 0.0000
# 6 0.0000 0.0000 0.0000 0.0000 0.0000 9.7681
#
#
#
# Elastic Compliance Matrix: (Units=1/GPa)
#
#
# Indices 1 2 3 4 5 6 
#
# 1 0.009696 -0.002404 -0.002997 0.000000 0.000000 0.000000
# 2 -0.002404 0.012662 -0.005569 0.000000 0.000000 0.000000
# 3 -0.002997 -0.005569 0.012830 0.000000 0.000000 0.000000
# 4 0.000000 0.000000 0.000000 -0.037452 0.000000 0.000000
# 5 0.000000 0.000000 0.000000 0.000000 0.056916 0.000000
# 6 0.000000 0.000000 0.000000 0.000000 0.000000 0.102374
#
#
# Mechanical properties :
#
#
# Convention : Reuss Voigt Hill
#
# Bulk Modulus (GPa) = 75.48236 75.52148 75.50192
# Shear Modulus (GPa) = 27.26532 13.62702 20.44617
#
# Velocity S-wave (km/s) = 3.71370 2.62544 3.21593
# Velocity P-wave (km/s) = 7.52128 6.88414 7.20975
#
# Compressibility (1/GPa) = 0.01324813
#
# Stress axis : x y z
#
# Youngs Moduli (GPa) = 103.13276 78.97565 77.94039
#
# Poissons Ratio (x) = 0.18986 0.23362
# Poissons Ratio (y) = 0.24793 0.43404
# Poissons Ratio (z) = 0.30913 0.43981
#
# Static dielectric constant tensor:
#      x y z
#    x 3.728510 0.000000 0.000000 
#    y 0.000000 3.618150 0.000000 
#    z 0.000000 0.000000 3.689010 
# 
# 
# High freq. dielectric constant tensor:
#      x y z
#    x 1.786910 0.000000 0.000000 
#    y 0.000000 1.766940 0.000000 
#    z 0.000000 0.000000 1.777040 
# 
# From -- ./inp_files/7807.got.cif
#   From: 2010.03.12/outbox.cif.g09.slc.cpg/sg47_4_cif.got.tgz:7807.got - 2010.04.14 03:12:58.
