data_PCOD8200300
_publ_section_title
;
Structure prediction by ZEFSAII (Michael W. Deem and Ramdas Pophale) SiO2 
 PCOD8200300
Probable space group: P M M M
;
_chemical_formula_sum "Si O2"
_cell_formula_units_Z 60
_cell_length_a 19.773186
_cell_length_b 28.526226
_cell_length_c 9.180452
_cell_angle_alpha 90.000000
_cell_angle_beta 90.000000
_cell_angle_gamma 90.000000
_cell_volume 5178.274093
_symmetry_space_group_name_H-M "P M M M"
_symmetry_group_IT_number 47
_symmetry_cell_setting 'orthorhombic'
loop_
_space_group_symop_operation_xyz
x,y,z
-x,-y,z
x,-y,-z
-x,y,-z
-x,-y,-z
x,y,-z
-x,y,z
x,-y,z
loop_
_atom_site_type_symbol
_atom_site_label
_atom_site_fract_x
_atom_site_fract_y
_atom_site_fract_z
Si Si1 0.080531 0.730079 0.164100
Si Si2 0.282117 0.945109 0.828081
Si Si3 0.919241 0.640234 0.663669
Si Si4 0.077381 0.821010 0.331704
Si Si5 0.919598 0.448373 0.163697
Si Si6 0.080010 0.000000 0.167944
Si Si7 0.847236 0.083675 0.671494
Si Si8 0.571453 0.944388 0.163663
O O1 0.109277 0.684649 0.247493
O O2 0.106607 0.777383 0.240674
O O3 0.000000 0.729056 0.168009
O O4 0.108260 0.728950 0.000000
O O5 0.228376 0.915984 0.735063
O O6 0.356609 0.928429 0.767771
O O7 0.269457 0.000000 0.798447
O O8 0.275288 0.934534 0.000000
O O9 0.891713 0.643695 0.500000
O O10 0.890001 0.592256 0.733136
O O11 0.000000 0.640005 0.666744
O O12 0.082530 0.807051 0.500000
O O13 0.122003 0.865842 0.293805
O O14 0.000000 0.832356 0.288835
O O15 0.896077 0.500000 0.218982
O O16 0.000000 0.446030 0.164166
O O17 0.893004 0.439750 0.000000
O O18 0.107400 0.045808 0.246975
O O19 0.000000 0.000000 0.179492
O O20 0.104525 0.000000 0.000000
O O21 0.846672 0.072571 0.500000
O O22 0.500000 0.928279 0.242291
O O23 0.573800 0.000000 0.159011
O O24 0.569023 0.924876 0.000000
#
# Coordination Sequence:
#
# PCOD8200300 Si02
#       8
#     8   8   8   8   8   4   8   8
#     4   9  16  25  37  50  60  71  90 118 152 186
#     4   9  16  26  40  56  74  92 109 129 149 173
#     4   9  15  21  30  43  58  75  93 114 141 175
#     4   9  18  31  42  50  61  77  99 127 157 189
#     4   8  13  20  28  38  54  75  96 117 140 167
#     4  11  23  35  45  55  66  81 104 133 159 186
#     4  11  21  31  43  56  70  88 105 124 154 193
#     4   7  10  18  34  55  74  91 111 130 145 164
#
# _framework density 11.586871
#
# number of rings (size 3 to 8) (size 9 to 14) (size 15 to 20)
#    0.000    3.000    0.667    3.400    0.000    5.600 
#    0.000    2.667    0.000    0.400    0.000    1.867 
#    0.000    0.000    0.000    0.000    0.000    0.000 
#
# Total GULP energy -743399.054642 kJ/mol
# GULP energy per Si atom -12389.984244 kJ/mol
# Density = 1.156050 g / cm^3
# Si number density = 11.586871 Si / 1000 Ang^3
#
#
#
# Elastic Constant Matrix: (Units=GPa)
#
#
# Indices 1 2 3 4 5 6 
#
# 1 55.5458 28.4403 25.1830 0.0000 0.0000 0.0000
# 2 28.4403 88.9104 53.1799 0.0000 0.0000 0.0000
# 3 25.1830 53.1799 74.6002 0.0000 0.0000 0.0000
# 4 0.0000 0.0000 0.0000 20.5885 0.0000 0.0000
# 5 0.0000 0.0000 0.0000 0.0000 6.8707 0.0000
# 6 0.0000 0.0000 0.0000 0.0000 0.0000 0.6907
#
#
#
# Elastic Compliance Matrix: (Units=1/GPa)
#
#
# Indices 1 2 3 4 5 6 
#
# 1 0.022278 -0.004581 -0.004254 0.000000 0.000000 0.000000
# 2 -0.004581 0.020550 -0.013103 0.000000 0.000000 0.000000
# 3 -0.004254 -0.013103 0.024181 0.000000 0.000000 0.000000
# 4 0.000000 0.000000 0.000000 0.048571 0.000000 0.000000
# 5 0.000000 0.000000 0.000000 0.000000 0.145545 0.000000
# 6 0.000000 0.000000 0.000000 0.000000 0.000000 1.447780
#
#
# Mechanical properties :
#
#
# Convention : Reuss Voigt Hill
#
# Bulk Modulus (GPa) = 43.23028 48.07364 45.65196
# Shear Modulus (GPa) = 2.84011 13.11353 7.97682
#
# Velocity S-wave (km/s) = 1.56731 3.36781 2.62665
# Velocity P-wave (km/s) = 6.37699 7.53012 6.97742
#
# Compressibility (1/GPa) = 0.02313193
#
# Stress axis : x y z
#
# Youngs Moduli (GPa) = 44.88777 48.66210 41.35409
#
# Poissons Ratio (x) = 0.22294 0.17594
# Poissons Ratio (y) = 0.20565 0.54185
# Poissons Ratio (z) = 0.19097 0.63760
#
# Static dielectric constant tensor:
#      x y z
#    x 2.319470 0.000000 0.000000 
#    y 0.000000 2.423230 0.000000 
#    z 0.000000 0.000000 2.484140 
# 
# 
# High freq. dielectric constant tensor:
#      x y z
#    x 1.389730 0.000000 0.000000 
#    y 0.000000 1.422820 0.000000 
#    z 0.000000 0.000000 1.441060 
# 
# From -- ./inp_files/11985.got.cif
#   From: 2010.03.12/outbox.cif.g09.slc.cpg/sg47_6_cif.got.tgz:11985.got - 2010.04.14 03:12:58.
