data_PCOD8200694
_publ_section_title
;
Structure prediction by ZEFSAII (Michael W. Deem and Ramdas Pophale) SiO2 
 PCOD8200694
Probable space group: P M M M
;
_chemical_formula_sum "Si O2"
_cell_formula_units_Z 44
_cell_length_a 19.232174
_cell_length_b 13.942131
_cell_length_c 9.660112
_cell_angle_alpha 90.000000
_cell_angle_beta 90.000000
_cell_angle_gamma 90.000000
_cell_volume 2590.238178
_symmetry_space_group_name_H-M "P M M M"
_symmetry_group_IT_number 47
_symmetry_cell_setting 'orthorhombic'
loop_
_space_group_symop_operation_xyz
x,y,z
-x,-y,z
x,-y,-z
-x,y,-z
-x,-y,-z
x,y,-z
-x,y,z
x,-y,z
loop_
_atom_site_type_symbol
_atom_site_label
_atom_site_fract_x
_atom_site_fract_y
_atom_site_fract_z
Si Si1 0.678350 0.108543 0.340939
Si Si2 0.420228 0.719929 0.338832
Si Si3 0.317266 0.608890 0.158827
Si Si4 0.076740 0.704983 0.834853
Si Si5 0.081196 0.500000 0.851012
Si Si6 0.218791 0.782751 0.839477
O O1 0.700442 0.121109 0.500000
O O2 0.613846 0.177093 0.303402
O O3 0.745312 0.134435 0.249333
O O4 0.655117 0.000000 0.308567
O O5 0.412494 0.694943 0.500000
O O6 0.500000 0.725586 0.292949
O O7 0.383153 0.636099 0.252998
O O8 0.293989 0.500000 0.192580
O O9 0.252964 0.679073 0.191777
O O10 0.340883 0.619210 0.000000
O O11 0.097574 0.599913 0.770859
O O12 0.137477 0.779192 0.793492
O O13 0.000000 0.739494 0.782395
O O14 0.075060 0.692757 0.000000
O O15 0.000000 0.500000 0.881139
O O16 0.121194 0.500000 0.000000
O O17 0.226487 0.810175 0.000000
#
# Coordination Sequence:
#
# PCOD8200694 Si02
#       6
#     8   8   8   8   4   8
#     4   9  18  33  51  68  87 112 142 179 226 276
#     4   9  18  32  49  69  90 111 142 184 224 263
#     4   9  18  30  43  63  93 127 156 179 209 253
#     4   8  13  21  36  61  91 119 147 182 222 257
#     4   7  10  16  28  52  85 115 140 169 208 250
#     4   9  17  28  45  68  92 118 149 186 221 258
#
# _framework density 16.986856
#
# number of rings (size 3 to 8) (size 9 to 14) (size 15 to 20)
#    0.000    3.364    0.000    1.091    1.273    1.818 
#    0.000    3.636    0.000    1.091    0.000    8.909 
#    0.000    2.182    0.000    0.000    0.000    0.000 
#
# Total GULP energy -545206.787107 kJ/mol
# GULP energy per Si atom -12391.063343 kJ/mol
# Density = 1.694819 g / cm^3
# Si number density = 16.986856 Si / 1000 Ang^3
#
#
#
# Elastic Constant Matrix: (Units=GPa)
#
#
# Indices 1 2 3 4 5 6 
#
# 1 98.4791 15.2576 27.6352 0.0000 0.0000 0.0000
# 2 15.2576 60.0794 20.4870 0.0000 0.0000 0.0000
# 3 27.6352 20.4870 33.8289 0.0000 0.0000 0.0000
# 4 0.0000 0.0000 0.0000 20.9422 0.0000 0.0000
# 5 0.0000 0.0000 0.0000 0.0000 14.0029 0.0000
# 6 0.0000 0.0000 0.0000 0.0000 0.0000 17.4353
#
#
#
# Elastic Compliance Matrix: (Units=1/GPa)
#
#
# Indices 1 2 3 4 5 6 
#
# 1 0.013183 0.000409 -0.011017 0.000000 0.000000 0.000000
# 2 0.000409 0.020989 -0.013045 0.000000 0.000000 0.000000
# 3 -0.011017 -0.013045 0.046460 0.000000 0.000000 0.000000
# 4 0.000000 0.000000 0.000000 0.047750 0.000000 0.000000
# 5 0.000000 0.000000 0.000000 0.000000 0.071414 0.000000
# 6 0.000000 0.000000 0.000000 0.000000 0.000000 0.057355
#
#
# Mechanical properties :
#
#
# Convention : Reuss Voigt Hill
#
# Bulk Modulus (GPa) = 30.00636 35.46077 32.73357
# Shear Modulus (GPa) = 15.84458 19.07660 17.46059
#
# Velocity S-wave (km/s) = 3.05742 3.35479 3.20955
# Velocity P-wave (km/s) = 5.49241 5.99390 5.74863
#
# Compressibility (1/GPa) = 0.03332627
#
# Stress axis : x y z
#
# Youngs Moduli (GPa) = 75.85779 47.64357 21.52377
#
# Poissons Ratio (x) = -0.01948 0.23712
# Poissons Ratio (y) = -0.03101 0.28078
# Poissons Ratio (z) = 0.83569 0.62152
#
# Static dielectric constant tensor:
#      x y z
#    x 3.269810 0.000000 0.000000 
#    y 0.000000 3.152140 0.000000 
#    z 0.000000 0.000000 2.902590 
# 
# 
# High freq. dielectric constant tensor:
#      x y z
#    x 1.653520 0.000000 0.000000 
#    y 0.000000 1.641000 0.000000 
#    z 0.000000 0.000000 1.617270 
# 
# From -- ./inp_files/10868.got.cif
#   From: 2010.03.12/outbox.cif.g09.slc.cpg/sg47_6_cif.got.tgz:10868.got - 2010.04.14 03:12:58.
