data_PCOD8200194
_publ_section_title
;
Structure prediction by ZEFSAII (Michael W. Deem and Ramdas Pophale) SiO2 
 PCOD8200194
Probable space group: P M M M
;
_chemical_formula_sum "Si O2"
_cell_formula_units_Z 64
_cell_length_a 18.710150
_cell_length_b 26.169765
_cell_length_c 8.983939
_cell_angle_alpha 90.000000
_cell_angle_beta 90.000000
_cell_angle_gamma 90.000000
_cell_volume 4398.897946
_symmetry_space_group_name_H-M "P M M M"
_symmetry_group_IT_number 47
_symmetry_cell_setting 'orthorhombic'
loop_
_space_group_symop_operation_xyz
x,y,z
-x,-y,z
x,-y,-z
-x,y,-z
-x,-y,-z
x,y,-z
-x,y,z
x,-y,z
loop_
_atom_site_type_symbol
_atom_site_label
_atom_site_fract_x
_atom_site_fract_y
_atom_site_fract_z
Si Si1 0.842084 0.148886 0.322165
Si Si2 0.580767 0.738925 0.677831
Si Si3 0.079504 0.750672 0.322529
Si Si4 0.918677 0.058222 0.826963
Si Si5 0.706936 0.200284 0.662782
Si Si6 0.418013 0.440823 0.328635
Si Si7 0.339944 0.353214 0.824528
Si Si8 0.213010 0.692806 0.664564
O O1 0.839684 0.148651 0.500000
O O2 0.895405 0.193391 0.264826
O O3 0.866194 0.094110 0.264903
O O4 0.761335 0.160432 0.257743
O O5 0.589595 0.733468 0.500000
O O6 0.500000 0.751232 0.724483
O O7 0.630718 0.785911 0.740232
O O8 0.604816 0.686008 0.750064
O O9 0.079791 0.751468 0.500000
O O10 0.133616 0.705450 0.269454
O O11 0.000000 0.739723 0.259575
O O12 0.000000 0.067520 0.774920
O O13 0.896337 0.000000 0.793915
O O14 0.910879 0.070759 0.000000
O O15 0.689572 0.178003 0.500000
O O16 0.748252 0.253388 0.648599
O O17 0.404741 0.425627 0.500000
O O18 0.500000 0.429051 0.285399
O O19 0.400644 0.500000 0.302542
O O20 0.364728 0.409480 0.223262
O O21 0.258021 0.344307 0.772000
O O22 0.343155 0.347006 0.000000
O O23 0.207688 0.667480 0.500000
#
# Coordination Sequence:
#
# PCOD8200194 Si02
#       8
#     8   8   8   8   8   8   8   8
#     4   9  15  24  40  58  76  98 124 156 192 228
#     4   9  16  27  43  58  74 102 136 160 182 224
#     4   8  13  22  39  62  82 100 127 164 200 228
#     4   9  18  30  39  49  71 101 129 158 190 222
#     4   7  12  23  37  55  76  96 121 154 188 219
#     4   9  18  32  47  60  75  99 132 165 194 229
#     4  11  20  27  38  57  82 108 132 161 195 225
#     4   8  14  26  41  54  74 105 135 159 185 226
#
# _framework density 14.549099999999999
#
# number of rings (size 3 to 8) (size 9 to 14) (size 15 to 20)
#    0.000    3.250    0.000    4.875    0.000    3.250 
#    0.000    6.875    0.000    1.125    0.000    0.000 
#    0.000    1.000    0.000   12.000    0.000    2.625 
#
# Total GULP energy -792836.058955 kJ/mol
# GULP energy per Si atom -12388.063421 kJ/mol
# Density = 1.451599 g / cm^3
# Si number density = 14.549100 Si / 1000 Ang^3
#
#
#
# Elastic Constant Matrix: (Units=GPa)
#
#
# Indices 1 2 3 4 5 6 
#
# 1 123.5008 51.5722 28.1634 0.0000 0.0000 0.0000
# 2 51.5722 64.2232 24.7123 0.0000 0.0000 0.0000
# 3 28.1634 24.7123 38.5476 0.0000 0.0000 0.0000
# 4 0.0000 0.0000 0.0000 4.3867 0.0000 0.0000
# 5 0.0000 0.0000 0.0000 0.0000 9.9553 0.0000
# 6 0.0000 0.0000 0.0000 0.0000 0.0000 25.9369
#
#
#
# Elastic Compliance Matrix: (Units=1/GPa)
#
#
# Indices 1 2 3 4 5 6 
#
# 1 0.012546 -0.008692 -0.003594 0.000000 0.000000 0.000000
# 2 -0.008692 0.026691 -0.010761 0.000000 0.000000 0.000000
# 3 -0.003594 -0.010761 0.035467 0.000000 0.000000 0.000000
# 4 0.000000 0.000000 0.000000 0.227964 0.000000 0.000000
# 5 0.000000 0.000000 0.000000 0.000000 0.100449 0.000000
# 6 0.000000 0.000000 0.000000 0.000000 0.000000 0.038555
#
#
# Mechanical properties :
#
#
# Convention : Reuss Voigt Hill
#
# Bulk Modulus (GPa) = 34.95285 48.35193 41.65239
# Shear Modulus (GPa) = 10.05424 16.17734 13.11579
#
# Velocity S-wave (km/s) = 2.63165 3.33815 3.00573
# Velocity P-wave (km/s) = 5.77151 6.93999 6.38255
#
# Compressibility (1/GPa) = 0.02860997
#
# Stress axis : x y z
#
# Youngs Moduli (GPa) = 79.70434 37.46578 28.19550
#
# Poissons Ratio (x) = 0.32565 0.10134
# Poissons Ratio (y) = 0.69278 0.30341
# Poissons Ratio (z) = 0.28648 0.40316
#
# Static dielectric constant tensor:
#      x y z
#    x 3.280120 0.000000 0.000000 
#    y 0.000000 2.636750 0.000000 
#    z 0.000000 0.000000 2.561080 
# 
# 
# High freq. dielectric constant tensor:
#      x y z
#    x 1.555220 0.000000 0.000000 
#    y 0.000000 1.521840 0.000000 
#    z 0.000000 0.000000 1.529900 
# 
# From -- ./inp_files/11931.got.cif
#   From: 2010.03.12/outbox.cif.g09.slc.cpg/sg47_6_cif.got.tgz:11931.got - 2010.04.14 03:12:58.
