data_PCOD8200902
_publ_section_title
;
Structure prediction by ZEFSAII (Michael W. Deem and Ramdas Pophale) SiO2 
 PCOD8200902
Probable space group: P M M M
;
_chemical_formula_sum "Si O2"
_cell_formula_units_Z 48
_cell_length_a 7.737012
_cell_length_b 34.593821
_cell_length_c 9.822977
_cell_angle_alpha 90.000000
_cell_angle_beta 90.000000
_cell_angle_gamma 90.000000
_cell_volume 2629.147379
_symmetry_space_group_name_H-M "P M M M"
_symmetry_group_IT_number 47
_symmetry_cell_setting 'orthorhombic'
loop_
_space_group_symop_operation_xyz
x,y,z
-x,-y,z
x,-y,-z
-x,y,-z
-x,-y,-z
x,y,-z
-x,y,z
x,-y,z
loop_
_atom_site_type_symbol
_atom_site_label
_atom_site_fract_x
_atom_site_fract_y
_atom_site_fract_z
Si Si1 0.200962 0.107404 0.150640
Si Si2 0.703542 0.191320 0.152571
Si Si3 0.000000 0.404372 0.336977
Si Si4 0.205527 0.042912 0.651879
Si Si5 0.691921 0.543271 0.661846
Si Si6 0.000000 0.681909 0.660343
Si Si7 0.699995 0.261373 0.659058
O O1 0.230181 0.150315 0.210258
O O2 0.287402 0.075193 0.248246
O O3 0.000000 0.098555 0.140172
O O4 0.285913 0.104626 0.000000
O O5 0.500000 0.190474 0.147034
O O6 0.765039 0.224436 0.255771
O O7 0.778497 0.198869 0.000000
O O8 0.830803 0.426416 0.279876
O O9 0.000000 0.361040 0.275905
O O10 0.000000 0.404067 0.500000
O O11 0.277371 0.050405 0.500000
O O12 0.000000 0.046059 0.649628
O O13 0.261283 0.000000 0.701496
O O14 0.698068 0.543511 0.500000
O O15 0.500000 0.555392 0.711892
O O16 0.736612 0.500000 0.713735
O O17 0.824278 0.703648 0.705732
O O18 0.000000 0.677936 0.500000
O O19 0.724183 0.251664 0.500000
O O20 0.500000 0.272329 0.690785
#
# Coordination Sequence:
#
# PCOD8200902 Si02
#       7
#     8   8   4   8   8   4   8
#     4   9  17  27  41  64  87 105 132 172 213 251
#     4   9  18  32  48  65  86 112 141 176 219 265
#     4   9  15  22  33  49  71 101 138 181 227 266
#     4   8  14  25  40  59  85 114 141 169 203 246
#     4   8  13  20  30  46  69  99 138 183 226 265
#     4   9  18  29  41  60  83 111 149 189 228 272
#     4   9  18  32  47  63  86 115 146 182 224 269
#
# _framework density 18.256868999999998
#
# number of rings (size 3 to 8) (size 9 to 14) (size 15 to 20)
#    0.000    3.333    0.000    1.250    1.167    2.667 
#    0.000    5.000    0.000    0.500    0.000    3.500 
#    0.000    0.000    0.000    0.000    0.000    6.667 
#
# Total GULP energy -594847.838632 kJ/mol
# GULP energy per Si atom -12392.663305 kJ/mol
# Density = 1.821532 g / cm^3
# Si number density = 18.256869 Si / 1000 Ang^3
#
#
#
# Elastic Constant Matrix: (Units=GPa)
#
#
# Indices 1 2 3 4 5 6 
#
# 1 73.4795 67.4144 23.8106 0.0000 0.0000 0.0000
# 2 67.4144 182.5621 59.4884 0.0000 0.0000 0.0000
# 3 23.8106 59.4884 47.3131 0.0000 0.0000 0.0000
# 4 0.0000 0.0000 0.0000 4.0333 0.0000 0.0000
# 5 0.0000 0.0000 0.0000 0.0000 7.2952 0.0000
# 6 0.0000 0.0000 0.0000 0.0000 0.0000 -8.3495
#
#
#
# Elastic Compliance Matrix: (Units=1/GPa)
#
#
# Indices 1 2 3 4 5 6 
#
# 1 0.020634 -0.007176 -0.001362 0.000000 0.000000 0.000000
# 2 -0.007176 0.011775 -0.011194 0.000000 0.000000 0.000000
# 3 -0.001362 -0.011194 0.035895 0.000000 0.000000 0.000000
# 4 0.000000 0.000000 0.000000 0.247935 0.000000 0.000000
# 5 0.000000 0.000000 0.000000 0.000000 0.137077 0.000000
# 6 0.000000 0.000000 0.000000 0.000000 0.000000 -0.119768
#
#
# Mechanical properties :
#
#
# Convention : Reuss Voigt Hill
#
# Bulk Modulus (GPa) = 34.67214 67.19794 50.93504
# Shear Modulus (GPa) = 13.06761 10.77188 11.91975
#
# Velocity S-wave (km/s) = 2.67828 2.43166 2.55795
# Velocity P-wave (km/s) = 5.34759 6.69110 6.05671
#
# Compressibility (1/GPa) = 0.02884160
#
# Stress axis : x y z
#
# Youngs Moduli (GPa) = 48.46382 84.92683 27.85867
#
# Poissons Ratio (x) = 0.60941 0.03794
# Poissons Ratio (y) = 0.34776 0.31184
# Poissons Ratio (z) = 0.06600 0.95065
#
# Static dielectric constant tensor:
#      x y z
#    x 3.323480 0.000000 0.000000 
#    y 0.000000 3.627080 0.000000 
#    z 0.000000 0.000000 3.251590 
# 
# 
# High freq. dielectric constant tensor:
#      x y z
#    x 1.701970 0.000000 0.000000 
#    y 0.000000 1.707480 0.000000 
#    z 0.000000 0.000000 1.657280 
# 
# From -- ./inp_files/2620.got.cif
#   From: 2010.03.12/outbox.cif.g09.slc.cpg/sg47_2_cif.got.tgz:2620.got - 2010.04.14 03:12:58.
