data_PCOD8200650
_publ_section_title
;
Structure prediction by ZEFSAII (Michael W. Deem and Ramdas Pophale) SiO2 
 PCOD8200650
Probable space group: P M M M
;
_chemical_formula_sum "Si O2"
_cell_formula_units_Z 64
_cell_length_a 14.412625
_cell_length_b 9.063012
_cell_length_c 25.590605
_cell_angle_alpha 90.000000
_cell_angle_beta 90.000000
_cell_angle_gamma 90.000000
_cell_volume 3342.690717
_symmetry_space_group_name_H-M "P M M M"
_symmetry_group_IT_number 47
_symmetry_cell_setting 'orthorhombic'
loop_
_space_group_symop_operation_xyz
x,y,z
-x,-y,z
x,-y,-z
-x,y,-z
-x,-y,-z
x,y,-z
-x,y,z
x,-y,z
loop_
_atom_site_type_symbol
_atom_site_label
_atom_site_fract_x
_atom_site_fract_y
_atom_site_fract_z
Si Si1 0.718718 0.325835 0.353178
Si Si2 0.391614 0.832272 0.440182
Si Si3 0.891136 0.159333 0.790475
Si Si4 0.609154 0.167735 0.143897
Si Si5 0.895340 0.823688 0.902772
Si Si6 0.392848 0.172314 0.262228
Si Si7 0.725508 0.669513 0.942044
Si Si8 0.894861 0.823615 0.322899
O O1 0.726695 0.500000 0.349417
O O2 0.662193 0.282942 0.404558
O O3 0.669397 0.265689 0.301364
O O4 0.821449 0.255730 0.360481
O O5 0.363632 0.802681 0.500000
O O6 0.500000 0.805511 0.431807
O O7 0.366071 0.000000 0.424309
O O8 0.862916 0.238029 0.844960
O O9 0.870518 0.240478 0.735562
O O10 0.000000 0.131202 0.794250
O O11 0.840591 0.000000 0.788319
O O12 0.500000 0.190853 0.139904
O O13 0.641196 0.206644 0.203059
O O14 0.656141 0.271267 0.101530
O O15 0.636522 0.000000 0.130768
O O16 0.824125 0.753390 0.943171
O O17 0.000000 0.773215 0.916769
O O18 0.888808 0.000000 0.903793
O O19 0.500000 0.218654 0.269255
O O20 0.381141 0.000000 0.275060
O O21 0.744736 0.500000 0.929780
O O22 0.681807 0.690670 0.000000
O O23 0.000000 0.780387 0.339153
O O24 0.883586 0.000000 0.324486
#
# Coordination Sequence:
#
# PCOD8200650 Si02
#       8
#     8   8   8   8   8   8   8   8
#     4  12  24  33  50  85 125 159 186 222 277 336
#     4   9  19  38  63  87 112 148 197 247 285 321
#     4   7  12  26  49  75  98 124 166 219 269 313
#     4   9  20  40  64  85 103 131 177 232 281 322
#     4   9  18  34  57  82 105 133 176 228 274 318
#     4   9  19  37  59  82 110 144 182 224 271 326
#     4  11  25  40  53  75 109 145 177 214 269 339
#     4   9  18  34  55  77 106 149 197 238 275 319
#
# _framework density 19.146252
#
# number of rings (size 3 to 8) (size 9 to 14) (size 15 to 20)
#    0.000    2.625    0.000    4.500    1.750    5.000 
#    0.000    4.375    0.000    2.625    0.000    2.625 
#    0.000    0.000    0.000    0.000    0.000    0.000 
#
# Total GULP energy -793140.201315 kJ/mol
# GULP energy per Si atom -12392.815646 kJ/mol
# Density = 1.910267 g / cm^3
# Si number density = 19.146252 Si / 1000 Ang^3
#
#
#
# Elastic Constant Matrix: (Units=GPa)
#
#
# Indices 1 2 3 4 5 6 
#
# 1 73.0978 44.3517 47.8381 0.0000 0.0000 0.0000
# 2 44.3517 80.9271 45.4956 0.0000 0.0000 0.0000
# 3 47.8381 45.4956 95.5215 0.0000 0.0000 0.0000
# 4 0.0000 0.0000 0.0000 19.9727 0.0000 0.0000
# 5 0.0000 0.0000 0.0000 0.0000 27.2094 0.0000
# 6 0.0000 0.0000 0.0000 0.0000 0.0000 -2.2120
#
#
#
# Elastic Compliance Matrix: (Units=1/GPa)
#
#
# Indices 1 2 3 4 5 6 
#
# 1 0.024219 -0.008814 -0.007931 0.000000 0.000000 0.000000
# 2 -0.008814 0.020083 -0.005151 0.000000 0.000000 0.000000
# 3 -0.007931 -0.005151 0.016894 0.000000 0.000000 0.000000
# 4 0.000000 0.000000 0.000000 0.050068 0.000000 0.000000
# 5 0.000000 0.000000 0.000000 0.000000 0.036752 0.000000
# 6 0.000000 0.000000 0.000000 0.000000 0.000000 -0.452086
#
#
# Mechanical properties :
#
#
# Convention : Reuss Voigt Hill
#
# Bulk Modulus (GPa) = 57.45961 58.32414 57.89187
# Shear Modulus (GPa) = -19.64822 16.45141 -1.59840
#
# Velocity S-wave (km/s) = -3.20694 2.93448 -0.91469
# Velocity P-wave (km/s) = 4.04517 6.48152 5.40248
#
# Compressibility (1/GPa) = 0.01740353
#
# Stress axis : x y z
#
# Youngs Moduli (GPa) = 41.29058 49.79250 59.19244
#
# Poissons Ratio (x) = 0.43889 0.46944
# Poissons Ratio (y) = 0.36395 0.30491
# Poissons Ratio (z) = 0.32746 0.25649
#
# Static dielectric constant tensor:
#      x y z
#    x 3.514570 0.000000 0.000000 
#    y 0.000000 3.176080 0.000000 
#    z 0.000000 0.000000 3.590990 
# 
# 
# High freq. dielectric constant tensor:
#      x y z
#    x 1.748080 0.000000 0.000000 
#    y 0.000000 1.711800 0.000000 
#    z 0.000000 0.000000 1.738840 
# 
# From -- ./inp_files/32791.got.cif
#   From: 2010.03.12/outbox.cif.g09.slc.cpg/sg47_17_cif.got.tgz:32791.got - 2010.04.14 03:12:58.
