data_PCOD8200621
_publ_section_title
;
Structure prediction by ZEFSAII (Michael W. Deem and Ramdas Pophale) SiO2 
 PCOD8200621
Probable space group: P M M M
;
_chemical_formula_sum "Si O2"
_cell_formula_units_Z 40
_cell_length_a 25.396087
_cell_length_b 9.423049
_cell_length_c 9.468899
_cell_angle_alpha 90.000000
_cell_angle_beta 90.000000
_cell_angle_gamma 90.000000
_cell_volume 2265.988700
_symmetry_space_group_name_H-M "P M M M"
_symmetry_group_IT_number 47
_symmetry_cell_setting 'orthorhombic'
loop_
_space_group_symop_operation_xyz
x,y,z
-x,-y,z
x,-y,-z
-x,y,-z
-x,-y,-z
x,y,-z
-x,y,z
x,-y,z
loop_
_atom_site_type_symbol
_atom_site_label
_atom_site_fract_x
_atom_site_fract_y
_atom_site_fract_z
Si Si1 0.903876 0.330979 0.657275
Si Si2 0.294198 0.165281 0.158455
Si Si3 0.415191 0.164035 0.163577
Si Si4 0.500000 0.332811 0.665964
Si Si5 0.000000 0.669501 0.158748
Si Si6 0.787414 0.340158 0.333088
O O1 0.915579 0.271905 0.500000
O O2 0.905407 0.500000 0.652165
O O3 0.948000 0.270983 0.763295
O O4 0.845742 0.283328 0.709034
O O5 0.354537 0.197310 0.197272
O O6 0.256904 0.243623 0.266617
O O7 0.282593 0.000000 0.170861
O O8 0.282320 0.218474 0.000000
O O9 0.448442 0.265092 0.264365
O O10 0.428477 0.000000 0.196339
O O11 0.428159 0.196661 0.000000
O O12 0.500000 0.500000 0.695524
O O13 0.500000 0.299130 0.500000
O O14 0.000000 0.500000 0.160378
O O15 0.000000 0.728783 0.000000
O O16 0.781120 0.334877 0.500000
O O17 0.779724 0.500000 0.277190
#
# Coordination Sequence:
#
# PCOD8200621 Si02
#       6
#     8   8   8   4   4   8
#     4   8  14  25  39  56  84 122 157 189 232 285
#     4   9  19  35  53  74  99 127 162 202 242 286
#     4   9  19  37  58  76  96 127 167 205 239 282
#     4  11  24  37  50  76 110 135 158 195 242 288
#     4   9  15  21  33  57  86 115 152 197 238 278
#     4   9  18  31  47  70  99 129 162 200 242 289
#
# _framework density 17.652336999999999
#
# number of rings (size 3 to 8) (size 9 to 14) (size 15 to 20)
#    0.000    3.000    0.000    3.300    0.000    6.800 
#    0.000    8.000    0.000    0.000    0.000    0.700 
#    0.000    5.600    0.000    0.000    0.000    0.000 
#
# Total GULP energy -495875.667907 kJ/mol
# GULP energy per Si atom -12396.891698 kJ/mol
# Density = 1.761216 g / cm^3
# Si number density = 17.652337 Si / 1000 Ang^3
#
#
#
# Elastic Constant Matrix: (Units=GPa)
#
#
# Indices 1 2 3 4 5 6 
#
# 1 141.1640 54.2086 75.9683 0.0000 0.0000 0.0000
# 2 54.2086 51.2066 43.2553 0.0000 0.0000 0.0000
# 3 75.9683 43.2553 93.7562 0.0000 0.0000 0.0000
# 4 0.0000 0.0000 0.0000 26.6284 0.0000 0.0000
# 5 0.0000 0.0000 0.0000 0.0000 33.4356 0.0000
# 6 0.0000 0.0000 0.0000 0.0000 0.0000 -71.2826
#
#
#
# Elastic Compliance Matrix: (Units=1/GPa)
#
#
# Indices 1 2 3 4 5 6 
#
# 1 0.014736 -0.009035 -0.007772 0.000000 0.000000 0.000000
# 2 -0.009035 0.037539 -0.009998 0.000000 0.000000 0.000000
# 3 -0.007772 -0.009998 0.021576 0.000000 0.000000 0.000000
# 4 0.000000 0.000000 0.000000 0.037554 0.000000 0.000000
# 5 0.000000 0.000000 0.000000 0.000000 0.029908 0.000000
# 6 0.000000 0.000000 0.000000 0.000000 0.000000 -0.014029
#
#
# Mechanical properties :
#
#
# Convention : Reuss Voigt Hill
#
# Bulk Modulus (GPa) = 49.40434 70.33235 59.86835
# Shear Modulus (GPa) = 26.64661 5.26927 15.95794
#
# Velocity S-wave (km/s) = 3.88947 1.72960 3.00994
# Velocity P-wave (km/s) = 6.94398 6.62708 6.78738
#
# Compressibility (1/GPa) = 0.02024114
#
# Stress axis : x y z
#
# Youngs Moduli (GPa) = 67.86163 26.63899 46.34764
#
# Poissons Ratio (x) = 0.24068 0.36021
# Poissons Ratio (y) = 0.61311 0.46340
# Poissons Ratio (z) = 0.52741 0.26634
#
# Static dielectric constant tensor:
#      x y z
#    x 3.456050 0.000000 0.000000 
#    y 0.000000 2.912320 0.000000 
#    z 0.000000 0.000000 3.293630 
# 
# 
# High freq. dielectric constant tensor:
#      x y z
#    x 1.698050 0.000000 0.000000 
#    y 0.000000 1.642090 0.000000 
#    z 0.000000 0.000000 1.681050 
# 
# From -- ./inp_files/13016.got.cif
#   From: 2010.03.12/outbox.cif.g09.slc.cpg/sg47_7_cif.got.tgz:13016.got - 2010.04.14 03:12:58.
