data_PCOD8200690
_publ_section_title
;
Structure prediction by ZEFSAII (Michael W. Deem and Ramdas Pophale) SiO2 
 PCOD8200690
Probable space group: P M M M
;
_chemical_formula_sum "Si O2"
_cell_formula_units_Z 56
_cell_length_a 9.540977
_cell_length_b 21.127863
_cell_length_c 18.895407
_cell_angle_alpha 90.000000
_cell_angle_beta 90.000000
_cell_angle_gamma 90.000000
_cell_volume 3808.944739
_symmetry_space_group_name_H-M "P M M M"
_symmetry_group_IT_number 47
_symmetry_cell_setting 'orthorhombic'
loop_
_space_group_symop_operation_xyz
x,y,z
-x,-y,z
x,-y,-z
-x,y,-z
-x,-y,-z
x,y,-z
-x,y,z
x,-y,z
loop_
_atom_site_type_symbol
_atom_site_label
_atom_site_fract_x
_atom_site_fract_y
_atom_site_fract_z
Si Si1 0.337031 0.192092 0.280078
Si Si2 0.340085 0.929761 0.191708
Si Si3 0.658597 0.500000 0.083915
Si Si4 0.667316 0.863999 0.578338
Si Si5 0.651504 0.000000 0.416928
Si Si6 0.837154 0.380668 0.917847
Si Si7 0.162953 0.867252 0.080465
Si Si8 0.162235 0.256356 0.832417
O O1 0.500000 0.209036 0.271656
O O2 0.301030 0.122579 0.249761
O O3 0.290859 0.188538 0.362929
O O4 0.249720 0.246324 0.239871
O O5 0.500000 0.922040 0.167514
O O6 0.246251 0.921266 0.121970
O O7 0.312131 0.000000 0.223465
O O8 0.500000 0.500000 0.114532
O O9 0.742085 0.561756 0.110116
O O10 0.655572 0.500000 0.000000
O O11 0.720539 0.842727 0.500000
O O12 0.500000 0.871956 0.577591
O O13 0.730944 0.933501 0.600532
O O14 0.500000 0.000000 0.377203
O O15 0.624504 0.000000 0.500000
O O16 0.793860 0.321345 0.869831
O O17 0.000000 0.398671 0.907960
O O18 0.807042 0.364498 0.000000
O O19 0.198181 0.798655 0.112305
O O20 0.000000 0.883068 0.086717
O O21 0.214165 0.867022 0.000000
O O22 0.000000 0.256418 0.811308
#
# Coordination Sequence:
#
# PCOD8200690 Si02
#       8
#     8   8   4   8   4   8   8   8
#     4   9  17  27  40  57  77 100 127 160 198 241
#     4   9  18  29  38  51  72  96 120 151 198 249
#     4   9  17  27  39  61  91 115 134 161 198 233
#     4   8  13  21  35  56  78  98 123 158 198 238
#     4   7  10  16  28  50  75  93 114 149 192 234
#     4   9  16  27  44  62  80 107 142 173 197 225
#     4   9  17  29  43  56  69  88 122 166 202 233
#     4   9  17  29  43  58  77 102 132 164 198 232
#
# _framework density 14.702235
#
# number of rings (size 3 to 8) (size 9 to 14) (size 15 to 20)
#    0.000    3.286    0.000    1.500    1.000    4.000 
#    0.000    1.429    0.000    3.000    0.000    0.000 
#    0.000    1.714    0.000    0.643    0.000   13.000 
#
# Total GULP energy -693941.104380 kJ/mol
# GULP energy per Si atom -12391.805435 kJ/mol
# Density = 1.466877 g / cm^3
# Si number density = 14.702235 Si / 1000 Ang^3
#
#
#
# Elastic Constant Matrix: (Units=GPa)
#
#
# Indices 1 2 3 4 5 6 
#
# 1 42.0440 34.9506 30.4079 0.0000 0.0000 0.0000
# 2 34.9506 81.6693 35.2990 0.0000 0.0000 0.0000
# 3 30.4079 35.2990 85.6092 0.0000 0.0000 0.0000
# 4 0.0000 0.0000 0.0000 17.0822 0.0000 0.0000
# 5 0.0000 0.0000 0.0000 0.0000 12.3944 0.0000
# 6 0.0000 0.0000 0.0000 0.0000 0.0000 20.1822
#
#
#
# Elastic Compliance Matrix: (Units=1/GPa)
#
#
# Indices 1 2 3 4 5 6 
#
# 1 0.042090 -0.014056 -0.009155 0.000000 0.000000 0.000000
# 2 -0.014056 0.019594 -0.003087 0.000000 0.000000 0.000000
# 3 -0.009155 -0.003087 0.016205 0.000000 0.000000 0.000000
# 4 0.000000 0.000000 0.000000 0.058541 0.000000 0.000000
# 5 0.000000 0.000000 0.000000 0.000000 0.080681 0.000000
# 6 0.000000 0.000000 0.000000 0.000000 0.000000 0.049549
#
#
# Mechanical properties :
#
#
# Convention : Reuss Voigt Hill
#
# Bulk Modulus (GPa) = 39.53293 45.62639 42.57966
# Shear Modulus (GPa) = 15.25857 17.17609 16.21733
#
# Velocity S-wave (km/s) = 3.22505 3.42170 3.32483
# Velocity P-wave (km/s) = 6.38869 6.83459 6.61540
#
# Compressibility (1/GPa) = 0.02529537
#
# Stress axis : x y z
#
# Youngs Moduli (GPa) = 23.75867 51.03677 61.70819
#
# Poissons Ratio (x) = 0.71736 0.56491
# Poissons Ratio (y) = 0.33394 0.19046
# Poissons Ratio (z) = 0.21750 0.15753
#
# Static dielectric constant tensor:
#      x y z
#    x 2.714350 0.000000 0.000000 
#    y 0.000000 2.753600 0.000000 
#    z 0.000000 0.000000 2.874970 
# 
# 
# High freq. dielectric constant tensor:
#      x y z
#    x 1.540820 0.000000 0.000000 
#    y 0.000000 1.537450 0.000000 
#    z 0.000000 0.000000 1.545500 
# 
# From -- ./inp_files/30108.got.cif
#   From: 2010.03.12/outbox.cif.g09.slc.cpg/sg47_16_cif.got.tgz:30108.got - 2010.04.14 03:12:58.
