data_PCOD8200733
_publ_section_title
;
Structure prediction by ZEFSAII (Michael W. Deem and Ramdas Pophale) SiO2 
 PCOD8200733
Probable space group: P M M M
;
_chemical_formula_sum "Si O2"
_cell_formula_units_Z 44
_cell_length_a 9.342272
_cell_length_b 9.601798
_cell_length_c 28.535388
_cell_angle_alpha 90.000000
_cell_angle_beta 90.000000
_cell_angle_gamma 90.000000
_cell_volume 2559.698741
_symmetry_space_group_name_H-M "P M M M"
_symmetry_group_IT_number 47
_symmetry_cell_setting 'orthorhombic'
loop_
_space_group_symop_operation_xyz
x,y,z
-x,-y,z
x,-y,-z
-x,y,-z
-x,-y,-z
x,y,-z
-x,y,z
x,-y,z
loop_
_atom_site_type_symbol
_atom_site_label
_atom_site_fract_x
_atom_site_fract_y
_atom_site_fract_z
Si Si1 0.170041 0.845393 0.280021
Si Si2 0.343864 0.335324 0.000000
Si Si3 0.829804 0.156150 0.552056
Si Si4 0.163089 0.836278 0.824820
Si Si5 0.329252 0.658307 0.898986
Si Si6 0.171032 0.342981 0.363854
O O1 0.215175 0.798563 0.227792
O O2 0.230590 0.735733 0.317768
O O3 0.000000 0.851970 0.282680
O O4 0.230714 0.000000 0.291294
O O5 0.267317 0.294894 0.950653
O O6 0.364480 0.500000 0.000000
O O7 0.500000 0.263954 0.000000
O O8 0.777383 0.200454 0.500000
O O9 0.768415 0.264197 0.590159
O O10 0.000000 0.157454 0.553728
O O11 0.775448 0.000000 0.563850
O O12 0.265428 0.758410 0.860333
O O13 0.000000 0.787019 0.832553
O O14 0.176494 0.000000 0.833396
O O15 0.500000 0.671483 0.899050
O O16 0.282973 0.500000 0.887779
O O17 0.230978 0.500000 0.363826
O O18 0.000000 0.343040 0.363935
#
# Coordination Sequence:
#
# PCOD8200733 Si02
#       6
#     8   4   8   8   8   8
#     4   8  14  25  38  49  66  96 130 161 195 240
#     4   7  12  26  46  65  86 112 142 175 208 247
#     4   8  13  20  28  37  52  79 115 152 191 237
#     4   9  18  31  45  63  88 116 145 178 217 258
#     4   9  17  30  49  70  89 112 144 179 214 254
#     4   9  15  20  28  44  63  83 113 156 201 240
#
# _framework density 17.189523999999999
#
# number of rings (size 3 to 8) (size 9 to 14) (size 15 to 20)
#    0.000    3.545    0.000    3.273    0.000    4.000 
#    0.000    4.545    0.000    4.364    0.000    0.000 
#    0.000    0.000    0.000    0.000    0.000    0.909 
#
# Total GULP energy -545116.901226 kJ/mol
# GULP energy per Si atom -12389.020482 kJ/mol
# Density = 1.715040 g / cm^3
# Si number density = 17.189524 Si / 1000 Ang^3
#
#
#
# Elastic Constant Matrix: (Units=GPa)
#
#
# Indices 1 2 3 4 5 6 
#
# 1 12.1039 14.7538 20.4761 0.0000 0.0000 0.0000
# 2 14.7538 100.6390 90.4180 0.0000 0.0000 0.0000
# 3 20.4761 90.4180 173.8254 0.0000 0.0000 0.0000
# 4 0.0000 0.0000 0.0000 32.8703 0.0000 0.0000
# 5 0.0000 0.0000 0.0000 0.0000 -6.0968 0.0000
# 6 0.0000 0.0000 0.0000 0.0000 0.0000 15.0053
#
#
#
# Elastic Compliance Matrix: (Units=1/GPa)
#
#
# Indices 1 2 3 4 5 6 
#
# 1 0.106634 -0.008161 -0.008316 0.000000 0.000000 0.000000
# 2 -0.008161 0.019279 -0.009067 0.000000 0.000000 0.000000
# 3 -0.008316 -0.009067 0.011449 0.000000 0.000000 0.000000
# 4 0.000000 0.000000 0.000000 0.030423 0.000000 0.000000
# 5 0.000000 0.000000 0.000000 0.000000 -0.164022 0.000000
# 6 0.000000 0.000000 0.000000 0.000000 0.000000 0.066643
#
#
# Mechanical properties :
#
#
# Convention : Reuss Voigt Hill
#
# Bulk Modulus (GPa) = 11.59104 59.76266 35.67685
# Shear Modulus (GPa) = 33.27743 19.08380 26.18062
#
# Velocity S-wave (km/s) = 4.40468 3.33558 3.90687
# Velocity P-wave (km/s) = 5.71191 7.04820 6.41495
#
# Compressibility (1/GPa) = 0.08627350
#
# Stress axis : x y z
#
# Youngs Moduli (GPa) = 9.37787 51.86983 87.34546
#
# Poissons Ratio (x) = 0.42332 0.72636
# Poissons Ratio (y) = 0.07654 0.79195
# Poissons Ratio (z) = 0.07799 0.47030
#
# Static dielectric constant tensor:
#      x y z
#    x 2.481420 0.000000 0.000000 
#    y 0.000000 3.248970 0.000000 
#    z 0.000000 0.000000 3.657960 
# 
# 
# High freq. dielectric constant tensor:
#      x y z
#    x 1.581820 0.000000 0.000000 
#    y 0.000000 1.654850 0.000000 
#    z 0.000000 0.000000 1.685670 
# 
# From -- ./inp_files/2298.got.cif
#   From: 2010.03.12/outbox.cif.g09.slc.cpg/sg47_2_cif.got.tgz:2298.got - 2010.04.14 03:12:58.
