data_PCOD8200713
_publ_section_title
;
Structure prediction by ZEFSAII (Michael W. Deem and Ramdas Pophale) SiO2 
 PCOD8200713
Probable space group: P M M M
;
_chemical_formula_sum "Si O2"
_cell_formula_units_Z 40
_cell_length_a 9.761736
_cell_length_b 26.248780
_cell_length_c 9.099717
_cell_angle_alpha 90.000000
_cell_angle_beta 90.000000
_cell_angle_gamma 90.000000
_cell_volume 2331.653798
_symmetry_space_group_name_H-M "P M M M"
_symmetry_group_IT_number 47
_symmetry_cell_setting 'orthorhombic'
loop_
_space_group_symop_operation_xyz
x,y,z
-x,-y,z
x,-y,-z
-x,y,-z
-x,-y,-z
x,y,-z
-x,y,z
x,-y,z
loop_
_atom_site_type_symbol
_atom_site_label
_atom_site_fract_x
_atom_site_fract_y
_atom_site_fract_z
Si Si1 0.341685 0.799453 0.172288
Si Si2 0.837655 0.000000 0.160609
Si Si3 0.663416 0.400504 0.166154
Si Si4 0.663291 0.500000 0.333866
Si Si5 0.336975 0.301569 0.665776
Si Si6 0.846114 0.109258 0.175756
O O1 0.500000 0.809864 0.208724
O O2 0.285711 0.749492 0.254305
O O3 0.256505 0.847471 0.233422
O O4 0.318374 0.790788 0.000000
O O5 0.797574 0.053603 0.240355
O O6 0.000000 0.000000 0.141345
O O7 0.767528 0.000000 0.000000
O O8 0.500000 0.400222 0.166419
O O9 0.719324 0.450148 0.250591
O O10 0.721199 0.350458 0.247647
O O11 0.719504 0.401180 0.000000
O O12 0.500000 0.500000 0.334205
O O13 0.719724 0.500000 0.500000
O O14 0.279999 0.302561 0.500000
O O15 0.500000 0.303278 0.666708
O O16 0.000000 0.122411 0.229466
O O17 0.842866 0.106019 0.000000
#
# Coordination Sequence:
#
# PCOD8200713 Si02
#       6
#     8   4   8   4   8   8
#     4   9  16  25  37  55  78 101 127 162 200 234
#     4   7  10  18  33  53  76 101 128 156 188 231
#     4   9  15  22  32  46  65  91 125 164 202 237
#     4   9  15  21  29  43  65  93 126 163 200 239
#     4   9  16  25  36  49  67  95 129 160 193 238
#     4   8  13  22  37  56  78 104 131 158 192 236
#
# _framework density 17.155204999999999
#
# number of rings (size 3 to 8) (size 9 to 14) (size 15 to 20)
#    0.000    3.400    0.000    2.700    0.000    6.000 
#    0.000    0.500    0.000    3.600    0.000    0.700 
#    0.000    5.600    0.000    0.900    0.000   19.600 
#
# Total GULP energy -495655.723196 kJ/mol
# GULP energy per Si atom -12391.393080 kJ/mol
# Density = 1.711616 g / cm^3
# Si number density = 17.155205 Si / 1000 Ang^3
#
#
#
# Elastic Constant Matrix: (Units=GPa)
#
#
# Indices 1 2 3 4 5 6 
#
# 1 26.7994 42.0627 17.6467 0.0000 0.0000 0.0000
# 2 42.0627 211.8531 73.4891 0.0000 0.0000 0.0000
# 3 17.6467 73.4891 93.4000 0.0000 0.0000 0.0000
# 4 0.0000 0.0000 0.0000 8.0366 0.0000 0.0000
# 5 0.0000 0.0000 0.0000 0.0000 4.0013 0.0000
# 6 0.0000 0.0000 0.0000 0.0000 0.0000 3.1590
#
#
#
# Elastic Compliance Matrix: (Units=1/GPa)
#
#
# Indices 1 2 3 4 5 6 
#
# 1 0.054614 -0.009991 -0.002458 0.000000 0.000000 0.000000
# 2 -0.009991 0.008320 -0.004659 0.000000 0.000000 0.000000
# 3 -0.002458 -0.004659 0.014836 0.000000 0.000000 0.000000
# 4 0.000000 0.000000 0.000000 0.124431 0.000000 0.000000
# 5 0.000000 0.000000 0.000000 0.000000 0.249920 0.000000
# 6 0.000000 0.000000 0.000000 0.000000 0.000000 0.316556
#
#
# Mechanical properties :
#
#
# Convention : Reuss Voigt Hill
#
# Bulk Modulus (GPa) = 22.95901 66.49439 44.72670
# Shear Modulus (GPa) = 6.11688 16.29630 11.20659
#
# Velocity S-wave (km/s) = 1.89033 3.08544 2.55864
# Velocity P-wave (km/s) = 4.26341 7.17899 5.90400
#
# Compressibility (1/GPa) = 0.04355589
#
# Stress axis : x y z
#
# Youngs Moduli (GPa) = 18.31049 120.19345 67.40144
#
# Poissons Ratio (x) = 1.20083 0.16564
# Poissons Ratio (y) = 0.18294 0.31400
# Poissons Ratio (z) = 0.04500 0.55994
#
# Static dielectric constant tensor:
#      x y z
#    x 2.582990 0.000000 0.000000 
#    y 0.000000 3.673050 0.000000 
#    z 0.000000 0.000000 3.029810 
# 
# 
# High freq. dielectric constant tensor:
#      x y z
#    x 1.582550 0.000000 0.000000 
#    y 0.000000 1.688220 0.000000 
#    z 0.000000 0.000000 1.636220 
# 
# From -- ./inp_files/4040.got.cif
#   From: 2010.03.12/outbox.cif.g09.slc.cpg/sg47_3_cif.got.tgz:4040.got - 2010.04.14 03:12:58.
