data_PCOD8200387
_publ_section_title
;
Structure prediction by ZEFSAII (Michael W. Deem and Ramdas Pophale) SiO2 
 PCOD8200387
Probable space group: P M M M
;
_chemical_formula_sum "Si O2"
_cell_formula_units_Z 40
_cell_length_a 11.045742
_cell_length_b 8.959424
_cell_length_c 22.296619
_cell_angle_alpha 90.000000
_cell_angle_beta 90.000000
_cell_angle_gamma 90.000000
_cell_volume 2206.551142
_symmetry_space_group_name_H-M "P M M M"
_symmetry_group_IT_number 47
_symmetry_cell_setting 'orthorhombic'
loop_
_space_group_symop_operation_xyz
x,y,z
-x,-y,z
x,-y,-z
-x,y,-z
-x,-y,-z
x,y,-z
-x,y,z
x,-y,z
loop_
_atom_site_type_symbol
_atom_site_label
_atom_site_fract_x
_atom_site_fract_y
_atom_site_fract_z
Si Si1 0.271416 0.324246 0.115879
Si Si2 0.364838 0.177267 0.431730
Si Si3 0.500000 0.824037 0.931686
Si Si4 0.139753 0.168922 0.220305
Si Si5 0.869040 0.323092 0.000000
Si Si6 0.864507 0.177101 0.643003
O O1 0.295573 0.500000 0.113318
O O2 0.392600 0.233408 0.109055
O O3 0.210830 0.283662 0.178684
O O4 0.193084 0.265879 0.060130
O O5 0.348121 0.230815 0.500000
O O6 0.500000 0.230014 0.408774
O O7 0.249565 0.244213 0.394766
O O8 0.360559 0.000000 0.427683
O O9 0.500000 0.000000 0.935574
O O10 0.500000 0.757341 0.000000
O O11 0.158429 0.223418 0.288376
O O12 0.000000 0.175799 0.202383
O O13 0.188650 0.000000 0.212040
O O14 0.875328 0.500000 0.000000
O O15 0.000000 0.249100 0.000000
O O16 0.000000 0.235238 0.622528
O O17 0.866277 0.000000 0.636984
#
# Coordination Sequence:
#
# PCOD8200387 Si02
#       6
#     8   8   4   8   4   8
#     4  11  21  35  55  75 100 130 165 206 249 296
#     4   8  13  21  34  55  85 120 159 204 251 298
#     4  11  23  39  57  75 101 131 162 199 248 305
#     4   9  18  33  50  70 100 133 165 205 253 302
#     4   9  18  31  49  74  98 121 154 197 246 297
#     4   8  14  25  40  58  86 125 163 200 247 302
#
# _framework density 18.127837
#
# number of rings (size 3 to 8) (size 9 to 14) (size 15 to 20)
#    0.000    2.800    1.000    3.300    0.000    2.000 
#    1.800    2.000    0.000    2.400    0.000    0.000 
#    0.000    0.800    0.000    6.600    0.000    8.000 
#
# Total GULP energy -495605.573690 kJ/mol
# GULP energy per Si atom -12390.139342 kJ/mol
# Density = 1.808658 g / cm^3
# Si number density = 18.127837 Si / 1000 Ang^3
#
#
#
# Elastic Constant Matrix: (Units=GPa)
#
#
# Indices 1 2 3 4 5 6 
#
# 1 160.0189 22.8292 78.3231 0.0000 0.0000 0.0000
# 2 22.8292 34.9825 17.8894 0.0000 0.0000 0.0000
# 3 78.3231 17.8894 102.1070 0.0000 0.0000 0.0000
# 4 0.0000 0.0000 0.0000 10.5781 0.0000 0.0000
# 5 0.0000 0.0000 0.0000 0.0000 27.2845 0.0000
# 6 0.0000 0.0000 0.0000 0.0000 0.0000 9.4891
#
#
#
# Elastic Compliance Matrix: (Units=1/GPa)
#
#
# Indices 1 2 3 4 5 6 
#
# 1 0.010274 -0.002938 -0.007366 0.000000 0.000000 0.000000
# 2 -0.002938 0.032239 -0.003395 0.000000 0.000000 0.000000
# 3 -0.007366 -0.003395 0.016039 0.000000 0.000000 0.000000
# 4 0.000000 0.000000 0.000000 0.094535 0.000000 0.000000
# 5 0.000000 0.000000 0.000000 0.000000 0.036651 0.000000
# 6 0.000000 0.000000 0.000000 0.000000 0.000000 0.105384
#
#
# Mechanical properties :
#
#
# Convention : Reuss Voigt Hill
#
# Bulk Modulus (GPa) = 32.09846 59.46576 45.78211
# Shear Modulus (GPa) = 15.01941 21.34147 18.18044
#
# Velocity S-wave (km/s) = 2.88154 3.43487 3.17030
# Velocity P-wave (km/s) = 5.36807 6.97179 6.22182
#
# Compressibility (1/GPa) = 0.03115415
#
# Stress axis : x y z
#
# Youngs Moduli (GPa) = 97.33572 31.01837 62.34946
#
# Poissons Ratio (x) = 0.09112 0.45926
# Poissons Ratio (y) = 0.28595 0.21167
# Poissons Ratio (z) = 0.71697 0.10530
#
# Static dielectric constant tensor:
#      x y z
#    x 3.593560 0.000000 0.000000 
#    y 0.000000 2.804700 0.000000 
#    z 0.000000 0.000000 8.043540 
# 
# 
# High freq. dielectric constant tensor:
#      x y z
#    x 1.716730 0.000000 0.000000 
#    y 0.000000 1.647920 0.000000 
#    z 0.000000 0.000000 1.697900 
# 
# From -- ./inp_files/4081.got.cif
#   From: 2010.03.12/outbox.cif.g09.slc.cpg/sg47_3_cif.got.tgz:4081.got - 2010.04.14 03:12:58.
