data_PCOD8200525
_publ_section_title
;
Structure prediction by ZEFSAII (Michael W. Deem and Ramdas Pophale) SiO2 
 PCOD8200525
Probable space group: P M M M
;
_chemical_formula_sum "Si O2"
_cell_formula_units_Z 52
_cell_length_a 18.362346
_cell_length_b 9.208231
_cell_length_c 18.380728
_cell_angle_alpha 90.000000
_cell_angle_beta 90.000000
_cell_angle_gamma 90.000000
_cell_volume 3107.900315
_symmetry_space_group_name_H-M "P M M M"
_symmetry_group_IT_number 47
_symmetry_cell_setting 'orthorhombic'
loop_
_space_group_symop_operation_xyz
x,y,z
-x,-y,z
x,-y,-z
-x,y,-z
-x,-y,-z
x,y,-z
-x,y,z
x,-y,z
loop_
_atom_site_type_symbol
_atom_site_label
_atom_site_fract_x
_atom_site_fract_y
_atom_site_fract_z
Si Si1 0.787803 0.331460 0.416753
Si Si2 0.839284 0.167271 0.291342
Si Si3 0.226765 0.171020 0.083690
Si Si4 0.078708 0.832587 0.846815
Si Si5 0.500000 0.828178 0.416715
Si Si6 0.632577 0.334224 0.652334
Si Si7 0.286645 0.331582 0.791601
O O1 0.795547 0.284771 0.500000
O O2 0.805093 0.500000 0.404741
O O3 0.847552 0.237923 0.371431
O O4 0.706495 0.294447 0.390081
O O5 0.910667 0.182639 0.240740
O O6 0.778161 0.258937 0.251664
O O7 0.815503 0.000000 0.298719
O O8 0.146955 0.233166 0.107924
O O9 0.290708 0.250514 0.130139
O O10 0.231485 0.000000 0.099686
O O11 0.240269 0.208438 0.000000
O O12 0.000000 0.759563 0.866420
O O13 0.074608 0.000000 0.868919
O O14 0.500000 0.772787 0.500000
O O15 0.570832 0.772123 0.375396
O O16 0.500000 0.000000 0.413159
O O17 0.610209 0.500000 0.635179
O O18 0.642162 0.313525 0.740093
O O19 0.269683 0.500000 0.804973
#
# Coordination Sequence:
#
# PCOD8200525 Si02
#       7
#     8   8   8   8   4   8   8
#     4   9  17  29  45  64  85 111 145 184 225 267
#     4   9  16  26  42  63  84 108 143 187 229 265
#     4   9  17  28  44  69  96 118 144 182 226 266
#     4   8  14  25  41  61  86 117 150 181 215 260
#     4  11  23  33  43  67 100 127 150 179 217 258
#     4   9  18  32  48  64  85 118 155 183 210 254
#     4   9  17  30  47  65  86 116 153 186 218 259
#
# _framework density 16.731552000000001
#
# number of rings (size 3 to 8) (size 9 to 14) (size 15 to 20)
#    0.000    3.000    0.000    3.462    0.000    5.231 
#    0.000    1.538    0.000   12.000    0.000    8.077 
#    0.000    4.308    0.000    0.000    0.000    0.000 
#
# Total GULP energy -644229.429407 kJ/mol
# GULP energy per Si atom -12389.027489 kJ/mol
# Density = 1.669347 g / cm^3
# Si number density = 16.731552 Si / 1000 Ang^3
#
#
#
# Elastic Constant Matrix: (Units=GPa)
#
#
# Indices 1 2 3 4 5 6 
#
# 1 34.3597 25.1080 25.6559 0.0000 0.0000 0.0000
# 2 25.1080 64.0834 51.0829 0.0000 0.0000 0.0000
# 3 25.6559 51.0829 128.2558 0.0000 0.0000 0.0000
# 4 0.0000 0.0000 0.0000 30.5107 0.0000 0.0000
# 5 0.0000 0.0000 0.0000 0.0000 16.1393 0.0000
# 6 0.0000 0.0000 0.0000 0.0000 0.0000 9.6915
#
#
#
# Elastic Compliance Matrix: (Units=1/GPa)
#
#
# Indices 1 2 3 4 5 6 
#
# 1 0.041393 -0.014091 -0.002668 0.000000 0.000000 0.000000
# 2 -0.014091 0.027661 -0.008198 0.000000 0.000000 0.000000
# 3 -0.002668 -0.008198 0.011596 0.000000 0.000000 0.000000
# 4 0.000000 0.000000 0.000000 0.032775 0.000000 0.000000
# 5 0.000000 0.000000 0.000000 0.000000 0.061960 0.000000
# 6 0.000000 0.000000 0.000000 0.000000 0.000000 0.103183
#
#
# Mechanical properties :
#
#
# Convention : Reuss Voigt Hill
#
# Bulk Modulus (GPa) = 32.53618 47.82139 40.17878
# Shear Modulus (GPa) = 14.76115 19.59179 17.17647
#
# Velocity S-wave (km/s) = 2.97347 3.42563 3.20752
# Velocity P-wave (km/s) = 5.59257 6.65508 6.14683
#
# Compressibility (1/GPa) = 0.03073502
#
# Stress axis : x y z
#
# Youngs Moduli (GPa) = 24.15880 36.15242 86.23809
#
# Poissons Ratio (x) = 0.50943 0.23006
# Poissons Ratio (y) = 0.34043 0.70699
# Poissons Ratio (z) = 0.06445 0.29638
#
# Static dielectric constant tensor:
#      x y z
#    x 3.063060 0.000000 0.000000 
#    y 0.000000 3.172160 0.000000 
#    z 0.000000 0.000000 3.763040 
# 
# 
# High freq. dielectric constant tensor:
#      x y z
#    x 1.601940 0.000000 0.000000 
#    y 0.000000 1.636190 0.000000 
#    z 0.000000 0.000000 1.649980 
# 
# From -- ./inp_files/26765.got.cif
#   From: 2010.03.12/outbox.cif.g09.slc.cpg/sg47_14_cif.got.tgz:26765.got - 2010.04.14 03:12:58.
