data_PCOD8200444
_publ_section_title
;
Structure prediction by ZEFSAII (Michael W. Deem and Ramdas Pophale) SiO2 
 PCOD8200444
Probable space group: P M M M
;
_chemical_formula_sum "Si O2"
_cell_formula_units_Z 52
_cell_length_a 18.134227
_cell_length_b 10.650734
_cell_length_c 14.667325
_cell_angle_alpha 90.000000
_cell_angle_beta 90.000000
_cell_angle_gamma 90.000000
_cell_volume 2832.888631
_symmetry_space_group_name_H-M "P M M M"
_symmetry_group_IT_number 47
_symmetry_cell_setting 'orthorhombic'
loop_
_space_group_symop_operation_xyz
x,y,z
-x,-y,z
x,-y,-z
-x,y,-z
-x,-y,-z
x,y,-z
-x,y,z
x,-y,z
loop_
_atom_site_type_symbol
_atom_site_label
_atom_site_fract_x
_atom_site_fract_y
_atom_site_fract_z
Si Si1 0.913198 0.000000 0.897603
Si Si2 0.083363 0.851737 0.602113
Si Si3 0.664980 0.853372 0.221526
Si Si4 0.415046 0.358470 0.107314
Si Si5 0.918763 0.645236 0.099507
Si Si6 0.417680 0.851493 0.400059
Si Si7 0.164816 0.796579 0.777631
O O1 0.887282 0.118797 0.840463
O O2 0.000000 0.000000 0.902386
O O3 0.879423 0.000000 0.000000
O O4 0.108030 0.813471 0.500000
O O5 0.139648 0.789518 0.672709
O O6 0.000000 0.805278 0.620172
O O7 0.087625 0.000000 0.614566
O O8 0.631126 0.755441 0.150322
O O9 0.638206 0.808216 0.321439
O O10 0.752232 0.842780 0.217456
O O11 0.642526 0.000000 0.201217
O O12 0.500000 0.338408 0.134306
O O13 0.390231 0.500000 0.138916
O O14 0.403988 0.347657 0.000000
O O15 0.922918 0.500000 0.083607
O O16 0.852678 0.664887 0.173526
O O17 0.000000 0.693443 0.132928
O O18 0.901106 0.708075 0.000000
O O19 0.392100 0.800566 0.500000
O O20 0.500000 0.800719 0.377918
O O21 0.419727 0.000000 0.403637
#
# Coordination Sequence:
#
# PCOD8200444 Si02
#       7
#     4   8   8   8   8   8   8
#     4  11  22  34  49  69  98 141 183 217 257 308
#     4   9  17  30  49  71  97 134 180 224 262 309
#     4  11  22  34  50  83 119 146 175 217 273 326
#     4   9  20  40  62  80 102 141 189 226 262 318
#     4   9  19  36  56  75  95 129 183 237 276 316
#     4   8  15  30  53  78 105 140 179 217 260 316
#     4  12  21  33  49  76 110 142 172 212 273 327
#
# _framework density 18.355823999999998
#
# number of rings (size 3 to 8) (size 9 to 14) (size 15 to 20)
#    0.000    2.231    1.538    4.154    0.000    4.923 
#    0.000    3.846    0.000    0.923    0.000    6.462 
#    0.000    0.000    0.000    0.000    0.000    0.000 
#
# Total GULP energy -644229.132939 kJ/mol
# GULP energy per Si atom -12389.021787 kJ/mol
# Density = 1.831405 g / cm^3
# Si number density = 18.355824 Si / 1000 Ang^3
#
#
#
# Elastic Constant Matrix: (Units=GPa)
#
#
# Indices 1 2 3 4 5 6 
#
# 1 82.7336 34.7804 50.4906 0.0000 0.0000 0.0000
# 2 34.7804 65.6340 38.0857 0.0000 0.0000 0.0000
# 3 50.4906 38.0857 113.7625 0.0000 0.0000 0.0000
# 4 0.0000 0.0000 0.0000 52.0559 0.0000 0.0000
# 5 0.0000 0.0000 0.0000 0.0000 9.3530 0.0000
# 6 0.0000 0.0000 0.0000 0.0000 0.0000 17.6460
#
#
#
# Elastic Compliance Matrix: (Units=1/GPa)
#
#
# Indices 1 2 3 4 5 6 
#
# 1 0.018423 -0.006228 -0.006091 0.000000 0.000000 0.000000
# 2 -0.006228 0.021015 -0.004271 0.000000 0.000000 0.000000
# 3 -0.006091 -0.004271 0.012924 0.000000 0.000000 0.000000
# 4 0.000000 0.000000 0.000000 0.019210 0.000000 0.000000
# 5 0.000000 0.000000 0.000000 0.000000 0.106917 0.000000
# 6 0.000000 0.000000 0.000000 0.000000 0.000000 0.056670
#
#
# Mechanical properties :
#
#
# Convention : Reuss Voigt Hill
#
# Bulk Modulus (GPa) = 52.13759 56.53819 54.33789
# Shear Modulus (GPa) = 18.19949 25.06255 21.63102
#
# Velocity S-wave (km/s) = 3.15220 3.69910 3.43655
# Velocity P-wave (km/s) = 6.45864 7.00804 6.73894
#
# Compressibility (1/GPa) = 0.01918002
#
# Stress axis : x y z
#
# Youngs Moduli (GPa) = 54.28135 47.58571 77.37684
#
# Poissons Ratio (x) = 0.29635 0.47134
# Poissons Ratio (y) = 0.33805 0.33050
# Poissons Ratio (z) = 0.33065 0.20326
#
# Static dielectric constant tensor:
#      x y z
#    x 3.255930 0.000000 0.000000 
#    y 0.000000 3.598130 0.000000 
#    z 0.000000 0.000000 3.750400 
# 
# 
# High freq. dielectric constant tensor:
#      x y z
#    x 1.700370 0.000000 0.000000 
#    y 0.000000 1.684230 0.000000 
#    z 0.000000 0.000000 1.720840 
# 
# From -- ./inp_files/23656.got.cif
#   From: 2010.03.12/outbox.cif.g09.slc.cpg/sg47_12_cif.got.tgz:23656.got - 2010.04.14 03:12:58.
