data_PCOD8200581
_publ_section_title
;
Structure prediction by ZEFSAII (Michael W. Deem and Ramdas Pophale) SiO2 
 PCOD8200581
Probable space group: P M M M
;
_chemical_formula_sum "Si O2"
_cell_formula_units_Z 52
_cell_length_a 19.340041
_cell_length_b 7.724806
_cell_length_c 17.301612
_cell_angle_alpha 90.000000
_cell_angle_beta 90.000000
_cell_angle_gamma 90.000000
_cell_volume 2584.827350
_symmetry_space_group_name_H-M "P M M M"
_symmetry_group_IT_number 47
_symmetry_cell_setting 'orthorhombic'
loop_
_space_group_symop_operation_xyz
x,y,z
-x,-y,z
x,-y,-z
-x,y,-z
-x,-y,-z
x,y,-z
-x,y,z
x,-y,z
loop_
_atom_site_type_symbol
_atom_site_label
_atom_site_fract_x
_atom_site_fract_y
_atom_site_fract_z
Si Si1 0.677535 0.205813 0.866925
Si Si2 0.421342 0.206871 0.000000
Si Si3 0.076191 0.297532 0.000000
Si Si4 0.422985 0.299245 0.587795
Si Si5 0.690461 0.193770 0.699802
Si Si6 0.830108 0.799873 0.859210
Si Si7 0.918111 0.500000 0.590541
Si Si8 0.842429 0.793235 0.685236
O O1 0.661970 0.276612 0.779719
O O2 0.755355 0.276597 0.885325
O O3 0.672873 0.000000 0.874959
O O4 0.620183 0.281658 0.925454
O O5 0.500000 0.279411 0.000000
O O6 0.423329 0.000000 0.000000
O O7 0.113204 0.238942 0.922579
O O8 0.071031 0.500000 0.000000
O O9 0.000000 0.213510 0.000000
O O10 0.417737 0.236863 0.500000
O O11 0.500000 0.261954 0.619257
O O12 0.404692 0.500000 0.595111
O O13 0.368220 0.192403 0.635764
O O14 0.762992 0.267941 0.667940
O O15 0.710078 0.000000 0.723498
O O16 0.856546 0.738274 0.774752
O O17 0.816922 0.000000 0.851177
O O18 0.897348 0.500000 0.500000
O O19 0.889869 0.676449 0.629868
O O20 0.000000 0.500000 0.601061
O O21 0.855960 0.000000 0.669552
#
# Coordination Sequence:
#
# PCOD8200581 Si02
#       8
#     8   4   4   8   8   8   4   8
#     4   8  15  29  48  71 100 133 174 223 270 321
#     4   9  15  22  38  68 104 141 178 218 268 321
#     4  11  24  35  47  79 120 147 176 226 278 331
#     4   9  19  34  49  70 105 146 183 220 270 335
#     4   9  18  33  54  81 108 137 181 236 288 333
#     4   9  18  36  59  78 105 150 193 231 282 339
#     4  11  26  44  64  91 120 156 193 229 294 370
#     4   9  21  41  64  91 119 151 198 251 295 344
#
# _framework density 20.117398000000001
#
# number of rings (size 3 to 8) (size 9 to 14) (size 15 to 20)
#    0.000    2.846    0.000    3.000    2.154    4.923 
#    0.000    6.154    0.000    0.000    0.000    0.000 
#    0.000    3.077    0.000    0.000    0.000    0.000 
#
# Total GULP energy -644218.810918 kJ/mol
# GULP energy per Si atom -12388.823287 kJ/mol
# Density = 2.007161 g / cm^3
# Si number density = 20.117398 Si / 1000 Ang^3
#
#
#
# Elastic Constant Matrix: (Units=GPa)
#
#
# Indices 1 2 3 4 5 6 
#
# 1 148.3215 23.9792 92.9740 0.0000 0.0000 0.0000
# 2 23.9792 43.3154 32.1616 0.0000 0.0000 0.0000
# 3 92.9740 32.1616 134.7171 0.0000 0.0000 0.0000
# 4 0.0000 0.0000 0.0000 99.6089 0.0000 0.0000
# 5 0.0000 0.0000 0.0000 0.0000 17.7237 0.0000
# 6 0.0000 0.0000 0.0000 0.0000 0.0000 53.0132
#
#
#
# Elastic Compliance Matrix: (Units=1/GPa)
#
#
# Indices 1 2 3 4 5 6 
#
# 1 0.011895 -0.000595 -0.008067 0.000000 0.000000 0.000000
# 2 -0.000595 0.028090 -0.006295 0.000000 0.000000 0.000000
# 3 -0.008067 -0.006295 0.014493 0.000000 0.000000 0.000000
# 4 0.000000 0.000000 0.000000 0.010039 0.000000 0.000000
# 5 0.000000 0.000000 0.000000 0.000000 0.056422 0.000000
# 6 0.000000 0.000000 0.000000 0.000000 0.000000 0.018863
#
#
# Mechanical properties :
#
#
# Convention : Reuss Voigt Hill
#
# Bulk Modulus (GPa) = 40.71118 69.39818 55.05468
# Shear Modulus (GPa) = 28.10464 45.88510 36.99487
#
# Velocity S-wave (km/s) = 3.74174 4.78102 4.29295
# Velocity P-wave (km/s) = 6.24085 8.06530 7.21101
#
# Compressibility (1/GPa) = 0.02456327
#
# Stress axis : x y z
#
# Youngs Moduli (GPa) = 84.06701 35.59953 68.99646
#
# Poissons Ratio (x) = 0.02119 0.55662
# Poissons Ratio (y) = 0.05004 0.43436
# Poissons Ratio (z) = 0.67820 0.22411
#
# Static dielectric constant tensor:
#      x y z
#    x 4.096320 0.000000 0.000000 
#    y 0.000000 3.327140 0.000000 
#    z 0.000000 0.000000 3.696980 
# 
# 
# High freq. dielectric constant tensor:
#      x y z
#    x 1.785120 0.000000 0.000000 
#    y 0.000000 1.761400 0.000000 
#    z 0.000000 0.000000 1.787320 
# 
# From -- ./inp_files/28569.got.cif
#   From: 2010.03.12/outbox.cif.g09.slc.cpg/sg47_15_cif.got.tgz:28569.got - 2010.04.14 03:12:58.
