data_PCOD8200369
_publ_section_title
;
Structure prediction by ZEFSAII (Michael W. Deem and Ramdas Pophale) SiO2 
 PCOD8200369
Probable space group: P M M M
;
_chemical_formula_sum "Si O2"
_cell_formula_units_Z 40
_cell_length_a 23.347422
_cell_length_b 9.286400
_cell_length_c 11.537964
_cell_angle_alpha 90.000000
_cell_angle_beta 90.000000
_cell_angle_gamma 90.000000
_cell_volume 2501.586354
_symmetry_space_group_name_H-M "P M M M"
_symmetry_group_IT_number 47
_symmetry_cell_setting 'orthorhombic'
loop_
_space_group_symop_operation_xyz
x,y,z
-x,-y,z
x,-y,-z
-x,y,-z
-x,-y,-z
x,y,-z
-x,y,z
x,-y,z
loop_
_atom_site_type_symbol
_atom_site_label
_atom_site_fract_x
_atom_site_fract_y
_atom_site_fract_z
Si Si1 0.833397 0.841533 0.137368
Si Si2 0.705450 0.168484 0.134975
Si Si3 0.062464 0.660950 0.137684
Si Si4 0.604364 0.671606 0.251398
Si Si5 0.500000 0.835012 0.137102
Si Si6 0.563559 0.330806 0.500000
O O1 0.770120 0.782690 0.167429
O O2 0.884431 0.747492 0.193221
O O3 0.840404 0.000000 0.190425
O O4 0.839860 0.848282 0.000000
O O5 0.665469 0.270500 0.210801
O O6 0.695673 0.000000 0.163879
O O7 0.692721 0.195743 0.000000
O O8 0.066613 0.500000 0.186625
O O9 0.000000 0.727013 0.172199
O O10 0.068135 0.659637 0.000000
O O11 0.599903 0.500000 0.232529
O O12 0.555645 0.750342 0.178604
O O13 0.597967 0.716466 0.385834
O O14 0.500000 0.000000 0.183658
O O15 0.500000 0.835888 0.000000
O O16 0.555423 0.500000 0.500000
O O17 0.500000 0.259734 0.500000
#
# Coordination Sequence:
#
# PCOD8200369 Si02
#       6
#     8   8   8   8   4   4
#     4   8  14  24  37  52  74 109 146 175 208 253
#     4   9  18  32  46  63  92 122 145 178 225 265
#     4   8  13  20  30  47  73 104 139 181 221 248
#     4  11  21  34  53  71  87 112 147 181 215 261
#     4  11  23  36  49  68  96 121 138 169 218 259
#     4   9  18  36  54  68  90 114 135 176 229 260
#
# _framework density 15.989853999999999
#
# number of rings (size 3 to 8) (size 9 to 14) (size 15 to 20)
#    0.000    2.800    1.000    3.300    0.000    4.800 
#    0.000    6.500    0.000    0.000    0.000    0.000 
#    0.000    0.000    0.000    0.900    0.000   18.000 
#
# Total GULP energy -495692.514073 kJ/mol
# GULP energy per Si atom -12392.312852 kJ/mol
# Density = 1.595346 g / cm^3
# Si number density = 15.989854 Si / 1000 Ang^3
#
#
#
# Elastic Constant Matrix: (Units=GPa)
#
#
# Indices 1 2 3 4 5 6 
#
# 1 155.5520 69.0781 41.4201 0.0000 0.0000 0.0000
# 2 69.0781 82.1792 32.2277 0.0000 0.0000 0.0000
# 3 41.4201 32.2277 55.2432 0.0000 0.0000 0.0000
# 4 0.0000 0.0000 0.0000 10.8492 0.0000 0.0000
# 5 0.0000 0.0000 0.0000 0.0000 -2.0387 0.0000
# 6 0.0000 0.0000 0.0000 0.0000 0.0000 33.8620
#
#
#
# Elastic Compliance Matrix: (Units=1/GPa)
#
#
# Indices 1 2 3 4 5 6 
#
# 1 0.010791 -0.007648 -0.003630 0.000000 0.000000 0.000000
# 2 -0.007648 0.021198 -0.006632 0.000000 0.000000 0.000000
# 3 -0.003630 -0.006632 0.024692 0.000000 0.000000 0.000000
# 4 0.000000 0.000000 0.000000 0.092172 0.000000 0.000000
# 5 0.000000 0.000000 0.000000 0.000000 -0.490505 0.000000
# 6 0.000000 0.000000 0.000000 0.000000 0.000000 0.029532
#
#
# Mechanical properties :
#
#
# Convention : Reuss Voigt Hill
#
# Bulk Modulus (GPa) = 47.93324 64.26958 56.10141
# Shear Modulus (GPa) = -18.56353 18.55107 -0.00623
#
# Velocity S-wave (km/s) = -3.41098 3.40983 -0.06249
# Velocity P-wave (km/s) = 3.81174 7.46886 5.92930
#
# Compressibility (1/GPa) = 0.02086235
#
# Stress axis : x y z
#
# Youngs Moduli (GPa) = 92.66643 47.17451 40.49814
#
# Poissons Ratio (x) = 0.36077 0.14700
# Poissons Ratio (y) = 0.70867 0.26860
# Poissons Ratio (z) = 0.33635 0.31288
#
# Static dielectric constant tensor:
#      x y z
#    x 3.346300 0.000000 0.000000 
#    y 0.000000 3.175750 0.000000 
#    z 0.000000 0.000000 2.679010 
# 
# 
# High freq. dielectric constant tensor:
#      x y z
#    x 1.629970 0.000000 0.000000 
#    y 0.000000 1.612220 0.000000 
#    z 0.000000 0.000000 1.553880 
# 
# From -- ./inp_files/18931.got.cif
#   From: 2010.03.12/outbox.cif.g09.slc.cpg/sg47_10_cif.got.tgz:18931.got - 2010.04.14 03:12:58.
