data_PCOD8200375
_publ_section_title
;
Structure prediction by ZEFSAII (Michael W. Deem and Ramdas Pophale) SiO2 
 PCOD8200375
Probable space group: P M M M
;
_chemical_formula_sum "Si O2"
_cell_formula_units_Z 44
_cell_length_a 8.131936
_cell_length_b 10.396673
_cell_length_c 28.867473
_cell_angle_alpha 90.000000
_cell_angle_beta 90.000000
_cell_angle_gamma 90.000000
_cell_volume 2440.602798
_symmetry_space_group_name_H-M "P M M M"
_symmetry_group_IT_number 47
_symmetry_cell_setting 'orthorhombic'
loop_
_space_group_symop_operation_xyz
x,y,z
-x,-y,z
x,-y,-z
-x,y,-z
-x,-y,-z
x,y,-z
-x,y,z
x,-y,z
loop_
_atom_site_type_symbol
_atom_site_label
_atom_site_fract_x
_atom_site_fract_y
_atom_site_fract_z
Si Si1 0.193332 0.642650 0.696476
Si Si2 0.000000 0.653270 0.947397
Si Si3 0.696589 0.000000 0.552338
Si Si4 0.187765 0.500000 0.445277
Si Si5 0.308994 0.249531 0.604272
Si Si6 0.183131 0.652918 0.796630
Si Si7 0.318162 0.346945 0.107841
O O1 0.265809 0.500000 0.684686
O O2 0.236588 0.741074 0.655835
O O3 0.259664 0.694049 0.746462
O O4 0.000000 0.630662 0.701813
O O5 0.167386 0.707131 0.923344
O O6 0.000000 0.500000 0.944607
O O7 0.000000 0.702571 0.000000
O O8 0.767250 0.874315 0.578503
O O9 0.500000 0.000000 0.551476
O O10 0.765374 0.000000 0.500000
O O11 0.203348 0.500000 0.500000
O O12 0.275109 0.625597 0.426140
O O13 0.000000 0.500000 0.428058
O O14 0.500000 0.229144 0.609797
O O15 0.172490 0.500000 0.797012
O O16 0.295179 0.701523 0.839144
O O17 0.000000 0.710215 0.803713
O O18 0.500000 0.299290 0.090808
O O19 0.312689 0.500000 0.105845
#
# Coordination Sequence:
#
# PCOD8200375 Si02
#       7
#     8   4   4   4   8   8   8
#     4   9  17  29  46  68  97 124 143 179 236 288
#     4   9  16  24  32  42  64  98 138 185 232 279
#     4   9  20  38  55  71  95 127 161 197 237 282
#     4  11  23  37  53  73  99 125 151 191 241 288
#     4  11  21  34  54  76  97 122 157 197 235 286
#     4   8  13  23  38  54  76 108 137 166 220 283
#     4   9  15  22  33  48  67  94 134 183 228 277
#
# _framework density 18.028333
#
# number of rings (size 3 to 8) (size 9 to 14) (size 15 to 20)
#    0.000    2.636    1.818    2.455    0.000    2.545 
#    0.000    5.455    0.000    3.273    0.000    0.000 
#    0.000    0.000    0.000    0.000    0.000    0.000 
#
# Total GULP energy -545230.020164 kJ/mol
# GULP energy per Si atom -12391.591367 kJ/mol
# Density = 1.798730 g / cm^3
# Si number density = 18.028333 Si / 1000 Ang^3
#
#
#
# Elastic Constant Matrix: (Units=GPa)
#
#
# Indices 1 2 3 4 5 6 
#
# 1 81.2520 10.6402 51.9925 0.0000 0.0000 0.0000
# 2 10.6402 61.8740 36.6281 0.0000 0.0000 0.0000
# 3 51.9925 36.6281 157.5783 0.0000 0.0000 0.0000
# 4 0.0000 0.0000 0.0000 10.6617 0.0000 0.0000
# 5 0.0000 0.0000 0.0000 0.0000 21.0683 0.0000
# 6 0.0000 0.0000 0.0000 0.0000 0.0000 -20.5197
#
#
#
# Elastic Compliance Matrix: (Units=1/GPa)
#
#
# Indices 1 2 3 4 5 6 
#
# 1 0.015611 0.000423 -0.005249 0.000000 0.000000 0.000000
# 2 0.000423 0.018752 -0.004498 0.000000 0.000000 0.000000
# 3 -0.005249 -0.004498 0.009124 0.000000 0.000000 0.000000
# 4 0.000000 0.000000 0.000000 0.093794 0.000000 0.000000
# 5 0.000000 0.000000 0.000000 0.000000 0.047465 0.000000
# 6 0.000000 0.000000 0.000000 0.000000 0.000000 -0.048734
#
#
# Mechanical properties :
#
#
# Convention : Reuss Voigt Hill
#
# Bulk Modulus (GPa) = 40.26187 55.46954 47.86570
# Shear Modulus (GPa) = 30.68625 15.67162 23.17893
#
# Velocity S-wave (km/s) = 4.13014 2.95155 3.58955
# Velocity P-wave (km/s) = 6.71752 6.51539 6.61723
#
# Compressibility (1/GPa) = 0.02483740
#
# Stress axis : x y z
#
# Youngs Moduli (GPa) = 64.05806 53.32743 109.60642
#
# Poissons Ratio (x) = -0.02255 0.57533
# Poissons Ratio (y) = -0.02708 0.49304
# Poissons Ratio (z) = 0.33624 0.23988
#
# Static dielectric constant tensor:
#      x y z
#    x 3.387200 0.000000 0.000000 
#    y 0.000000 2.858610 0.000000 
#    z 0.000000 0.000000 3.740480 
# 
# 
# High freq. dielectric constant tensor:
#      x y z
#    x 1.695100 0.000000 0.000000 
#    y 0.000000 1.614910 0.000000 
#    z 0.000000 0.000000 1.714620 
# 
# From -- ./inp_files/34008.got.cif
#   From: 2010.03.12/outbox.cif.g09.slc.cpg/sg47_18_cif.got.tgz:34008.got - 2010.04.14 03:12:58.
