data_PCOD8200471
_publ_section_title
;
Structure prediction by ZEFSAII (Michael W. Deem and Ramdas Pophale) SiO2 
 PCOD8200471
Probable space group: P M M M
;
_chemical_formula_sum "Si O2"
_cell_formula_units_Z 52
_cell_length_a 10.651742
_cell_length_b 28.472577
_cell_length_c 10.169009
_cell_angle_alpha 90.000000
_cell_angle_beta 90.000000
_cell_angle_gamma 90.000000
_cell_volume 3084.082922
_symmetry_space_group_name_H-M "P M M M"
_symmetry_group_IT_number 47
_symmetry_cell_setting 'orthorhombic'
loop_
_space_group_symop_operation_xyz
x,y,z
-x,-y,z
x,-y,-z
-x,y,-z
-x,-y,-z
x,y,-z
-x,y,z
x,-y,z
loop_
_atom_site_type_symbol
_atom_site_label
_atom_site_fract_x
_atom_site_fract_y
_atom_site_fract_z
Si Si1 0.000000 0.555034 0.351009
Si Si2 0.353146 0.551893 0.000000
Si Si3 0.754033 0.401624 0.746497
Si Si4 0.357369 0.447885 0.500000
Si Si5 0.860112 0.204899 0.844305
Si Si6 0.351590 0.052119 0.646062
Si Si7 0.646471 0.132120 0.845892
Si Si8 0.854137 0.689944 0.151173
O O1 0.884243 0.572015 0.266592
O O2 0.000000 0.500000 0.360212
O O3 0.000000 0.576314 0.500000
O O4 0.313929 0.580891 0.874757
O O5 0.290962 0.500000 0.000000
O O6 0.500000 0.546084 0.000000
O O7 0.670407 0.415107 0.622997
O O8 0.774417 0.345501 0.757848
O O9 0.286897 0.500000 0.500000
O O10 0.500000 0.461277 0.500000
O O11 0.743395 0.172534 0.799364
O O12 0.831144 0.257508 0.793673
O O13 0.000000 0.188471 0.792989
O O14 0.866907 0.206302 0.000000
O O15 0.304874 0.068274 0.500000
O O16 0.500000 0.049697 0.644778
O O17 0.309030 0.087444 0.760659
O O18 0.297740 0.000000 0.677556
O O19 0.500000 0.146189 0.817548
O O20 0.663141 0.120151 0.000000
O O21 0.000000 0.676685 0.161784
O O22 0.809557 0.685547 0.000000
#
# Coordination Sequence:
#
# PCOD8200471 Si02
#       8
#     4   4   8   4   8   8   8   8
#     4  11  22  35  53  81 107 127 157 203 258 305
#     4  11  24  39  53  75 107 138 169 203 242 297
#     4  12  21  36  58  79 102 129 164 209 251 298
#     4  11  24  41  57  71  97 142 177 193 230 301
#     4   8  15  29  50  70  96 133 167 195 241 306
#     4   8  14  25  42  65  96 135 170 196 238 300
#     4   9  16  26  44  73 100 121 158 214 254 275
#     4   9  17  32  52  78 103 127 156 198 252 304
#
# _framework density 16.860766000000002
#
# number of rings (size 3 to 8) (size 9 to 14) (size 15 to 20)
#    0.000    2.385    2.308    3.231    0.000    1.846 
#    0.000    3.846    1.692    0.923    0.000    3.231 
#    0.000    0.000    0.000    0.000    0.000    0.000 
#
# Total GULP energy -644326.888714 kJ/mol
# GULP energy per Si atom -12390.901706 kJ/mol
# Density = 1.682239 g / cm^3
# Si number density = 16.860766 Si / 1000 Ang^3
#
#
#
# Elastic Constant Matrix: (Units=GPa)
#
#
# Indices 1 2 3 4 5 6 
#
# 1 73.6653 50.9279 30.4606 0.0000 0.0000 0.0000
# 2 50.9279 130.7832 55.2969 0.0000 0.0000 0.0000
# 3 30.4606 55.2969 89.7067 0.0000 0.0000 0.0000
# 4 0.0000 0.0000 0.0000 14.3698 0.0000 0.0000
# 5 0.0000 0.0000 0.0000 0.0000 16.3696 0.0000
# 6 0.0000 0.0000 0.0000 0.0000 0.0000 21.8423
#
#
#
# Elastic Compliance Matrix: (Units=1/GPa)
#
#
# Indices 1 2 3 4 5 6 
#
# 1 0.019000 -0.006317 -0.002557 0.000000 0.000000 0.000000
# 2 -0.006317 0.012442 -0.005524 0.000000 0.000000 0.000000
# 3 -0.002557 -0.005524 0.015421 0.000000 0.000000 0.000000
# 4 0.000000 0.000000 0.000000 0.069591 0.000000 0.000000
# 5 0.000000 0.000000 0.000000 0.000000 0.061089 0.000000
# 6 0.000000 0.000000 0.000000 0.000000 0.000000 0.045783
#
#
# Mechanical properties :
#
#
# Convention : Reuss Voigt Hill
#
# Bulk Modulus (GPa) = 55.35649 63.05844 59.20746
# Shear Modulus (GPa) = 19.36894 21.01432 20.19163
#
# Velocity S-wave (km/s) = 3.39301 3.53419 3.46432
# Velocity P-wave (km/s) = 6.94643 7.35763 7.15498
#
# Compressibility (1/GPa) = 0.01806473
#
# Stress axis : x y z
#
# Youngs Moduli (GPa) = 52.63198 80.37254 64.84590
#
# Poissons Ratio (x) = 0.50774 0.16584
# Poissons Ratio (y) = 0.33250 0.35823
# Poissons Ratio (z) = 0.13460 0.44401
#
# Static dielectric constant tensor:
#      x y z
#    x 3.191630 0.000000 0.000000 
#    y 0.000000 3.375200 0.000000 
#    z 0.000000 0.000000 2.603050 
# 
# 
# High freq. dielectric constant tensor:
#      x y z
#    x 1.635060 0.000000 0.000000 
#    y 0.000000 1.646990 0.000000 
#    z 0.000000 0.000000 1.635040 
# 
# From -- ./inp_files/4852.got.cif
#   From: 2010.03.12/outbox.cif.g09.slc.cpg/sg47_3_cif.got.tgz:4852.got - 2010.04.14 03:12:58.
