data_PCOD8200958
_publ_section_title
;
Structure prediction by ZEFSAII (Michael W. Deem and Ramdas Pophale) SiO2 
 PCOD8200958
Probable space group: P M M M
;
_chemical_formula_sum "Si O2"
_cell_formula_units_Z 48
_cell_length_a 9.741517
_cell_length_b 9.445586
_cell_length_c 30.833366
_cell_angle_alpha 90.000000
_cell_angle_beta 90.000000
_cell_angle_gamma 90.000000
_cell_volume 2837.111717
_symmetry_space_group_name_H-M "P M M M"
_symmetry_group_IT_number 47
_symmetry_cell_setting 'orthorhombic'
loop_
_space_group_symop_operation_xyz
x,y,z
-x,-y,z
x,-y,-z
-x,y,-z
-x,-y,-z
x,y,-z
-x,y,z
x,-y,z
loop_
_atom_site_type_symbol
_atom_site_label
_atom_site_fract_x
_atom_site_fract_y
_atom_site_fract_z
Si Si1 0.658921 0.164278 0.790140
Si Si2 0.336616 0.340760 0.127121
Si Si3 0.345918 0.331793 0.452071
Si Si4 0.158022 0.164079 0.290845
Si Si5 0.841519 0.665124 0.375041
Si Si6 0.336716 0.158864 0.951919
O O1 0.500000 0.195424 0.779606
O O2 0.712350 0.254931 0.830756
O O3 0.748315 0.212176 0.749158
O O4 0.681990 0.000000 0.801486
O O5 0.500000 0.341703 0.125082
O O6 0.278136 0.500000 0.129291
O O7 0.275872 0.265166 0.084109
O O8 0.302531 0.276194 0.500000
O O9 0.500000 0.280401 0.441166
O O10 0.339602 0.500000 0.452136
O O11 0.243083 0.272167 0.415709
O O12 0.206630 0.253360 0.332190
O O13 0.000000 0.196365 0.279086
O O14 0.180511 0.000000 0.301835
O O15 0.811766 0.500000 0.367519
O O16 0.000000 0.694418 0.385264
O O17 0.500000 0.158935 0.949540
O O18 0.282955 0.000000 0.942481
O O19 0.288953 0.208093 0.000000
#
# Coordination Sequence:
#
# PCOD8200958 Si02
#       6
#     8   8   8   8   8   8
#     4   9  17  29  44  60  79 106 139 171 204 246
#     4   9  16  24  35  54  80 107 135 171 213 251
#     4   8  14  25  41  62  88 115 141 170 205 244
#     4   9  18  32  47  62  83 111 140 171 209 251
#     4   9  17  28  43  64  86 107 135 172 210 245
#     4   8  13  21  33  49  72 106 144 175 205 246
#
# _framework density 16.918614999999999
#
# number of rings (size 3 to 8) (size 9 to 14) (size 15 to 20)
#    0.000    3.333    0.000    1.500    0.000    4.000 
#    0.000    3.333    0.000    0.500    0.000    3.500 
#    0.000    0.667    0.000    7.667    0.000    9.833 
#
# Total GULP energy -595016.693502 kJ/mol
# GULP energy per Si atom -12396.181115 kJ/mol
# Density = 1.688011 g / cm^3
# Si number density = 16.918615 Si / 1000 Ang^3
#
#
#
# Elastic Constant Matrix: (Units=GPa)
#
#
# Indices 1 2 3 4 5 6 
#
# 1 45.3924 29.3402 64.4702 0.0000 0.0000 0.0000
# 2 29.3402 72.7113 77.5446 0.0000 0.0000 0.0000
# 3 64.4702 77.5446 187.5841 0.0000 0.0000 0.0000
# 4 0.0000 0.0000 0.0000 27.8910 0.0000 0.0000
# 5 0.0000 0.0000 0.0000 0.0000 5.6127 0.0000
# 6 0.0000 0.0000 0.0000 0.0000 0.0000 11.0984
#
#
#
# Elastic Compliance Matrix: (Units=1/GPa)
#
#
# Indices 1 2 3 4 5 6 
#
# 1 0.043371 -0.002869 -0.013720 0.000000 0.000000 0.000000
# 2 -0.002869 0.024787 -0.009261 0.000000 0.000000 0.000000
# 3 -0.013720 -0.009261 0.013875 0.000000 0.000000 0.000000
# 4 0.000000 0.000000 0.000000 0.035854 0.000000 0.000000
# 5 0.000000 0.000000 0.000000 0.000000 0.178166 0.000000
# 6 0.000000 0.000000 0.000000 0.000000 0.000000 0.090103
#
#
# Mechanical properties :
#
#
# Convention : Reuss Voigt Hill
#
# Bulk Modulus (GPa) = 32.96703 72.04420 52.50561
# Shear Modulus (GPa) = 11.16160 17.87595 14.51877
#
# Velocity S-wave (km/s) = 2.57129 3.25404 2.93260
# Velocity P-wave (km/s) = 5.32385 7.53615 6.52445
#
# Compressibility (1/GPa) = 0.03033334
#
# Stress axis : x y z
#
# Youngs Moduli (GPa) = 23.05697 40.34422 72.07457
#
# Poissons Ratio (x) = 0.11574 0.98887
# Poissons Ratio (y) = 0.06615 0.66745
# Poissons Ratio (z) = 0.31634 0.37361
#
# Static dielectric constant tensor:
#      x y z
#    x 2.864470 0.000000 0.000000 
#    y 0.000000 3.092350 0.000000 
#    z 0.000000 0.000000 3.453380 
# 
# 
# High freq. dielectric constant tensor:
#      x y z
#    x 1.609130 0.000000 0.000000 
#    y 0.000000 1.633580 0.000000 
#    z 0.000000 0.000000 1.665190 
# 
# From -- ./inp_files/4334.got.cif
#   From: 2010.03.12/outbox.cif.g09.slc.cpg/sg47_3_cif.got.tgz:4334.got - 2010.04.14 03:12:58.
