data_PCOD8200390
_publ_section_title
;
Structure prediction by ZEFSAII (Michael W. Deem and Ramdas Pophale) SiO2 
 PCOD8200390
Probable space group: P M M M
;
_chemical_formula_sum "Si O2"
_cell_formula_units_Z 28
_cell_length_a 11.738409
_cell_length_b 16.764504
_cell_length_c 7.742832
_cell_angle_alpha 90.000000
_cell_angle_beta 90.000000
_cell_angle_gamma 90.000000
_cell_volume 1523.701105
_symmetry_space_group_name_H-M "P M M M"
_symmetry_group_IT_number 47
_symmetry_cell_setting 'orthorhombic'
loop_
_space_group_symop_operation_xyz
x,y,z
-x,-y,z
x,-y,-z
-x,y,-z
-x,-y,-z
x,y,-z
-x,y,z
x,-y,z
loop_
_atom_site_type_symbol
_atom_site_label
_atom_site_fract_x
_atom_site_fract_y
_atom_site_fract_z
Si Si1 0.365412 0.091553 0.000000
Si Si2 0.000000 0.905810 0.804305
Si Si3 0.134901 0.500000 0.811312
Si Si4 0.129284 0.328522 0.793898
Si Si5 0.231114 0.831411 0.692371
O O1 0.320171 0.134337 0.828933
O O2 0.500000 0.097480 0.000000
O O3 0.323104 0.000000 0.000000
O O4 0.110856 0.875152 0.707994
O O5 0.000000 0.000000 0.803156
O O6 0.000000 0.872008 0.000000
O O7 0.167876 0.416028 0.718431
O O8 0.000000 0.500000 0.834401
O O9 0.192852 0.500000 0.000000
O O10 0.215010 0.263128 0.719075
O O11 0.000000 0.308130 0.735256
O O12 0.135683 0.329897 0.000000
O O13 0.279493 0.846495 0.500000
#
# Coordination Sequence:
#
# PCOD8200390 Si02
#       5
#     4   4   4   8   8
#     4  11  26  47  65  80 103 141 192 245 290 334
#     4  11  21  35  55  81 115 150 182 221 278 343
#     4   7  12  22  43  73 109 155 193 218 255 312
#     4   9  15  28  49  78 117 155 188 222 264 324
#     4  12  23  36  58  87 116 148 184 227 283 340
#
# _framework density 18.376307000000001
#
# number of rings (size 3 to 8) (size 9 to 14) (size 15 to 20)
#    0.000    1.857    4.286    3.000    0.000    3.429 
#    0.000    2.143    0.000    2.571    0.000    2.000 
#    0.000    2.286    0.000    0.000    0.000    0.000 
#
# Total GULP energy -347014.596207 kJ/mol
# GULP energy per Si atom -12393.378436 kJ/mol
# Density = 1.833448 g / cm^3
# Si number density = 18.376307 Si / 1000 Ang^3
#
#
#
# Elastic Constant Matrix: (Units=GPa)
#
#
# Indices 1 2 3 4 5 6 
#
# 1 52.1808 39.0463 28.7803 0.0000 0.0000 0.0000
# 2 39.0463 152.2813 50.4609 0.0000 0.0000 0.0000
# 3 28.7803 50.4609 117.2668 0.0000 0.0000 0.0000
# 4 0.0000 0.0000 0.0000 0.2675 0.0000 0.0000
# 5 0.0000 0.0000 0.0000 0.0000 4.8108 0.0000
# 6 0.0000 0.0000 0.0000 0.0000 0.0000 9.9468
#
#
#
# Elastic Compliance Matrix: (Units=1/GPa)
#
#
# Indices 1 2 3 4 5 6 
#
# 1 0.025206 -0.005147 -0.003971 0.000000 0.000000 0.000000
# 2 -0.005147 0.008710 -0.002485 0.000000 0.000000 0.000000
# 3 -0.003971 -0.002485 0.010571 0.000000 0.000000 0.000000
# 4 0.000000 0.000000 0.000000 3.738342 0.000000 0.000000
# 5 0.000000 0.000000 0.000000 0.000000 0.207864 0.000000
# 6 0.000000 0.000000 0.000000 0.000000 0.000000 0.100535
#
#
# Mechanical properties :
#
#
# Convention : Reuss Voigt Hill
#
# Bulk Modulus (GPa) = 46.99021 62.03378 54.51200
# Shear Modulus (GPa) = 1.21314 16.56778 8.89046
#
# Velocity S-wave (km/s) = 0.81339 3.00590 2.20193
# Velocity P-wave (km/s) = 5.14866 6.77333 6.01609
#
# Compressibility (1/GPa) = 0.02128103
#
# Stress axis : x y z
#
# Youngs Moduli (GPa) = 39.67302 114.81177 94.59451
#
# Poissons Ratio (x) = 0.59095 0.37567
# Poissons Ratio (y) = 0.20420 0.23504
# Poissons Ratio (z) = 0.15756 0.28528
#
# Static dielectric constant tensor:
#      x y z
#    x 2.865110 0.000000 0.000000 
#    y 0.000000 4.022930 0.000000 
#    z 0.000000 0.000000 3.311730 
# 
# 
# High freq. dielectric constant tensor:
#      x y z
#    x 1.642340 0.000000 0.000000 
#    y 0.000000 1.743030 0.000000 
#    z 0.000000 0.000000 1.705340 
# 
# From -- ./inp_files/3533.got.cif
#   From: 2010.03.12/outbox.cif.g09.slc.cpg/sg47_2_cif.got.tgz:3533.got - 2010.04.14 03:12:58.
