data_PCOD8200228
_publ_section_title
;
Structure prediction by ZEFSAII (Michael W. Deem and Ramdas Pophale) SiO2 
 PCOD8200228
Probable space group: P M M M
;
_chemical_formula_sum "Si O2"
_cell_formula_units_Z 64
_cell_length_a 8.873213
_cell_length_b 20.135053
_cell_length_c 20.196289
_cell_angle_alpha 90.000000
_cell_angle_beta 90.000000
_cell_angle_gamma 90.000000
_cell_volume 3608.321787
_symmetry_space_group_name_H-M "P M M M"
_symmetry_group_IT_number 47
_symmetry_cell_setting 'orthorhombic'
loop_
_space_group_symop_operation_xyz
x,y,z
-x,-y,z
x,-y,-z
-x,y,-z
-x,-y,-z
x,y,-z
-x,y,z
x,-y,z
loop_
_atom_site_type_symbol
_atom_site_label
_atom_site_fract_x
_atom_site_fract_y
_atom_site_fract_z
Si Si1 0.174186 0.657784 0.686319
Si Si2 0.827303 0.881915 0.071648
Si Si3 0.323025 0.248600 0.107186
Si Si4 0.823641 0.785455 0.758291
Si Si5 0.322095 0.425661 0.574988
Si Si6 0.174182 0.381661 0.926417
Si Si7 0.328368 0.425231 0.201398
Si Si8 0.823366 0.070777 0.212957
O O1 0.201382 0.737825 0.694342
O O2 0.255929 0.631481 0.621188
O O3 0.230888 0.621540 0.751937
O O4 0.000000 0.641553 0.678031
O O5 0.719868 0.818425 0.069761
O O6 0.782247 0.926751 0.134535
O O7 0.000000 0.858434 0.080755
O O8 0.807579 0.918805 0.000000
O O9 0.500000 0.261106 0.102887
O O10 0.272466 0.246757 0.183409
O O11 0.236611 0.307363 0.070944
O O12 0.766855 0.862504 0.748253
O O13 0.000000 0.786097 0.778438
O O14 0.271102 0.410415 0.500000
O O15 0.500000 0.422777 0.581446
O O16 0.266773 0.500000 0.595315
O O17 0.265911 0.424659 0.873214
O O18 0.000000 0.381186 0.905308
O O19 0.193960 0.412755 0.000000
O O20 0.500000 0.399418 0.201520
O O21 0.319960 0.500000 0.228994
O O22 0.000000 0.066509 0.223070
O O23 0.753266 0.000000 0.239291
#
# Coordination Sequence:
#
# PCOD8200228 Si02
#       8
#     8   8   8   8   8   8   8   8
#     4  11  21  33  54  80 107 138 171 209 249 293
#     4   9  17  28  42  61  87 117 150 194 250 309
#     4  11  20  30  47  68  89 117 156 201 250 305
#     4   9  18  32  49  71  99 127 160 204 251 294
#     4   9  19  36  56  79 111 148 179 208 245 290
#     4  11  23  37  52  68  89 119 157 206 264 318
#     4  11  24  39  54  73  97 126 164 209 253 302
#     4   8  14  26  45  67  91 121 159 203 249 300
#
# _framework density 17.736777
#
# number of rings (size 3 to 8) (size 9 to 14) (size 15 to 20)
#    0.000    2.125    1.250    4.125    0.000    6.750 
#    0.000    3.125    0.000    6.000    0.000    3.500 
#    0.000    0.500    0.000    6.250    0.000    1.000 
#
# Total GULP energy -793009.003802 kJ/mol
# GULP energy per Si atom -12390.765684 kJ/mol
# Density = 1.769641 g / cm^3
# Si number density = 17.736777 Si / 1000 Ang^3
#
#
#
# Elastic Constant Matrix: (Units=GPa)
#
#
# Indices 1 2 3 4 5 6 
#
# 1 26.8999 12.4954 18.0922 0.0000 0.0000 0.0000
# 2 12.4954 107.3908 47.7440 0.0000 0.0000 0.0000
# 3 18.0922 47.7440 81.7660 0.0000 0.0000 0.0000
# 4 0.0000 0.0000 0.0000 17.2341 0.0000 0.0000
# 5 0.0000 0.0000 0.0000 0.0000 22.2575 0.0000
# 6 0.0000 0.0000 0.0000 0.0000 0.0000 -1.1228
#
#
#
# Elastic Compliance Matrix: (Units=1/GPa)
#
#
# Indices 1 2 3 4 5 6 
#
# 1 0.043764 -0.001063 -0.009063 0.000000 0.000000 0.000000
# 2 -0.001063 0.012602 -0.007124 0.000000 0.000000 0.000000
# 3 -0.009063 -0.007124 0.018395 0.000000 0.000000 0.000000
# 4 0.000000 0.000000 0.000000 0.058025 0.000000 0.000000
# 5 0.000000 0.000000 0.000000 0.000000 0.044929 0.000000
# 6 0.000000 0.000000 0.000000 0.000000 0.000000 -0.890628
#
#
# Mechanical properties :
#
#
# Convention : Reuss Voigt Hill
#
# Bulk Modulus (GPa) = 24.83693 41.41335 33.12514
# Shear Modulus (GPa) = -7.51887 16.85541 4.66827
#
# Velocity S-wave (km/s) = -2.06115 3.08605 1.62410
# Velocity P-wave (km/s) = 2.89292 6.00815 4.71523
#
# Compressibility (1/GPa) = 0.04026262
#
# Stress axis : x y z
#
# Youngs Moduli (GPa) = 22.84977 79.34962 54.36301
#
# Poissons Ratio (x) = 0.08434 0.49269
# Poissons Ratio (y) = 0.02429 0.38726
# Poissons Ratio (z) = 0.20709 0.56525
#
# Static dielectric constant tensor:
#      x y z
#    x 3.165390 0.000000 0.000000 
#    y 0.000000 3.636610 0.000000 
#    z 0.000000 0.000000 3.078620 
# 
# 
# High freq. dielectric constant tensor:
#      x y z
#    x 1.675970 0.000000 0.000000 
#    y 0.000000 1.685260 0.000000 
#    z 0.000000 0.000000 1.647740 
# 
# From -- ./inp_files/30126.got.cif
#   From: 2010.03.12/outbox.cif.g09.slc.cpg/sg47_16_cif.got.tgz:30126.got - 2010.04.14 03:12:58.
