data_PCOD8200774
_publ_section_title
;
Structure prediction by ZEFSAII (Michael W. Deem and Ramdas Pophale) SiO2 
 PCOD8200774
Probable space group: P M M M
;
_chemical_formula_sum "Si O2"
_cell_formula_units_Z 64
_cell_length_a 23.816661
_cell_length_b 9.586466
_cell_length_c 19.098325
_cell_angle_alpha 90.000000
_cell_angle_beta 90.000000
_cell_angle_gamma 90.000000
_cell_volume 4360.483936
_symmetry_space_group_name_H-M "P M M M"
_symmetry_group_IT_number 47
_symmetry_cell_setting 'orthorhombic'
loop_
_space_group_symop_operation_xyz
x,y,z
-x,-y,z
x,-y,-z
-x,y,-z
-x,-y,-z
x,y,-z
-x,y,z
x,-y,z
loop_
_atom_site_type_symbol
_atom_site_label
_atom_site_fract_x
_atom_site_fract_y
_atom_site_fract_z
Si Si1 0.777725 0.161282 0.919611
Si Si2 0.834402 0.661030 0.807938
Si Si3 0.062139 0.666029 0.717354
Si Si4 0.437724 0.165481 0.921824
Si Si5 0.722179 0.660946 0.277707
Si Si6 0.666531 0.162491 0.165136
Si Si7 0.239723 0.334540 0.423916
Si Si8 0.113748 0.334172 0.423689
O O1 0.823615 0.250787 0.877894
O O2 0.715637 0.190906 0.890556
O O3 0.793715 0.000000 0.910965
O O4 0.778891 0.208456 0.000000
O O5 0.839762 0.500000 0.829801
O O6 0.891940 0.718319 0.773403
O O7 0.784631 0.682496 0.752343
O O8 0.064275 0.500000 0.714847
O O9 0.076143 0.725726 0.639708
O O10 0.000000 0.718954 0.739038
O O11 0.500000 0.210050 0.895834
O O12 0.390894 0.222525 0.868452
O O13 0.432666 0.000000 0.925202
O O14 0.427037 0.225216 0.000000
O O15 0.703819 0.500000 0.271711
O O16 0.677146 0.753375 0.236389
O O17 0.722276 0.715317 0.358425
O O18 0.662021 0.000000 0.184263
O O19 0.264925 0.287931 0.500000
O O20 0.235926 0.500000 0.420111
O O21 0.176851 0.274502 0.416078
O O22 0.089153 0.288998 0.500000
O O23 0.115553 0.500000 0.418888
#
# Coordination Sequence:
#
# PCOD8200774 Si02
#       8
#     8   8   8   8   8   8   8   8
#     4   9  17  28  42  59  77  97 121 153 191 225
#     4   9  16  26  39  56  77  99 123 151 187 231
#     4   9  15  22  33  50  74 101 125 152 188 228
#     4   8  13  22  38  59  81 106 135 161 182 212
#     4   9  15  24  38  55  77 104 131 158 189 225
#     4   9  16  25  39  60  83 103 125 156 189 220
#     4   8  12  19  33  51  72 100 131 158 184 220
#     4   8  12  18  29  47  72 100 127 153 182 219
#
# _framework density 14.677269000000001
#
# number of rings (size 3 to 8) (size 9 to 14) (size 15 to 20)
#    0.000    3.375    1.250    1.500    0.000    2.000 
#    0.000    1.250    0.000    2.625    0.000    3.500 
#    0.000    1.000    0.000    7.375    0.000    1.250 
#
# Total GULP energy -793036.807292 kJ/mol
# GULP energy per Si atom -12391.200114 kJ/mol
# Density = 1.464386 g / cm^3
# Si number density = 14.677269 Si / 1000 Ang^3
#
#
#
# Elastic Constant Matrix: (Units=GPa)
#
#
# Indices 1 2 3 4 5 6 
#
# 1 95.3827 23.3511 62.3029 0.0000 0.0000 0.0000
# 2 23.3511 24.0400 33.0080 0.0000 0.0000 0.0000
# 3 62.3029 33.0080 126.5426 0.0000 0.0000 0.0000
# 4 0.0000 0.0000 0.0000 11.6737 0.0000 0.0000
# 5 0.0000 0.0000 0.0000 0.0000 25.6521 0.0000
# 6 0.0000 0.0000 0.0000 0.0000 0.0000 12.2495
#
#
#
# Elastic Compliance Matrix: (Units=1/GPa)
#
#
# Indices 1 2 3 4 5 6 
#
# 1 0.016276 -0.007489 -0.006060 0.000000 0.000000 0.000000
# 2 -0.007489 0.068254 -0.014117 0.000000 0.000000 0.000000
# 3 -0.006060 -0.014117 0.014568 0.000000 0.000000 0.000000
# 4 0.000000 0.000000 0.000000 0.085663 0.000000 0.000000
# 5 0.000000 0.000000 0.000000 0.000000 0.038983 0.000000
# 6 0.000000 0.000000 0.000000 0.000000 0.000000 0.081636
#
#
# Mechanical properties :
#
#
# Convention : Reuss Voigt Hill
#
# Bulk Modulus (GPa) = 22.84796 53.69882 38.27339
# Shear Modulus (GPa) = 13.32266 18.40193 15.86230
#
# Velocity S-wave (km/s) = 3.01609 3.54470 3.29103
# Velocity P-wave (km/s) = 5.26590 7.30883 6.36980
#
# Compressibility (1/GPa) = 0.04376759
#
# Stress axis : x y z
#
# Youngs Moduli (GPa) = 61.44134 14.65107 68.64203
#
# Poissons Ratio (x) = 0.10972 0.41596
# Poissons Ratio (y) = 0.46012 0.96900
# Poissons Ratio (z) = 0.37233 0.20683
#
# Static dielectric constant tensor:
#      x y z
#    x 2.821870 0.000000 0.000000 
#    y 0.000000 2.437470 0.000000 
#    z 0.000000 0.000000 3.075250 
# 
# 
# High freq. dielectric constant tensor:
#      x y z
#    x 1.535970 0.000000 0.000000 
#    y 0.000000 1.511130 0.000000 
#    z 0.000000 0.000000 1.564350 
# 
# From -- ./inp_files/28837.got.cif
#   From: 2010.03.12/outbox.cif.g09.slc.cpg/sg47_15_cif.got.tgz:28837.got - 2010.04.14 03:12:58.
