data_PCOD8200726
_publ_section_title
;
Structure prediction by ZEFSAII (Michael W. Deem and Ramdas Pophale) SiO2 
 PCOD8200726
Probable space group: P M M M
;
_chemical_formula_sum "Si O2"
_cell_formula_units_Z 52
_cell_length_a 33.862364
_cell_length_b 9.536385
_cell_length_c 9.525746
_cell_angle_alpha 90.000000
_cell_angle_beta 90.000000
_cell_angle_gamma 90.000000
_cell_volume 3076.097146
_symmetry_space_group_name_H-M "P M M M"
_symmetry_group_IT_number 47
_symmetry_cell_setting 'orthorhombic'
loop_
_space_group_symop_operation_xyz
x,y,z
-x,-y,z
x,-y,-z
-x,y,-z
-x,-y,-z
x,y,-z
-x,y,z
x,-y,z
loop_
_atom_site_type_symbol
_atom_site_label
_atom_site_fract_x
_atom_site_fract_y
_atom_site_fract_z
Si Si1 0.574271 0.662291 0.163966
Si Si2 0.500000 0.158951 0.166713
Si Si3 0.277603 0.844829 0.666786
Si Si4 0.958250 0.342764 0.833381
Si Si5 0.810392 0.162933 0.336584
Si Si6 0.127002 0.333352 0.838080
Si Si7 0.349717 0.662898 0.337836
O O1 0.563815 0.500000 0.194362
O O2 0.538488 0.757939 0.220106
O O3 0.612663 0.711530 0.248683
O O4 0.582426 0.686574 0.000000
O O5 0.500000 0.000000 0.226319
O O6 0.500000 0.157622 0.000000
O O7 0.277817 0.847251 0.500000
O O8 0.233893 0.797776 0.715418
O O9 0.311139 0.740415 0.723622
O O10 0.287064 0.000000 0.725019
O O11 0.959865 0.500000 0.773689
O O12 0.916388 0.275529 0.785145
O O13 0.000000 0.266667 0.786016
O O14 0.956640 0.348666 0.000000
O O15 0.815468 0.196696 0.500000
O O16 0.840120 0.259134 0.252675
O O17 0.818997 0.000000 0.306364
O O18 0.129374 0.500000 0.816513
O O19 0.134056 0.293869 0.000000
O O20 0.357635 0.701426 0.500000
O O21 0.341406 0.500000 0.317700
#
# Coordination Sequence:
#
# PCOD8200726 Si02
#       7
#     8   4   8   8   8   8   8
#     4   9  17  30  47  65  87 116 145 171 206 253
#     4   9  17  29  46  67  88 112 146 183 210 238
#     4   8  15  29  47  64  83 111 147 182 214 253
#     4   7  10  19  37  60  85 112 141 175 217 264
#     4   9  18  32  48  65  87 119 157 189 219 264
#     4   9  17  28  44  69  95 115 142 184 230 271
#     4   9  17  29  46  68  90 111 139 176 216 256
#
# _framework density 16.904537999999999
#
# number of rings (size 3 to 8) (size 9 to 14) (size 15 to 20)
#    0.000    3.462    0.000    2.538    0.000    2.769 
#    0.000    2.692    0.000    6.000    0.000    5.385 
#    0.000    0.000    0.000    0.000    0.000    0.000 
#
# Total GULP energy -644198.372858 kJ/mol
# GULP energy per Si atom -12388.430247 kJ/mol
# Density = 1.686606 g / cm^3
# Si number density = 16.904538 Si / 1000 Ang^3
#
#
#
# Elastic Constant Matrix: (Units=GPa)
#
#
# Indices 1 2 3 4 5 6 
#
# 1 190.1371 76.6977 49.3567 0.0000 0.0000 0.0000
# 2 76.6977 63.4210 28.6103 0.0000 0.0000 0.0000
# 3 49.3567 28.6103 36.0816 0.0000 0.0000 0.0000
# 4 0.0000 0.0000 0.0000 17.7689 0.0000 0.0000
# 5 0.0000 0.0000 0.0000 0.0000 41.0444 0.0000
# 6 0.0000 0.0000 0.0000 0.0000 0.0000 5.0234
#
#
#
# Elastic Compliance Matrix: (Units=1/GPa)
#
#
# Indices 1 2 3 4 5 6 
#
# 1 0.011365 -0.010480 -0.007237 0.000000 0.000000 0.000000
# 2 -0.010480 0.034212 -0.012792 0.000000 0.000000 0.000000
# 3 -0.007237 -0.012792 0.047758 0.000000 0.000000 0.000000
# 4 0.000000 0.000000 0.000000 0.056278 0.000000 0.000000
# 5 0.000000 0.000000 0.000000 0.000000 0.024364 0.000000
# 6 0.000000 0.000000 0.000000 0.000000 0.000000 0.199067
#
#
# Mechanical properties :
#
#
# Convention : Reuss Voigt Hill
#
# Bulk Modulus (GPa) = 30.94330 66.55212 48.74771
# Shear Modulus (GPa) = 11.24010 21.76566 16.50288
#
# Velocity S-wave (km/s) = 2.58139 3.59216 3.12787
# Velocity P-wave (km/s) = 5.21817 7.52726 6.47645
#
# Compressibility (1/GPa) = 0.03231717
#
# Stress axis : x y z
#
# Youngs Moduli (GPa) = 87.98644 29.22929 20.93878
#
# Poissons Ratio (x) = 0.30632 0.15154
# Poissons Ratio (y) = 0.92209 0.26786
# Poissons Ratio (z) = 0.63677 0.37391
#
# Static dielectric constant tensor:
#      x y z
#    x 3.621670 0.000000 0.000000 
#    y 0.000000 3.054230 0.000000 
#    z 0.000000 0.000000 2.772450 
# 
# 
# High freq. dielectric constant tensor:
#      x y z
#    x 1.674370 0.000000 0.000000 
#    y 0.000000 1.629680 0.000000 
#    z 0.000000 0.000000 1.606650 
# 
# From -- ./inp_files/20028.got.cif
#   From: 2010.03.12/outbox.cif.g09.slc.cpg/sg47_11_cif.got.tgz:20028.got - 2010.04.14 03:12:58.
