data_PCOD8200254
_publ_section_title
;
Structure prediction by ZEFSAII (Michael W. Deem and Ramdas Pophale) SiO2 
 PCOD8200254
Probable space group: P M M M
;
_chemical_formula_sum "Si O2"
_cell_formula_units_Z 64
_cell_length_a 20.133414
_cell_length_b 20.119318
_cell_length_c 8.940185
_cell_angle_alpha 90.000000
_cell_angle_beta 90.000000
_cell_angle_gamma 90.000000
_cell_volume 3621.405733
_symmetry_space_group_name_H-M "P M M M"
_symmetry_group_IT_number 47
_symmetry_cell_setting 'orthorhombic'
loop_
_space_group_symop_operation_xyz
x,y,z
-x,-y,z
x,-y,-z
-x,y,-z
-x,-y,-z
x,y,-z
-x,y,z
x,-y,z
loop_
_atom_site_type_symbol
_atom_site_label
_atom_site_fract_x
_atom_site_fract_y
_atom_site_fract_z
Si Si1 0.926045 0.574391 0.677784
Si Si2 0.701580 0.425356 0.828089
Si Si3 0.429279 0.894769 0.825363
Si Si4 0.191824 0.665558 0.322940
Si Si5 0.241419 0.211314 0.170258
Si Si6 0.425007 0.381700 0.672948
Si Si7 0.607490 0.251708 0.832115
Si Si8 0.712836 0.072361 0.177687
O O1 0.923859 0.574444 0.500000
O O2 0.908124 0.500000 0.735511
O O3 0.873430 0.627833 0.740892
O O4 0.000000 0.594135 0.733401
O O5 0.729296 0.500000 0.808883
O O6 0.743885 0.374400 0.730823
O O7 0.625507 0.424261 0.773091
O O8 0.704638 0.402328 0.000000
O O9 0.500000 0.922203 0.758663
O O10 0.429473 0.816338 0.796643
O O11 0.362459 0.926558 0.754218
O O12 0.428110 0.910914 0.000000
O O13 0.192062 0.667437 0.500000
O O14 0.191789 0.741600 0.263988
O O15 0.313926 0.242481 0.183287
O O16 0.243356 0.135016 0.236397
O O17 0.215968 0.210423 0.000000
O O18 0.406711 0.391644 0.500000
O O19 0.500000 0.406292 0.704830
O O20 0.418636 0.304186 0.712805
O O21 0.590607 0.276250 0.000000
O O22 0.744583 0.000000 0.218581
O O23 0.707190 0.082379 0.000000
#
# Coordination Sequence:
#
# PCOD8200254 Si02
#       8
#     8   8   8   8   8   8   8   8
#     4   8  15  29  49  75 107 138 164 190 226 277
#     4  11  24  39  53  69  91 122 159 198 243 294
#     4   8  13  20  33  56  82 109 145 189 236 285
#     4  11  20  31  53  80 102 127 161 200 236 274
#     4   9  17  29  46  68  95 126 160 199 241 284
#     4  11  23  35  48  67  89 114 150 201 255 300
#     4   9  16  28  45  62  84 117 153 189 235 292
#     4   8  14  24  38  58  86 121 159 198 241 289
#
# _framework density 17.672694
#
# number of rings (size 3 to 8) (size 9 to 14) (size 15 to 20)
#    0.000    2.625    1.250    3.750    0.000    3.500 
#    0.000    2.500    0.000    1.875    0.000    4.375 
#    0.000    0.500    0.000   19.500    0.000   10.000 
#
# Total GULP energy -792993.319006 kJ/mol
# GULP energy per Si atom -12390.520609 kJ/mol
# Density = 1.763247 g / cm^3
# Si number density = 17.672694 Si / 1000 Ang^3
#
#
#
# Elastic Constant Matrix: (Units=GPa)
#
#
# Indices 1 2 3 4 5 6 
#
# 1 77.1586 50.9509 19.7447 0.0000 0.0000 0.0000
# 2 50.9509 124.9844 25.6549 0.0000 0.0000 0.0000
# 3 19.7447 25.6549 41.5785 0.0000 0.0000 0.0000
# 4 0.0000 0.0000 0.0000 10.1450 0.0000 0.0000
# 5 0.0000 0.0000 0.0000 0.0000 9.2929 0.0000
# 6 0.0000 0.0000 0.0000 0.0000 0.0000 14.2431
#
#
#
# Elastic Compliance Matrix: (Units=1/GPa)
#
#
# Indices 1 2 3 4 5 6 
#
# 1 0.018514 -0.006576 -0.004735 0.000000 0.000000 0.000000
# 2 -0.006576 0.011497 -0.003971 0.000000 0.000000 0.000000
# 3 -0.004735 -0.003971 0.028750 0.000000 0.000000 0.000000
# 4 0.000000 0.000000 0.000000 0.098571 0.000000 0.000000
# 5 0.000000 0.000000 0.000000 0.000000 0.107609 0.000000
# 6 0.000000 0.000000 0.000000 0.000000 0.000000 0.070210
#
#
# Mechanical properties :
#
#
# Convention : Reuss Voigt Hill
#
# Bulk Modulus (GPa) = 35.46396 48.49138 41.97767
# Shear Modulus (GPa) = 13.32937 16.56092 14.94515
#
# Velocity S-wave (km/s) = 2.74931 3.06452 2.91118
# Velocity P-wave (km/s) = 5.49445 6.32612 5.92490
#
# Compressibility (1/GPa) = 0.02819764
#
# Stress axis : x y z
#
# Youngs Moduli (GPa) = 54.01321 86.98141 34.78313
#
# Poissons Ratio (x) = 0.57195 0.16469
# Poissons Ratio (y) = 0.35517 0.13813
# Poissons Ratio (z) = 0.25573 0.34542
#
# Static dielectric constant tensor:
#      x y z
#    x 3.334230 0.000000 0.000000 
#    y 0.000000 3.466580 0.000000 
#    z 0.000000 0.000000 2.920470 
# 
# 
# High freq. dielectric constant tensor:
#      x y z
#    x 1.648240 0.000000 0.000000 
#    y 0.000000 1.688000 0.000000 
#    z 0.000000 0.000000 1.642750 
# 
# From -- ./inp_files/11858.got.cif
#   From: 2010.03.12/outbox.cif.g09.slc.cpg/sg47_6_cif.got.tgz:11858.got - 2010.04.14 03:12:58.
