data_PCOD8200973
_publ_section_title
;
Structure prediction by ZEFSAII (Michael W. Deem and Ramdas Pophale) SiO2 
 PCOD8200973
Probable space group: P M M M
;
_chemical_formula_sum "Si O2"
_cell_formula_units_Z 44
_cell_length_a 28.586437
_cell_length_b 9.358479
_cell_length_c 9.635508
_cell_angle_alpha 90.000000
_cell_angle_beta 90.000000
_cell_angle_gamma 90.000000
_cell_volume 2577.744773
_symmetry_space_group_name_H-M "P M M M"
_symmetry_group_IT_number 47
_symmetry_cell_setting 'orthorhombic'
loop_
_space_group_symop_operation_xyz
x,y,z
-x,-y,z
x,-y,-z
-x,y,-z
-x,-y,-z
x,y,-z
-x,y,z
x,-y,z
loop_
_atom_site_type_symbol
_atom_site_label
_atom_site_fract_x
_atom_site_fract_y
_atom_site_fract_z
Si Si1 0.948388 0.830255 0.844256
Si Si2 0.500000 0.829402 0.843024
Si Si3 0.773521 0.339212 0.665321
Si Si4 0.136480 0.833331 0.661387
Si Si5 0.416006 0.829819 0.655128
Si Si6 0.687191 0.840792 0.664985
O O1 0.908869 0.771374 0.740710
O O2 0.000000 0.774578 0.798672
O O3 0.948366 0.000000 0.839281
O O4 0.937159 0.777250 0.000000
O O5 0.454274 0.770282 0.762982
O O6 0.500000 0.000000 0.843425
O O7 0.500000 0.769814 0.000000
O O8 0.771940 0.339008 0.500000
O O9 0.775936 0.500000 0.723763
O O10 0.818602 0.251971 0.717245
O O11 0.726829 0.264163 0.725579
O O12 0.127665 0.805253 0.500000
O O13 0.145184 0.000000 0.692085
O O14 0.426728 0.770512 0.500000
O O15 0.364304 0.781686 0.706236
O O16 0.417430 0.000000 0.649605
O O17 0.690480 0.848734 0.500000
O O18 0.695334 0.000000 0.726104
#
# Coordination Sequence:
#
# PCOD8200973 Si02
#       6
#     8   4   8   8   8   8
#     4   8  14  25  41  61  84 108 134 166 203 239
#     4   9  15  21  31  51  80 107 126 152 196 241
#     4   9  16  25  38  58  84 110 134 164 204 244
#     4   9  16  25  40  63  87 109 134 165 199 236
#     4   8  13  21  34  52  74 101 131 160 190 228
#     4   8  13  22  37  56  77 103 136 169 198 233
#
# _framework density 17.069184
#
# number of rings (size 3 to 8) (size 9 to 14) (size 15 to 20)
#    0.000    3.545    0.000    2.455    0.000    3.636 
#    0.000    1.818    0.000    2.182    0.000    9.545 
#    0.000    5.091    0.000    0.000    0.000    0.000 
#
# Total GULP energy -545273.261817 kJ/mol
# GULP energy per Si atom -12392.574132 kJ/mol
# Density = 1.703033 g / cm^3
# Si number density = 17.069184 Si / 1000 Ang^3
#
#
#
# Elastic Constant Matrix: (Units=GPa)
#
#
# Indices 1 2 3 4 5 6 
#
# 1 192.7746 52.6654 67.6006 0.0000 0.0000 0.0000
# 2 52.6654 51.1696 21.3558 0.0000 0.0000 0.0000
# 3 67.6006 21.3558 59.9397 0.0000 0.0000 0.0000
# 4 0.0000 0.0000 0.0000 5.1661 0.0000 0.0000
# 5 0.0000 0.0000 0.0000 0.0000 6.5931 0.0000
# 6 0.0000 0.0000 0.0000 0.0000 0.0000 3.3150
#
#
#
# Elastic Compliance Matrix: (Units=1/GPa)
#
#
# Indices 1 2 3 4 5 6 
#
# 1 0.010227 -0.006710 -0.009143 0.000000 0.000000 0.000000
# 2 -0.006710 0.027359 -0.002180 0.000000 0.000000 0.000000
# 3 -0.009143 -0.002180 0.027772 0.000000 0.000000 0.000000
# 4 0.000000 0.000000 0.000000 0.193571 0.000000 0.000000
# 5 0.000000 0.000000 0.000000 0.000000 0.151674 0.000000
# 6 0.000000 0.000000 0.000000 0.000000 0.000000 0.301663
#
#
# Mechanical properties :
#
#
# Convention : Reuss Voigt Hill
#
# Bulk Modulus (GPa) = 34.14019 65.23639 49.68829
# Shear Modulus (GPa) = 6.59547 13.83229 10.21388
#
# Velocity S-wave (km/s) = 1.96783 2.84978 2.44884
# Velocity P-wave (km/s) = 5.02072 7.00929 6.09663
#
# Compressibility (1/GPa) = 0.02929099
#
# Stress axis : x y z
#
# Youngs Moduli (GPa) = 97.78277 36.55152 36.00736
#
# Poissons Ratio (x) = 0.24525 0.32922
# Poissons Ratio (y) = 0.65609 0.07851
# Poissons Ratio (z) = 0.89405 0.07969
#
# Static dielectric constant tensor:
#      x y z
#    x 3.672850 0.000000 0.000000 
#    y 0.000000 2.829260 0.000000 
#    z 0.000000 0.000000 2.931460 
# 
# 
# High freq. dielectric constant tensor:
#      x y z
#    x 1.679030 0.000000 0.000000 
#    y 0.000000 1.604360 0.000000 
#    z 0.000000 0.000000 1.613230 
# 
# From -- ./inp_files/2041.got.cif
#   From: 2010.03.12/outbox.cif.g09.slc.cpg/sg47_2_cif.got.tgz:2041.got - 2010.04.14 03:12:58.
