data_PCOD8200345
_publ_section_title
;
Structure prediction by ZEFSAII (Michael W. Deem and Ramdas Pophale) SiO2 
 PCOD8200345
Probable space group: P M M M
;
_chemical_formula_sum "Si O2"
_cell_formula_units_Z 52
_cell_length_a 10.802986
_cell_length_b 29.554199
_cell_length_c 9.239414
_cell_angle_alpha 90.000000
_cell_angle_beta 90.000000
_cell_angle_gamma 90.000000
_cell_volume 2949.900952
_symmetry_space_group_name_H-M "P M M M"
_symmetry_group_IT_number 47
_symmetry_cell_setting 'orthorhombic'
loop_
_space_group_symop_operation_xyz
x,y,z
-x,-y,z
x,-y,-z
-x,y,-z
-x,-y,-z
x,y,-z
-x,y,z
x,-y,z
loop_
_atom_site_type_symbol
_atom_site_label
_atom_site_fract_x
_atom_site_fract_y
_atom_site_fract_z
Si Si1 0.861842 0.949067 0.671698
Si Si2 0.352952 0.708763 0.336892
Si Si3 0.357590 0.883924 0.671284
Si Si4 0.500000 0.552303 0.170470
Si Si5 0.294928 0.391255 0.669587
Si Si6 0.143596 0.549499 0.840936
Si Si7 0.646219 0.206326 0.838577
O O1 0.857505 0.949068 0.500000
O O2 0.745074 0.919698 0.729302
O O3 0.000000 0.931512 0.721074
O O4 0.842890 0.000000 0.730483
O O5 0.307986 0.718511 0.500000
O O6 0.500000 0.706758 0.330396
O O7 0.301439 0.660874 0.280985
O O8 0.298671 0.748663 0.236370
O O9 0.348684 0.877449 0.500000
O O10 0.500000 0.898182 0.713257
O O11 0.318022 0.837138 0.744637
O O12 0.500000 0.500000 0.215481
O O13 0.382851 0.576849 0.237752
O O14 0.500000 0.559006 0.000000
O O15 0.324124 0.395190 0.500000
O O16 0.164160 0.412292 0.716903
O O17 0.200694 0.500000 0.798849
O O18 0.000000 0.543680 0.854746
O O19 0.197112 0.563678 0.000000
O O20 0.500000 0.211037 0.845978
O O21 0.702002 0.201680 0.000000
#
# Coordination Sequence:
#
# PCOD8200345 Si02
#       7
#     8   8   8   4   8   8   8
#     4   8  14  25  42  66  96 128 162 199 237 281
#     4   9  17  31  47  66  96 127 153 186 234 287
#     4   9  16  26  43  68  95 123 156 197 245 286
#     4  11  23  35  47  67  99 135 163 187 226 285
#     4  11  21  33  50  74  99 123 154 196 242 284
#     4   9  19  36  54  70  91 122 159 195 233 282
#     4   9  17  28  44  67  92 120 155 193 232 277
#
# _framework density 17.627711000000001
#
# number of rings (size 3 to 8) (size 9 to 14) (size 15 to 20)
#    0.000    2.692    0.769    2.538    0.000    6.462 
#    0.000    2.308    0.000    1.846    0.000    5.385 
#    0.000    0.000    0.000    0.000    0.000    0.000 
#
# Total GULP energy -644262.169054 kJ/mol
# GULP energy per Si atom -12389.657097 kJ/mol
# Density = 1.758759 g / cm^3
# Si number density = 17.627711 Si / 1000 Ang^3
#
#
#
# Elastic Constant Matrix: (Units=GPa)
#
#
# Indices 1 2 3 4 5 6 
#
# 1 68.1182 58.3382 25.8664 0.0000 0.0000 0.0000
# 2 58.3382 148.7913 55.3255 0.0000 0.0000 0.0000
# 3 25.8664 55.3255 60.7570 0.0000 0.0000 0.0000
# 4 0.0000 0.0000 0.0000 9.0650 0.0000 0.0000
# 5 0.0000 0.0000 0.0000 0.0000 -2.9675 0.0000
# 6 0.0000 0.0000 0.0000 0.0000 0.0000 27.9334
#
#
#
# Elastic Compliance Matrix: (Units=1/GPa)
#
#
# Indices 1 2 3 4 5 6 
#
# 1 0.022316 -0.007888 -0.002318 0.000000 0.000000 0.000000
# 2 -0.007888 0.012949 -0.008434 0.000000 0.000000 0.000000
# 3 -0.002318 -0.008434 0.025126 0.000000 0.000000 0.000000
# 4 0.000000 0.000000 0.000000 0.110314 0.000000 0.000000
# 5 0.000000 0.000000 0.000000 0.000000 -0.336981 0.000000
# 6 0.000000 0.000000 0.000000 0.000000 0.000000 0.035799
#
#
# Mechanical properties :
#
#
# Convention : Reuss Voigt Hill
#
# Bulk Modulus (GPa) = 43.26768 61.85851 52.56309
# Shear Modulus (GPa) = -58.48377 16.01528 -21.23424
#
# Velocity S-wave (km/s) = -5.76621 3.01745 -3.47449
# Velocity P-wave (km/s) = 4.44227 6.87807 3.71309
#
# Compressibility (1/GPa) = 0.02311194
#
# Stress axis : x y z
#
# Youngs Moduli (GPa) = 44.81136 77.22418 39.80008
#
# Poissons Ratio (x) = 0.60912 0.09226
# Poissons Ratio (y) = 0.35346 0.33566
# Poissons Ratio (z) = 0.10388 0.65128
#
# Static dielectric constant tensor:
#      x y z
#    x 6.437990 0.000000 0.000000 
#    y 0.000000 3.529010 0.000000 
#    z 0.000000 0.000000 3.223760 
# 
# 
# High freq. dielectric constant tensor:
#      x y z
#    x 1.655330 0.000000 0.000000 
#    y 0.000000 1.683450 0.000000 
#    z 0.000000 0.000000 1.666590 
# 
# From -- ./inp_files/4534.got.cif
#   From: 2010.03.12/outbox.cif.g09.slc.cpg/sg47_3_cif.got.tgz:4534.got - 2010.04.14 03:12:58.
