data_PCOD8200741
_publ_section_title
;
Structure prediction by ZEFSAII (Michael W. Deem and Ramdas Pophale) SiO2 
 PCOD8200741
Probable space group: P M M M
;
_chemical_formula_sum "Si O2"
_cell_formula_units_Z 64
_cell_length_a 34.571517
_cell_length_b 13.550398
_cell_length_c 9.722201
_cell_angle_alpha 90.000000
_cell_angle_beta 90.000000
_cell_angle_gamma 90.000000
_cell_volume 4554.441036
_symmetry_space_group_name_H-M "P M M M"
_symmetry_group_IT_number 47
_symmetry_cell_setting 'orthorhombic'
loop_
_space_group_symop_operation_xyz
x,y,z
-x,-y,z
x,-y,-z
-x,y,-z
-x,-y,-z
x,y,-z
-x,y,z
x,-y,z
loop_
_atom_site_type_symbol
_atom_site_label
_atom_site_fract_x
_atom_site_fract_y
_atom_site_fract_z
Si Si1 0.111847 0.885787 0.340121
Si Si2 0.957285 0.117198 0.154428
Si Si3 0.811459 0.228765 0.658860
Si Si4 0.459058 0.382716 0.154250
Si Si5 0.225139 0.613751 0.158769
Si Si6 0.302551 0.729434 0.160067
Si Si7 0.623719 0.610740 0.835413
Si Si8 0.734191 0.886305 0.658299
O O1 0.102579 0.873240 0.500000
O O2 0.075187 0.841784 0.257767
O O3 0.149052 0.823388 0.295339
O O4 0.119781 0.000000 0.303397
O O5 0.000000 0.156498 0.197564
O O6 0.957611 0.000000 0.161008
O O7 0.947429 0.152754 0.000000
O O8 0.812608 0.260889 0.500000
O O9 0.805555 0.326400 0.749793
O O10 0.777521 0.150641 0.686773
O O11 0.500000 0.350143 0.228825
O O12 0.456982 0.500000 0.149230
O O13 0.418125 0.348148 0.221976
O O14 0.460887 0.340601 0.000000
O O15 0.223090 0.500000 0.202365
O O16 0.268491 0.651216 0.187273
O O17 0.213916 0.628768 0.000000
O O18 0.342204 0.681699 0.216014
O O19 0.296040 0.828522 0.246488
O O20 0.305181 0.757692 0.000000
O O21 0.631730 0.500000 0.780294
O O22 0.622547 0.608465 0.000000
O O23 0.722633 0.869484 0.500000
O O24 0.732222 0.000000 0.700096
#
# Coordination Sequence:
#
# PCOD8200741 Si02
#       8
#     8   8   8   8   8   8   8   8
#     4   9  16  25  38  56  77 100 126 156 186 215
#     4   8  14  24  36  51  74 103 130 153 179 213
#     4   9  17  28  41  57  75  96 125 157 186 218
#     4   7   9  13  22  39  65  95 122 144 168 205
#     4   9  17  28  40  54  74  99 125 153 184 217
#     4   9  16  25  38  56  75  95 122 154 184 215
#     4   8  12  18  30  48  71  99 125 147 176 215
#     4   9  17  29  42  53  70  98 126 152 186 224
#
# _framework density 14.052218
#
# number of rings (size 3 to 8) (size 9 to 14) (size 15 to 20)
#    0.000    3.500    0.000    2.250    0.000    4.250 
#    0.000    1.250    0.000    3.375    0.000    0.000 
#    0.000    1.500    0.000   14.875    0.000    8.000 
#
# Total GULP energy -792972.433764 kJ/mol
# GULP energy per Si atom -12390.194278 kJ/mol
# Density = 1.402023 g / cm^3
# Si number density = 14.052218 Si / 1000 Ang^3
#
#
#
# Elastic Constant Matrix: (Units=GPa)
#
#
# Indices 1 2 3 4 5 6 
#
# 1 130.9318 49.9937 48.1866 0.0000 0.0000 0.0000
# 2 49.9937 78.1226 37.9506 0.0000 0.0000 0.0000
# 3 48.1866 37.9506 43.5997 0.0000 0.0000 0.0000
# 4 0.0000 0.0000 0.0000 18.1097 0.0000 0.0000
# 5 0.0000 0.0000 0.0000 0.0000 12.1531 0.0000
# 6 0.0000 0.0000 0.0000 0.0000 0.0000 17.4567
#
#
#
# Elastic Compliance Matrix: (Units=1/GPa)
#
#
# Indices 1 2 3 4 5 6 
#
# 1 0.013117 -0.002342 -0.012458 0.000000 0.000000 0.000000
# 2 -0.002342 0.022596 -0.017080 0.000000 0.000000 0.000000
# 3 -0.012458 -0.017080 0.051572 0.000000 0.000000 0.000000
# 4 0.000000 0.000000 0.000000 0.055219 0.000000 0.000000
# 5 0.000000 0.000000 0.000000 0.000000 0.082283 0.000000
# 6 0.000000 0.000000 0.000000 0.000000 0.000000 0.057285
#
#
# Mechanical properties :
#
#
# Convention : Reuss Voigt Hill
#
# Bulk Modulus (GPa) = 42.50924 58.32399 50.41662
# Shear Modulus (GPa) = 14.13730 17.31214 15.72472
#
# Velocity S-wave (km/s) = 3.17528 3.51377 3.34881
# Velocity P-wave (km/s) = 6.61512 7.61954 7.13503
#
# Compressibility (1/GPa) = 0.02352430
#
# Stress axis : x y z
#
# Youngs Moduli (GPa) = 76.23838 44.25486 19.39036
#
# Poissons Ratio (x) = 0.10364 0.24157
# Poissons Ratio (y) = 0.17855 0.33119
# Poissons Ratio (z) = 0.94979 0.75589
#
# Static dielectric constant tensor:
#      x y z
#    x 3.112420 0.000000 0.000000 
#    y 0.000000 2.489450 0.000000 
#    z 0.000000 0.000000 2.604550 
# 
# 
# High freq. dielectric constant tensor:
#      x y z
#    x 1.543180 0.000000 0.000000 
#    y 0.000000 1.494430 0.000000 
#    z 0.000000 0.000000 1.513260 
# 
# From -- ./inp_files/19951.got.cif
#   From: 2010.03.12/outbox.cif.g09.slc.cpg/sg47_10_cif.got.tgz:19951.got - 2010.04.14 03:12:58.
