data_PCOD8200727
_publ_section_title
;
Structure prediction by ZEFSAII (Michael W. Deem and Ramdas Pophale) SiO2 
 PCOD8200727
Probable space group: P M M M
;
_chemical_formula_sum "Si O2"
_cell_formula_units_Z 52
_cell_length_a 9.496724
_cell_length_b 9.573235
_cell_length_c 33.829241
_cell_angle_alpha 90.000000
_cell_angle_beta 90.000000
_cell_angle_gamma 90.000000
_cell_volume 3075.564153
_symmetry_space_group_name_H-M "P M M M"
_symmetry_group_IT_number 47
_symmetry_cell_setting 'orthorhombic'
loop_
_space_group_symop_operation_xyz
x,y,z
-x,-y,z
x,-y,-z
-x,y,-z
-x,-y,-z
x,y,-z
-x,y,z
x,-y,z
loop_
_atom_site_type_symbol
_atom_site_label
_atom_site_fract_x
_atom_site_fract_y
_atom_site_fract_z
Si Si1 0.160233 0.662514 0.954692
Si Si2 0.340614 0.334136 0.500000
Si Si3 0.339955 0.834037 0.276094
Si Si4 0.332185 0.840213 0.106070
Si Si5 0.343595 0.165720 0.808855
Si Si6 0.836916 0.662726 0.574668
Si Si7 0.163473 0.161803 0.650583
O O1 0.186434 0.500000 0.947250
O O2 0.266272 0.747197 0.927752
O O3 0.000000 0.702454 0.944108
O O4 0.192401 0.701025 0.000000
O O5 0.341611 0.500000 0.500000
O O6 0.500000 0.274686 0.500000
O O7 0.257784 0.281103 0.538619
O O8 0.500000 0.779314 0.280834
O O9 0.273416 0.787040 0.233100
O O10 0.245728 0.774900 0.311689
O O11 0.338169 0.000000 0.278129
O O12 0.500000 0.824518 0.105128
O O13 0.272961 0.787597 0.149409
O O14 0.287826 0.000000 0.098375
O O15 0.500000 0.228404 0.807579
O O16 0.352618 0.000000 0.810395
O O17 0.809802 0.500000 0.583341
O O18 0.789195 0.749965 0.612711
O O19 0.000000 0.689858 0.564002
O O20 0.000000 0.182305 0.659658
O O21 0.200429 0.000000 0.642658
#
# Coordination Sequence:
#
# PCOD8200727 Si02
#       7
#     8   4   8   8   8   8   8
#     4   9  19  35  50  63  85 120 157 188 221 267
#     4   9  17  29  46  67  86 104 134 177 214 242
#     4   8  13  23  41  62  84 114 147 173 203 249
#     4   9  17  29  47  72  97 117 143 185 231 270
#     4   7  11  22  40  62  88 115 141 171 210 255
#     4   9  17  30  47  63  81 110 143 169 201 252
#     4   9  17  28  42  63  89 112 138 176 214 243
#
# _framework density 16.907467
#
# number of rings (size 3 to 8) (size 9 to 14) (size 15 to 20)
#    0.000    3.462    0.000    2.538    0.000    2.769 
#    0.000    3.462    0.000    6.000    0.000    4.308 
#    0.000    0.000    0.000    0.000    0.000    0.000 
#
# Total GULP energy -644183.969487 kJ/mol
# GULP energy per Si atom -12388.153259 kJ/mol
# Density = 1.686898 g / cm^3
# Si number density = 16.907467 Si / 1000 Ang^3
#
#
#
# Elastic Constant Matrix: (Units=GPa)
#
#
# Indices 1 2 3 4 5 6 
#
# 1 58.3100 24.7665 67.3665 0.0000 0.0000 0.0000
# 2 24.7665 34.2329 50.4692 0.0000 0.0000 0.0000
# 3 67.3665 50.4692 174.6319 0.0000 0.0000 0.0000
# 4 0.0000 0.0000 0.0000 -12.7004 0.0000 0.0000
# 5 0.0000 0.0000 0.0000 0.0000 19.5315 0.0000
# 6 0.0000 0.0000 0.0000 0.0000 0.0000 18.2200
#
#
#
# Elastic Compliance Matrix: (Units=1/GPa)
#
#
# Indices 1 2 3 4 5 6 
#
# 1 0.032369 -0.008727 -0.009964 0.000000 0.000000 0.000000
# 2 -0.008727 0.053251 -0.012023 0.000000 0.000000 0.000000
# 3 -0.009964 -0.012023 0.013045 0.000000 0.000000 0.000000
# 4 0.000000 0.000000 0.000000 -0.078738 0.000000 0.000000
# 5 0.000000 0.000000 0.000000 0.000000 0.051199 0.000000
# 6 0.000000 0.000000 0.000000 0.000000 0.000000 0.054885
#
#
# Mechanical properties :
#
#
# Convention : Reuss Voigt Hill
#
# Bulk Modulus (GPa) = 26.85641 61.37545 44.11593
# Shear Modulus (GPa) = 25.01850 13.31506 19.16678
#
# Velocity S-wave (km/s) = 3.85090 2.80933 3.37059
# Velocity P-wave (km/s) = 5.97423 6.84856 6.42628
#
# Compressibility (1/GPa) = 0.03723506
#
# Stress axis : x y z
#
# Youngs Moduli (GPa) = 30.89419 18.77899 76.65818
#
# Poissons Ratio (x) = 0.16389 0.76385
# Poissons Ratio (y) = 0.26962 0.92167
# Poissons Ratio (z) = 0.30784 0.22578
#
# Static dielectric constant tensor:
#      x y z
#    x 3.040110 0.000000 0.000000 
#    y 0.000000 2.760580 0.000000 
#    z 0.000000 0.000000 3.612560 
# 
# 
# High freq. dielectric constant tensor:
#      x y z
#    x 1.630050 0.000000 0.000000 
#    y 0.000000 1.605190 0.000000 
#    z 0.000000 0.000000 1.674390 
# 
# From -- ./inp_files/34309.got.cif
#   From: 2010.03.12/outbox.cif.g09.slc.cpg/sg47_18_cif.got.tgz:34309.got - 2010.04.14 03:12:58.
