data_PCOD8200828
_publ_section_title
;
Structure prediction by ZEFSAII (Michael W. Deem and Ramdas Pophale) SiO2 
 PCOD8200828
Probable space group: P M M M
;
_chemical_formula_sum "Si O2"
_cell_formula_units_Z 44
_cell_length_a 7.714159
_cell_length_b 30.497958
_cell_length_c 9.357389
_cell_angle_alpha 90.000000
_cell_angle_beta 90.000000
_cell_angle_gamma 90.000000
_cell_volume 2201.476390
_symmetry_space_group_name_H-M "P M M M"
_symmetry_group_IT_number 47
_symmetry_cell_setting 'orthorhombic'
loop_
_space_group_symop_operation_xyz
x,y,z
-x,-y,z
x,-y,-z
-x,y,-z
-x,-y,-z
x,y,-z
-x,y,z
x,-y,z
loop_
_atom_site_type_symbol
_atom_site_label
_atom_site_fract_x
_atom_site_fract_y
_atom_site_fract_z
Si Si1 0.705447 0.206557 0.841183
Si Si2 0.000000 0.950595 0.829343
Si Si3 0.706107 0.548500 0.660343
Si Si4 0.307336 0.890455 0.829730
Si Si5 0.293223 0.287500 0.339032
Si Si6 0.706805 0.629565 0.839008
O O1 0.500000 0.210485 0.851223
O O2 0.753965 0.158204 0.781628
O O3 0.780370 0.243366 0.734836
O O4 0.784055 0.213862 0.000000
O O5 0.171378 0.926088 0.770504
O O6 0.000000 0.000000 0.769544
O O7 0.000000 0.950310 0.000000
O O8 0.773197 0.558332 0.500000
O O9 0.500000 0.550252 0.661067
O O10 0.768948 0.500000 0.709280
O O11 0.781056 0.585106 0.767443
O O12 0.500000 0.901456 0.769718
O O13 0.313261 0.891160 0.000000
O O14 0.220474 0.289993 0.500000
O O15 0.500000 0.287205 0.340176
O O16 0.223306 0.329115 0.250701
O O17 0.500000 0.629273 0.839204
O O18 0.778858 0.632664 0.000000
#
# Coordination Sequence:
#
# PCOD8200828 Si02
#       6
#     8   4   8   8   8   8
#     4   8  13  22  35  49  68  96 127 158 198 249
#     4   9  16  24  36  58  87 117 149 183 220 265
#     4   8  13  20  27  33  44  67 102 146 196 246
#     4   8  14  24  37  54  79 112 146 180 220 264
#     4   9  15  21  30  45  64  84 110 149 196 245
#     4   9  15  20  26  37  54  77 106 143 191 247
#
# _framework density 19.986587
#
# number of rings (size 3 to 8) (size 9 to 14) (size 15 to 20)
#    0.000    3.545    0.000    2.727    0.000    5.091 
#    0.000    3.636    0.000    0.000    0.000    0.636 
#    0.000    1.455    0.000    7.091    0.000    7.273 
#
# Total GULP energy -545280.308692 kJ/mol
# GULP energy per Si atom -12392.734288 kJ/mol
# Density = 1.994110 g / cm^3
# Si number density = 19.986587 Si / 1000 Ang^3
#
#
#
# Elastic Constant Matrix: (Units=GPa)
#
#
# Indices 1 2 3 4 5 6 
#
# 1 44.0284 41.9953 16.5146 0.0000 0.0000 0.0000
# 2 41.9953 212.5081 87.2118 0.0000 0.0000 0.0000
# 3 16.5146 87.2118 115.4325 0.0000 0.0000 0.0000
# 4 0.0000 0.0000 0.0000 14.7568 0.0000 0.0000
# 5 0.0000 0.0000 0.0000 0.0000 -1.7177 0.0000
# 6 0.0000 0.0000 0.0000 0.0000 0.0000 -6.9472
#
#
#
# Elastic Compliance Matrix: (Units=1/GPa)
#
#
# Indices 1 2 3 4 5 6 
#
# 1 0.027993 -0.005636 0.000253 0.000000 0.000000 0.000000
# 2 -0.005636 0.007955 -0.005204 0.000000 0.000000 0.000000
# 3 0.000253 -0.005204 0.012559 0.000000 0.000000 0.000000
# 4 0.000000 0.000000 0.000000 0.067765 0.000000 0.000000
# 5 0.000000 0.000000 0.000000 0.000000 -0.582165 0.000000
# 6 0.000000 0.000000 0.000000 0.000000 0.000000 -0.143944
#
#
# Mechanical properties :
#
#
# Convention : Reuss Voigt Hill
#
# Bulk Modulus (GPa) = 36.58511 73.71249 55.14880
# Shear Modulus (GPa) = -8.62736 16.30154 3.83709
#
# Velocity S-wave (km/s) = -2.07989 2.85901 1.38708
# Velocity P-wave (km/s) = 3.54636 6.91807 5.49710
#
# Compressibility (1/GPa) = 0.02733352
#
# Stress axis : x y z
#
# Youngs Moduli (GPa) = 35.72289 125.70550 79.62691
#
# Poissons Ratio (x) = 0.70845 -0.02015
# Poissons Ratio (y) = 0.20133 0.41437
# Poissons Ratio (z) = -0.00904 0.65417
#
# Static dielectric constant tensor:
#      x y z
#    x 3.138640 0.000000 0.000000 
#    y 0.000000 3.987500 0.000000 
#    z 0.000000 0.000000 3.494750 
# 
# 
# High freq. dielectric constant tensor:
#      x y z
#    x 1.733390 0.000000 0.000000 
#    y 0.000000 1.789130 0.000000 
#    z 0.000000 0.000000 1.738680 
# 
# From -- ./inp_files/2286.got.cif
#   From: 2010.03.12/outbox.cif.g09.slc.cpg/sg47_2_cif.got.tgz:2286.got - 2010.04.14 03:12:58.
