data_PCOD8200886
_publ_section_title
;
Structure prediction by ZEFSAII (Michael W. Deem and Ramdas Pophale) SiO2 
 PCOD8200886
Probable space group: P M M M
;
_chemical_formula_sum "Si O2"
_cell_formula_units_Z 44
_cell_length_a 9.371183
_cell_length_b 9.737204
_cell_length_c 28.708326
_cell_angle_alpha 90.000000
_cell_angle_beta 90.000000
_cell_angle_gamma 90.000000
_cell_volume 2619.609501
_symmetry_space_group_name_H-M "P M M M"
_symmetry_group_IT_number 47
_symmetry_cell_setting 'orthorhombic'
loop_
_space_group_symop_operation_xyz
x,y,z
-x,-y,z
x,-y,-z
-x,y,-z
-x,-y,-z
x,y,-z
-x,y,z
x,-y,z
loop_
_atom_site_type_symbol
_atom_site_label
_atom_site_fract_x
_atom_site_fract_y
_atom_site_fract_z
Si Si1 0.338025 0.336773 0.088574
Si Si2 0.659748 0.163198 0.448966
Si Si3 0.158047 0.163452 0.635378
Si Si4 0.833880 0.659914 0.178744
Si Si5 0.162670 0.336159 0.000000
Si Si6 0.830088 0.152966 0.262849
O O1 0.500000 0.278840 0.087133
O O2 0.341217 0.500000 0.086506
O O3 0.258797 0.287389 0.135259
O O4 0.247336 0.279762 0.044996
O O5 0.721661 0.205465 0.500000
O O6 0.500000 0.220348 0.444010
O O7 0.750878 0.228161 0.406866
O O8 0.659218 0.000000 0.444733
O O9 0.225116 0.201757 0.686050
O O10 0.000000 0.225920 0.630534
O O11 0.151571 0.000000 0.631576
O O12 0.808778 0.500000 0.188599
O O13 0.776646 0.741743 0.223665
O O14 0.000000 0.690333 0.168219
O O15 0.159656 0.500000 0.000000
O O16 0.000000 0.279826 0.000000
O O17 0.000000 0.149839 0.265063
O O18 0.772608 0.000000 0.251017
#
# Coordination Sequence:
#
# PCOD8200886 Si02
#       6
#     8   8   8   8   4   8
#     4   9  16  25  37  55  81 109 132 158 197 238
#     4   8  13  20  29  43  66  94 119 145 183 228
#     4   8  13  21  33  48  66  91 123 154 183 220
#     4   9  16  26  41  60  80 103 133 165 193 225
#     4   9  15  23  37  57  80 105 134 165 194 230
#     4   8  14  25  40  57  78 104 132 162 196 231
#
# _framework density 16.796396000000001
#
# number of rings (size 3 to 8) (size 9 to 14) (size 15 to 20)
#    0.000    3.545    0.000    2.455    0.000    3.636 
#    0.000    2.727    0.000    1.636    0.000    0.636 
#    0.000    5.818    0.000    9.091    0.000   10.545 
#
# Total GULP energy -545209.642182 kJ/mol
# GULP energy per Si atom -12391.128231 kJ/mol
# Density = 1.675817 g / cm^3
# Si number density = 16.796396 Si / 1000 Ang^3
#
#
#
# Elastic Constant Matrix: (Units=GPa)
#
#
# Indices 1 2 3 4 5 6 
#
# 1 89.4173 16.4096 78.4007 0.0000 0.0000 0.0000
# 2 16.4096 20.7634 35.1850 0.0000 0.0000 0.0000
# 3 78.4007 35.1850 194.6346 0.0000 0.0000 0.0000
# 4 0.0000 0.0000 0.0000 14.3169 0.0000 0.0000
# 5 0.0000 0.0000 0.0000 0.0000 16.9862 0.0000
# 6 0.0000 0.0000 0.0000 0.0000 0.0000 5.9540
#
#
#
# Elastic Compliance Matrix: (Units=1/GPa)
#
#
# Indices 1 2 3 4 5 6 
#
# 1 0.017395 -0.002701 -0.006518 0.000000 0.000000 0.000000
# 2 -0.002701 0.069850 -0.011539 0.000000 0.000000 0.000000
# 3 -0.006518 -0.011539 0.009849 0.000000 0.000000 0.000000
# 4 0.000000 0.000000 0.000000 0.069848 0.000000 0.000000
# 5 0.000000 0.000000 0.000000 0.000000 0.058871 0.000000
# 6 0.000000 0.000000 0.000000 0.000000 0.000000 0.167954
#
#
# Mechanical properties :
#
#
# Convention : Reuss Voigt Hill
#
# Bulk Modulus (GPa) = 17.99309 62.75621 40.37465
# Shear Modulus (GPa) = 11.01781 19.10609 15.06195
#
# Velocity S-wave (km/s) = 2.56395 3.37636 2.99780
# Velocity P-wave (km/s) = 4.41598 7.25560 6.00602
#
# Compressibility (1/GPa) = 0.05557689
#
# Stress axis : x y z
#
# Youngs Moduli (GPa) = 57.48934 14.31629 101.52854
#
# Poissons Ratio (x) = 0.03867 0.66180
# Poissons Ratio (y) = 0.15530 1.17154
# Poissons Ratio (z) = 0.37473 0.16520
#
# Static dielectric constant tensor:
#      x y z
#    x 3.189090 0.000000 0.000000 
#    y 0.000000 2.536830 0.000000 
#    z 0.000000 0.000000 3.584260 
# 
# 
# High freq. dielectric constant tensor:
#      x y z
#    x 1.631080 0.000000 0.000000 
#    y 0.000000 1.566250 0.000000 
#    z 0.000000 0.000000 1.669010 
# 
# From -- ./inp_files/2182.got.cif
#   From: 2010.03.12/outbox.cif.g09.slc.cpg/sg47_2_cif.got.tgz:2182.got - 2010.04.14 03:12:58.
