data_PCOD8200868
_publ_section_title
;
Structure prediction by ZEFSAII (Michael W. Deem and Ramdas Pophale) SiO2 
 PCOD8200868
Probable space group: P M M M
;
_chemical_formula_sum "Si O2"
_cell_formula_units_Z 36
_cell_length_a 28.764069
_cell_length_b 7.667247
_cell_length_c 9.314453
_cell_angle_alpha 90.000000
_cell_angle_beta 90.000000
_cell_angle_gamma 90.000000
_cell_volume 2054.220845
_symmetry_space_group_name_H-M "P M M M"
_symmetry_group_IT_number 47
_symmetry_cell_setting 'orthorhombic'
loop_
_space_group_symop_operation_xyz
x,y,z
-x,-y,z
x,-y,-z
-x,y,-z
-x,-y,-z
x,y,-z
-x,y,z
x,-y,z
loop_
_atom_site_type_symbol
_atom_site_label
_atom_site_fract_x
_atom_site_fract_y
_atom_site_fract_z
Si Si1 0.551723 0.500000 0.829780
Si Si2 0.779895 0.500000 0.670050
Si Si3 0.051922 0.806320 0.329270
Si Si4 0.116102 0.500000 0.671854
Si Si5 0.380902 0.801789 0.832347
Si Si6 0.712568 0.801797 0.332323
O O1 0.500000 0.500000 0.762049
O O2 0.578469 0.326255 0.777644
O O3 0.548113 0.500000 0.000000
O O4 0.783463 0.500000 0.500000
O O5 0.831751 0.500000 0.735493
O O6 0.753191 0.326272 0.722435
O O7 0.052375 0.800953 0.500000
O O8 0.089308 0.669852 0.267869
O O9 0.000000 0.757328 0.275348
O O10 0.065557 0.000000 0.275275
O O11 0.116690 0.500000 0.500000
O O12 0.334177 0.751651 0.749951
O O13 0.396393 0.000000 0.798617
O O14 0.370914 0.774783 0.000000
O O15 0.702627 0.774706 0.500000
O O16 0.728047 0.000000 0.298605
#
# Coordination Sequence:
#
# PCOD8200868 Si02
#       6
#     4   4   8   4   8   8
#     4   9  17  28  43  65  90 111 131 161 202 241
#     4   9  17  26  36  53  75 100 132 167 202 241
#     4   8  13  20  29  41  58  83 117 156 195 232
#     4   9  15  21  30  44  63  88 119 158 198 231
#     4   9  17  29  46  66  84 105 137 171 198 231
#     4   9  17  29  44  60  80 107 136 167 203 239
#
# _framework density 17.524894
#
# number of rings (size 3 to 8) (size 9 to 14) (size 15 to 20)
#    0.000    3.222    0.000    1.667    0.000    2.667 
#    0.000    6.667    0.000    1.333    0.000    3.111 
#    0.000    0.000    0.000    0.000    0.000    8.889 
#
# Total GULP energy -446241.862002 kJ/mol
# GULP energy per Si atom -12395.607278 kJ/mol
# Density = 1.748501 g / cm^3
# Si number density = 17.524894 Si / 1000 Ang^3
#
#
#
# Elastic Constant Matrix: (Units=GPa)
#
#
# Indices 1 2 3 4 5 6 
#
# 1 178.7772 116.6527 21.6569 0.0000 0.0000 0.0000
# 2 116.6527 154.7280 16.9463 0.0000 0.0000 0.0000
# 3 21.6569 16.9463 13.0635 0.0000 0.0000 0.0000
# 4 0.0000 0.0000 0.0000 10.6664 0.0000 0.0000
# 5 0.0000 0.0000 0.0000 0.0000 -7.4059 0.0000
# 6 0.0000 0.0000 0.0000 0.0000 0.0000 23.9708
#
#
#
# Elastic Compliance Matrix: (Units=1/GPa)
#
#
# Indices 1 2 3 4 5 6 
#
# 1 0.011934 -0.007962 -0.009457 0.000000 0.000000 0.000000
# 2 -0.007962 0.012845 -0.003464 0.000000 0.000000 0.000000
# 3 -0.009457 -0.003464 0.096719 0.000000 0.000000 0.000000
# 4 0.000000 0.000000 0.000000 0.093752 0.000000 0.000000
# 5 0.000000 0.000000 0.000000 0.000000 -0.135027 0.000000
# 6 0.000000 0.000000 0.000000 0.000000 0.000000 0.041717
#
#
# Mechanical properties :
#
#
# Convention : Reuss Voigt Hill
#
# Bulk Modulus (GPa) = 12.54157 73.00896 42.77526
# Shear Modulus (GPa) = 26.27667 18.20044 22.23856
#
# Velocity S-wave (km/s) = 3.87640 3.22615 3.56612
# Velocity P-wave (km/s) = 5.21606 7.45841 6.43565
#
# Compressibility (1/GPa) = 0.07973486
#
# Stress axis : x y z
#
# Youngs Moduli (GPa) = 83.79319 77.85259 10.33918
#
# Poissons Ratio (x) = 0.61984 0.09777
# Poissons Ratio (y) = 0.66714 0.03581
# Poissons Ratio (z) = 0.79239 0.26965
#
# Static dielectric constant tensor:
#      x y z
#    x 3.488730 0.000000 0.000000 
#    y 0.000000 3.582580 0.000000 
#    z 0.000000 0.000000 2.661980 
# 
# 
# High freq. dielectric constant tensor:
#      x y z
#    x 1.675910 0.000000 0.000000 
#    y 0.000000 1.696370 0.000000 
#    z 0.000000 0.000000 1.606360 
# 
# From -- ./inp_files/18866.got.cif
#   From: 2010.03.12/outbox.cif.g09.slc.cpg/sg47_10_cif.got.tgz:18866.got - 2010.04.14 03:12:58.
