data_PCOD8200062
_publ_section_title
;
Structure prediction by ZEFSAII (Michael W. Deem and Ramdas Pophale) SiO2 
 PCOD8200062
Probable space group: P M M M
;
_chemical_formula_sum "Si O2"
_cell_formula_units_Z 44
_cell_length_a 7.688556
_cell_length_b 29.684661
_cell_length_c 9.637657
_cell_angle_alpha 90.000000
_cell_angle_beta 90.000000
_cell_angle_gamma 90.000000
_cell_volume 2199.623452
_symmetry_space_group_name_H-M "P M M M"
_symmetry_group_IT_number 47
_symmetry_cell_setting 'orthorhombic'
loop_
_space_group_symop_operation_xyz
x,y,z
-x,-y,z
x,-y,-z
-x,y,-z
-x,-y,-z
x,y,-z
-x,y,z
x,-y,z
loop_
_atom_site_type_symbol
_atom_site_label
_atom_site_fract_x
_atom_site_fract_y
_atom_site_fract_z
Si Si1 0.000000 0.946724 0.160207
Si Si2 0.794861 0.274854 0.155385
Si Si3 0.706794 0.450222 0.344979
Si Si4 0.303252 0.095501 0.339854
Si Si5 0.703422 0.627789 0.153974
Si Si6 0.797680 0.805332 0.657874
O O1 0.173217 0.929805 0.237019
O O2 0.000000 0.000000 0.166092
O O3 0.000000 0.929811 0.000000
O O4 0.741438 0.323147 0.219931
O O5 0.717629 0.234509 0.248065
O O6 0.000000 0.270698 0.154145
O O7 0.717546 0.270514 0.000000
O O8 0.779093 0.442610 0.500000
O O9 0.500000 0.446636 0.346824
O O10 0.762822 0.500000 0.291424
O O11 0.788925 0.411631 0.246946
O O12 0.246407 0.086911 0.500000
O O13 0.500000 0.077869 0.314553
O O14 0.301709 0.148660 0.307795
O O15 0.500000 0.619390 0.144826
O O16 0.787205 0.625549 0.000000
O O17 0.767535 0.790398 0.500000
O O18 0.000000 0.813942 0.689122
#
# Coordination Sequence:
#
# PCOD8200062 Si02
#       6
#     4   8   8   8   8   8
#     4  11  25  43  63  89 125 165 201 245 298 349
#     4   9  18  31  46  66  95 133 170 203 247 309
#     4   8  14  25  41  61  84 110 143 187 241 298
#     4  10  21  39  64  92 121 156 200 248 296 348
#     4   9  17  28  42  62  88 116 150 196 244 291
#     4   9  17  32  53  77 106 139 177 224 273 322
#
# _framework density 20.003423999999999
#
# number of rings (size 3 to 8) (size 9 to 14) (size 15 to 20)
#    0.000    2.818    0.909    0.818    0.000    4.000 
#    0.000    3.636    0.000    0.545    0.000    3.818 
#    0.000    0.000    0.000    0.000    0.000    0.000 
#
# Total GULP energy -545422.652971 kJ/mol
# GULP energy per Si atom -12395.969386 kJ/mol
# Density = 1.995790 g / cm^3
# Si number density = 20.003424 Si / 1000 Ang^3
#
#
#
# Elastic Constant Matrix: (Units=GPa)
#
#
# Indices 1 2 3 4 5 6 
#
# 1 56.0525 31.2170 38.3449 0.0000 0.0000 0.0000
# 2 31.2170 120.4205 78.0342 0.0000 0.0000 0.0000
# 3 38.3449 78.0342 112.9719 0.0000 0.0000 0.0000
# 4 0.0000 0.0000 0.0000 41.6183 0.0000 0.0000
# 5 0.0000 0.0000 0.0000 0.0000 14.5049 0.0000
# 6 0.0000 0.0000 0.0000 0.0000 0.0000 20.5333
#
#
#
# Elastic Compliance Matrix: (Units=1/GPa)
#
#
# Indices 1 2 3 4 5 6 
#
# 1 0.023419 -0.001665 -0.006798 0.000000 0.000000 0.000000
# 2 -0.001665 0.015152 -0.009901 0.000000 0.000000 0.000000
# 3 -0.006798 -0.009901 0.017998 0.000000 0.000000 0.000000
# 4 0.000000 0.000000 0.000000 0.024028 0.000000 0.000000
# 5 0.000000 0.000000 0.000000 0.000000 0.068942 0.000000
# 6 0.000000 0.000000 0.000000 0.000000 0.000000 0.048701
#
#
# Mechanical properties :
#
#
# Convention : Reuss Voigt Hill
#
# Bulk Modulus (GPa) = 50.40446 64.95968 57.68207
# Shear Modulus (GPa) = 20.69696 24.78791 22.74243
#
# Velocity S-wave (km/s) = 3.22012 3.52402 3.37549
# Velocity P-wave (km/s) = 6.25125 7.00736 6.64008
#
# Compressibility (1/GPa) = 0.01983951
#
# Stress axis : x y z
#
# Youngs Moduli (GPa) = 42.70105 65.99920 55.56187
#
# Poissons Ratio (x) = 0.10992 0.37773
# Poissons Ratio (y) = 0.07112 0.55009
# Poissons Ratio (z) = 0.29030 0.65343
#
# Static dielectric constant tensor:
#      x y z
#    x 3.366490 0.000000 0.000000 
#    y 0.000000 3.761050 0.000000 
#    z 0.000000 0.000000 3.915250 
# 
# 
# High freq. dielectric constant tensor:
#      x y z
#    x 1.760830 0.000000 0.000000 
#    y 0.000000 1.784080 0.000000 
#    z 0.000000 0.000000 1.769420 
# 
# From -- ./inp_files/2244.got.cif
#   From: 2010.03.12/outbox.cif.g09.slc.cpg/sg47_2_cif.got.tgz:2244.got - 2010.04.14 03:12:58.
