data_PCOD8200032
_publ_section_title
;
Structure prediction by ZEFSAII (Michael W. Deem and Ramdas Pophale) SiO2 
 PCOD8200032
Probable space group: P M M M
;
_chemical_formula_sum "Si O2"
_cell_formula_units_Z 40
_cell_length_a 19.185296
_cell_length_b 12.938323
_cell_length_c 8.026329
_cell_angle_alpha 90.000000
_cell_angle_beta 90.000000
_cell_angle_gamma 90.000000
_cell_volume 1992.339983
_symmetry_space_group_name_H-M "P M M M"
_symmetry_group_IT_number 47
_symmetry_cell_setting 'orthorhombic'
loop_
_space_group_symop_operation_xyz
x,y,z
-x,-y,z
x,-y,-z
-x,y,-z
-x,-y,-z
x,y,-z
-x,y,z
x,-y,z
loop_
_atom_site_type_symbol
_atom_site_label
_atom_site_fract_x
_atom_site_fract_y
_atom_site_fract_z
Si Si1 0.422250 0.000000 0.301632
Si Si2 0.920026 0.253161 0.313554
Si Si3 0.579280 0.382713 0.195847
Si Si4 0.334269 0.192970 0.308029
Si Si5 0.193637 0.883600 0.190432
Si Si6 0.917542 0.386221 0.000000
O O1 0.383869 0.897144 0.234685
O O2 0.500000 0.000000 0.226560
O O3 0.425282 0.000000 0.500000
O O4 0.912873 0.301798 0.500000
O O5 0.871477 0.152394 0.302539
O O6 0.000000 0.220829 0.279830
O O7 0.892724 0.331281 0.170556
O O8 0.500000 0.360170 0.252746
O O9 0.599734 0.500000 0.245128
O O10 0.630786 0.304704 0.288041
O O11 0.586522 0.366573 0.000000
O O12 0.319001 0.171538 0.500000
O O13 0.260545 0.189912 0.214178
O O14 0.213468 0.000000 0.244697
O O15 0.169271 0.878602 0.000000
O O16 0.883837 0.500000 0.000000
O O17 0.000000 0.393862 0.000000
#
# Coordination Sequence:
#
# PCOD8200032 Si02
#       6
#     4   8   8   8   8   4
#     4   9  18  32  51  79 114 149 184 233 297 357
#     4  10  21  38  62  92 124 160 204 250 300 360
#     4   9  19  37  59  82 112 151 193 240 295 354
#     4  11  21  35  56  83 117 152 192 243 297 359
#     4  11  23  39  60  84 117 159 200 246 302 361
#     4   9  18  36  61  89 123 157 194 247 304 353
#
# _framework density 20.076896000000001
#
# number of rings (size 3 to 8) (size 9 to 14) (size 15 to 20)
#    0.000    2.000    2.000    2.400    0.000    3.600 
#    0.000    6.000    0.000    4.800    0.000    0.000 
#    0.000    0.000    0.000    0.000    0.000    0.000 
#
# Total GULP energy -496006.780554 kJ/mol
# GULP energy per Si atom -12400.169514 kJ/mol
# Density = 2.003120 g / cm^3
# Si number density = 20.076896 Si / 1000 Ang^3
#
#
#
# Elastic Constant Matrix: (Units=GPa)
#
#
# Indices 1 2 3 4 5 6 
#
# 1 107.9579 54.5592 29.8706 0.0000 0.0000 0.0000
# 2 54.5592 119.5092 34.9656 0.0000 0.0000 0.0000
# 3 29.8706 34.9656 92.8196 0.0000 0.0000 0.0000
# 4 0.0000 0.0000 0.0000 22.8130 0.0000 0.0000
# 5 0.0000 0.0000 0.0000 0.0000 27.0755 0.0000
# 6 0.0000 0.0000 0.0000 0.0000 0.0000 29.4673
#
#
#
# Elastic Compliance Matrix: (Units=1/GPa)
#
#
# Indices 1 2 3 4 5 6 
#
# 1 0.012390 -0.005046 -0.002087 0.000000 0.000000 0.000000
# 2 -0.005046 0.011459 -0.002693 0.000000 0.000000 0.000000
# 3 -0.002087 -0.002693 0.012459 0.000000 0.000000 0.000000
# 4 0.000000 0.000000 0.000000 0.043835 0.000000 0.000000
# 5 0.000000 0.000000 0.000000 0.000000 0.036934 0.000000
# 6 0.000000 0.000000 0.000000 0.000000 0.000000 0.033936
#
#
# Mechanical properties :
#
#
# Convention : Reuss Voigt Hill
#
# Bulk Modulus (GPa) = 60.03078 62.11974 61.07526
# Shear Modulus (GPa) = 28.37415 29.26390 28.81903
#
# Velocity S-wave (km/s) = 3.76343 3.82198 3.79282
# Velocity P-wave (km/s) = 6.98927 7.10527 7.04751
#
# Compressibility (1/GPa) = 0.01665812
#
# Stress axis : x y z
#
# Youngs Moduli (GPa) = 80.70813 87.26710 80.26036
#
# Poissons Ratio (x) = 0.44035 0.16746
# Poissons Ratio (y) = 0.40726 0.21613
# Poissons Ratio (z) = 0.16840 0.23499
#
# Static dielectric constant tensor:
#      x y z
#    x 3.515090 0.000000 0.000000 
#    y 0.000000 3.684490 0.000000 
#    z 0.000000 0.000000 3.557210 
# 
# 
# High freq. dielectric constant tensor:
#      x y z
#    x 1.775760 0.000000 0.000000 
#    y 0.000000 1.773690 0.000000 
#    z 0.000000 0.000000 1.782450 
# 
# From -- ./inp_files/10708.got.cif
#   From: 2010.03.12/outbox.cif.g09.slc.cpg/sg47_6_cif.got.tgz:10708.got - 2010.04.14 03:12:58.
