data_PCOD8200004
_publ_section_title
;
Structure prediction by ZEFSAII (Michael W. Deem and Ramdas Pophale) SiO2 
 PCOD8200004
Probable space group: P M M M
;
_chemical_formula_sum "Si O2"
_cell_formula_units_Z 64
_cell_length_a 14.911659
_cell_length_b 24.373602
_cell_length_c 8.957902
_cell_angle_alpha 90.000000
_cell_angle_beta 90.000000
_cell_angle_gamma 90.000000
_cell_volume 3255.757021
_symmetry_space_group_name_H-M "P M M M"
_symmetry_group_IT_number 47
_symmetry_cell_setting 'orthorhombic'
loop_
_space_group_symop_operation_xyz
x,y,z
-x,-y,z
x,-y,-z
-x,y,-z
-x,-y,-z
x,y,-z
-x,y,z
x,-y,z
loop_
_atom_site_type_symbol
_atom_site_label
_atom_site_fract_x
_atom_site_fract_y
_atom_site_fract_z
Si Si1 0.397539 0.855151 0.824495
Si Si2 0.606331 0.254425 0.332325
Si Si3 0.897539 0.855149 0.824495
Si Si4 0.750001 0.939111 0.176837
Si Si5 0.250001 0.564586 0.327337
Si Si6 0.106331 0.745573 0.667675
Si Si7 0.104239 0.364533 0.824547
Si Si8 0.395761 0.635469 0.824547
O O1 0.500000 0.867468 0.778853
O O2 0.358649 0.801046 0.744610
O O3 0.338884 0.906856 0.770476
O O4 0.388231 0.844915 0.000000
O O5 0.644644 0.257870 0.500000
O O6 0.500000 0.253598 0.331597
O O7 0.640286 0.306852 0.239999
O O8 0.838884 0.906854 0.770473
O O9 0.858649 0.801044 0.744610
O O10 0.000000 0.867465 0.778855
O O11 0.888229 0.844913 0.000000
O O12 0.750002 0.000000 0.248712
O O13 0.750003 0.944040 0.000000
O O14 0.250002 0.581741 0.500000
O O15 0.250003 0.500000 0.305666
O O16 0.160234 0.586960 0.250035
O O17 0.339765 0.586962 0.250031
O O18 0.144644 0.742127 0.500000
O O19 0.140286 0.693146 0.760002
O O20 0.000000 0.746400 0.668403
O O21 0.000000 0.374097 0.785399
O O22 0.121166 0.364368 0.000000
O O23 0.500000 0.625905 0.785396
O O24 0.378836 0.635635 0.000000
#
# Coordination Sequence:
#
# PCOD8200004 Si02
#       8
#     8   8   8   8   8   8   8   8
#     4   9  17  30  49  72  99 131 166 208 259 312
#     4   9  17  31  53  80 109 139 172 213 264 323
#     4   9  17  30  49  72  99 131 166 208 259 312
#     4   9  18  31  47  70  97 126 168 217 258 303
#     4  11  25  42  59  82 113 150 192 233 272 321
#     4   9  17  31  53  80 109 139 172 213 264 323
#     4  10  21  38  61  87 115 147 183 227 278 329
#     4  10  21  38  61  87 115 147 183 227 278 329
#
# _framework density 19.657487
#
# number of rings (size 3 to 8) (size 9 to 14) (size 15 to 20)
#    0.000    2.500    0.000    1.875    0.000    7.500 
#    0.000    9.375    0.000    1.500    0.000    3.500 
#    0.000    0.000    0.000    0.000    0.000    0.000 
#
# Total GULP energy -793639.413758 kJ/mol
# GULP energy per Si atom -12400.615840 kJ/mol
# Density = 1.961275 g / cm^3
# Si number density = 19.657487 Si / 1000 Ang^3
#
#
#
# Elastic Constant Matrix: (Units=GPa)
#
#
# Indices 1 2 3 4 5 6 
#
# 1 98.7751 66.3902 44.3195 0.0000 0.0000 0.0000
# 2 66.3902 155.8974 66.7637 0.0000 0.0000 0.0000
# 3 44.3195 66.7637 103.7512 0.0000 0.0000 0.0000
# 4 0.0000 0.0000 0.0000 18.3643 0.0000 0.0000
# 5 0.0000 0.0000 0.0000 0.0000 17.1998 0.0000
# 6 0.0000 0.0000 0.0000 0.0000 0.0000 15.3736
#
#
#
# Elastic Compliance Matrix: (Units=1/GPa)
#
#
# Indices 1 2 3 4 5 6 
#
# 1 0.014893 -0.004994 -0.003148 0.000000 0.000000 0.000000
# 2 -0.004994 0.010529 -0.004642 0.000000 0.000000 0.000000
# 3 -0.003148 -0.004642 0.013971 0.000000 0.000000 0.000000
# 4 0.000000 0.000000 0.000000 0.054454 0.000000 0.000000
# 5 0.000000 0.000000 0.000000 0.000000 0.058140 0.000000
# 6 0.000000 0.000000 0.000000 0.000000 0.000000 0.065046
#
#
# Mechanical properties :
#
#
# Convention : Reuss Voigt Hill
#
# Bulk Modulus (GPa) = 72.33857 79.26340 75.80098
# Shear Modulus (GPa) = 20.22565 22.25090 21.23828
#
# Velocity S-wave (km/s) = 3.21113 3.36807 3.29054
# Velocity P-wave (km/s) = 7.11533 7.45218 7.28570
#
# Compressibility (1/GPa) = 0.01382388
#
# Stress axis : x y z
#
# Youngs Moduli (GPa) = 67.14387 94.97247 71.57910
#
# Poissons Ratio (x) = 0.47431 0.22535
# Poissons Ratio (y) = 0.33533 0.33229
# Poissons Ratio (z) = 0.21139 0.44089
#
# Static dielectric constant tensor:
#      x y z
#    x 3.611210 0.000000 0.000000 
#    y 0.000000 3.718030 0.000000 
#    z 0.000000 0.000000 3.562180 
# 
# 
# High freq. dielectric constant tensor:
#      x y z
#    x 1.766070 0.000000 0.000000 
#    y 0.000000 1.765040 0.000000 
#    z 0.000000 0.000000 1.756170 
# 
# From -- ./inp_files/7909.got.cif
#   From: 2010.03.12/outbox.cif.g09.slc.cpg/sg47_4_cif.got.tgz:7909.got - 2010.04.14 03:12:58.
