data_PCOD8200066
_publ_section_title
;
Structure prediction by ZEFSAII (Michael W. Deem and Ramdas Pophale) SiO2 
 PCOD8200066
Probable space group: P M M M
;
_chemical_formula_sum "Si O2"
_cell_formula_units_Z 56
_cell_length_a 8.884347
_cell_length_b 19.446823
_cell_length_c 15.909894
_cell_angle_alpha 90.000000
_cell_angle_beta 90.000000
_cell_angle_gamma 90.000000
_cell_volume 2748.789354
_symmetry_space_group_name_H-M "P M M M"
_symmetry_group_IT_number 47
_symmetry_cell_setting 'orthorhombic'
loop_
_space_group_symop_operation_xyz
x,y,z
-x,-y,z
x,-y,-z
-x,y,-z
-x,-y,-z
x,y,-z
-x,y,z
x,-y,z
loop_
_atom_site_type_symbol
_atom_site_label
_atom_site_fract_x
_atom_site_fract_y
_atom_site_fract_z
Si Si1 0.828902 0.077422 0.900959
Si Si2 0.178707 0.074320 0.594293
Si Si3 0.176479 0.420711 0.747631
Si Si4 0.178574 0.215530 0.664633
Si Si5 0.676381 0.209288 0.836732
Si Si6 0.825794 0.332807 0.907134
Si Si7 0.324843 0.657072 0.405494
O O1 0.718963 0.130727 0.856295
O O2 0.000000 0.092348 0.872015
O O3 0.783010 0.000000 0.874167
O O4 0.814136 0.085813 0.000000
O O5 0.241683 0.081006 0.500000
O O6 0.240651 0.138257 0.647797
O O7 0.000000 0.077821 0.592349
O O8 0.229938 0.000000 0.632447
O O9 0.218463 0.500000 0.758616
O O10 0.231714 0.383675 0.833530
O O11 0.257402 0.393619 0.664114
O O12 0.000000 0.409078 0.734472
O O13 0.237377 0.237762 0.755256
O O14 0.245780 0.268413 0.597447
O O15 0.000000 0.219684 0.660624
O O16 0.500000 0.213609 0.822833
O O17 0.730679 0.261796 0.908465
O O18 0.000000 0.314155 0.893051
O O19 0.802760 0.366591 0.000000
O O20 0.298599 0.627470 0.500000
O O21 0.500000 0.666406 0.386476
#
# Coordination Sequence:
#
# PCOD8200066 Si02
#       7
#     8   8   8   8   8   8   8
#     4   9  19  37  59  81 108 148 201 257 309 363
#     4   8  15  29  50  78 109 140 182 239 298 352
#     4  10  22  41  66  96 127 160 201 247 294 354
#     4  11  21  35  58  85 114 153 204 256 303 354
#     4  12  24  36  54  83 120 159 200 249 306 365
#     4  10  21  39  64  92 123 161 203 247 298 359
#     4  11  24  41  62  90 125 165 205 248 305 367
#
# _framework density 20.372603000000002
#
# number of rings (size 3 to 8) (size 9 to 14) (size 15 to 20)
#    0.000    1.857    1.429    3.857    0.000    5.714 
#    0.000    5.000    0.000    1.286    0.000    7.000 
#    0.000    0.000    0.000    0.000    0.000    0.000 
#
# Total GULP energy -694279.135064 kJ/mol
# GULP energy per Si atom -12397.841698 kJ/mol
# Density = 2.032623 g / cm^3
# Si number density = 20.372603 Si / 1000 Ang^3
#
#
#
# Elastic Constant Matrix: (Units=GPa)
#
#
# Indices 1 2 3 4 5 6 
#
# 1 76.6897 51.1184 41.3513 0.0000 0.0000 0.0000
# 2 51.1184 129.6313 57.0959 0.0000 0.0000 0.0000
# 3 41.3513 57.0959 119.1070 0.0000 0.0000 0.0000
# 4 0.0000 0.0000 0.0000 29.4201 0.0000 0.0000
# 5 0.0000 0.0000 0.0000 0.0000 17.2462 0.0000
# 6 0.0000 0.0000 0.0000 0.0000 0.0000 17.1095
#
#
#
# Elastic Compliance Matrix: (Units=1/GPa)
#
#
# Indices 1 2 3 4 5 6 
#
# 1 0.018955 -0.005801 -0.003800 0.000000 0.000000 0.000000
# 2 -0.005801 0.011554 -0.003525 0.000000 0.000000 0.000000
# 3 -0.003800 -0.003525 0.011405 0.000000 0.000000 0.000000
# 4 0.000000 0.000000 0.000000 0.033990 0.000000 0.000000
# 5 0.000000 0.000000 0.000000 0.000000 0.057984 0.000000
# 6 0.000000 0.000000 0.000000 0.000000 0.000000 0.058447
#
#
# Mechanical properties :
#
#
# Convention : Reuss Voigt Hill
#
# Bulk Modulus (GPa) = 63.84610 69.39546 66.62078
# Shear Modulus (GPa) = 22.34057 24.47931 23.40994
#
# Velocity S-wave (km/s) = 3.31509 3.47014 3.39350
# Velocity P-wave (km/s) = 6.78677 7.08470 6.93733
#
# Compressibility (1/GPa) = 0.01566266
#
# Stress axis : x y z
#
# Youngs Moduli (GPa) = 52.75561 86.54856 87.68296
#
# Poissons Ratio (x) = 0.50207 0.33320
# Poissons Ratio (y) = 0.30604 0.30906
# Poissons Ratio (z) = 0.20047 0.30506
#
# Static dielectric constant tensor:
#      x y z
#    x 3.411530 0.000000 0.000000 
#    y 0.000000 3.922070 0.000000 
#    z 0.000000 0.000000 3.755770 
# 
# 
# High freq. dielectric constant tensor:
#      x y z
#    x 1.768950 0.000000 0.000000 
#    y 0.000000 1.800430 0.000000 
#    z 0.000000 0.000000 1.801130 
# 
# From -- ./inp_files/7203.got.cif
#   From: 2010.03.12/outbox.cif.g09.slc.cpg/sg47_4_cif.got.tgz:7203.got - 2010.04.14 03:12:58.
