data_PCOD8200646
_publ_section_title
;
Structure prediction by ZEFSAII (Michael W. Deem and Ramdas Pophale) SiO2 
 PCOD8200646
Probable space group: P M M M
;
_chemical_formula_sum "Si O2"
_cell_formula_units_Z 48
_cell_length_a 8.955430
_cell_length_b 15.160149
_cell_length_c 17.465588
_cell_angle_alpha 90.000000
_cell_angle_beta 90.000000
_cell_angle_gamma 90.000000
_cell_volume 2371.226963
_symmetry_space_group_name_H-M "P M M M"
_symmetry_group_IT_number 47
_symmetry_cell_setting 'orthorhombic'
loop_
_space_group_symop_operation_xyz
x,y,z
-x,-y,z
x,-y,-z
-x,y,-z
-x,-y,-z
x,y,-z
-x,y,z
x,-y,z
loop_
_atom_site_type_symbol
_atom_site_label
_atom_site_fract_x
_atom_site_fract_y
_atom_site_fract_z
Si Si1 0.326931 0.161090 0.821934
Si Si2 0.665018 0.903664 0.410727
Si Si3 0.177750 0.000000 0.089938
Si Si4 0.675394 0.601748 0.588232
Si Si5 0.330350 0.664994 0.084937
Si Si6 0.174896 0.238534 0.328261
Si Si7 0.832465 0.500000 0.091528
O O1 0.500000 0.134480 0.810621
O O2 0.239738 0.083498 0.864174
O O3 0.306637 0.243381 0.875950
O O4 0.256113 0.191156 0.742439
O O5 0.655995 0.915503 0.500000
O O6 0.500000 0.873951 0.380259
O O7 0.791583 0.830953 0.395316
O O8 0.705828 0.000000 0.374378
O O9 0.000000 0.000000 0.094540
O O10 0.229273 0.000000 0.000000
O O11 0.720460 0.622706 0.500000
O O12 0.500000 0.617625 0.599159
O O13 0.716414 0.500000 0.607362
O O14 0.761327 0.665602 0.647533
O O15 0.500000 0.633986 0.084168
O O16 0.240699 0.587404 0.127856
O O17 0.266136 0.677038 0.000000
O O18 0.000000 0.248474 0.312316
O O19 0.000000 0.500000 0.118712
O O20 0.809694 0.500000 0.000000
#
# Coordination Sequence:
#
# PCOD8200646 Si02
#       7
#     8   8   4   8   8   8   4
#     4  11  24  42  64  88 117 161 209 252 299 358
#     4   9  19  37  61  86 113 152 202 248 291 350
#     4  11  25  45  69  97 128 159 196 253 321 381
#     4   9  19  39  67  94 121 161 215 266 308 363
#     4   9  18  35  59  85 111 143 192 246 288 337
#     4  12  25  38  56  87 128 164 198 250 314 370
#     4   9  17  29  51  83 115 147 178 217 280 349
#
# _framework density 20.242685999999999
#
# number of rings (size 3 to 8) (size 9 to 14) (size 15 to 20)
#    0.000    2.000    0.000    4.500    1.167    7.000 
#    1.500    3.333    0.000    0.000    0.000    0.000 
#    0.000    0.000    0.000    0.000    0.000    0.000 
#
# Total GULP energy -594869.425668 kJ/mol
# GULP energy per Si atom -12393.113035 kJ/mol
# Density = 2.019661 g / cm^3
# Si number density = 20.242686 Si / 1000 Ang^3
#
#
#
# Elastic Constant Matrix: (Units=GPa)
#
#
# Indices 1 2 3 4 5 6 
#
# 1 107.7510 79.4249 40.7832 0.0000 0.0000 0.0000
# 2 79.4249 121.7443 52.4621 0.0000 0.0000 0.0000
# 3 40.7832 52.4621 79.4220 0.0000 0.0000 0.0000
# 4 0.0000 0.0000 0.0000 41.7022 0.0000 0.0000
# 5 0.0000 0.0000 0.0000 0.0000 25.0266 0.0000
# 6 0.0000 0.0000 0.0000 0.0000 0.0000 6.4980
#
#
#
# Elastic Compliance Matrix: (Units=1/GPa)
#
#
# Indices 1 2 3 4 5 6 
#
# 1 0.018123 -0.010922 -0.002092 0.000000 0.000000 0.000000
# 2 -0.010922 0.018065 -0.006324 0.000000 0.000000 0.000000
# 3 -0.002092 -0.006324 0.017842 0.000000 0.000000 0.000000
# 4 0.000000 0.000000 0.000000 0.023980 0.000000 0.000000
# 5 0.000000 0.000000 0.000000 0.000000 0.039957 0.000000
# 6 0.000000 0.000000 0.000000 0.000000 0.000000 0.153895
#
#
# Mechanical properties :
#
#
# Convention : Reuss Voigt Hill
#
# Bulk Modulus (GPa) = 65.12738 72.69531 68.91135
# Shear Modulus (GPa) = 15.84005 23.72849 19.78427
#
# Velocity S-wave (km/s) = 2.80037 3.42746 3.12966
# Velocity P-wave (km/s) = 6.53446 7.18701 6.86849
#
# Compressibility (1/GPa) = 0.01535453
#
# Stress axis : x y z
#
# Youngs Moduli (GPa) = 55.17798 55.35706 56.04627
#
# Poissons Ratio (x) = 0.60461 0.11723
# Poissons Ratio (y) = 0.60266 0.35444
# Poissons Ratio (z) = 0.11542 0.35008
#
# Static dielectric constant tensor:
#      x y z
#    x 3.732680 0.000000 0.000000 
#    y 0.000000 3.606870 0.000000 
#    z 0.000000 0.000000 -0.028690 
# 
# 
# High freq. dielectric constant tensor:
#      x y z
#    x 1.782490 0.000000 0.000000 
#    y 0.000000 1.811210 0.000000 
#    z 0.000000 0.000000 1.777820 
# 
# From -- ./inp_files/26559.got.cif
#   From: 2010.03.12/outbox.cif.g09.slc.cpg/sg47_14_cif.got.tgz:26559.got - 2010.04.14 03:12:58.
