data_PCOD8200944
_publ_section_title
;
Structure prediction by ZEFSAII (Michael W. Deem and Ramdas Pophale) SiO2 
 PCOD8200944
Probable space group: P M M M
;
_chemical_formula_sum "Si O2"
_cell_formula_units_Z 64
_cell_length_a 15.439337
_cell_length_b 30.089909
_cell_length_c 9.425033
_cell_angle_alpha 90.000000
_cell_angle_beta 90.000000
_cell_angle_gamma 90.000000
_cell_volume 4378.571043
_symmetry_space_group_name_H-M "P M M M"
_symmetry_group_IT_number 47
_symmetry_cell_setting 'orthorhombic'
loop_
_space_group_symop_operation_xyz
x,y,z
-x,-y,z
x,-y,-z
-x,y,-z
-x,-y,-z
x,y,-z
-x,y,z
x,-y,z
loop_
_atom_site_type_symbol
_atom_site_label
_atom_site_fract_x
_atom_site_fract_y
_atom_site_fract_z
Si Si1 0.598375 0.049791 0.666797
Si Si2 0.257115 0.214797 0.164111
Si Si3 0.396973 0.369617 0.659424
Si Si4 0.400786 0.284514 0.834997
Si Si5 0.091981 0.879648 0.160317
Si Si6 0.095388 0.208427 0.665555
Si Si7 0.603010 0.549247 0.840779
Si Si8 0.277312 0.888724 0.160638
O O1 0.609071 0.054375 0.500000
O O2 0.500000 0.059584 0.712470
O O3 0.658607 0.085990 0.737541
O O4 0.624498 0.000000 0.715313
O O5 0.342099 0.242501 0.207067
O O6 0.173917 0.233082 0.252473
O O7 0.276966 0.163432 0.199555
O O8 0.234627 0.221427 0.000000
O O9 0.359798 0.367204 0.500000
O O10 0.500000 0.372003 0.657908
O O11 0.366731 0.326412 0.745711
O O12 0.358415 0.413707 0.734823
O O13 0.500000 0.272351 0.796801
O O14 0.392282 0.296968 0.000000
O O15 0.090503 0.841226 0.275514
O O16 0.179299 0.908525 0.183761
O O17 0.000000 0.906612 0.174086
O O18 0.098972 0.859207 0.000000
O O19 0.118224 0.206884 0.500000
O O20 0.000000 0.231008 0.689576
O O21 0.500000 0.551789 0.840819
O O22 0.632910 0.500000 0.790700
O O23 0.637088 0.558648 0.000000
O O24 0.308976 0.896137 0.000000
#
# Coordination Sequence:
#
# PCOD8200944 Si02
#       8
#     8   8   8   8   8   8   8   8
#     4   9  19  35  50  62  79 105 134 161 194 238
#     4   9  18  30  43  61  83 107 134 163 197 235
#     4   9  16  24  34  49  69  94 126 164 204 241
#     4   9  17  29  42  53  71 104 141 170 196 232
#     4   8  14  26  43  62  86 112 131 149 180 224
#     4   9  16  25  39  60  83 105 130 161 195 230
#     4   8  13  21  33  48  65  87 119 160 203 244
#     4   9  17  28  45  69  88 101 125 162 198 230
#
# _framework density 14.616641
#
# number of rings (size 3 to 8) (size 9 to 14) (size 15 to 20)
#    0.000    3.250    0.000    2.250    0.000    6.000 
#    0.000    3.125    0.000    1.875    0.000    2.625 
#    0.000    0.000    0.000    0.000    0.000    0.625 
#
# Total GULP energy -792876.766914 kJ/mol
# GULP energy per Si atom -12388.699483 kJ/mol
# Density = 1.458337 g / cm^3
# Si number density = 14.616641 Si / 1000 Ang^3
#
#
#
# Elastic Constant Matrix: (Units=GPa)
#
#
# Indices 1 2 3 4 5 6 
#
# 1 87.2777 48.0256 45.0140 0.0000 0.0000 0.0000
# 2 48.0256 69.5382 41.1599 0.0000 0.0000 0.0000
# 3 45.0140 41.1599 70.8414 0.0000 0.0000 0.0000
# 4 0.0000 0.0000 0.0000 17.5714 0.0000 0.0000
# 5 0.0000 0.0000 0.0000 0.0000 21.1172 0.0000
# 6 0.0000 0.0000 0.0000 0.0000 0.0000 0.1617
#
#
#
# Elastic Compliance Matrix: (Units=1/GPa)
#
#
# Indices 1 2 3 4 5 6 
#
# 1 0.020751 -0.009948 -0.007406 0.000000 0.000000 0.000000
# 2 -0.009948 0.026687 -0.009185 0.000000 0.000000 0.000000
# 3 -0.007406 -0.009185 0.024158 0.000000 0.000000 0.000000
# 4 0.000000 0.000000 0.000000 0.056911 0.000000 0.000000
# 5 0.000000 0.000000 0.000000 0.000000 0.047355 0.000000
# 6 0.000000 0.000000 0.000000 0.000000 0.000000 6.184368
#
#
# Mechanical properties :
#
#
# Convention : Reuss Voigt Hill
#
# Bulk Modulus (GPa) = 53.99563 55.11738 54.55651
# Shear Modulus (GPa) = 0.77888 14.00057 7.38972
#
# Velocity S-wave (km/s) = 0.73077 3.09827 2.25093
# Velocity P-wave (km/s) = 6.14275 7.11264 6.64541
#
# Compressibility (1/GPa) = 0.01852002
#
# Stress axis : x y z
#
# Youngs Moduli (GPa) = 48.18964 37.47075 41.39379
#
# Poissons Ratio (x) = 0.37276 0.30656
# Poissons Ratio (y) = 0.47940 0.38018
# Poissons Ratio (z) = 0.35688 0.34415
#
# Static dielectric constant tensor:
#      x y z
#    x 2.936230 0.000000 0.000000 
#    y 0.000000 2.681800 0.000000 
#    z 0.000000 0.000000 2.927540 
# 
# 
# High freq. dielectric constant tensor:
#      x y z
#    x 1.536290 0.000000 0.000000 
#    y 0.000000 1.525110 0.000000 
#    z 0.000000 0.000000 1.565830 
# 
# From -- ./inp_files/8263.got.cif
#   From: 2010.03.12/outbox.cif.g09.slc.cpg/sg47_5_cif.got.tgz:8263.got - 2010.04.14 03:12:58.
