data_PCOD8200242
_publ_section_title
;
Structure prediction by ZEFSAII (Michael W. Deem and Ramdas Pophale) SiO2 
 PCOD8200242
Probable space group: P M M M
;
_chemical_formula_sum "Si O2"
_cell_formula_units_Z 52
_cell_length_a 12.181077
_cell_length_b 9.068278
_cell_length_c 27.670929
_cell_angle_alpha 90.000000
_cell_angle_beta 90.000000
_cell_angle_gamma 90.000000
_cell_volume 3056.569351
_symmetry_space_group_name_H-M "P M M M"
_symmetry_group_IT_number 47
_symmetry_cell_setting 'orthorhombic'
loop_
_space_group_symop_operation_xyz
x,y,z
-x,-y,z
x,-y,-z
-x,y,-z
-x,-y,-z
x,y,-z
-x,y,z
x,-y,z
loop_
_atom_site_type_symbol
_atom_site_label
_atom_site_fract_x
_atom_site_fract_y
_atom_site_fract_z
Si Si1 0.123679 0.325598 0.673366
Si Si2 0.500000 0.326846 0.800215
Si Si3 0.376797 0.825474 0.947376
Si Si4 0.500000 0.176244 0.554649
Si Si5 0.500000 0.836464 0.294668
Si Si6 0.128657 0.333314 0.782361
Si Si7 0.681948 0.167922 0.626368
Si Si8 0.706755 0.825492 0.152664
O O1 0.129727 0.500000 0.669910
O O2 0.155454 0.276685 0.728065
O O3 0.206227 0.258073 0.634043
O O4 0.000000 0.271615 0.661364
O O5 0.500000 0.500000 0.809929
O O6 0.500000 0.295262 0.743313
O O7 0.606868 0.253504 0.821775
O O8 0.500000 0.764750 0.936976
O O9 0.295101 0.777497 0.904105
O O10 0.382650 0.000000 0.949224
O O11 0.335377 0.766083 0.000000
O O12 0.500000 0.235522 0.500000
O O13 0.610714 0.232886 0.581433
O O14 0.500000 0.000000 0.557987
O O15 0.608792 0.819196 0.326093
O O16 0.500000 0.000000 0.270445
O O17 0.173208 0.500000 0.788930
O O18 0.181819 0.227406 0.822300
O O19 0.000000 0.328786 0.791572
O O20 0.715603 0.000000 0.615859
O O21 0.694673 0.000000 0.158582
#
# Coordination Sequence:
#
# PCOD8200242 Si02
#       8
#     8   4   8   4   4   8   8   8
#     4   9  18  32  48  66  92 128 164 194 228 273
#     4  12  23  31  42  65  98 132 158 181 228 292
#     4   8  14  27  47  68  90 117 149 187 235 286
#     4   8  15  30  51  73  99 128 155 188 236 288
#     4   9  18  31  44  64  96 123 150 193 236 273
#     4   9  19  35  51  68  95 131 165 193 228 281
#     4   9  17  29  48  73  95 120 156 197 237 273
#     4  11  20  31  49  72  95 118 153 198 240 279
#
# _framework density 17.012537999999999
#
# number of rings (size 3 to 8) (size 9 to 14) (size 15 to 20)
#    0.000    2.692    0.769    4.385    0.000    4.308 
#    0.000    2.692    0.000    4.154    0.000    6.462 
#    0.000    0.000    0.000    0.000    0.000    0.000 
#
# Total GULP energy -644482.025144 kJ/mol
# GULP energy per Si atom -12393.885099 kJ/mol
# Density = 1.697382 g / cm^3
# Si number density = 17.012538 Si / 1000 Ang^3
#
#
#
# Elastic Constant Matrix: (Units=GPa)
#
#
# Indices 1 2 3 4 5 6 
#
# 1 89.5506 31.3496 58.5099 0.0000 0.0000 0.0000
# 2 31.3496 52.9286 34.9004 0.0000 0.0000 0.0000
# 3 58.5099 34.9004 125.7895 0.0000 0.0000 0.0000
# 4 0.0000 0.0000 0.0000 9.3198 0.0000 0.0000
# 5 0.0000 0.0000 0.0000 0.0000 13.7876 0.0000
# 6 0.0000 0.0000 0.0000 0.0000 0.0000 -30.8082
#
#
#
# Elastic Compliance Matrix: (Units=1/GPa)
#
#
# Indices 1 2 3 4 5 6 
#
# 1 0.017528 -0.006127 -0.006453 0.000000 0.000000 0.000000
# 2 -0.006127 0.025265 -0.004160 0.000000 0.000000 0.000000
# 3 -0.006453 -0.004160 0.012106 0.000000 0.000000 0.000000
# 4 0.000000 0.000000 0.000000 0.107299 0.000000 0.000000
# 5 0.000000 0.000000 0.000000 0.000000 0.072529 0.000000
# 6 0.000000 0.000000 0.000000 0.000000 0.000000 -0.032459
#
#
# Mechanical properties :
#
#
# Convention : Reuss Voigt Hill
#
# Bulk Modulus (GPa) = 46.68739 57.53206 52.10972
# Shear Modulus (GPa) = 20.58569 8.02709 14.30639
#
# Velocity S-wave (km/s) = 3.48232 2.17453 2.90303
# Velocity P-wave (km/s) = 6.60842 6.34000 6.47560
#
# Compressibility (1/GPa) = 0.02141906
#
# Stress axis : x y z
#
# Youngs Moduli (GPa) = 57.05155 39.57988 82.60619
#
# Poissons Ratio (x) = 0.24250 0.53307
# Poissons Ratio (y) = 0.34954 0.34365
# Poissons Ratio (z) = 0.36816 0.16466
#
# Static dielectric constant tensor:
#      x y z
#    x 3.058210 0.000000 0.000000 
#    y 0.000000 2.964330 0.000000 
#    z 0.000000 0.000000 3.404150 
# 
# 
# High freq. dielectric constant tensor:
#      x y z
#    x 1.645290 0.000000 0.000000 
#    y 0.000000 1.633480 0.000000 
#    z 0.000000 0.000000 1.648230 
# 
# From -- ./inp_files/33666.got.cif
#   From: 2010.03.12/outbox.cif.g09.slc.cpg/sg47_17_cif.got.tgz:33666.got - 2010.04.14 03:12:58.
