data_PCOD8200693
_publ_section_title
;
Structure prediction by ZEFSAII (Michael W. Deem and Ramdas Pophale) SiO2 
 PCOD8200693
Probable space group: P M M M
;
_chemical_formula_sum "Si O2"
_cell_formula_units_Z 48
_cell_length_a 13.576207
_cell_length_b 24.025737
_cell_length_c 9.566988
_cell_angle_alpha 90.000000
_cell_angle_beta 90.000000
_cell_angle_gamma 90.000000
_cell_volume 3120.544636
_symmetry_space_group_name_H-M "P M M M"
_symmetry_group_IT_number 47
_symmetry_cell_setting 'orthorhombic'
loop_
_space_group_symop_operation_xyz
x,y,z
-x,-y,z
x,-y,-z
-x,y,-z
-x,-y,-z
x,y,-z
-x,y,z
x,-y,z
loop_
_atom_site_type_symbol
_atom_site_label
_atom_site_fract_x
_atom_site_fract_y
_atom_site_fract_z
Si Si1 0.724312 0.390966 0.162252
Si Si2 0.110276 0.880789 0.332603
Si Si3 0.886591 0.337472 0.662262
Si Si4 0.882825 0.000000 0.346512
Si Si5 0.388959 0.500000 0.833875
Si Si6 0.387241 0.721639 0.839094
Si Si7 0.773517 0.225724 0.663125
O O1 0.824611 0.381919 0.248492
O O2 0.670057 0.445959 0.218883
O O3 0.649100 0.340779 0.188797
O O4 0.753034 0.396495 0.000000
O O5 0.109204 0.882944 0.500000
O O6 0.180827 0.831763 0.279360
O O7 0.000000 0.868290 0.278068
O O8 0.147904 0.941321 0.272582
O O9 0.872144 0.351871 0.500000
O O10 0.850734 0.274939 0.694672
O O11 0.000000 0.342097 0.707465
O O12 0.834384 0.000000 0.500000
O O13 0.000000 0.000000 0.360663
O O14 0.500000 0.500000 0.771627
O O15 0.395858 0.500000 0.000000
O O16 0.500000 0.725098 0.792907
O O17 0.327539 0.765197 0.745562
O O18 0.372628 0.738150 0.000000
O O19 0.748690 0.222284 0.500000
#
# Coordination Sequence:
#
# PCOD8200693 Si02
#       7
#     8   8   8   4   4   8   8
#     4   9  17  29  46  66  83 101 130 165 199 237
#     4   8  12  19  33  55  83 110 133 159 193 233
#     4   9  17  29  43  59  83 114 140 161 191 232
#     4   7  10  16  28  50  80 109 132 156 191 233
#     4   9  16  28  48  69  84 100 127 165 206 245
#     4   9  17  29  43  59  81 106 129 158 200 245
#     4   9  16  25  40  62  83 104 134 168 197 229
#
# _framework density 15.381930000000001
#
# number of rings (size 3 to 8) (size 9 to 14) (size 15 to 20)
#    0.000    3.333    0.000    2.000    0.000    4.667 
#    0.000    0.833    0.000    6.000    0.000    1.167 
#    0.000    6.667    0.000    0.000    0.000    0.000 
#
# Total GULP energy -594902.768403 kJ/mol
# GULP energy per Si atom -12393.807675 kJ/mol
# Density = 1.534692 g / cm^3
# Si number density = 15.381930 Si / 1000 Ang^3
#
#
#
# Elastic Constant Matrix: (Units=GPa)
#
#
# Indices 1 2 3 4 5 6 
#
# 1 129.4259 69.7823 44.0176 0.0000 0.0000 0.0000
# 2 69.7823 127.1683 34.2147 0.0000 0.0000 0.0000
# 3 44.0176 34.2147 32.7004 0.0000 0.0000 0.0000
# 4 0.0000 0.0000 0.0000 13.3311 0.0000 0.0000
# 5 0.0000 0.0000 0.0000 0.0000 23.9285 0.0000
# 6 0.0000 0.0000 0.0000 0.0000 0.0000 22.4541
#
#
#
# Elastic Compliance Matrix: (Units=1/GPa)
#
#
# Indices 1 2 3 4 5 6 
#
# 1 0.015622 -0.004057 -0.016784 0.000000 0.000000 0.000000
# 2 -0.004057 0.011998 -0.007093 0.000000 0.000000 0.000000
# 3 -0.016784 -0.007093 0.060595 0.000000 0.000000 0.000000
# 4 0.000000 0.000000 0.000000 0.075012 0.000000 0.000000
# 5 0.000000 0.000000 0.000000 0.000000 0.041791 0.000000
# 6 0.000000 0.000000 0.000000 0.000000 0.000000 0.044535
#
#
# Mechanical properties :
#
#
# Convention : Reuss Voigt Hill
#
# Bulk Modulus (GPa) = 30.91430 65.03598 47.97514
# Shear Modulus (GPa) = 15.81264 21.36143 18.58703
#
# Velocity S-wave (km/s) = 3.20972 3.73062 3.47993
# Velocity P-wave (km/s) = 5.82047 7.80572 6.88502
#
# Compressibility (1/GPa) = 0.03234749
#
# Stress axis : x y z
#
# Youngs Moduli (GPa) = 64.01315 83.34725 16.50309
#
# Poissons Ratio (x) = 0.33811 0.27699
# Poissons Ratio (y) = 0.25968 0.11706
# Poissons Ratio (z) = 1.07439 0.59119
#
# Static dielectric constant tensor:
#      x y z
#    x 2.887040 0.000000 0.000000 
#    y 0.000000 3.186170 0.000000 
#    z 0.000000 0.000000 2.653970 
# 
# 
# High freq. dielectric constant tensor:
#      x y z
#    x 1.575620 0.000000 0.000000 
#    y 0.000000 1.590870 0.000000 
#    z 0.000000 0.000000 1.553600 
# 
# From -- ./inp_files/16471.got.cif
#   From: 2010.03.12/outbox.cif.g09.slc.cpg/sg47_9_cif.got.tgz:16471.got - 2010.04.14 03:12:58.
