data_PCOD8200395
_publ_section_title
;
Structure prediction by ZEFSAII (Michael W. Deem and Ramdas Pophale) SiO2 
 PCOD8200395
Probable space group: P M M M
;
_chemical_formula_sum "Si O2"
_cell_formula_units_Z 52
_cell_length_a 22.937738
_cell_length_b 8.918054
_cell_length_c 14.071884
_cell_angle_alpha 90.000000
_cell_angle_beta 90.000000
_cell_angle_gamma 90.000000
_cell_volume 2878.544396
_symmetry_space_group_name_H-M "P M M M"
_symmetry_group_IT_number 47
_symmetry_cell_setting 'orthorhombic'
loop_
_space_group_symop_operation_xyz
x,y,z
-x,-y,z
x,-y,-z
-x,y,-z
-x,-y,-z
x,y,-z
-x,y,z
x,-y,z
loop_
_atom_site_type_symbol
_atom_site_label
_atom_site_fract_x
_atom_site_fract_y
_atom_site_fract_z
Si Si1 0.115483 0.822679 0.211353
Si Si2 0.775636 0.672714 0.111992
Si Si3 0.710861 0.326963 0.392144
Si Si4 0.668435 0.824296 0.212653
Si Si5 0.000000 0.821655 0.107116
Si Si6 0.153626 0.673385 0.392983
Si Si7 0.432791 0.327761 0.890402
O O1 0.170300 0.758709 0.155967
O O2 0.114889 0.769631 0.320692
O O3 0.057042 0.761640 0.161413
O O4 0.118806 0.000000 0.208041
O O5 0.779490 0.500000 0.142992
O O6 0.715425 0.738338 0.149463
O O7 0.777333 0.693330 0.000000
O O8 0.697185 0.278290 0.500000
O O9 0.694169 0.500000 0.376590
O O10 0.672982 0.223784 0.322730
O O11 0.778670 0.301644 0.368604
O O12 0.604564 0.781619 0.175598
O O13 0.678846 0.000000 0.203215
O O14 0.000000 0.000000 0.105180
O O15 0.000000 0.757326 0.000000
O O16 0.140134 0.728249 0.500000
O O17 0.137132 0.500000 0.382075
O O18 0.500000 0.300247 0.864795
O O19 0.415461 0.500000 0.870709
O O20 0.420857 0.288075 0.000000
#
# Coordination Sequence:
#
# PCOD8200395 Si02
#       7
#     8   8   8   8   4   8   8
#     4  11  21  35  57  82 106 138 179 225 274 324
#     4  11  23  37  53  75 107 144 180 223 271 319
#     4   9  18  34  56  79 107 145 183 219 265 324
#     4  12  23  33  52  84 116 144 176 221 276 327
#     4   9  20  38  56  75 106 146 181 217 268 331
#     4   9  18  34  56  80 108 142 177 217 269 326
#     4   9  19  37  59  80 106 147 194 231 265 313
#
# _framework density 18.064685999999998
#
# number of rings (size 3 to 8) (size 9 to 14) (size 15 to 20)
#    0.000    1.923    1.538    4.615    0.000    4.923 
#    0.000    4.231    0.000    5.538    0.000    3.231 
#    0.000    0.000    0.000    0.000    0.000    0.000 
#
# Total GULP energy -644956.229328 kJ/mol
# GULP energy per Si atom -12403.004410 kJ/mol
# Density = 1.802357 g / cm^3
# Si number density = 18.064686 Si / 1000 Ang^3
#
#
#
# Elastic Constant Matrix: (Units=GPa)
#
#
# Indices 1 2 3 4 5 6 
#
# 1 90.5557 32.0198 56.2954 0.0000 0.0000 0.0000
# 2 32.0198 70.5731 50.6326 0.0000 0.0000 0.0000
# 3 56.2954 50.6326 118.3172 0.0000 0.0000 0.0000
# 4 0.0000 0.0000 0.0000 23.8957 0.0000 0.0000
# 5 0.0000 0.0000 0.0000 0.0000 29.5870 0.0000
# 6 0.0000 0.0000 0.0000 0.0000 0.0000 13.1276
#
#
#
# Elastic Compliance Matrix: (Units=1/GPa)
#
#
# Indices 1 2 3 4 5 6 
#
# 1 0.016004 -0.002595 -0.006504 0.000000 0.000000 0.000000
# 2 -0.002595 0.020868 -0.007696 0.000000 0.000000 0.000000
# 3 -0.006504 -0.007696 0.014840 0.000000 0.000000 0.000000
# 4 0.000000 0.000000 0.000000 0.041849 0.000000 0.000000
# 5 0.000000 0.000000 0.000000 0.000000 0.033799 0.000000
# 6 0.000000 0.000000 0.000000 0.000000 0.000000 0.076176
#
#
# Mechanical properties :
#
#
# Convention : Reuss Voigt Hill
#
# Bulk Modulus (GPa) = 55.17980 61.92683 58.55332
# Shear Modulus (GPa) = 20.56216 22.68861 21.62539
#
# Velocity S-wave (km/s) = 3.37746 3.54780 3.46368
# Velocity P-wave (km/s) = 6.76917 7.15105 6.96273
#
# Compressibility (1/GPa) = 0.01812257
#
# Stress axis : x y z
#
# Youngs Moduli (GPa) = 62.48495 47.91965 67.38572
#
# Poissons Ratio (x) = 0.12433 0.43830
# Poissons Ratio (y) = 0.16213 0.51859
# Poissons Ratio (z) = 0.40642 0.36878
#
# Static dielectric constant tensor:
#      x y z
#    x 3.240490 0.000000 0.000000 
#    y 0.000000 3.225940 0.000000 
#    z 0.000000 0.000000 3.510790 
# 
# 
# High freq. dielectric constant tensor:
#      x y z
#    x 1.683740 0.000000 0.000000 
#    y 0.000000 1.692760 0.000000 
#    z 0.000000 0.000000 1.712250 
# 
# From -- ./inp_files/10997.got.cif
#   From: 2010.03.12/outbox.cif.g09.slc.cpg/sg47_6_cif.got.tgz:10997.got - 2010.04.14 03:12:58.
