data_PCOD8200108
_publ_section_title
;
Structure prediction by ZEFSAII (Michael W. Deem and Ramdas Pophale) SiO2 
 PCOD8200108
Probable space group: P M M M
;
_chemical_formula_sum "Si O2"
_cell_formula_units_Z 64
_cell_length_a 25.592408
_cell_length_b 9.358445
_cell_length_c 14.186443
_cell_angle_alpha 90.000000
_cell_angle_beta 90.000000
_cell_angle_gamma 90.000000
_cell_volume 3397.726055
_symmetry_space_group_name_H-M "P M M M"
_symmetry_group_IT_number 47
_symmetry_cell_setting 'orthorhombic'
loop_
_space_group_symop_operation_xyz
x,y,z
-x,-y,z
x,-y,-z
-x,y,-z
-x,-y,-z
x,y,-z
-x,y,z
x,-y,z
loop_
_atom_site_type_symbol
_atom_site_label
_atom_site_fract_x
_atom_site_fract_y
_atom_site_fract_z
Si Si1 0.849885 0.335252 0.611224
Si Si2 0.559590 0.338649 0.389511
Si Si3 0.793393 0.656291 0.111161
Si Si4 0.323087 0.668760 0.892456
Si Si5 0.058957 0.835386 0.291744
Si Si6 0.251514 0.165946 0.609588
Si Si7 0.643996 0.168472 0.280021
Si Si8 0.110921 0.163497 0.895161
O O1 0.853158 0.316324 0.500000
O O2 0.847468 0.500000 0.641655
O O3 0.901888 0.265455 0.652737
O O4 0.797430 0.257463 0.648915
O O5 0.565098 0.313440 0.500000
O O6 0.500000 0.314539 0.357359
O O7 0.577320 0.500000 0.363440
O O8 0.594856 0.222349 0.338632
O O9 0.801099 0.500000 0.157209
O O10 0.735986 0.716538 0.133576
O O11 0.838574 0.758669 0.149887
O O12 0.799169 0.643455 0.000000
O O13 0.330137 0.500000 0.877412
O O14 0.359766 0.757108 0.822333
O O15 0.337070 0.709902 0.000000
O O16 0.064009 0.813157 0.178432
O O17 0.000000 0.793797 0.320036
O O18 0.070877 0.000000 0.318053
O O19 0.262108 0.199669 0.500000
O O20 0.302926 0.212632 0.666379
O O21 0.238205 0.000000 0.624946
O O22 0.639608 0.000000 0.267298
O O23 0.127336 0.000000 0.902957
O O24 0.094949 0.220386 0.000000
#
# Coordination Sequence:
#
# PCOD8200108 Si02
#       8
#     8   8   8   8   8   8   8   8
#     4  10  22  39  58  79 102 131 170 219 271 318
#     4   9  19  37  60  85 115 153 195 235 274 323
#     4   8  15  29  48  70  97 131 171 213 258 309
#     4   9  19  35  52  73 107 151 194 232 272 322
#     4  10  22  38  55  76 102 134 172 212 260 323
#     4   9  19  36  55  78 112 147 175 208 259 327
#     4  11  22  33  53  86 119 151 186 229 279 328
#     4   9  18  32  51  75 102 132 167 209 256 309
#
# _framework density 18.836127999999999
#
# number of rings (size 3 to 8) (size 9 to 14) (size 15 to 20)
#    0.000    2.625    0.000    2.250    1.750    4.750 
#    0.000    5.625    0.000    0.375    0.000    5.250 
#    0.000    0.000    0.000    0.000    0.000    0.000 
#
# Total GULP energy -793492.638879 kJ/mol
# GULP energy per Si atom -12398.322482 kJ/mol
# Density = 1.879326 g / cm^3
# Si number density = 18.836128 Si / 1000 Ang^3
#
#
#
# Elastic Constant Matrix: (Units=GPa)
#
#
# Indices 1 2 3 4 5 6 
#
# 1 104.0160 57.4945 46.9792 0.0000 0.0000 0.0000
# 2 57.4945 84.7627 42.7814 0.0000 0.0000 0.0000
# 3 46.9792 42.7814 61.1807 0.0000 0.0000 0.0000
# 4 0.0000 0.0000 0.0000 24.5442 0.0000 0.0000
# 5 0.0000 0.0000 0.0000 0.0000 27.2341 0.0000
# 6 0.0000 0.0000 0.0000 0.0000 0.0000 27.8159
#
#
#
# Elastic Compliance Matrix: (Units=1/GPa)
#
#
# Indices 1 2 3 4 5 6 
#
# 1 0.017584 -0.007901 -0.007978 0.000000 0.000000 0.000000
# 2 -0.007901 0.021782 -0.009165 0.000000 0.000000 0.000000
# 3 -0.007978 -0.009165 0.028880 0.000000 0.000000 0.000000
# 4 0.000000 0.000000 0.000000 0.040743 0.000000 0.000000
# 5 0.000000 0.000000 0.000000 0.000000 0.036719 0.000000
# 6 0.000000 0.000000 0.000000 0.000000 0.000000 0.035951
#
#
# Mechanical properties :
#
#
# Convention : Reuss Voigt Hill
#
# Bulk Modulus (GPa) = 55.06775 60.49665 57.78220
# Shear Modulus (GPa) = 21.02622 22.76578 21.89600
#
# Velocity S-wave (km/s) = 3.34469 3.48030 3.41317
# Velocity P-wave (km/s) = 6.64940 6.95248 6.80263
#
# Compressibility (1/GPa) = 0.01815945
#
# Stress axis : x y z
#
# Youngs Moduli (GPa) = 56.86903 45.90858 34.62661
#
# Poissons Ratio (x) = 0.36272 0.27624
# Poissons Ratio (y) = 0.44931 0.31734
# Poissons Ratio (z) = 0.45369 0.42074
#
# Static dielectric constant tensor:
#      x y z
#    x 3.345360 0.000000 0.000000 
#    y 0.000000 3.530010 0.000000 
#    z 0.000000 0.000000 3.438280 
# 
# 
# High freq. dielectric constant tensor:
#      x y z
#    x 1.713780 0.000000 0.000000 
#    y 0.000000 1.728110 0.000000 
#    z 0.000000 0.000000 1.734130 
# 
# From -- ./inp_files/21930.got.cif
#   From: 2010.03.12/outbox.cif.g09.slc.cpg/sg47_11_cif.got.tgz:21930.got - 2010.04.14 03:12:58.
