data_PCOD8200178
_publ_section_title
;
Structure prediction by ZEFSAII (Michael W. Deem and Ramdas Pophale) SiO2 
 PCOD8200178
Probable space group: P M M M
;
_chemical_formula_sum "Si O2"
_cell_formula_units_Z 56
_cell_length_a 9.381560
_cell_length_b 20.859471
_cell_length_c 14.320162
_cell_angle_alpha 90.000000
_cell_angle_beta 90.000000
_cell_angle_gamma 90.000000
_cell_volume 2802.375206
_symmetry_space_group_name_H-M "P M M M"
_symmetry_group_IT_number 47
_symmetry_cell_setting 'orthorhombic'
loop_
_space_group_symop_operation_xyz
x,y,z
-x,-y,z
x,-y,-z
-x,y,-z
-x,-y,-z
x,y,-z
-x,y,z
x,-y,z
loop_
_atom_site_type_symbol
_atom_site_label
_atom_site_fract_x
_atom_site_fract_y
_atom_site_fract_z
Si Si1 0.836203 0.927125 0.390101
Si Si2 0.158878 0.500000 0.889216
Si Si3 0.165515 0.000000 0.892082
Si Si4 0.169127 0.861395 0.108459
Si Si5 0.661836 0.379851 0.895810
Si Si6 0.667008 0.178397 0.276372
Si Si7 0.339635 0.679541 0.708723
Si Si8 0.832658 0.571098 0.393446
O O1 0.809558 0.921579 0.500000
O O2 0.734442 0.876734 0.339747
O O3 0.000000 0.910790 0.365581
O O4 0.801649 0.000000 0.356729
O O5 0.240529 0.563139 0.855600
O O6 0.000000 0.500000 0.845722
O O7 0.153569 0.500000 0.000000
O O8 0.222117 0.067889 0.853361
O O9 0.000000 0.000000 0.874070
O O10 0.200786 0.000000 0.000000
O O11 0.257445 0.814796 0.175043
O O12 0.000000 0.852342 0.121630
O O13 0.209630 0.850465 0.000000
O O14 0.500000 0.405346 0.899923
O O15 0.677629 0.322240 0.821904
O O16 0.709979 0.357116 0.000000
O O17 0.500000 0.164558 0.263120
O O18 0.692898 0.247809 0.324405
O O19 0.500000 0.660583 0.680354
O O20 0.236971 0.628629 0.662434
O O21 0.781244 0.575478 0.500000
O O22 0.791601 0.500000 0.353695
O O23 0.000000 0.581023 0.386598
#
# Coordination Sequence:
#
# PCOD8200178 Si02
#       8
#     8   4   4   8   8   8   8   8
#     4   9  20  41  67  90 111 143 191 241 288 345
#     4   9  17  29  47  75 106 133 170 227 287 328
#     4   7  12  26  49  75 100 131 178 233 281 322
#     4   9  18  34  56  81 111 152 200 244 285 334
#     4   9  18  34  54  74 103 148 195 231 266 318
#     4  11  24  38  54  84 124 159 190 233 291 346
#     4  10  23  39  55  81 116 156 197 231 272 333
#     4   9  20  40  64  89 115 143 179 230 293 348
#
# _framework density 19.983046999999999
#
# number of rings (size 3 to 8) (size 9 to 14) (size 15 to 20)
#    0.000    2.714    0.000    2.357    2.000    5.143 
#    0.000    5.714    0.000    3.000    0.000    0.000 
#    0.000    0.000    0.000    0.000    0.000    0.000 
#
# Total GULP energy -693903.179317 kJ/mol
# GULP energy per Si atom -12391.128202 kJ/mol
# Density = 1.993757 g / cm^3
# Si number density = 19.983047 Si / 1000 Ang^3
#
#
#
# Elastic Constant Matrix: (Units=GPa)
#
#
# Indices 1 2 3 4 5 6 
#
# 1 85.9714 56.2046 42.8702 0.0000 0.0000 0.0000
# 2 56.2046 114.6470 50.1279 0.0000 0.0000 0.0000
# 3 42.8702 50.1279 65.6329 0.0000 0.0000 0.0000
# 4 0.0000 0.0000 0.0000 23.7310 0.0000 0.0000
# 5 0.0000 0.0000 0.0000 0.0000 23.5383 0.0000
# 6 0.0000 0.0000 0.0000 0.0000 0.0000 32.0407
#
#
#
# Elastic Compliance Matrix: (Units=1/GPa)
#
#
# Indices 1 2 3 4 5 6 
#
# 1 0.019700 -0.006053 -0.008245 0.000000 0.000000 0.000000
# 2 -0.006053 0.014955 -0.007469 0.000000 0.000000 0.000000
# 3 -0.008245 -0.007469 0.026326 0.000000 0.000000 0.000000
# 4 0.000000 0.000000 0.000000 0.042139 0.000000 0.000000
# 5 0.000000 0.000000 0.000000 0.000000 0.042484 0.000000
# 6 0.000000 0.000000 0.000000 0.000000 0.000000 0.031210
#
#
# Mechanical properties :
#
#
# Convention : Reuss Voigt Hill
#
# Bulk Modulus (GPa) = 57.31102 62.73966 60.02534
# Shear Modulus (GPa) = 22.10784 23.66525 22.88654
#
# Velocity S-wave (km/s) = 3.32976 3.44505 3.38790
# Velocity P-wave (km/s) = 6.59736 6.87671 6.73848
#
# Compressibility (1/GPa) = 0.01744865
#
# Stress axis : x y z
#
# Youngs Moduli (GPa) = 50.76065 66.86543 37.98524
#
# Poissons Ratio (x) = 0.40473 0.31318
# Poissons Ratio (y) = 0.30725 0.28370
# Poissons Ratio (z) = 0.41852 0.49940
#
# Static dielectric constant tensor:
#      x y z
#    x 3.481150 0.000000 0.000000 
#    y 0.000000 3.677430 0.000000 
#    z 0.000000 0.000000 3.614180 
# 
# 
# High freq. dielectric constant tensor:
#      x y z
#    x 1.762520 0.000000 0.000000 
#    y 0.000000 1.777980 0.000000 
#    z 0.000000 0.000000 1.780590 
# 
# From -- ./inp_files/21595.got.cif
#   From: 2010.03.12/outbox.cif.g09.slc.cpg/sg47_11_cif.got.tgz:21595.got - 2010.04.14 03:12:58.
