data_PCOD8200732
_publ_section_title
;
Structure prediction by ZEFSAII (Michael W. Deem and Ramdas Pophale) SiO2 
 PCOD8200732
Probable space group: P M M M
;
_chemical_formula_sum "Si O2"
_cell_formula_units_Z 40
_cell_length_a 12.848008
_cell_length_b 9.434948
_cell_length_c 19.487613
_cell_angle_alpha 90.000000
_cell_angle_beta 90.000000
_cell_angle_gamma 90.000000
_cell_volume 2362.294048
_symmetry_space_group_name_H-M "P M M M"
_symmetry_group_IT_number 47
_symmetry_cell_setting 'orthorhombic'
loop_
_space_group_symop_operation_xyz
x,y,z
-x,-y,z
x,-y,-z
-x,y,-z
-x,-y,-z
x,y,-z
-x,y,z
x,-y,z
loop_
_atom_site_type_symbol
_atom_site_label
_atom_site_fract_x
_atom_site_fract_y
_atom_site_fract_z
Si Si1 0.500000 0.667861 0.075210
Si Si2 0.879545 0.836662 0.171853
Si Si3 0.699101 0.165375 0.420022
Si Si4 0.885263 0.168405 0.674560
Si Si5 0.500000 0.660556 0.418522
Si Si6 0.724469 0.663172 0.081327
O O1 0.500000 0.500000 0.066351
O O2 0.609699 0.711090 0.111069
O O3 0.500000 0.738001 0.000000
O O4 0.856439 0.779772 0.248786
O O5 0.812822 0.752858 0.117091
O O6 0.000000 0.813977 0.153594
O O7 0.848183 0.000000 0.166130
O O8 0.720177 0.192055 0.500000
O O9 0.799941 0.222728 0.379499
O O10 0.601515 0.255608 0.392466
O O11 0.676631 0.000000 0.405503
O O12 0.000000 0.226707 0.653598
O O13 0.889554 0.000000 0.674445
O O14 0.500000 0.500000 0.389345
O O15 0.500000 0.659143 0.500000
O O16 0.745504 0.500000 0.098838
O O17 0.728760 0.689090 0.000000
#
# Coordination Sequence:
#
# PCOD8200732 Si02
#       6
#     4   8   8   8   4   8
#     4   7  12  26  46  65  86 112 138 169 218 268
#     4   9  18  32  47  63  89 124 153 178 217 269
#     4   9  16  27  47  72  92 113 148 191 227 262
#     4   8  15  29  47  66  90 119 148 181 225 271
#     4   9  17  29  44  63  92 126 152 179 222 271
#     4   9  17  30  49  70  90 114 147 187 226 263
#
# _framework density 16.932694000000001
#
# number of rings (size 3 to 8) (size 9 to 14) (size 15 to 20)
#    0.000    3.400    0.000    2.700    0.000    2.800 
#    0.000    6.500    0.000    7.200    0.000    2.800 
#    0.000    0.000    0.000    0.000    0.000    0.000 
#
# Total GULP energy -495627.296957 kJ/mol
# GULP energy per Si atom -12390.682424 kJ/mol
# Density = 1.689415 g / cm^3
# Si number density = 16.932694 Si / 1000 Ang^3
#
#
#
# Elastic Constant Matrix: (Units=GPa)
#
#
# Indices 1 2 3 4 5 6 
#
# 1 144.1801 60.4670 64.8819 0.0000 0.0000 0.0000
# 2 60.4670 58.2723 34.8148 0.0000 0.0000 0.0000
# 3 64.8819 34.8148 56.4770 0.0000 0.0000 0.0000
# 4 0.0000 0.0000 0.0000 8.5322 0.0000 0.0000
# 5 0.0000 0.0000 0.0000 0.0000 7.6097 0.0000
# 6 0.0000 0.0000 0.0000 0.0000 0.0000 21.8718
#
#
#
# Elastic Compliance Matrix: (Units=1/GPa)
#
#
# Indices 1 2 3 4 5 6 
#
# 1 0.017165 -0.009546 -0.013835 0.000000 0.000000 0.000000
# 2 -0.009546 0.032474 -0.009052 0.000000 0.000000 0.000000
# 3 -0.013835 -0.009052 0.039181 0.000000 0.000000 0.000000
# 4 0.000000 0.000000 0.000000 0.117203 0.000000 0.000000
# 5 0.000000 0.000000 0.000000 0.000000 0.131412 0.000000
# 6 0.000000 0.000000 0.000000 0.000000 0.000000 0.045721
#
#
# Mechanical properties :
#
#
# Convention : Reuss Voigt Hill
#
# Bulk Modulus (GPa) = 41.74713 64.36187 53.05450
# Shear Modulus (GPa) = 10.96475 14.18712 12.57594
#
# Velocity S-wave (km/s) = 2.54746 2.89771 2.72821
# Velocity P-wave (km/s) = 5.77590 7.02058 6.42844
#
# Compressibility (1/GPa) = 0.02395374
#
# Stress axis : x y z
#
# Youngs Moduli (GPa) = 58.25829 30.79363 25.52285
#
# Poissons Ratio (x) = 0.29394 0.35311
# Poissons Ratio (y) = 0.55611 0.23104
# Poissons Ratio (z) = 0.80601 0.27875
#
# Static dielectric constant tensor:
#      x y z
#    x 3.540540 0.000000 0.000000 
#    y 0.000000 2.889710 0.000000 
#    z 0.000000 0.000000 2.976620 
# 
# 
# High freq. dielectric constant tensor:
#      x y z
#    x 1.669550 0.000000 0.000000 
#    y 0.000000 1.619950 0.000000 
#    z 0.000000 0.000000 1.627760 
# 
# From -- ./inp_files/4033.got.cif
#   From: 2010.03.12/outbox.cif.g09.slc.cpg/sg47_3_cif.got.tgz:4033.got - 2010.04.14 03:12:58.
