data_PCOD8200332
_publ_section_title
;
Structure prediction by ZEFSAII (Michael W. Deem and Ramdas Pophale) SiO2 
 PCOD8200332
Probable space group: P M M M
;
_chemical_formula_sum "Si O2"
_cell_formula_units_Z 40
_cell_length_a 19.808299
_cell_length_b 8.702197
_cell_length_c 12.854331
_cell_angle_alpha 90.000000
_cell_angle_beta 90.000000
_cell_angle_gamma 90.000000
_cell_volume 2215.774563
_symmetry_space_group_name_H-M "P M M M"
_symmetry_group_IT_number 47
_symmetry_cell_setting 'orthorhombic'
loop_
_space_group_symop_operation_xyz
x,y,z
-x,-y,z
x,-y,-z
-x,y,-z
-x,-y,-z
x,y,-z
-x,y,z
x,-y,z
loop_
_atom_site_type_symbol
_atom_site_label
_atom_site_fract_x
_atom_site_fract_y
_atom_site_fract_z
Si Si1 0.671605 0.320608 0.213728
Si Si2 0.183535 0.815289 0.221918
Si Si3 0.336487 0.169665 0.000000
Si Si4 0.823280 0.167696 0.000000
Si Si5 0.075009 0.817321 0.383844
Si Si6 0.421264 0.823598 0.381155
O O1 0.683703 0.500000 0.201268
O O2 0.741973 0.243186 0.247303
O O3 0.641350 0.257990 0.104760
O O4 0.618904 0.288273 0.305114
O O5 0.131234 0.749273 0.306530
O O6 0.185684 0.000000 0.219189
O O7 0.157495 0.749753 0.108934
O O8 0.256839 0.152116 0.000000
O O9 0.370075 0.000000 0.000000
O O10 0.857643 0.000000 0.000000
O O11 0.091135 0.757595 0.500000
O O12 0.000000 0.762246 0.350028
O O13 0.077829 0.000000 0.381756
O O14 0.400798 0.786542 0.500000
O O15 0.500000 0.792474 0.364611
O O16 0.403500 0.000000 0.354850
#
# Coordination Sequence:
#
# PCOD8200332 Si02
#       6
#     8   8   4   4   8   8
#     4  11  21  32  50  78 108 133 161 203 254 302
#     4   9  16  28  46  66  91 126 164 199 238 290
#     4   9  17  33  54  73  98 133 171 206 242 291
#     4   7  12  23  40  62  86 114 149 188 230 275
#     4   8  14  25  42  65  91 119 157 207 253 285
#     4   9  19  37  58  76  97 131 173 210 246 294
#
# _framework density 18.052378000000001
#
# number of rings (size 3 to 8) (size 9 to 14) (size 15 to 20)
#    0.000    3.000    0.000    4.500    0.000    1.600 
#    0.000    4.000    0.000    6.600    0.000    1.400 
#    0.000    4.800    0.000    0.000    0.000    0.000 
#
# Total GULP energy -495671.414869 kJ/mol
# GULP energy per Si atom -12391.785372 kJ/mol
# Density = 1.801129 g / cm^3
# Si number density = 18.052378 Si / 1000 Ang^3
#
#
#
# Elastic Constant Matrix: (Units=GPa)
#
#
# Indices 1 2 3 4 5 6 
#
# 1 71.0018 19.8936 66.4366 0.0000 0.0000 0.0000
# 2 19.8936 53.4326 30.0244 0.0000 0.0000 0.0000
# 3 66.4366 30.0244 141.5941 0.0000 0.0000 0.0000
# 4 0.0000 0.0000 0.0000 15.8185 0.0000 0.0000
# 5 0.0000 0.0000 0.0000 0.0000 11.2748 0.0000
# 6 0.0000 0.0000 0.0000 0.0000 0.0000 5.9926
#
#
#
# Elastic Compliance Matrix: (Units=1/GPa)
#
#
# Indices 1 2 3 4 5 6 
#
# 1 0.025567 -0.003154 -0.011327 0.000000 0.000000 0.000000
# 2 -0.003154 0.021636 -0.003108 0.000000 0.000000 0.000000
# 3 -0.011327 -0.003108 0.013036 0.000000 0.000000 0.000000
# 4 0.000000 0.000000 0.000000 0.063217 0.000000 0.000000
# 5 0.000000 0.000000 0.000000 0.000000 0.088694 0.000000
# 6 0.000000 0.000000 0.000000 0.000000 0.000000 0.166873
#
#
# Mechanical properties :
#
#
# Convention : Reuss Voigt Hill
#
# Bulk Modulus (GPa) = 39.90325 55.41530 47.65927
# Shear Modulus (GPa) = 11.83278 16.59542 14.21410
#
# Velocity S-wave (km/s) = 2.56299 3.03527 2.80908
# Velocity P-wave (km/s) = 5.55974 6.56105 6.08104
#
# Compressibility (1/GPa) = 0.02506062
#
# Stress axis : x y z
#
# Youngs Moduli (GPa) = 39.11324 46.21972 76.70889
#
# Poissons Ratio (x) = 0.14577 0.86890
# Poissons Ratio (y) = 0.12336 0.23841
# Poissons Ratio (z) = 0.44305 0.14365
#
# Static dielectric constant tensor:
#      x y z
#    x 3.144580 0.000000 0.000000 
#    y 0.000000 2.979440 0.000000 
#    z 0.000000 0.000000 3.824120 
# 
# 
# High freq. dielectric constant tensor:
#      x y z
#    x 1.673190 0.000000 0.000000 
#    y 0.000000 1.662160 0.000000 
#    z 0.000000 0.000000 1.716640 
# 
# From -- ./inp_files/18922.got.cif
#   From: 2010.03.12/outbox.cif.g09.slc.cpg/sg47_10_cif.got.tgz:18922.got - 2010.04.14 03:12:58.
