data_PCOD8200033
_publ_section_title
;
Structure prediction by ZEFSAII (Michael W. Deem and Ramdas Pophale) SiO2 
 PCOD8200033
Probable space group: P M M M
;
_chemical_formula_sum "Si O2"
_cell_formula_units_Z 56
_cell_length_a 20.503332
_cell_length_b 8.921499
_cell_length_c 15.508853
_cell_angle_alpha 90.000000
_cell_angle_beta 90.000000
_cell_angle_gamma 90.000000
_cell_volume 2836.886462
_symmetry_space_group_name_H-M "P M M M"
_symmetry_group_IT_number 47
_symmetry_cell_setting 'orthorhombic'
loop_
_space_group_symop_operation_xyz
x,y,z
-x,-y,z
x,-y,-z
-x,y,-z
-x,-y,-z
x,y,-z
-x,y,z
x,-y,z
loop_
_atom_site_type_symbol
_atom_site_label
_atom_site_fract_x
_atom_site_fract_y
_atom_site_fract_z
Si Si1 0.255248 0.323426 0.637210
Si Si2 0.836858 0.173788 0.096305
Si Si3 0.383553 0.828327 0.592757
Si Si4 0.875730 0.826617 0.404473
Si Si5 0.430493 0.824143 0.776223
Si Si6 0.926061 0.327342 0.238167
Si Si7 0.710496 0.174198 0.189477
O O1 0.247090 0.500000 0.633907
O O2 0.320211 0.275309 0.588168
O O3 0.194601 0.248947 0.590169
O O4 0.256374 0.268982 0.735524
O O5 0.878508 0.263397 0.165502
O O6 0.758371 0.196863 0.108267
O O7 0.854570 0.000000 0.107531
O O8 0.853919 0.229916 0.000000
O O9 0.420385 0.808781 0.500000
O O10 0.427453 0.781800 0.674356
O O11 0.360995 0.000000 0.605216
O O12 0.907995 0.807865 0.500000
O O13 0.919589 0.752002 0.330621
O O14 0.867676 0.000000 0.380278
O O15 0.500000 0.754379 0.810486
O O16 0.364687 0.767211 0.825766
O O17 0.435116 0.000000 0.789273
O O18 0.907799 0.500000 0.251460
O O19 0.000000 0.306300 0.205659
O O20 0.707044 0.000000 0.217390
#
# Coordination Sequence:
#
# PCOD8200033 Si02
#       7
#     8   8   8   8   8   8   8
#     4  11  20  30  49  76 106 141 184 233 286 334
#     4  10  21  38  63  91 116 148 191 236 284 342
#     4   9  17  28  42  63  95 136 183 234 285 334
#     4  11  23  38  58  83 113 152 196 237 278 329
#     4   8  14  25  44  71 101 138 184 230 278 331
#     4  11  25  43  62  87 120 154 187 231 286 338
#     4   9  17  32  54  78 108 143 182 230 281 332
#
# _framework density 19.739951999999999
#
# number of rings (size 3 to 8) (size 9 to 14) (size 15 to 20)
#    0.000    2.143    1.429    3.429    0.000    5.429 
#    0.000    4.286    0.000    7.286    0.000    7.000 
#    0.000    0.000    0.000    6.429    0.000    7.143 
#
# Total GULP energy -693814.392450 kJ/mol
# GULP energy per Si atom -12389.542722 kJ/mol
# Density = 1.969502 g / cm^3
# Si number density = 19.739952 Si / 1000 Ang^3
#
#
#
# Elastic Constant Matrix: (Units=GPa)
#
#
# Indices 1 2 3 4 5 6 
#
# 1 115.6580 39.7457 44.7692 0.0000 0.0000 0.0000
# 2 39.7457 94.7200 41.8688 0.0000 0.0000 0.0000
# 3 44.7692 41.8688 92.0498 0.0000 0.0000 0.0000
# 4 0.0000 0.0000 0.0000 4.7378 0.0000 0.0000
# 5 0.0000 0.0000 0.0000 0.0000 8.9899 0.0000
# 6 0.0000 0.0000 0.0000 0.0000 0.0000 -11.0079
#
#
#
# Elastic Compliance Matrix: (Units=1/GPa)
#
#
# Indices 1 2 3 4 5 6 
#
# 1 0.011246 -0.002880 -0.004159 0.000000 0.000000 0.000000
# 2 -0.002880 0.013952 -0.004945 0.000000 0.000000 0.000000
# 3 -0.004159 -0.004945 0.015136 0.000000 0.000000 0.000000
# 4 0.000000 0.000000 0.000000 0.211070 0.000000 0.000000
# 5 0.000000 0.000000 0.000000 0.000000 0.111236 0.000000
# 6 0.000000 0.000000 0.000000 0.000000 0.000000 -0.090844
#
#
# Mechanical properties :
#
#
# Convention : Reuss Voigt Hill
#
# Bulk Modulus (GPa) = 61.10977 61.68836 61.39906
# Shear Modulus (GPa) = 16.59915 12.28024 14.43969
#
# Velocity S-wave (km/s) = 2.90296 2.49690 2.70755
# Velocity P-wave (km/s) = 6.50083 6.29532 6.39890
#
# Compressibility (1/GPa) = 0.01636400
#
# Stress axis : x y z
#
# Youngs Moduli (GPa) = 88.91984 71.67445 66.06782
#
# Poissons Ratio (x) = 0.20645 0.27481
# Poissons Ratio (y) = 0.25612 0.32671
# Poissons Ratio (z) = 0.36986 0.35444
#
# Static dielectric constant tensor:
#      x y z
#    x 3.874050 0.000000 0.000000 
#    y 0.000000 3.390360 0.000000 
#    z 0.000000 0.000000 3.484080 
# 
# 
# High freq. dielectric constant tensor:
#      x y z
#    x 1.771530 0.000000 0.000000 
#    y 0.000000 1.745960 0.000000 
#    z 0.000000 0.000000 1.750570 
# 
# From -- ./inp_files/7367.got.cif
#   From: 2010.03.12/outbox.cif.g09.slc.cpg/sg47_4_cif.got.tgz:7367.got - 2010.04.14 03:12:58.
