data_PCOD8200530
_publ_section_title
;
Structure prediction by ZEFSAII (Michael W. Deem and Ramdas Pophale) SiO2 
 PCOD8200530
Probable space group: P M M M
;
_chemical_formula_sum "Si O2"
_cell_formula_units_Z 36
_cell_length_a 13.831722
_cell_length_b 16.279773
_cell_length_c 8.855955
_cell_angle_alpha 90.000000
_cell_angle_beta 90.000000
_cell_angle_gamma 90.000000
_cell_volume 1994.159986
_symmetry_space_group_name_H-M "P M M M"
_symmetry_group_IT_number 47
_symmetry_cell_setting 'orthorhombic'
loop_
_space_group_symop_operation_xyz
x,y,z
-x,-y,z
x,-y,-z
-x,y,-z
-x,-y,-z
x,y,-z
-x,y,z
x,-y,z
loop_
_atom_site_type_symbol
_atom_site_label
_atom_site_fract_x
_atom_site_fract_y
_atom_site_fract_z
Si Si1 0.606622 0.252153 0.820473
Si Si2 0.293226 0.909634 0.180227
Si Si3 0.110015 0.500000 0.321720
Si Si4 0.105414 0.176023 0.178457
Si Si5 0.205003 0.343452 0.177372
O O1 0.500000 0.275923 0.758496
O O2 0.633871 0.160689 0.759808
O O3 0.685664 0.319663 0.769630
O O4 0.606961 0.248470 0.000000
O O5 0.185110 0.888067 0.239724
O O6 0.322995 0.000000 0.241748
O O7 0.293543 0.909510 0.000000
O O8 0.106911 0.500000 0.500000
O O9 0.169087 0.421516 0.267500
O O10 0.000000 0.500000 0.256819
O O11 0.135012 0.268588 0.220501
O O12 0.000000 0.156764 0.249962
O O13 0.100222 0.168085 0.000000
O O14 0.202332 0.363047 0.000000
#
# Coordination Sequence:
#
# PCOD8200530 Si02
#       5
#     8   8   4   8   8
#     4   8  14  25  41  61  85 114 150 189 222 253
#     4   8  13  19  28  49  83 119 150 178 214 260
#     4  11  23  35  48  69  94 114 135 173 224 269
#     4   8  13  21  34  53  78 110 148 185 216 251
#     4   9  17  30  48  67  87 116 153 185 214 257
#
# _framework density 18.052714999999999
#
# number of rings (size 3 to 8) (size 9 to 14) (size 15 to 20)
#    0.000    3.444    0.000    3.667    0.000    2.667 
#    0.000    5.000    0.000    4.000    0.000    0.000 
#    0.000   14.222    0.000   56.889    0.000   49.778 
#
# Total GULP energy -445998.572011 kJ/mol
# GULP energy per Si atom -12388.849223 kJ/mol
# Density = 1.801163 g / cm^3
# Si number density = 18.052715 Si / 1000 Ang^3
#
#
#
# Elastic Constant Matrix: (Units=GPa)
#
#
# Indices 1 2 3 4 5 6 
#
# 1 153.7453 55.0341 13.2354 0.0000 0.0000 0.0000
# 2 55.0341 113.3694 19.7751 0.0000 0.0000 0.0000
# 3 13.2354 19.7751 15.9629 0.0000 0.0000 0.0000
# 4 0.0000 0.0000 0.0000 -4.7630 0.0000 0.0000
# 5 0.0000 0.0000 0.0000 0.0000 7.9382 0.0000
# 6 0.0000 0.0000 0.0000 0.0000 0.0000 19.5992
#
#
#
# Elastic Compliance Matrix: (Units=1/GPa)
#
#
# Indices 1 2 3 4 5 6 
#
# 1 0.007938 -0.003451 -0.002306 0.000000 0.000000 0.000000
# 2 -0.003451 0.012753 -0.012937 0.000000 0.000000 0.000000
# 3 -0.002306 -0.012937 0.080584 0.000000 0.000000 0.000000
# 4 0.000000 0.000000 0.000000 -0.209953 0.000000 0.000000
# 5 0.000000 0.000000 0.000000 0.000000 0.125973 0.000000
# 6 0.000000 0.000000 0.000000 0.000000 0.000000 0.051022
#
#
# Mechanical properties :
#
#
# Convention : Reuss Voigt Hill
#
# Bulk Modulus (GPa) = 15.65292 51.01853 33.33572
# Shear Modulus (GPa) = 39.36991 17.55710 28.46350
#
# Velocity S-wave (km/s) = 4.67500 3.12195 3.97506
# Velocity P-wave (km/s) = 6.15064 6.42788 6.29079
#
# Compressibility (1/GPa) = 0.06388585
#
# Stress axis : x y z
#
# Youngs Moduli (GPa) = 125.97316 78.41528 12.40949
#
# Poissons Ratio (x) = 0.27063 0.02862
# Poissons Ratio (y) = 0.43476 0.16054
# Poissons Ratio (z) = 0.29055 1.01443
#
# Static dielectric constant tensor:
#      x y z
#    x 4.038910 0.000000 0.000000 
#    y 0.000000 3.386110 0.000000 
#    z 0.000000 0.000000 2.591410 
# 
# 
# High freq. dielectric constant tensor:
#      x y z
#    x 1.710890 0.000000 0.000000 
#    y 0.000000 1.696430 0.000000 
#    z 0.000000 0.000000 1.618960 
# 
# From -- ./inp_files/5487.got.cif
#   From: 2010.03.12/outbox.cif.g09.slc.cpg/sg47_3_cif.got.tgz:5487.got - 2010.04.14 03:12:58.
