data_PCOD8200648
_publ_section_title
;
Structure prediction by ZEFSAII (Michael W. Deem and Ramdas Pophale) SiO2 
 PCOD8200648
Probable space group: P M M M
;
_chemical_formula_sum "Si O2"
_cell_formula_units_Z 48
_cell_length_a 15.206960
_cell_length_b 19.087527
_cell_length_c 7.916727
_cell_angle_alpha 90.000000
_cell_angle_beta 90.000000
_cell_angle_gamma 90.000000
_cell_volume 2297.934984
_symmetry_space_group_name_H-M "P M M M"
_symmetry_group_IT_number 47
_symmetry_cell_setting 'orthorhombic'
loop_
_space_group_symop_operation_xyz
x,y,z
-x,-y,z
x,-y,-z
-x,y,-z
-x,-y,-z
x,y,-z
-x,y,z
x,-y,z
loop_
_atom_site_type_symbol
_atom_site_label
_atom_site_fract_x
_atom_site_fract_y
_atom_site_fract_z
Si Si1 0.104166 0.830436 0.189557
Si Si2 0.400888 0.672929 0.197451
Si Si3 0.604928 0.079315 0.500000
Si Si4 0.246914 0.577961 0.306843
Si Si5 0.895081 0.920773 0.500000
Si Si6 0.095534 0.676834 0.195032
Si Si7 0.604500 0.169308 0.187433
O O1 0.142230 0.884360 0.329004
O O2 0.129233 0.752737 0.259928
O O3 0.000000 0.837424 0.179111
O O4 0.143384 0.845245 0.000000
O O5 0.500000 0.663255 0.267400
O O6 0.338763 0.618070 0.290082
O O7 0.366322 0.751616 0.233071
O O8 0.398223 0.657159 0.000000
O O9 0.500000 0.081669 0.500000
O O10 0.641658 0.117345 0.331187
O O11 0.640006 0.000000 0.500000
O O12 0.220914 0.572928 0.500000
O O13 0.256236 0.500000 0.228560
O O14 0.167014 0.616998 0.217721
O O15 0.000000 0.917042 0.500000
O O16 0.860353 0.000000 0.500000
O O17 0.000000 0.656702 0.277395
O O18 0.079061 0.688323 0.000000
O O19 0.500000 0.166879 0.182545
O O20 0.640235 0.148209 0.000000
#
# Coordination Sequence:
#
# PCOD8200648 Si02
#       7
#     8   8   4   8   4   8   8
#     4   8  15  28  46  71 102 138 184 230 271 324
#     4   9  19  37  60  82 106 145 193 235 278 328
#     4   9  16  24  40  71 107 144 181 219 274 332
#     4  11  25  39  53  83 119 146 179 226 284 346
#     4   9  16  24  40  71 107 144 181 219 274 332
#     4   9  19  37  60  82 106 145 193 235 278 328
#     4   8  15  28  46  71 102 138 184 230 271 324
#
# _framework density 20.88832
#
# number of rings (size 3 to 8) (size 9 to 14) (size 15 to 20)
#    0.000    3.000    0.000    2.500    2.333    3.333 
#    0.000    6.667    0.000    0.000    0.000    2.333 
#    0.000    5.333    0.000    0.667    0.000    0.000 
#
# Total GULP energy -594829.946432 kJ/mol
# GULP energy per Si atom -12392.290551 kJ/mol
# Density = 2.084078 g / cm^3
# Si number density = 20.888320 Si / 1000 Ang^3
#
#
#
# Elastic Constant Matrix: (Units=GPa)
#
#
# Indices 1 2 3 4 5 6 
#
# 1 63.1502 41.5609 16.5741 0.0000 0.0000 0.0000
# 2 41.5609 173.2267 71.2851 0.0000 0.0000 0.0000
# 3 16.5741 71.2851 102.5007 0.0000 0.0000 0.0000
# 4 0.0000 0.0000 0.0000 29.2454 0.0000 0.0000
# 5 0.0000 0.0000 0.0000 0.0000 11.2531 0.0000
# 6 0.0000 0.0000 0.0000 0.0000 0.0000 -123.0929
#
#
#
# Elastic Compliance Matrix: (Units=1/GPa)
#
#
# Indices 1 2 3 4 5 6 
#
# 1 0.018806 -0.004568 0.000136 0.000000 0.000000 0.000000
# 2 -0.004568 0.009197 -0.005657 0.000000 0.000000 0.000000
# 3 0.000136 -0.005657 0.013669 0.000000 0.000000 0.000000
# 4 0.000000 0.000000 0.000000 0.034193 0.000000 0.000000
# 5 0.000000 0.000000 0.000000 0.000000 0.088865 0.000000
# 6 0.000000 0.000000 0.000000 0.000000 0.000000 -0.008124
#
#
# Mechanical properties :
#
#
# Convention : Reuss Voigt Hill
#
# Bulk Modulus (GPa) = 46.52791 66.41311 56.47051
# Shear Modulus (GPa) = 27.18156 -2.55505 12.31326
#
# Velocity S-wave (km/s) = 3.61124 -1.10718 2.43056
# Velocity P-wave (km/s) = 6.30167 5.49808 5.91354
#
# Compressibility (1/GPa) = 0.02149248
#
# Stress axis : x y z
#
# Youngs Moduli (GPa) = 53.17502 108.73340 73.16062
#
# Poissons Ratio (x) = 0.49668 -0.00994
# Poissons Ratio (y) = 0.24290 0.41390
# Poissons Ratio (z) = -0.00723 0.61515
#
# Static dielectric constant tensor:
#      x y z
#    x 3.389470 0.000000 0.000000 
#    y 0.000000 4.019750 0.000000 
#    z 0.000000 0.000000 4.190570 
# 
# 
# High freq. dielectric constant tensor:
#      x y z
#    x 1.789410 0.000000 0.000000 
#    y 0.000000 1.810480 0.000000 
#    z 0.000000 0.000000 1.816780 
# 
# From -- ./inp_files/6407.got.cif
#   From: 2010.03.12/outbox.cif.g09.slc.cpg/sg47_4_cif.got.tgz:6407.got - 2010.04.14 03:12:58.
