data_PCOD8200199
_publ_section_title
;
Structure prediction by ZEFSAII (Michael W. Deem and Ramdas Pophale) SiO2 
 PCOD8200199
Probable space group: P M M M
;
_chemical_formula_sum "Si O2"
_cell_formula_units_Z 36
_cell_length_a 12.559715
_cell_length_b 11.574761
_cell_length_c 16.713671
_cell_angle_alpha 90.000000
_cell_angle_beta 90.000000
_cell_angle_gamma 90.000000
_cell_volume 2429.761610
_symmetry_space_group_name_H-M "P M M M"
_symmetry_group_IT_number 47
_symmetry_cell_setting 'orthorhombic'
loop_
_space_group_symop_operation_xyz
x,y,z
-x,-y,z
x,-y,-z
-x,y,-z
-x,-y,-z
x,y,-z
-x,y,z
x,-y,z
loop_
_atom_site_type_symbol
_atom_site_label
_atom_site_fract_x
_atom_site_fract_y
_atom_site_fract_z
Si Si1 0.620002 0.500000 0.906016
Si Si2 0.500000 0.136726 0.908497
Si Si3 0.375407 0.636111 0.327024
Si Si4 0.122544 0.867116 0.091856
Si Si5 0.373915 0.627101 0.500000
Si Si6 0.693777 0.732292 0.832924
O O1 0.500000 0.500000 0.869169
O O2 0.683500 0.611064 0.877464
O O3 0.613187 0.500000 0.000000
O O4 0.396038 0.180426 0.863192
O O5 0.500000 0.000000 0.906898
O O6 0.500000 0.183061 0.000000
O O7 0.500000 0.655272 0.312103
O O8 0.348237 0.500000 0.319066
O O9 0.340473 0.685725 0.415359
O O10 0.312330 0.711568 0.262216
O O11 0.191389 0.785828 0.149075
O O12 0.000000 0.832581 0.103811
O O13 0.141136 0.000000 0.115718
O O14 0.157307 0.847815 0.000000
O O15 0.322899 0.500000 0.500000
O O16 0.500000 0.614260 0.500000
#
# Coordination Sequence:
#
# PCOD8200199 Si02
#       6
#     4   4   8   8   4   8
#     4  11  20  28  39  62  98 134 150 163 219 289
#     4  11  22  31  41  62  91 121 156 195 226 258
#     4   9  15  26  41  66  95 124 151 179 216 271
#     4   9  19  36  53  65  82 116 163 208 239 260
#     4   7  12  22  40  60  89 122 153 181 210 254
#     4  12  19  29  46  68  93 121 153 187 228 275
#
# _framework density 14.816269
#
# number of rings (size 3 to 8) (size 9 to 14) (size 15 to 20)
#    0.000    2.111    3.333    4.667    0.000    1.778 
#    0.000    0.556    0.000    2.000    0.000    4.667 
#    0.000    4.444    0.000    0.000    0.000    0.000 
#
# Total GULP energy -446201.003155 kJ/mol
# GULP energy per Si atom -12394.472310 kJ/mol
# Density = 1.478255 g / cm^3
# Si number density = 14.816269 Si / 1000 Ang^3
#
#
#
# Elastic Constant Matrix: (Units=GPa)
#
#
# Indices 1 2 3 4 5 6 
#
# 1 66.7095 36.5090 42.6833 0.0000 0.0000 0.0000
# 2 36.5090 64.4926 42.1697 0.0000 0.0000 0.0000
# 3 42.6833 42.1697 136.2538 0.0000 0.0000 0.0000
# 4 0.0000 0.0000 0.0000 -13.0196 0.0000 0.0000
# 5 0.0000 0.0000 0.0000 0.0000 16.6191 0.0000
# 6 0.0000 0.0000 0.0000 0.0000 0.0000 25.1148
#
#
#
# Elastic Compliance Matrix: (Units=1/GPa)
#
#
# Indices 1 2 3 4 5 6 
#
# 1 0.023372 -0.010586 -0.004045 0.000000 0.000000 0.000000
# 2 -0.010586 0.024234 -0.004184 0.000000 0.000000 0.000000
# 3 -0.004045 -0.004184 0.009901 0.000000 0.000000 0.000000
# 4 0.000000 0.000000 0.000000 -0.076807 0.000000 0.000000
# 5 0.000000 0.000000 0.000000 0.000000 0.060172 0.000000
# 6 0.000000 0.000000 0.000000 0.000000 0.000000 0.039817
#
#
# Mechanical properties :
#
#
# Convention : Reuss Voigt Hill
#
# Bulk Modulus (GPa) = 50.30912 56.68666 53.49789
# Shear Modulus (GPa) = 40.01730 15.48245 27.74987
#
# Velocity S-wave (km/s) = 5.20266 3.23610 4.33243
# Velocity P-wave (km/s) = 8.37372 7.23228 7.82385
#
# Compressibility (1/GPa) = 0.01987711
#
# Stress axis : x y z
#
# Youngs Moduli (GPa) = 42.78591 41.26419 100.99481
#
# Poissons Ratio (x) = 0.43681 0.40857
# Poissons Ratio (y) = 0.45292 0.42258
# Poissons Ratio (z) = 0.17309 0.17266
#
# Static dielectric constant tensor:
#      x y z
#    x 2.597380 0.000000 0.000000 
#    y 0.000000 2.445000 0.000000 
#    z 0.000000 0.000000 3.151110 
# 
# 
# High freq. dielectric constant tensor:
#      x y z
#    x 1.532200 0.000000 0.000000 
#    y 0.000000 1.552090 0.000000 
#    z 0.000000 0.000000 1.570550 
# 
# From -- ./inp_files/18331.got.cif
#   From: 2010.03.12/outbox.cif.g09.slc.cpg/sg47_10_cif.got.tgz:18331.got - 2010.04.14 03:12:58.
