data_PCOD8200785
_publ_section_title
;
Structure prediction by ZEFSAII (Michael W. Deem and Ramdas Pophale) SiO2 
 PCOD8200785
Probable space group: P M M M
;
_chemical_formula_sum "Si O2"
_cell_formula_units_Z 52
_cell_length_a 8.990941
_cell_length_b 33.365554
_cell_length_c 10.086749
_cell_angle_alpha 90.000000
_cell_angle_beta 90.000000
_cell_angle_gamma 90.000000
_cell_volume 3025.900910
_symmetry_space_group_name_H-M "P M M M"
_symmetry_group_IT_number 47
_symmetry_cell_setting 'orthorhombic'
loop_
_space_group_symop_operation_xyz
x,y,z
-x,-y,z
x,-y,-z
-x,y,-z
-x,-y,-z
x,y,-z
-x,y,z
x,-y,z
loop_
_atom_site_type_symbol
_atom_site_label
_atom_site_fract_x
_atom_site_fract_y
_atom_site_fract_z
Si Si1 0.332973 0.000000 0.342666
Si Si2 0.177040 0.609335 0.351688
Si Si3 0.822973 0.301301 0.351688
Si Si4 0.177027 0.455307 0.148292
Si Si5 0.175840 0.919800 0.652176
Si Si6 0.823258 0.147348 0.148369
Si Si7 0.177011 0.763283 0.851748
O O1 0.248446 0.039519 0.292208
O O2 0.500000 0.000000 0.285804
O O3 0.332349 0.000000 0.500000
O O4 0.232686 0.598970 0.500000
O O5 0.230679 0.654020 0.311355
O O6 0.246347 0.577010 0.250001
O O7 0.000000 0.607629 0.347555
O O8 0.767515 0.290922 0.500000
O O9 0.753516 0.268893 0.250375
O O10 0.000000 0.299667 0.347203
O O11 0.230392 0.500000 0.188745
O O12 0.000000 0.453543 0.152296
O O13 0.232841 0.444978 0.000000
O O14 0.221866 0.911037 0.500000
O O15 0.238928 0.883789 0.743130
O O16 0.000000 0.924582 0.665079
O O17 0.766513 0.192027 0.185348
O O18 0.000000 0.146862 0.151430
O O19 0.768265 0.135723 0.000000
O O20 0.000000 0.762234 0.844735
O O21 0.230011 0.752020 0.000000
#
# Coordination Sequence:
#
# PCOD8200785 Si02
#       7
#     4   8   8   8   8   8   8
#     4   9  17  29  44  61  82 106 128 153 188 224
#     4   8  13  19  24  30  40  54  73  97 128 169
#     4   8  13  19  25  34  49  67  86 110 140 175
#     4   8  13  19  24  29  36  46  64  94 131 169
#     4   9  16  26  42  62  79  97 126 159 184 211
#     4   8  14  24  36  51  72  94 114 139 172 207
#     4   8  13  20  29  41  57  77  99 120 145 182
#
# _framework density 17.184964999999998
#
# number of rings (size 3 to 8) (size 9 to 14) (size 15 to 20)
#    0.000    3.769    0.000    2.538    0.000    2.462 
#    0.000    8.077    0.000    2.769    0.000    0.000 
#    0.000    0.000    0.000    0.000    0.000    0.000 
#
# Total GULP energy -644315.963649 kJ/mol
# GULP energy per Si atom -12390.691609 kJ/mol
# Density = 1.714585 g / cm^3
# Si number density = 17.184965 Si / 1000 Ang^3
#
#
#
# Elastic Constant Matrix: (Units=GPa)
#
#
# Indices 1 2 3 4 5 6 
#
# 1 8.2721 12.2257 9.7568 0.0000 0.0000 0.0000
# 2 12.2257 176.9945 117.3447 0.0000 0.0000 0.0000
# 3 9.7568 117.3447 126.8969 0.0000 0.0000 0.0000
# 4 0.0000 0.0000 0.0000 37.2263 0.0000 0.0000
# 5 0.0000 0.0000 0.0000 0.0000 2.3726 0.0000
# 6 0.0000 0.0000 0.0000 0.0000 0.0000 -0.1509
#
#
#
# Elastic Compliance Matrix: (Units=1/GPa)
#
#
# Indices 1 2 3 4 5 6 
#
# 1 0.135648 -0.006345 -0.004562 0.000000 0.000000 0.000000
# 2 -0.006345 0.014899 -0.013290 0.000000 0.000000 0.000000
# 3 -0.004562 -0.013290 0.020520 0.000000 0.000000 0.000000
# 4 0.000000 0.000000 0.000000 0.026863 0.000000 0.000000
# 5 0.000000 0.000000 0.000000 0.000000 0.421473 0.000000
# 6 0.000000 0.000000 0.000000 0.000000 0.000000 -6.625592
#
#
# Mechanical properties :
#
#
# Convention : Reuss Voigt Hill
#
# Bulk Modulus (GPa) = 8.15172 65.64643 36.89907
# Shear Modulus (GPa) = -0.84504 19.41202 9.28349
#
# Velocity S-wave (km/s) = -0.70200 3.36459 2.32676
# Velocity P-wave (km/s) = 2.02404 7.30594 5.36067
#
# Compressibility (1/GPa) = 0.12267344
#
# Stress axis : x y z
#
# Youngs Moduli (GPa) = 7.37203 67.11876 48.73201
#
# Poissons Ratio (x) = 0.42588 0.22232
# Poissons Ratio (y) = 0.04678 0.64763
# Poissons Ratio (z) = 0.03363 0.89198
#
# Static dielectric constant tensor:
#      x y z
#    x 2.411730 0.000000 0.000000 
#    y 0.000000 3.626260 0.000000 
#    z 0.000000 0.000000 3.454600 
# 
# 
# High freq. dielectric constant tensor:
#      x y z
#    x 1.575870 0.000000 0.000000 
#    y 0.000000 1.675540 0.000000 
#    z 0.000000 0.000000 1.660100 
# 
# From -- ./inp_files/15455.got.cif
#   From: 2010.03.12/outbox.cif.g09.slc.cpg/sg47_8_cif.got.tgz:15455.got - 2010.04.14 03:12:58.
