data_PCOD8200841
_publ_section_title
;
Structure prediction by ZEFSAII (Michael W. Deem and Ramdas Pophale) SiO2 
 PCOD8200841
Probable space group: P M M M
;
_chemical_formula_sum "Si O2"
_cell_formula_units_Z 44
_cell_length_a 7.862118
_cell_length_b 29.106550
_cell_length_c 12.910203
_cell_angle_alpha 90.000000
_cell_angle_beta 90.000000
_cell_angle_gamma 90.000000
_cell_volume 2954.359631
_symmetry_space_group_name_H-M "P M M M"
_symmetry_group_IT_number 47
_symmetry_cell_setting 'orthorhombic'
loop_
_space_group_symop_operation_xyz
x,y,z
-x,-y,z
x,-y,-z
-x,y,-z
-x,-y,-z
x,y,-z
-x,y,z
x,-y,z
loop_
_atom_site_type_symbol
_atom_site_label
_atom_site_fract_x
_atom_site_fract_y
_atom_site_fract_z
Si Si1 0.189487 0.775539 0.877019
Si Si2 0.692128 0.945707 0.500000
Si Si3 0.188817 0.448352 0.876877
Si Si4 0.500000 0.715268 0.123695
Si Si5 0.500000 0.388597 0.123721
Si Si6 0.802903 0.051114 0.719842
Si Si7 0.201929 0.121917 0.884952
O O1 0.329606 0.740034 0.833138
O O2 0.249337 0.826911 0.846132
O O3 0.000000 0.764235 0.832159
O O4 0.180026 0.772463 0.000000
O O5 0.500000 0.928787 0.500000
O O6 0.778723 0.927183 0.394865
O O7 0.712252 0.000000 0.500000
O O8 0.227022 0.500000 0.837222
O O9 0.331729 0.414007 0.832277
O O10 0.000000 0.432679 0.839812
O O11 0.195558 0.447893 0.000000
O O12 0.500000 0.663318 0.165613
O O13 0.500000 0.716829 0.000000
O O14 0.500000 0.389366 0.000000
O O15 0.718615 0.084893 0.804936
O O16 0.000000 0.046920 0.743917
O O17 0.719032 0.000000 0.727886
O O18 0.000000 0.117905 0.889045
O O19 0.276964 0.112483 0.000000
#
# Coordination Sequence:
#
# PCOD8200841 Si02
#       7
#     8   4   8   4   4   8   8
#     4   8  14  25  37  47  64  88 111 138 172 212
#     4   9  17  29  41  53  75 101 121 143 173 211
#     4   8  13  20  28  37  51  73  98 124 161 208
#     4   9  16  23  32  47  61  79 109 138 171 213
#     4   9  15  20  27  40  56  71  95 133 167 200
#     4   9  16  26  42  61  77  95 120 147 176 215
#     4   8  14  25  40  57  76  96 117 144 181 222
#
# _framework density 14.893243999999999
#
# number of rings (size 3 to 8) (size 9 to 14) (size 15 to 20)
#    0.000    3.545    0.000    2.182    0.000    3.273 
#    1.636    5.455    0.000    0.000    0.000    2.545 
#    0.000    0.000    0.000    0.000    0.000    0.000 
#
# Total GULP energy -545131.295407 kJ/mol
# GULP energy per Si atom -12389.347623 kJ/mol
# Density = 1.485935 g / cm^3
# Si number density = 14.893244 Si / 1000 Ang^3
#
#
#
# Elastic Constant Matrix: (Units=GPa)
#
#
# Indices 1 2 3 4 5 6 
#
# 1 80.8407 56.8008 18.1905 0.0000 0.0000 0.0000
# 2 56.8008 112.8653 37.9218 0.0000 0.0000 0.0000
# 3 18.1905 37.9218 41.0969 0.0000 0.0000 0.0000
# 4 0.0000 0.0000 0.0000 1.1889 0.0000 0.0000
# 5 0.0000 0.0000 0.0000 0.0000 2.8672 0.0000
# 6 0.0000 0.0000 0.0000 0.0000 0.0000 16.6101
#
#
#
# Elastic Compliance Matrix: (Units=1/GPa)
#
#
# Indices 1 2 3 4 5 6 
#
# 1 0.019147 -0.009839 0.000604 0.000000 0.000000 0.000000
# 2 -0.009839 0.017897 -0.012159 0.000000 0.000000 0.000000
# 3 0.000604 -0.012159 0.035286 0.000000 0.000000 0.000000
# 4 0.000000 0.000000 0.000000 0.841096 0.000000 0.000000
# 5 0.000000 0.000000 0.000000 0.000000 0.348778 0.000000
# 6 0.000000 0.000000 0.000000 0.000000 0.000000 0.060204
#
#
# Mechanical properties :
#
#
# Convention : Reuss Voigt Hill
#
# Bulk Modulus (GPa) = 33.85172 51.18100 42.51636
# Shear Modulus (GPa) = 3.63624 12.25922 7.94773
#
# Velocity S-wave (km/s) = 1.56424 2.87215 2.31259
# Velocity P-wave (km/s) = 5.10308 6.74084 5.97830
#
# Compressibility (1/GPa) = 0.02954060
#
# Stress axis : x y z
#
# Youngs Moduli (GPa) = 52.22683 55.87481 28.34023
#
# Poissons Ratio (x) = 0.54975 -0.01711
# Poissons Ratio (y) = 0.51386 0.34460
# Poissons Ratio (z) = -0.03153 0.67941
#
# Static dielectric constant tensor:
#      x y z
#    x 3.031040 0.000000 0.000000 
#    y 0.000000 3.035940 0.000000 
#    z 0.000000 0.000000 2.496500 
# 
# 
# High freq. dielectric constant tensor:
#      x y z
#    x 1.574500 0.000000 0.000000 
#    y 0.000000 1.558500 0.000000 
#    z 0.000000 0.000000 1.492580 
# 
# From -- ./inp_files/2339.got.cif
#   From: 2010.03.12/outbox.cif.g09.slc.cpg/sg47_2_cif.got.tgz:2339.got - 2010.04.14 03:12:58.
