data_PCOD8200971
_publ_section_title
;
Structure prediction by ZEFSAII (Michael W. Deem and Ramdas Pophale) SiO2 
 PCOD8200971
Probable space group: P M M M
;
_chemical_formula_sum "Si O2"
_cell_formula_units_Z 56
_cell_length_a 21.824523
_cell_length_b 18.176758
_cell_length_c 9.851238
_cell_angle_alpha 90.000000
_cell_angle_beta 90.000000
_cell_angle_gamma 90.000000
_cell_volume 3907.976983
_symmetry_space_group_name_H-M "P M M M"
_symmetry_group_IT_number 47
_symmetry_cell_setting 'orthorhombic'
loop_
_space_group_symop_operation_xyz
x,y,z
-x,-y,z
x,-y,-z
-x,y,-z
-x,-y,-z
x,y,-z
-x,y,z
x,-y,z
loop_
_atom_site_type_symbol
_atom_site_label
_atom_site_fract_x
_atom_site_fract_y
_atom_site_fract_z
Si Si1 0.261493 0.287582 0.848600
Si Si2 0.819727 0.417920 0.161706
Si Si3 0.321651 0.819615 0.342938
Si Si4 0.201970 0.915792 0.345107
Si Si5 0.141535 0.188486 0.849251
Si Si6 0.568347 0.082040 0.338957
Si Si7 0.067865 0.325009 0.161596
O O1 0.238385 0.367514 0.795252
O O2 0.311197 0.254465 0.744391
O O3 0.203097 0.235440 0.854782
O O4 0.290417 0.293645 0.000000
O O5 0.810733 0.500000 0.220761
O O6 0.883600 0.384485 0.219943
O O7 0.823523 0.418744 0.000000
O O8 0.328572 0.796454 0.500000
O O9 0.266841 0.876913 0.322776
O O10 0.382579 0.859058 0.284223
O O11 0.180302 0.908420 0.500000
O O12 0.149076 0.879513 0.253130
O O13 0.210069 0.000000 0.301327
O O14 0.087558 0.242170 0.796277
O O15 0.126781 0.157853 0.000000
O O16 0.573694 0.078814 0.500000
O O17 0.500000 0.106827 0.294576
O O18 0.582208 0.000000 0.281565
O O19 0.000000 0.341668 0.220187
O O20 0.067954 0.329779 0.000000
#
# Coordination Sequence:
#
# PCOD8200971 Si02
#       7
#     8   8   8   8   8   8   8
#     4   8  14  24  36  51  73  98 120 144 176 211
#     4   8  13  21  34  53  76  99 120 142 172 213
#     4   9  15  23  37  55  73  94 122 151 176 208
#     4   9  16  24  35  52  71  89 113 149 186 212
#     4   8  14  24  36  50  69  92 116 142 175 215
#     4   8  13  21  34  53  76 100 125 153 183 212
#     4   8  13  21  34  52  72  93 117 145 175 207
#
# _framework density 14.329666
#
# number of rings (size 3 to 8) (size 9 to 14) (size 15 to 20)
#    0.000    3.714    0.000    2.571    0.000    2.286 
#    0.000    1.429    0.000    3.000    0.000    4.000 
#    0.000    0.571    0.000   18.286    0.000   11.429 
#
# Total GULP energy -693881.646311 kJ/mol
# GULP energy per Si atom -12390.743684 kJ/mol
# Density = 1.429705 g / cm^3
# Si number density = 14.329666 Si / 1000 Ang^3
#
#
#
# Elastic Constant Matrix: (Units=GPa)
#
#
# Indices 1 2 3 4 5 6 
#
# 1 74.1868 55.1712 25.1412 0.0000 0.0000 0.0000
# 2 55.1712 104.9601 39.2586 0.0000 0.0000 0.0000
# 3 25.1412 39.2586 36.5081 0.0000 0.0000 0.0000
# 4 0.0000 0.0000 0.0000 13.6002 0.0000 0.0000
# 5 0.0000 0.0000 0.0000 0.0000 12.2668 0.0000
# 6 0.0000 0.0000 0.0000 0.0000 0.0000 20.0889
#
#
#
# Elastic Compliance Matrix: (Units=1/GPa)
#
#
# Indices 1 2 3 4 5 6 
#
# 1 0.022596 -0.010132 -0.004665 0.000000 0.000000 0.000000
# 2 -0.010132 0.020481 -0.015047 0.000000 0.000000 0.000000
# 3 -0.004665 -0.015047 0.046784 0.000000 0.000000 0.000000
# 4 0.000000 0.000000 0.000000 0.073528 0.000000 0.000000
# 5 0.000000 0.000000 0.000000 0.000000 0.081521 0.000000
# 6 0.000000 0.000000 0.000000 0.000000 0.000000 0.049779
#
#
# Mechanical properties :
#
#
# Convention : Reuss Voigt Hill
#
# Bulk Modulus (GPa) = 33.14196 50.53301 41.83749
# Shear Modulus (GPa) = 13.71990 15.59679 14.65835
#
# Velocity S-wave (km/s) = 3.09762 3.30271 3.20181
# Velocity P-wave (km/s) = 5.99768 7.06293 6.55199
#
# Compressibility (1/GPa) = 0.03017323
#
# Stress axis : x y z
#
# Youngs Moduli (GPa) = 44.25653 48.82458 21.37480
#
# Poissons Ratio (x) = 0.49471 0.09970
# Poissons Ratio (y) = 0.44842 0.32163
# Poissons Ratio (z) = 0.20644 0.73466
#
# Static dielectric constant tensor:
#      x y z
#    x 2.831790 0.000000 0.000000 
#    y 0.000000 2.986130 0.000000 
#    z 0.000000 0.000000 2.617470 
# 
# 
# High freq. dielectric constant tensor:
#      x y z
#    x 1.523340 0.000000 0.000000 
#    y 0.000000 1.537130 0.000000 
#    z 0.000000 0.000000 1.508320 
# 
# From -- ./inp_files/11733.got.cif
#   From: 2010.03.12/outbox.cif.g09.slc.cpg/sg47_6_cif.got.tgz:11733.got - 2010.04.14 03:12:58.
