data_PCOD8200450
_publ_section_title
;
Structure prediction by ZEFSAII (Michael W. Deem and Ramdas Pophale) SiO2 
 PCOD8200450
Probable space group: P M M M
;
_chemical_formula_sum "Si O2"
_cell_formula_units_Z 44
_cell_length_a 13.648242
_cell_length_b 8.920475
_cell_length_c 21.060026
_cell_angle_alpha 90.000000
_cell_angle_beta 90.000000
_cell_angle_gamma 90.000000
_cell_volume 2564.032926
_symmetry_space_group_name_H-M "P M M M"
_symmetry_group_IT_number 47
_symmetry_cell_setting 'orthorhombic'
loop_
_space_group_symop_operation_xyz
x,y,z
-x,-y,z
x,-y,-z
-x,y,-z
-x,-y,-z
x,y,-z
-x,y,z
x,-y,z
loop_
_atom_site_type_symbol
_atom_site_label
_atom_site_fract_x
_atom_site_fract_y
_atom_site_fract_z
Si Si1 0.794028 0.671144 0.315008
Si Si2 0.386113 0.322384 0.000000
Si Si3 0.112088 0.676297 0.184185
Si Si4 0.709486 0.823019 0.877766
Si Si5 0.109588 0.822997 0.570503
Si Si6 0.389747 0.671288 0.237148
O O1 0.817719 0.500000 0.330780
O O2 0.861062 0.725215 0.255986
O O3 0.814524 0.764408 0.377865
O O4 0.680136 0.696733 0.297623
O O5 0.332967 0.255479 0.939319
O O6 0.374296 0.500000 0.000000
O O7 0.500000 0.275210 0.000000
O O8 0.132074 0.500000 0.175920
O O9 0.180065 0.764943 0.134664
O O10 0.000000 0.718938 0.169951
O O11 0.639199 0.782046 0.819295
O O12 0.711265 0.000000 0.887761
O O13 0.140771 0.767736 0.500000
O O14 0.000000 0.764069 0.586005
O O15 0.110759 0.000000 0.572659
O O16 0.500000 0.705785 0.259173
O O17 0.378138 0.500000 0.212418
#
# Coordination Sequence:
#
# PCOD8200450 Si02
#       6
#     8   4   8   8   8   8
#     4   9  17  29  48  74  97 120 158 204 243 279
#     4  11  23  39  58  75  96 131 169 202 242 293
#     4   9  18  34  54  74 100 134 168 200 237 287
#     4  11  22  34  51  78 107 129 157 202 248 289
#     4   9  18  31  45  64  94 130 162 192 234 290
#     4   9  18  34  53  71  96 130 164 198 240 291
#
# _framework density 17.160464999999999
#
# number of rings (size 3 to 8) (size 9 to 14) (size 15 to 20)
#    0.000    2.455    0.000    4.636    0.000    8.000 
#    0.000    1.364    0.000    3.273    0.000    3.818 
#    0.000    0.000    0.000    0.000    0.000    0.000 
#
# Total GULP energy -545573.157804 kJ/mol
# GULP energy per Si atom -12399.389950 kJ/mol
# Density = 1.712141 g / cm^3
# Si number density = 17.160465 Si / 1000 Ang^3
#
#
#
# Elastic Constant Matrix: (Units=GPa)
#
#
# Indices 1 2 3 4 5 6 
#
# 1 143.3051 45.0191 66.7223 0.0000 0.0000 0.0000
# 2 45.0191 66.6843 46.6497 0.0000 0.0000 0.0000
# 3 66.7223 46.6497 116.8581 0.0000 0.0000 0.0000
# 4 0.0000 0.0000 0.0000 36.6840 0.0000 0.0000
# 5 0.0000 0.0000 0.0000 0.0000 20.7979 0.0000
# 6 0.0000 0.0000 0.0000 0.0000 0.0000 18.6755
#
#
#
# Elastic Compliance Matrix: (Units=1/GPa)
#
#
# Indices 1 2 3 4 5 6 
#
# 1 0.010186 -0.003896 -0.004260 0.000000 0.000000 0.000000
# 2 -0.003896 0.022297 -0.006676 0.000000 0.000000 0.000000
# 3 -0.004260 -0.006676 0.013655 0.000000 0.000000 0.000000
# 4 0.000000 0.000000 0.000000 0.027260 0.000000 0.000000
# 5 0.000000 0.000000 0.000000 0.000000 0.048082 0.000000
# 6 0.000000 0.000000 0.000000 0.000000 0.000000 0.053546
#
#
# Mechanical properties :
#
#
# Convention : Reuss Voigt Hill
#
# Bulk Modulus (GPa) = 60.70897 71.51442 66.11170
# Shear Modulus (GPa) = 23.78895 26.46190 25.12543
#
# Velocity S-wave (km/s) = 3.72730 3.93113 3.83057
# Velocity P-wave (km/s) = 7.34695 7.89743 7.62716
#
# Compressibility (1/GPa) = 0.01647203
#
# Stress axis : x y z
#
# Youngs Moduli (GPa) = 98.17706 44.84949 73.23245
#
# Poissons Ratio (x) = 0.17473 0.31200
# Poissons Ratio (y) = 0.38250 0.48893
# Poissons Ratio (z) = 0.41827 0.29943
#
# Static dielectric constant tensor:
#      x y z
#    x 3.353080 0.000000 0.000000 
#    y 0.000000 3.113960 0.000000 
#    z 0.000000 0.000000 3.196980 
# 
# 
# High freq. dielectric constant tensor:
#      x y z
#    x 1.664050 0.000000 0.000000 
#    y 0.000000 1.657610 0.000000 
#    z 0.000000 0.000000 1.649730 
# 
# From -- ./inp_files/26369.got.cif
#   From: 2010.03.12/outbox.cif.g09.slc.cpg/sg47_14_cif.got.tgz:26369.got - 2010.04.14 03:12:58.
