data_PCOD8200302
_publ_section_title
;
Structure prediction by ZEFSAII (Michael W. Deem and Ramdas Pophale) SiO2 
 PCOD8200302
Probable space group: P M M M
;
_chemical_formula_sum "Si O2"
_cell_formula_units_Z 52
_cell_length_a 24.581949
_cell_length_b 9.454916
_cell_length_c 18.006121
_cell_angle_alpha 90.000000
_cell_angle_beta 90.000000
_cell_angle_gamma 90.000000
_cell_volume 4184.987377
_symmetry_space_group_name_H-M "P M M M"
_symmetry_group_IT_number 47
_symmetry_cell_setting 'orthorhombic'
loop_
_space_group_symop_operation_xyz
x,y,z
-x,-y,z
x,-y,-z
-x,y,-z
-x,-y,-z
x,y,-z
-x,y,z
x,-y,z
loop_
_atom_site_type_symbol
_atom_site_label
_atom_site_fract_x
_atom_site_fract_y
_atom_site_fract_z
Si Si1 0.343520 0.156218 0.911873
Si Si2 0.935350 0.159470 0.581448
Si Si3 0.878346 0.332707 0.870162
Si Si4 0.064431 0.164110 0.000000
Si Si5 0.559622 0.658165 0.911749
Si Si6 0.938009 0.663100 0.282083
Si Si7 0.778010 0.836341 0.087248
O O1 0.391142 0.251873 0.876365
O O2 0.283257 0.211855 0.891518
O O3 0.351584 0.000000 0.878870
O O4 0.348981 0.151149 0.000000
O O5 0.914524 0.211070 0.500000
O O6 0.911879 0.255637 0.647609
O O7 0.000000 0.167876 0.582353
O O8 0.915510 0.000000 0.595603
O O9 0.878356 0.500000 0.889619
O O10 0.902631 0.302576 0.789671
O O11 0.817470 0.270328 0.869428
O O12 0.914324 0.245596 0.928070
O O13 0.000000 0.170521 0.000000
O O14 0.084660 0.000000 0.000000
O O15 0.500000 0.719705 0.889161
O O16 0.565386 0.500000 0.880624
O O17 0.564697 0.657092 0.000000
O O18 0.935903 0.500000 0.303062
O O19 0.000000 0.711323 0.266037
O O20 0.787623 0.000000 0.110109
O O21 0.789170 0.818463 0.000000
#
# Coordination Sequence:
#
# PCOD8200302 Si02
#       7
#     8   8   8   4   8   8   8
#     4   8  14  23  34  47  61  80 104 133 167 201
#     4   8  14  25  41  60  78  93 110 131 155 191
#     4  11  21  31  43  57  71  89 115 147 180 213
#     4  11  23  35  45  55  67  87 114 143 180 223
#     4   8  13  20  29  43  63  83 101 125 159 199
#     4   9  18  30  41  55  75  94 111 135 169 209
#     4   9  17  29  41  51  66  86 112 146 180 214
#
# _framework density 12.425366
#
# number of rings (size 3 to 8) (size 9 to 14) (size 15 to 20)
#    0.000    3.000    0.769    3.000    0.000    3.692 
#    0.000    6.154    0.000    0.000    0.000    0.000 
#    0.000    0.000    0.000    0.000    0.000    0.000 
#
# Total GULP energy -644394.874588 kJ/mol
# GULP energy per Si atom -12392.209127 kJ/mol
# Density = 1.239709 g / cm^3
# Si number density = 12.425366 Si / 1000 Ang^3
#
#
#
# Elastic Constant Matrix: (Units=GPa)
#
#
# Indices 1 2 3 4 5 6 
#
# 1 85.5726 47.8434 29.5560 0.0000 0.0000 0.0000
# 2 47.8434 74.2543 42.2735 0.0000 0.0000 0.0000
# 3 29.5560 42.2735 63.6341 0.0000 0.0000 0.0000
# 4 0.0000 0.0000 0.0000 16.6872 0.0000 0.0000
# 5 0.0000 0.0000 0.0000 0.0000 2.4234 0.0000
# 6 0.0000 0.0000 0.0000 0.0000 0.0000 22.8038
#
#
#
# Elastic Compliance Matrix: (Units=1/GPa)
#
#
# Indices 1 2 3 4 5 6 
#
# 1 0.018312 -0.011188 -0.001073 0.000000 0.000000 0.000000
# 2 -0.011188 0.028494 -0.013733 0.000000 0.000000 0.000000
# 3 -0.001073 -0.013733 0.025336 0.000000 0.000000 0.000000
# 4 0.000000 0.000000 0.000000 0.059926 0.000000 0.000000
# 5 0.000000 0.000000 0.000000 0.000000 0.412650 0.000000
# 6 0.000000 0.000000 0.000000 0.000000 0.000000 0.043852
#
#
# Mechanical properties :
#
#
# Convention : Reuss Voigt Hill
#
# Bulk Modulus (GPa) = 49.61584 51.42296 50.51940
# Shear Modulus (GPa) = 7.72470 15.30208 11.51339
#
# Velocity S-wave (km/s) = 2.49607 3.51311 3.04732
# Velocity P-wave (km/s) = 6.95161 7.61126 7.28890
#
# Compressibility (1/GPa) = 0.02015485
#
# Stress axis : x y z
#
# Youngs Moduli (GPa) = 54.61039 35.09542 39.46933
#
# Poissons Ratio (x) = 0.39263 0.04235
# Poissons Ratio (y) = 0.61096 0.54202
# Poissons Ratio (z) = 0.05859 0.48196
#
# Static dielectric constant tensor:
#      x y z
#    x 2.601750 0.000000 0.000000 
#    y 0.000000 2.732950 0.000000 
#    z 0.000000 0.000000 2.327430 
# 
# 
# High freq. dielectric constant tensor:
#      x y z
#    x 1.458110 0.000000 0.000000 
#    y 0.000000 1.480860 0.000000 
#    z 0.000000 0.000000 1.421280 
# 
# From -- ./inp_files/28872.got.cif
#   From: 2010.03.12/outbox.cif.g09.slc.cpg/sg47_15_cif.got.tgz:28872.got - 2010.04.14 03:12:58.
