data_PCOD8200641
_publ_section_title
;
Structure prediction by ZEFSAII (Michael W. Deem and Ramdas Pophale) SiO2 
 PCOD8200641
Probable space group: P M M M
;
_chemical_formula_sum "Si O2"
_cell_formula_units_Z 44
_cell_length_a 28.582392
_cell_length_b 9.101999
_cell_length_c 9.195071
_cell_angle_alpha 90.000000
_cell_angle_beta 90.000000
_cell_angle_gamma 90.000000
_cell_volume 2392.161198
_symmetry_space_group_name_H-M "P M M M"
_symmetry_group_IT_number 47
_symmetry_cell_setting 'orthorhombic'
loop_
_space_group_symop_operation_xyz
x,y,z
-x,-y,z
x,-y,-z
-x,y,-z
-x,-y,-z
x,y,-z
-x,y,z
x,-y,z
loop_
_atom_site_type_symbol
_atom_site_label
_atom_site_fract_x
_atom_site_fract_y
_atom_site_fract_z
Si Si1 0.166713 0.329445 0.328865
Si Si2 0.448962 0.833510 0.827130
Si Si3 0.728709 0.674166 0.660226
Si Si4 0.000000 0.673507 0.670236
Si Si5 0.085041 0.172604 0.829716
Si Si6 0.640857 0.672494 0.166820
O O1 0.158607 0.300333 0.500000
O O2 0.156249 0.500000 0.293769
O O3 0.219551 0.285600 0.282313
O O4 0.134518 0.225521 0.232013
O O5 0.500000 0.776420 0.771497
O O6 0.406332 0.738593 0.761230
O O7 0.441664 0.000000 0.775824
O O8 0.448302 0.822152 0.000000
O O9 0.721636 0.740979 0.500000
O O10 0.724821 0.500000 0.653531
O O11 0.687594 0.739473 0.760457
O O12 0.045402 0.741173 0.743835
O O13 0.000000 0.500000 0.695620
O O14 0.000000 0.712507 0.500000
O O15 0.079083 0.000000 0.801898
O O16 0.081566 0.209910 0.000000
O O17 0.638087 0.500000 0.189344
O O18 0.644199 0.718430 0.000000
#
# Coordination Sequence:
#
# PCOD8200641 Si02
#       6
#     8   8   8   4   8   8
#     4   9  18  34  56  79 101 131 174 214 247 293
#     4   8  14  25  40  58  83 116 150 184 229 284
#     4   8  15  29  48  69  95 126 157 192 236 286
#     4  11  24  41  62  86 108 135 176 217 250 294
#     4  11  24  39  55  80 113 143 171 207 253 300
#     4   9  16  25  41  67  92 113 146 193 237 276
#
# _framework density 18.393409999999999
#
# number of rings (size 3 to 8) (size 9 to 14) (size 15 to 20)
#    0.000    2.818    0.000    3.273    0.000    6.909 
#    0.000    4.545    0.000    4.364    0.000    3.818 
#    0.000    0.000    0.000    0.000    0.000    0.000 
#
# Total GULP energy -545361.526932 kJ/mol
# GULP energy per Si atom -12394.580158 kJ/mol
# Density = 1.835155 g / cm^3
# Si number density = 18.393410 Si / 1000 Ang^3
#
#
#
# Elastic Constant Matrix: (Units=GPa)
#
#
# Indices 1 2 3 4 5 6 
#
# 1 183.5664 54.2897 73.8407 0.0000 0.0000 0.0000
# 2 54.2897 53.7428 47.5019 0.0000 0.0000 0.0000
# 3 73.8407 47.5019 80.6284 0.0000 0.0000 0.0000
# 4 0.0000 0.0000 0.0000 19.8589 0.0000 0.0000
# 5 0.0000 0.0000 0.0000 0.0000 -1.4175 0.0000
# 6 0.0000 0.0000 0.0000 0.0000 0.0000 3.8286
#
#
#
# Elastic Compliance Matrix: (Units=1/GPa)
#
#
# Indices 1 2 3 4 5 6 
#
# 1 0.008975 -0.003758 -0.006005 0.000000 0.000000 0.000000
# 2 -0.003758 0.040398 -0.020358 0.000000 0.000000 0.000000
# 3 -0.006005 -0.020358 0.029896 0.000000 0.000000 0.000000
# 4 0.000000 0.000000 0.000000 0.050355 0.000000 0.000000
# 5 0.000000 0.000000 0.000000 0.000000 -0.705470 0.000000
# 6 0.000000 0.000000 0.000000 0.000000 0.000000 0.261192
#
#
# Mechanical properties :
#
#
# Convention : Reuss Voigt Hill
#
# Bulk Modulus (GPa) = 52.56128 74.35582 63.45855
# Shear Modulus (GPa) = -20.15564 13.94103 -3.10731
#
# Velocity S-wave (km/s) = -3.31389 2.75605 -1.30116
# Velocity P-wave (km/s) = 3.74108 7.11623 5.68491
#
# Compressibility (1/GPa) = 0.01902541
#
# Stress axis : x y z
#
# Youngs Moduli (GPa) = 111.42464 24.75376 33.44946
#
# Poissons Ratio (x) = 0.09304 0.20086
# Poissons Ratio (y) = 0.41878 0.68097
# Poissons Ratio (z) = 0.66909 0.50394
#
# Static dielectric constant tensor:
#      x y z
#    x 3.955700 0.000000 0.000000 
#    y 0.000000 3.182290 0.000000 
#    z 0.000000 0.000000 3.309670 
# 
# 
# High freq. dielectric constant tensor:
#      x y z
#    x 1.737150 0.000000 0.000000 
#    y 0.000000 1.688760 0.000000 
#    z 0.000000 0.000000 1.688560 
# 
# From -- ./inp_files/13623.got.cif
#   From: 2010.03.12/outbox.cif.g09.slc.cpg/sg47_7_cif.got.tgz:13623.got - 2010.04.14 03:12:58.
