data_PCOD8200262
_publ_section_title
;
Structure prediction by ZEFSAII (Michael W. Deem and Ramdas Pophale) SiO2 
 PCOD8200262
Probable space group: P M M M
;
_chemical_formula_sum "Si O2"
_cell_formula_units_Z 40
_cell_length_a 11.890517
_cell_length_b 20.396822
_cell_length_c 8.820379
_cell_angle_alpha 90.000000
_cell_angle_beta 90.000000
_cell_angle_gamma 90.000000
_cell_volume 2139.195570
_symmetry_space_group_name_H-M "P M M M"
_symmetry_group_IT_number 47
_symmetry_cell_setting 'orthorhombic'
loop_
_space_group_symop_operation_xyz
x,y,z
-x,-y,z
x,-y,-z
-x,y,-z
-x,-y,-z
x,y,-z
-x,y,z
x,-y,z
loop_
_atom_site_type_symbol
_atom_site_label
_atom_site_fract_x
_atom_site_fract_y
_atom_site_fract_z
Si Si1 0.630053 0.310672 0.177446
Si Si2 0.778345 0.204851 0.679192
Si Si3 0.000000 0.407279 0.167578
Si Si4 0.873649 0.928039 0.320122
Si Si5 0.000000 0.745543 0.168863
Si Si6 0.232082 0.573004 0.674181
O O1 0.500000 0.316748 0.219495
O O2 0.673751 0.242004 0.245985
O O3 0.691687 0.374498 0.240241
O O4 0.652439 0.308053 0.000000
O O5 0.767226 0.211265 0.500000
O O6 0.785203 0.128094 0.731562
O O7 0.892367 0.237777 0.732664
O O8 0.000000 0.330752 0.146556
O O9 0.108122 0.430840 0.258493
O O10 0.000000 0.439489 0.000000
O O11 0.879129 0.929190 0.500000
O O12 0.000000 0.911730 0.259072
O O13 0.835195 0.000000 0.259738
O O14 0.000000 0.778456 0.000000
O O15 0.224740 0.595104 0.500000
O O16 0.285825 0.500000 0.689394
#
# Coordination Sequence:
#
# PCOD8200262 Si02
#       6
#     8   8   4   8   4   8
#     4  11  25  43  60  79 106 144 188 231 279 333
#     4  11  20  33  58  86 111 144 187 231 276 321
#     4  11  22  36  57  85 118 153 183 215 266 334
#     4   8  14  26  47  80 119 150 177 215 267 324
#     4  11  21  32  51  82 117 150 182 220 273 331
#     4  11  24  40  60  86 114 143 179 228 280 327
#
# _framework density 18.698619000000001
#
# number of rings (size 3 to 8) (size 9 to 14) (size 15 to 20)
#    0.000    1.600    3.000    3.300    0.000    5.600 
#    0.000    2.000    0.000    3.600    0.000    4.200 
#    0.000    0.000    0.000    0.000    0.000    0.000 
#
# Total GULP energy -495808.879761 kJ/mol
# GULP energy per Si atom -12395.221994 kJ/mol
# Density = 1.865606 g / cm^3
# Si number density = 18.698619 Si / 1000 Ang^3
#
#
#
# Elastic Constant Matrix: (Units=GPa)
#
#
# Indices 1 2 3 4 5 6 
#
# 1 105.2580 65.7700 58.7627 0.0000 0.0000 0.0000
# 2 65.7700 151.2681 42.2317 0.0000 0.0000 0.0000
# 3 58.7627 42.2317 78.8001 0.0000 0.0000 0.0000
# 4 0.0000 0.0000 0.0000 -21.6720 0.0000 0.0000
# 5 0.0000 0.0000 0.0000 0.0000********** 0.0000
# 6 0.0000 0.0000 0.0000 0.0000 0.0000 6.6583
#
#
#
# Elastic Compliance Matrix: (Units=1/GPa)
#
#
# Indices 1 2 3 4 5 6 
#
# 1 0.019119 -0.005095 -0.011527 0.000000 0.000000 0.000000
# 2 -0.005095 0.009132 -0.001095 0.000000 0.000000 0.000000
# 3 -0.011527 -0.001095 0.021873 0.000000 0.000000 0.000000
# 4 0.000000 0.000000 0.000000 -0.046142 0.000000 0.000000
# 5 0.000000 0.000000 0.000000 0.000000 -0.000046 0.000000
# 6 0.000000 0.000000 0.000000 0.000000 0.000000 0.150188
#
#
# Mechanical properties :
#
#
# Convention : Reuss Voigt Hill
#
# Bulk Modulus (GPa) = 68.07014 74.31722 71.19368
# Shear Modulus (GPa) = 25.71315 -4340.01956 -2157.15320
#
# Velocity S-wave (km/s) = 3.71231 -48.22941 -34.00217
# Velocity P-wave (km/s) = 7.40661 55.33176 38.77336
#
# Compressibility (1/GPa) = 0.01469073
#
# Stress axis : x y z
#
# Youngs Moduli (GPa) = 52.30376 109.51091 45.71844
#
# Poissons Ratio (x) = 0.55792 0.52700
# Poissons Ratio (y) = 0.26647 0.05005
# Poissons Ratio (z) = 0.60291 0.11989
#
# Static dielectric constant tensor:
#      x y z
#    x 3.307520 0.000000 0.000000 
#    y 0.000000 3.955220 0.000000 
#    z 0.000000 0.000000 3.521380 
# 
# 
# High freq. dielectric constant tensor:
#      x y z
#    x 1.695380 0.000000 0.000000 
#    y 0.000000 1.745600 0.000000 
#    z 0.000000 0.000000 1.725260 
# 
# From -- ./inp_files/4055.got.cif
#   From: 2010.03.12/outbox.cif.g09.slc.cpg/sg47_3_cif.got.tgz:4055.got - 2010.04.14 03:12:58.
