data_PCOD8200030
_publ_section_title
;
Structure prediction by ZEFSAII (Michael W. Deem and Ramdas Pophale) SiO2 
 PCOD8200030
Probable space group: P M M M
;
_chemical_formula_sum "Si O2"
_cell_formula_units_Z 44
_cell_length_a 30.269662
_cell_length_b 9.217377
_cell_length_c 7.701200
_cell_angle_alpha 90.000000
_cell_angle_beta 90.000000
_cell_angle_gamma 90.000000
_cell_volume 2148.687833
_symmetry_space_group_name_H-M "P M M M"
_symmetry_group_IT_number 47
_symmetry_cell_setting 'orthorhombic'
loop_
_space_group_symop_operation_xyz
x,y,z
-x,-y,z
x,-y,-z
-x,y,-z
-x,-y,-z
x,y,-z
-x,y,z
x,-y,z
loop_
_atom_site_type_symbol
_atom_site_label
_atom_site_fract_x
_atom_site_fract_y
_atom_site_fract_z
Si Si1 0.951902 0.663731 0.796138
Si Si2 0.552230 0.332662 0.000000
Si Si3 0.226435 0.834426 0.705739
Si Si4 0.691074 0.662177 0.294522
Si Si5 0.130912 0.156174 0.301007
Si Si6 0.603041 0.828244 0.702796
O O1 0.950486 0.500000 0.729134
O O2 0.911104 0.742523 0.711211
O O3 0.000000 0.730850 0.743308
O O4 0.946015 0.671355 0.000000
O O5 0.567644 0.250753 0.825135
O O6 0.568945 0.500000 0.000000
O O7 0.500000 0.327206 0.000000
O O8 0.230369 0.823459 0.500000
O O9 0.264263 0.731768 0.787044
O O10 0.177532 0.781602 0.773729
O O11 0.233976 0.000000 0.766390
O O12 0.694809 0.653300 0.500000
O O13 0.684690 0.500000 0.217593
O O14 0.650498 0.764852 0.242017
O O15 0.141082 0.128733 0.500000
O O16 0.120013 0.000000 0.213076
O O17 0.592271 0.794986 0.500000
O O18 0.602785 0.000000 0.737811
#
# Coordination Sequence:
#
# PCOD8200030 Si02
#       6
#     8   4   8   8   8   8
#     4   9  19  35  51  66  88 122 163 206 254 309
#     4  11  25  43  63  89 123 161 199 247 304 353
#     4   8  14  26  44  68 101 137 170 207 256 315
#     4   9  16  27  48  79 111 143 182 226 270 320
#     4   9  18  31  48  73 102 129 160 204 256 309
#     4  10  21  38  62  90 120 158 202 246 294 350
#
# _framework density 20.477616000000001
#
# number of rings (size 3 to 8) (size 9 to 14) (size 15 to 20)
#    0.000    2.818    0.000    3.000    0.000    6.545 
#    0.000    6.364    2.000    0.000    0.000    0.000 
#    0.000    0.000    0.000    0.000    0.000    0.000 
#
# Total GULP energy -545117.227123 kJ/mol
# GULP energy per Si atom -12389.027889 kJ/mol
# Density = 2.043101 g / cm^3
# Si number density = 20.477616 Si / 1000 Ang^3
#
#
#
# Elastic Constant Matrix: (Units=GPa)
#
#
# Indices 1 2 3 4 5 6 
#
# 1 147.1459 71.5726 33.3362 0.0000 0.0000 0.0000
# 2 71.5726 123.8322 32.2365 0.0000 0.0000 0.0000
# 3 33.3362 32.2365 48.1998 0.0000 0.0000 0.0000
# 4 0.0000 0.0000 0.0000 36.8649 0.0000 0.0000
# 5 0.0000 0.0000 0.0000 0.0000 -122.6014 0.0000
# 6 0.0000 0.0000 0.0000 0.0000 0.0000 41.1920
#
#
#
# Elastic Compliance Matrix: (Units=1/GPa)
#
#
# Indices 1 2 3 4 5 6 
#
# 1 0.009965 -0.004802 -0.003681 0.000000 0.000000 0.000000
# 2 -0.004802 0.012091 -0.004766 0.000000 0.000000 0.000000
# 3 -0.003681 -0.004766 0.026480 0.000000 0.000000 0.000000
# 4 0.000000 0.000000 0.000000 0.027126 0.000000 0.000000
# 5 0.000000 0.000000 0.000000 0.000000 -0.008157 0.000000
# 6 0.000000 0.000000 0.000000 0.000000 0.000000 0.024277
#
#
# Mechanical properties :
#
#
# Convention : Reuss Voigt Hill
#
# Bulk Modulus (GPa) = 45.37181 65.94095 55.65638
# Shear Modulus (GPa) = 39.80040 3.22661 21.51351
#
# Velocity S-wave (km/s) = 4.41342 1.25662 3.24479
# Velocity P-wave (km/s) = 6.94088 5.86318 6.42467
#
# Compressibility (1/GPa) = 0.02204012
#
# Stress axis : x y z
#
# Youngs Moduli (GPa) = 100.34689 82.70386 37.76387
#
# Poissons Ratio (x) = 0.39711 0.13901
# Poissons Ratio (y) = 0.48182 0.17998
# Poissons Ratio (z) = 0.36938 0.39416
#
# Static dielectric constant tensor:
#      x y z
#    x 3.667870 0.000000 0.000000 
#    y 0.000000 3.918980 0.000000 
#    z 0.000000 0.000000 3.379590 
# 
# 
# High freq. dielectric constant tensor:
#      x y z
#    x 1.812470 0.000000 0.000000 
#    y 0.000000 1.795570 0.000000 
#    z 0.000000 0.000000 1.771320 
# 
# From -- ./inp_files/2099.got.cif
#   From: 2010.03.12/outbox.cif.g09.slc.cpg/sg47_2_cif.got.tgz:2099.got - 2010.04.14 03:12:58.
