data_PCOD8200145
_publ_section_title
;
Structure prediction by ZEFSAII (Michael W. Deem and Ramdas Pophale) SiO2 
 PCOD8200145
Probable space group: P M M M
;
_chemical_formula_sum "Si O2"
_cell_formula_units_Z 52
_cell_length_a 20.102521
_cell_length_b 9.451576
_cell_length_c 14.241790
_cell_angle_alpha 90.000000
_cell_angle_beta 90.000000
_cell_angle_gamma 90.000000
_cell_volume 2705.947292
_symmetry_space_group_name_H-M "P M M M"
_symmetry_group_IT_number 47
_symmetry_cell_setting 'orthorhombic'
loop_
_space_group_symop_operation_xyz
x,y,z
-x,-y,z
x,-y,-z
-x,y,-z
-x,-y,-z
x,y,-z
-x,y,z
x,-y,z
loop_
_atom_site_type_symbol
_atom_site_label
_atom_site_fract_x
_atom_site_fract_y
_atom_site_fract_z
Si Si1 0.574699 0.337061 0.724704
Si Si2 0.301136 0.664089 0.607125
Si Si3 0.075687 0.339030 0.389454
Si Si4 0.000000 0.657927 0.888845
Si Si5 0.579075 0.841487 0.897232
Si Si6 0.810852 0.163547 0.293204
Si Si7 0.875335 0.838775 0.105864
O O1 0.500000 0.283800 0.699134
O O2 0.573000 0.500000 0.752768
O O3 0.622188 0.309293 0.635895
O O4 0.606051 0.258179 0.814844
O O5 0.292310 0.712825 0.500000
O O6 0.281915 0.500000 0.619245
O O7 0.254433 0.756100 0.673169
O O8 0.081376 0.313863 0.500000
O O9 0.097030 0.500000 0.365363
O O10 0.123304 0.228586 0.338905
O O11 0.000000 0.312026 0.355325
O O12 0.065687 0.739539 0.855799
O O13 0.000000 0.500000 0.845132
O O14 0.000000 0.651679 0.000000
O O15 0.500000 0.837969 0.896807
O O16 0.604947 0.000000 0.877928
O O17 0.604705 0.790215 0.000000
O O18 0.814887 0.178876 0.179590
O O19 0.806047 0.000000 0.323248
O O20 0.901594 0.000000 0.106284
O O21 0.851980 0.796764 0.000000
#
# Coordination Sequence:
#
# PCOD8200145 Si02
#       7
#     8   8   8   4   8   8   8
#     4   9  18  33  55  83 110 137 177 228 274 320
#     4  10  22  40  59  78 105 142 178 216 274 342
#     4   9  19  36  56  78 106 141 178 217 267 322
#     4   9  17  29  49  79 108 135 174 221 263 304
#     4   8  14  26  46  74 109 146 178 208 250 308
#     4  11  23  36  55  81 107 139 182 226 266 313
#     4   9  19  36  54  73 105 146 181 216 263 318
#
# _framework density 19.216930000000001
#
# number of rings (size 3 to 8) (size 9 to 14) (size 15 to 20)
#    0.000    2.692    0.000    2.077    1.077    6.154 
#    0.000    4.615    0.000    2.769    0.000    3.231 
#    0.000    0.000    0.000    0.000    0.000    0.000 
#
# Total GULP energy -644629.628243 kJ/mol
# GULP energy per Si atom -12396.723620 kJ/mol
# Density = 1.917319 g / cm^3
# Si number density = 19.216930 Si / 1000 Ang^3
#
#
#
# Elastic Constant Matrix: (Units=GPa)
#
#
# Indices 1 2 3 4 5 6 
#
# 1 88.2246 48.8673 53.1782 0.0000 0.0000 0.0000
# 2 48.8673 91.4654 52.7275 0.0000 0.0000 0.0000
# 3 53.1782 52.7275 94.9307 0.0000 0.0000 0.0000
# 4 0.0000 0.0000 0.0000 27.7062 0.0000 0.0000
# 5 0.0000 0.0000 0.0000 0.0000 27.7709 0.0000
# 6 0.0000 0.0000 0.0000 0.0000 0.0000 22.2729
#
#
#
# Elastic Compliance Matrix: (Units=1/GPa)
#
#
# Indices 1 2 3 4 5 6 
#
# 1 0.019075 -0.005930 -0.007391 0.000000 0.000000 0.000000
# 2 -0.005930 0.017926 -0.006635 0.000000 0.000000 0.000000
# 3 -0.007391 -0.006635 0.018360 0.000000 0.000000 0.000000
# 4 0.000000 0.000000 0.000000 0.036093 0.000000 0.000000
# 5 0.000000 0.000000 0.000000 0.000000 0.036009 0.000000
# 6 0.000000 0.000000 0.000000 0.000000 0.000000 0.044898
#
#
# Mechanical properties :
#
#
# Convention : Reuss Voigt Hill
#
# Bulk Modulus (GPa) = 64.73415 64.90740 64.82077
# Shear Modulus (GPa) = 22.99674 23.53985 23.26830
#
# Velocity S-wave (km/s) = 3.46308 3.50373 3.48346
# Velocity P-wave (km/s) = 7.05334 7.08644 7.06991
#
# Compressibility (1/GPa) = 0.01544780
#
# Stress axis : x y z
#
# Youngs Moduli (GPa) = 52.42574 55.78428 54.46685
#
# Poissons Ratio (x) = 0.33080 0.40259
# Poissons Ratio (y) = 0.31089 0.36138
# Poissons Ratio (z) = 0.38750 0.37012
#
# Static dielectric constant tensor:
#      x y z
#    x 3.294600 0.000000 0.000000 
#    y 0.000000 3.607710 0.000000 
#    z 0.000000 0.000000 3.719480 
# 
# 
# High freq. dielectric constant tensor:
#      x y z
#    x 1.722230 0.000000 0.000000 
#    y 0.000000 1.744250 0.000000 
#    z 0.000000 0.000000 1.755130 
# 
# From -- ./inp_files/24979.got.cif
#   From: 2010.03.12/outbox.cif.g09.slc.cpg/sg47_13_cif.got.tgz:24979.got - 2010.04.14 03:12:58.
