data_PCOD8200688
_publ_section_title
;
Structure prediction by ZEFSAII (Michael W. Deem and Ramdas Pophale) SiO2 
 PCOD8200688
Probable space group: P M M M
;
_chemical_formula_sum "Si O2"
_cell_formula_units_Z 40
_cell_length_a 9.391747
_cell_length_b 26.102814
_cell_length_c 9.408017
_cell_angle_alpha 90.000000
_cell_angle_beta 90.000000
_cell_angle_gamma 90.000000
_cell_volume 2306.385011
_symmetry_space_group_name_H-M "P M M M"
_symmetry_group_IT_number 47
_symmetry_cell_setting 'orthorhombic'
loop_
_space_group_symop_operation_xyz
x,y,z
-x,-y,z
x,-y,-z
-x,y,-z
-x,-y,-z
x,y,-z
-x,y,z
x,-y,z
loop_
_atom_site_type_symbol
_atom_site_label
_atom_site_fract_x
_atom_site_fract_y
_atom_site_fract_z
Si Si1 0.335350 0.097421 0.665651
Si Si2 0.331039 0.500000 0.155602
Si Si3 0.335187 0.197554 0.165114
Si Si4 0.660351 0.390092 0.170363
Si Si5 0.839472 0.295152 0.830717
Si Si6 0.161023 0.000000 0.330947
O O1 0.307457 0.107241 0.500000
O O2 0.500000 0.084451 0.695302
O O3 0.285909 0.147706 0.749233
O O4 0.242292 0.050328 0.724944
O O5 0.500000 0.500000 0.138403
O O6 0.288207 0.553927 0.231847
O O7 0.259203 0.500000 0.000000
O O8 0.500000 0.210407 0.192659
O O9 0.244198 0.245200 0.223556
O O10 0.305151 0.187129 0.000000
O O11 0.500000 0.377519 0.221473
O O12 0.763913 0.346129 0.230399
O O13 0.663955 0.392287 0.000000
O O14 0.000000 0.293224 0.772187
O O15 0.836059 0.296597 0.000000
O O16 0.163825 0.000000 0.500000
O O17 0.000000 0.000000 0.272105
#
# Coordination Sequence:
#
# PCOD8200688 Si02
#       6
#     8   4   8   8   8   4
#     4   9  17  30  48  67  85 106 134 168 202 234
#     4   7  10  16  27  43  61  85 122 165 202 235
#     4   9  17  29  44  61  81 107 138 168 199 238
#     4   8  12  19  31  45  63  91 128 166 201 239
#     4   9  16  24  34  50  73 101 132 165 201 240
#     4   9  17  29  46  67  88 110 136 163 194 238
#
# _framework density 17.343159
#
# number of rings (size 3 to 8) (size 9 to 14) (size 15 to 20)
#    0.000    3.400    0.000    2.100    0.000    4.400 
#    0.000    1.000    0.000    6.000    0.000    0.000 
#    0.000    0.000    0.000    0.900    0.000   21.600 
#
# Total GULP energy -495697.058012 kJ/mol
# GULP energy per Si atom -12392.426450 kJ/mol
# Density = 1.730368 g / cm^3
# Si number density = 17.343159 Si / 1000 Ang^3
#
#
#
# Elastic Constant Matrix: (Units=GPa)
#
#
# Indices 1 2 3 4 5 6 
#
# 1 107.0876 99.3044 17.1235 0.0000 0.0000 0.0000
# 2 99.3044 209.1656 30.3094 0.0000 0.0000 0.0000
# 3 17.1235 30.3094 15.2580 0.0000 0.0000 0.0000
# 4 0.0000 0.0000 0.0000 -0.6851 0.0000 0.0000
# 5 0.0000 0.0000 0.0000 0.0000 8.5020 0.0000
# 6 0.0000 0.0000 0.0000 0.0000 0.0000 13.1343
#
#
#
# Elastic Compliance Matrix: (Units=1/GPa)
#
#
# Indices 1 2 3 4 5 6 
#
# 1 0.016877 -0.007397 -0.004246 0.000000 0.000000 0.000000
# 2 -0.007397 0.009956 -0.011475 0.000000 0.000000 0.000000
# 3 -0.004246 -0.011475 0.093098 0.000000 0.000000 0.000000
# 4 0.000000 0.000000 0.000000 -1.459551 0.000000 0.000000
# 5 0.000000 0.000000 0.000000 0.000000 0.117619 0.000000
# 6 0.000000 0.000000 0.000000 0.000000 0.000000 0.076137
#
#
# Mechanical properties :
#
#
# Convention : Reuss Voigt Hill
#
# Bulk Modulus (GPa) = 13.56943 69.44286 41.50615
# Shear Modulus (GPa) = -4.65088 16.50850 5.92881
#
# Velocity S-wave (km/s) = -1.63936 3.08859 1.85093
# Velocity P-wave (km/s) = 2.06343 7.26957 5.34342
#
# Compressibility (1/GPa) = 0.07369504
#
# Stress axis : x y z
#
# Youngs Moduli (GPa) = 59.25363 100.44601 10.74134
#
# Poissons Ratio (x) = 0.74302 0.04560
# Poissons Ratio (y) = 0.43831 0.12325
# Poissons Ratio (z) = 0.25157 1.15260
#
# Static dielectric constant tensor:
#      x y z
#    x 3.230790 0.000000 0.000000 
#    y 0.000000 3.643410 0.000000 
#    z 0.000000 0.000000 2.566670 
# 
# 
# High freq. dielectric constant tensor:
#      x y z
#    x 1.658520 0.000000 0.000000 
#    y 0.000000 1.693120 0.000000 
#    z 0.000000 0.000000 1.590830 
# 
# From -- ./inp_files/13148.got.cif
#   From: 2010.03.12/outbox.cif.g09.slc.cpg/sg47_7_cif.got.tgz:13148.got - 2010.04.14 03:12:58.
