data_PCOD8200131
_publ_section_title
;
Structure prediction by ZEFSAII (Michael W. Deem and Ramdas Pophale) SiO2 
 PCOD8200131
Probable space group: P M M M
;
_chemical_formula_sum "Si O2"
_cell_formula_units_Z 48
_cell_length_a 29.392016
_cell_length_b 8.986635
_cell_length_c 9.681800
_cell_angle_alpha 90.000000
_cell_angle_beta 90.000000
_cell_angle_gamma 90.000000
_cell_volume 2557.305338
_symmetry_space_group_name_H-M "P M M M"
_symmetry_group_IT_number 47
_symmetry_cell_setting 'orthorhombic'
loop_
_space_group_symop_operation_xyz
x,y,z
-x,-y,z
x,-y,-z
-x,y,-z
-x,-y,-z
x,y,-z
-x,y,z
x,-y,z
loop_
_atom_site_type_symbol
_atom_site_label
_atom_site_fract_x
_atom_site_fract_y
_atom_site_fract_z
Si Si1 0.552907 0.665176 0.000000
Si Si2 0.698559 0.675891 0.840580
Si Si3 0.776213 0.824183 0.338697
Si Si4 0.049552 0.332481 0.836027
Si Si5 0.448834 0.175352 0.500000
Si Si6 0.603640 0.176338 0.231444
Si Si7 0.138945 0.175155 0.156735
O O1 0.566262 0.764620 0.128108
O O2 0.576415 0.500000 0.000000
O O3 0.500000 0.640915 0.000000
O O4 0.696816 0.500000 0.822310
O O5 0.735352 0.741768 0.736621
O O6 0.651035 0.744406 0.795629
O O7 0.709507 0.719096 0.000000
O O8 0.778577 0.778194 0.500000
O O9 0.821904 0.770880 0.260900
O O10 0.768873 0.000000 0.323302
O O11 0.057006 0.500000 0.782802
O O12 0.091145 0.233287 0.781054
O O13 0.000000 0.273533 0.783058
O O14 0.049556 0.328069 0.000000
O O15 0.500000 0.246888 0.500000
O O16 0.417741 0.227968 0.625358
O O17 0.455241 0.000000 0.500000
O O18 0.610541 0.000000 0.218627
O O19 0.136048 0.000000 0.153485
O O20 0.148246 0.235197 0.000000
#
# Coordination Sequence:
#
# PCOD8200131 Si02
#       7
#     4   8   8   8   4   8   8
#     4  11  23  39  59  87 123 155 187 231 278 325
#     4  11  24  41  60  84 115 146 181 230 286 339
#     4  10  22  39  59  82 110 145 187 232 279 336
#     4   8  14  25  43  70 104 140 178 222 272 326
#     4   9  20  38  59  87 119 147 185 233 272 317
#     4  11  22  38  63  89 114 150 191 231 277 330
#     4   9  17  30  50  77 107 139 178 228 279 327
#
# _framework density 18.769756999999998
#
# number of rings (size 3 to 8) (size 9 to 14) (size 15 to 20)
#    0.000    2.167    0.833    2.750    1.167    4.333 
#    0.000    4.583    0.000    3.500    0.000    3.500 
#    0.000    0.000    0.000    0.000    0.000    0.000 
#
# Total GULP energy -594944.873643 kJ/mol
# GULP energy per Si atom -12394.684868 kJ/mol
# Density = 1.872704 g / cm^3
# Si number density = 18.769757 Si / 1000 Ang^3
#
#
#
# Elastic Constant Matrix: (Units=GPa)
#
#
# Indices 1 2 3 4 5 6 
#
# 1 139.4675 40.8856 70.9481 0.0000 0.0000 0.0000
# 2 40.8856 32.1605 43.2981 0.0000 0.0000 0.0000
# 3 70.9481 43.2981 138.9089 0.0000 0.0000 0.0000
# 4 0.0000 0.0000 0.0000 9.8959 0.0000 0.0000
# 5 0.0000 0.0000 0.0000 0.0000 24.2118 0.0000
# 6 0.0000 0.0000 0.0000 0.0000 0.0000 33.5116
#
#
#
# Elastic Compliance Matrix: (Units=1/GPa)
#
#
# Indices 1 2 3 4 5 6 
#
# 1 0.011855 -0.011923 -0.002339 0.000000 0.000000 0.000000
# 2 -0.011923 0.065569 -0.014348 0.000000 0.000000 0.000000
# 3 -0.002339 -0.014348 0.012866 0.000000 0.000000 0.000000
# 4 0.000000 0.000000 0.000000 0.101052 0.000000 0.000000
# 5 0.000000 0.000000 0.000000 0.000000 0.041302 0.000000
# 6 0.000000 0.000000 0.000000 0.000000 0.000000 0.029840
#
#
# Mechanical properties :
#
#
# Convention : Reuss Voigt Hill
#
# Bulk Modulus (GPa) = 30.23868 68.97783 49.60825
# Shear Modulus (GPa) = 15.11821 23.88420 19.50120
#
# Velocity S-wave (km/s) = 2.84113 3.57106 3.22680
# Velocity P-wave (km/s) = 5.18729 7.33706 6.35376
#
# Compressibility (1/GPa) = 0.03307022
#
# Stress axis : x y z
#
# Youngs Moduli (GPa) = 84.35238 15.25118 77.72536
#
# Poissons Ratio (x) = 0.18184 0.18177
# Poissons Ratio (y) = 1.00571 1.11522
# Poissons Ratio (z) = 0.19727 0.21883
#
# Static dielectric constant tensor:
#      x y z
#    x 4.508150 0.000000 0.000000 
#    y 0.000000 3.429590 0.000000 
#    z 0.000000 0.000000 3.424070 
# 
# 
# High freq. dielectric constant tensor:
#      x y z
#    x 1.746250 0.000000 0.000000 
#    y 0.000000 1.720850 0.000000 
#    z 0.000000 0.000000 1.714970 
# 
# From -- ./inp_files/13868.got.cif
#   From: 2010.03.12/outbox.cif.g09.slc.cpg/sg47_7_cif.got.tgz:13868.got - 2010.04.14 03:12:58.
