data_PCOD8200513
_publ_section_title
;
Structure prediction by ZEFSAII (Michael W. Deem and Ramdas Pophale) SiO2 
 PCOD8200513
Probable space group: P M M M
;
_chemical_formula_sum "Si O2"
_cell_formula_units_Z 56
_cell_length_a 15.889737
_cell_length_b 8.684563
_cell_length_c 19.997378
_cell_angle_alpha 90.000000
_cell_angle_beta 90.000000
_cell_angle_gamma 90.000000
_cell_volume 2759.546617
_symmetry_space_group_name_H-M "P M M M"
_symmetry_group_IT_number 47
_symmetry_cell_setting 'orthorhombic'
loop_
_space_group_symop_operation_xyz
x,y,z
-x,-y,z
x,-y,-z
-x,y,-z
-x,-y,-z
x,y,-z
-x,y,z
x,-y,z
loop_
_atom_site_type_symbol
_atom_site_label
_atom_site_fract_x
_atom_site_fract_y
_atom_site_fract_z
Si Si1 0.592885 0.678287 0.889984
Si Si2 0.903709 0.682922 0.186423
Si Si3 0.593771 0.169609 0.244995
Si Si4 0.000000 0.820043 0.574189
Si Si5 0.599421 0.321626 0.500000
Si Si6 0.774459 0.318348 0.925890
Si Si7 0.861247 0.321223 0.335976
Si Si8 0.306626 0.820175 0.376241
O O1 0.500000 0.750421 0.911674
O O2 0.588335 0.500000 0.907668
O O3 0.605701 0.701518 0.811185
O O4 0.678074 0.749765 0.922703
O O5 0.903798 0.500000 0.181986
O O6 0.839679 0.750457 0.129428
O O7 0.869975 0.737857 0.259095
O O8 0.000000 0.743115 0.175050
O O9 0.500000 0.169887 0.273238
O O10 0.650112 0.213371 0.306522
O O11 0.616352 0.000000 0.215627
O O12 0.920469 0.772153 0.616046
O O13 0.000000 0.743445 0.500000
O O14 0.000000 0.000000 0.565084
O O15 0.626296 0.500000 0.500000
O O16 0.500000 0.302428 0.500000
O O17 0.634976 0.235813 0.435679
O O18 0.767870 0.500000 0.913674
O O19 0.810031 0.280324 0.000000
O O20 0.884398 0.500000 0.338275
O O21 0.772970 0.289302 0.370405
O O22 0.283650 0.000000 0.385998
#
# Coordination Sequence:
#
# PCOD8200513 Si02
#       8
#     8   8   8   4   4   8   8   8
#     4   9  17  29  47  73 105 140 179 227 284 341
#     4   9  17  31  51  77 109 145 187 234 287 344
#     4   9  18  33  53  77 105 140 183 229 278 333
#     4  11  25  43  63  87 118 149 184 234 290 348
#     4  11  25  43  61  84 115 154 199 241 285 341
#     4   9  17  28  45  73 109 146 184 230 284 342
#     4  11  22  39  62  87 117 152 191 236 288 346
#     4  11  23  38  58  83 113 148 189 235 287 343
#
# _framework density 20.293189000000002
#
# number of rings (size 3 to 8) (size 9 to 14) (size 15 to 20)
#    0.000    2.143    0.714    2.571    1.000    4.571 
#    0.000    4.286    0.000    0.429    0.000    2.000 
#    0.000    0.571    0.000    0.000    0.000    0.000 
#
# Total GULP energy -693848.809843 kJ/mol
# GULP energy per Si atom -12390.157319 kJ/mol
# Density = 2.024700 g / cm^3
# Si number density = 20.293189 Si / 1000 Ang^3
#
#
#
# Elastic Constant Matrix: (Units=GPa)
#
#
# Indices 1 2 3 4 5 6 
#
# 1 121.5269 14.7449 56.2976 0.0000 0.0000 0.0000
# 2 14.7449 27.3936 28.0290 0.0000 0.0000 0.0000
# 3 56.2976 28.0290 108.9839 0.0000 0.0000 0.0000
# 4 0.0000 0.0000 0.0000 10.7340 0.0000 0.0000
# 5 0.0000 0.0000 0.0000 0.0000 24.9141 0.0000
# 6 0.0000 0.0000 0.0000 0.0000 0.0000 33.6823
#
#
#
# Elastic Compliance Matrix: (Units=1/GPa)
#
#
# Indices 1 2 3 4 5 6 
#
# 1 0.010818 -0.000143 -0.005551 0.000000 0.000000 0.000000
# 2 -0.000143 0.049544 -0.012668 0.000000 0.000000 0.000000
# 3 -0.005551 -0.012668 0.015301 0.000000 0.000000 0.000000
# 4 0.000000 0.000000 0.000000 0.093162 0.000000 0.000000
# 5 0.000000 0.000000 0.000000 0.000000 0.040138 0.000000
# 6 0.000000 0.000000 0.000000 0.000000 0.000000 0.029689
#
#
# Mechanical properties :
#
#
# Convention : Reuss Voigt Hill
#
# Bulk Modulus (GPa) = 25.68161 50.67193 38.17677
# Shear Modulus (GPa) = 17.33969 24.45494 20.89732
#
# Velocity S-wave (km/s) = 2.92628 3.47519 3.21248
# Velocity P-wave (km/s) = 4.90920 6.41301 5.71082
#
# Compressibility (1/GPa) = 0.03893837
#
# Stress axis : x y z
#
# Youngs Moduli (GPa) = 92.44183 20.18422 65.35350
#
# Poissons Ratio (x) = 0.00288 0.36280
# Poissons Ratio (y) = 0.01318 0.82791
# Poissons Ratio (z) = 0.51318 0.25570
#
# Static dielectric constant tensor:
#      x y z
#    x 3.655980 0.000000 0.000000 
#    y 0.000000 3.355800 0.000000 
#    z 0.000000 0.000000 3.720670 
# 
# 
# High freq. dielectric constant tensor:
#      x y z
#    x 1.809510 0.000000 0.000000 
#    y 0.000000 1.751820 0.000000 
#    z 0.000000 0.000000 1.797440 
# 
# From -- ./inp_files/30998.got.cif
#   From: 2010.03.12/outbox.cif.g09.slc.cpg/sg47_16_cif.got.tgz:30998.got - 2010.04.14 03:12:58.
