data_PCOD8200800
_publ_section_title
;
Structure prediction by ZEFSAII (Michael W. Deem and Ramdas Pophale) SiO2 
 PCOD8200800
Probable space group: P M M M
;
_chemical_formula_sum "Si O2"
_cell_formula_units_Z 52
_cell_length_a 10.076612
_cell_length_b 35.254393
_cell_length_c 7.993447
_cell_angle_alpha 90.000000
_cell_angle_beta 90.000000
_cell_angle_gamma 90.000000
_cell_volume 2839.630797
_symmetry_space_group_name_H-M "P M M M"
_symmetry_group_IT_number 47
_symmetry_cell_setting 'orthorhombic'
loop_
_space_group_symop_operation_xyz
x,y,z
-x,-y,z
x,-y,-z
-x,y,-z
-x,-y,-z
x,y,-z
-x,y,z
x,-y,z
loop_
_atom_site_type_symbol
_atom_site_label
_atom_site_fract_x
_atom_site_fract_y
_atom_site_fract_z
Si Si1 0.341662 0.957096 0.000000
Si Si2 0.657640 0.830183 0.811952
Si Si3 0.657956 0.909566 0.684828
Si Si4 0.648233 0.250638 0.304030
Si Si5 0.351629 0.542276 0.300876
Si Si6 0.148203 0.603421 0.300955
Si Si7 0.851628 0.688120 0.300848
O O1 0.286266 0.936637 0.832158
O O2 0.500000 0.955951 0.000000
O O3 0.288373 0.000000 0.000000
O O4 0.500000 0.830437 0.806776
O O5 0.711436 0.866648 0.710921
O O6 0.708895 0.790987 0.731774
O O7 0.711124 0.833297 0.000000
O O8 0.704776 0.923572 0.500000
O O9 0.500000 0.909805 0.694579
O O10 0.638926 0.256930 0.500000
O O11 0.500000 0.254997 0.225422
O O12 0.746274 0.282048 0.223890
O O13 0.347880 0.543966 0.500000
O O14 0.500000 0.551944 0.237635
O O15 0.310904 0.500000 0.240800
O O16 0.250148 0.572915 0.222761
O O17 0.151853 0.601585 0.500000
O O18 0.188509 0.645750 0.241708
O O19 0.000000 0.593657 0.237367
O O20 0.850396 0.690268 0.500000
O O21 0.000000 0.697920 0.235998
#
# Coordination Sequence:
#
# PCOD8200800 Si02
#       7
#     4   8   8   8   8   8   8
#     4   9  16  24  32  46  70 100 139 183 223 267
#     4   9  15  24  37  52  72  96 123 160 208 255
#     4   9  15  23  35  49  68  98 135 175 220 266
#     4   9  16  24  36  56  75  91 122 166 201 235
#     4   8  13  19  25  35  53  77 107 146 192 237
#     4   8  13  20  29  40  54  77 111 147 183 228
#     4   8  14  24  35  47  67  94 121 152 196 248
#
# _framework density 18.312238000000001
#
# number of rings (size 3 to 8) (size 9 to 14) (size 15 to 20)
#    0.000    3.462    0.769    1.846    0.000    3.077 
#    0.000    6.154    0.000    0.462    0.000    0.000 
#    0.000    0.000    0.000    0.000    0.000    2.308 
#
# Total GULP energy -644296.123563 kJ/mol
# GULP energy per Si atom -12390.310069 kJ/mol
# Density = 1.827056 g / cm^3
# Si number density = 18.312238 Si / 1000 Ang^3
#
#
#
# Elastic Constant Matrix: (Units=GPa)
#
#
# Indices 1 2 3 4 5 6 
#
# 1 62.9338 72.1276 18.2435 0.0000 0.0000 0.0000
# 2 72.1276 175.1152 38.1914 0.0000 0.0000 0.0000
# 3 18.2435 38.1914 57.9950 0.0000 0.0000 0.0000
# 4 0.0000 0.0000 0.0000 2.3091 0.0000 0.0000
# 5 0.0000 0.0000 0.0000 0.0000 0.6662 0.0000
# 6 0.0000 0.0000 0.0000 0.0000 0.0000 6.6902
#
#
#
# Elastic Compliance Matrix: (Units=1/GPa)
#
#
# Indices 1 2 3 4 5 6 
#
# 1 0.030213 -0.012111 -0.001529 0.000000 0.000000 0.000000
# 2 -0.012111 0.011523 -0.003778 0.000000 0.000000 0.000000
# 3 -0.001529 -0.003778 0.020212 0.000000 0.000000 0.000000
# 4 0.000000 0.000000 0.000000 0.433061 0.000000 0.000000
# 5 0.000000 0.000000 0.000000 0.000000 1.501139 0.000000
# 6 0.000000 0.000000 0.000000 0.000000 0.000000 0.149472
#
#
# Mechanical properties :
#
#
# Convention : Reuss Voigt Hill
#
# Bulk Modulus (GPa) = 36.88439 61.46324 49.17381
# Shear Modulus (GPa) = 2.28363 13.09852 7.69108
#
# Velocity S-wave (km/s) = 1.11793 2.67739 2.05161
# Velocity P-wave (km/s) = 4.67461 6.57227 5.70293
#
# Compressibility (1/GPa) = 0.02711174
#
# Stress axis : x y z
#
# Youngs Moduli (GPa) = 33.09818 86.78345 49.47564
#
# Poissons Ratio (x) = 1.05103 0.07564
# Poissons Ratio (y) = 0.40085 0.18694
# Poissons Ratio (z) = 0.05060 0.32791
#
# Static dielectric constant tensor:
#      x y z
#    x 3.204390 0.000000 0.000000 
#    y 0.000000 3.700870 0.000000 
#    z 0.000000 0.000000 3.041930 
# 
# 
# High freq. dielectric constant tensor:
#      x y z
#    x 1.651520 0.000000 0.000000 
#    y 0.000000 1.718010 0.000000 
#    z 0.000000 0.000000 1.678740 
# 
# From -- ./inp_files/4540.got.cif
#   From: 2010.03.12/outbox.cif.g09.slc.cpg/sg47_3_cif.got.tgz:4540.got - 2010.04.14 03:12:58.
