data_PCOD8200156
_publ_section_title
;
Structure prediction by ZEFSAII (Michael W. Deem and Ramdas Pophale) SiO2 
 PCOD8200156
Probable space group: P M M M
;
_chemical_formula_sum "Si O2"
_cell_formula_units_Z 48
_cell_length_a 20.429402
_cell_length_b 8.665029
_cell_length_c 14.530968
_cell_angle_alpha 90.000000
_cell_angle_beta 90.000000
_cell_angle_gamma 90.000000
_cell_volume 2572.291729
_symmetry_space_group_name_H-M "P M M M"
_symmetry_group_IT_number 47
_symmetry_cell_setting 'orthorhombic'
loop_
_space_group_symop_operation_xyz
x,y,z
-x,-y,z
x,-y,-z
-x,y,-z
-x,-y,-z
x,y,-z
-x,y,z
x,-y,z
loop_
_atom_site_type_symbol
_atom_site_label
_atom_site_fract_x
_atom_site_fract_y
_atom_site_fract_z
Si Si1 0.307483 0.682885 0.690648
Si Si2 0.219951 0.683062 0.000000
Si Si3 0.870608 0.678146 0.500000
Si Si4 0.190196 0.180877 0.809237
Si Si5 0.926090 0.176675 0.323728
Si Si6 0.369089 0.683678 0.000000
Si Si7 0.270277 0.818798 0.500000
Si Si8 0.572610 0.316547 0.810852
O O1 0.302313 0.500000 0.687132
O O2 0.248613 0.742419 0.752890
O O3 0.305273 0.749426 0.588784
O O4 0.376293 0.739180 0.733685
O O5 0.183910 0.748386 0.089577
O O6 0.215668 0.500000 0.000000
O O7 0.294606 0.742394 0.000000
O O8 0.849583 0.500000 0.500000
O O9 0.913260 0.713901 0.589574
O O10 0.806187 0.782049 0.500000
O O11 0.122010 0.219765 0.759375
O O12 0.203638 0.000000 0.815027
O O13 0.000000 0.203752 0.288863
O O14 0.915042 0.000000 0.355100
O O15 0.405496 0.749501 0.910058
O O16 0.369955 0.500000 0.000000
O O17 0.279877 0.000000 0.500000
O O18 0.500000 0.253833 0.786827
O O19 0.572349 0.500000 0.815834
#
# Coordination Sequence:
#
# PCOD8200156 Si02
#       8
#     8   4   4   8   8   4   4   8
#     4  11  21  36  59  87 116 148 191 241 287 335
#     4  11  21  36  58  86 116 150 193 245 289 332
#     4  12  23  35  58  90 121 149 184 238 295 344
#     4  11  22  37  59  85 115 153 193 235 285 345
#     4  10  22  40  60  83 116 157 195 233 284 347
#     4   9  15  27  50  83 115 145 181 230 285 335
#     4  12  24  39  58  83 114 153 196 237 286 344
#     4   9  17  30  52  84 119 151 186 232 285 340
#
# _framework density 18.660402000000001
#
# number of rings (size 3 to 8) (size 9 to 14) (size 15 to 20)
#    0.000    1.500    3.333    3.250    0.000    3.000 
#    0.000    0.833    0.000    7.000    0.000    1.167 
#    0.000    0.000    0.000    0.000    0.000    0.000 
#
# Total GULP energy -595335.385810 kJ/mol
# GULP energy per Si atom -12402.820538 kJ/mol
# Density = 1.861793 g / cm^3
# Si number density = 18.660402 Si / 1000 Ang^3
#
#
#
# Elastic Constant Matrix: (Units=GPa)
#
#
# Indices 1 2 3 4 5 6 
#
# 1 156.4066 41.0471 84.0736 0.0000 0.0000 0.0000
# 2 41.0471 76.7117 50.6682 0.0000 0.0000 0.0000
# 3 84.0736 50.6682 171.7593 0.0000 0.0000 0.0000
# 4 0.0000 0.0000 0.0000 29.1440 0.0000 0.0000
# 5 0.0000 0.0000 0.0000 0.0000 44.0946 0.0000
# 6 0.0000 0.0000 0.0000 0.0000 0.0000 10.0561
#
#
#
# Elastic Compliance Matrix: (Units=1/GPa)
#
#
# Indices 1 2 3 4 5 6 
#
# 1 0.009011 -0.002370 -0.003711 0.000000 0.000000 0.000000
# 2 -0.002370 0.016814 -0.003800 0.000000 0.000000 0.000000
# 3 -0.003711 -0.003800 0.008760 0.000000 0.000000 0.000000
# 4 0.000000 0.000000 0.000000 0.034312 0.000000 0.000000
# 5 0.000000 0.000000 0.000000 0.000000 0.022679 0.000000
# 6 0.000000 0.000000 0.000000 0.000000 0.000000 0.099442
#
#
# Mechanical properties :
#
#
# Convention : Reuss Voigt Hill
#
# Bulk Modulus (GPa) = 67.46970 84.05061 75.76016
# Shear Modulus (GPa) = 23.17814 31.93152 27.55483
#
# Velocity S-wave (km/s) = 3.52817 4.14114 3.84689
# Velocity P-wave (km/s) = 7.26859 8.24654 7.77296
#
# Compressibility (1/GPa) = 0.01482147
#
# Stress axis : x y z
#
# Youngs Moduli (GPa) = 110.98080 59.47489 114.15885
#
# Poissons Ratio (x) = 0.14096 0.42369
# Poissons Ratio (y) = 0.26303 0.43379
# Poissons Ratio (z) = 0.41189 0.22600
#
# Static dielectric constant tensor:
#      x y z
#    x 3.598970 0.000000 0.000000 
#    y 0.000000 3.294140 0.000000 
#    z 0.000000 0.000000 3.593000 
# 
# 
# High freq. dielectric constant tensor:
#      x y z
#    x 1.724720 0.000000 0.000000 
#    y 0.000000 1.709770 0.000000 
#    z 0.000000 0.000000 1.729830 
# 
# From -- ./inp_files/24549.got.cif
#   From: 2010.03.12/outbox.cif.g09.slc.cpg/sg47_13_cif.got.tgz:24549.got - 2010.04.14 03:12:58.
