data_PCOD8200711
_publ_section_title
;
Structure prediction by ZEFSAII (Michael W. Deem and Ramdas Pophale) SiO2 
 PCOD8200711
Probable space group: P M M M
;
_chemical_formula_sum "Si O2"
_cell_formula_units_Z 44
_cell_length_a 9.379948
_cell_length_b 9.555392
_cell_length_c 28.674358
_cell_angle_alpha 90.000000
_cell_angle_beta 90.000000
_cell_angle_gamma 90.000000
_cell_volume 2570.056329
_symmetry_space_group_name_H-M "P M M M"
_symmetry_group_IT_number 47
_symmetry_cell_setting 'orthorhombic'
loop_
_space_group_symop_operation_xyz
x,y,z
-x,-y,z
x,-y,-z
-x,y,-z
-x,-y,-z
x,y,-z
-x,y,z
x,-y,z
loop_
_atom_site_type_symbol
_atom_site_label
_atom_site_fract_x
_atom_site_fract_y
_atom_site_fract_z
Si Si1 0.166523 0.838468 0.276709
Si Si2 0.343725 0.333723 0.000000
Si Si3 0.830410 0.156968 0.551844
Si Si4 0.334744 0.837725 0.814415
Si Si5 0.329483 0.657116 0.900120
Si Si6 0.169823 0.341965 0.364198
O O1 0.249435 0.787777 0.230938
O O2 0.222439 0.743586 0.319156
O O3 0.000000 0.815995 0.267547
O O4 0.200349 0.000000 0.288704
O O5 0.266973 0.291437 0.950908
O O6 0.360414 0.500000 0.000000
O O7 0.500000 0.263571 0.000000
O O8 0.779476 0.202260 0.500000
O O9 0.768149 0.265581 0.589673
O O10 0.000000 0.157489 0.554049
O O11 0.775602 0.000000 0.563217
O O12 0.500000 0.802500 0.806038
O O13 0.272465 0.756669 0.859206
O O14 0.309317 0.000000 0.824250
O O15 0.500000 0.661973 0.903070
O O16 0.277308 0.500000 0.888962
O O17 0.229932 0.500000 0.362273
O O18 0.000000 0.342859 0.365825
#
# Coordination Sequence:
#
# PCOD8200711 Si02
#       6
#     8   4   8   8   8   8
#     4   9  17  29  43  56  74 105 138 161 188 233
#     4   7  10  18  33  53  76 101 128 154 182 225
#     4   8  13  21  33  49  71 101 133 160 190 234
#     4   9  17  28  41  59  82 103 126 162 202 231
#     4   8  13  22  37  56  78 104 130 155 188 232
#     4   9  16  24  35  53  76 100 128 165 202 230
#
# _framework density 17.120246000000002
#
# number of rings (size 3 to 8) (size 9 to 14) (size 15 to 20)
#    0.000    3.545    0.000    2.182    0.000    3.273 
#    0.000    2.273    0.000    2.727    0.000    0.636 
#    0.000    5.818    0.000    8.364    0.000   10.727 
#
# Total GULP energy -545187.576416 kJ/mol
# GULP energy per Si atom -12390.626737 kJ/mol
# Density = 1.708128 g / cm^3
# Si number density = 17.120246 Si / 1000 Ang^3
#
#
#
# Elastic Constant Matrix: (Units=GPa)
#
#
# Indices 1 2 3 4 5 6 
#
# 1 12.1527 15.2399 25.8214 0.0000 0.0000 0.0000
# 2 15.2399 99.2760 98.1449 0.0000 0.0000 0.0000
# 3 25.8214 98.1449 201.9035 0.0000 0.0000 0.0000
# 4 0.0000 0.0000 0.0000 35.5355 0.0000 0.0000
# 5 0.0000 0.0000 0.0000 0.0000 -30.8336 0.0000
# 6 0.0000 0.0000 0.0000 0.0000 0.0000 8.2296
#
#
#
# Elastic Compliance Matrix: (Units=1/GPa)
#
#
# Indices 1 2 3 4 5 6 
#
# 1 0.114807 -0.005985 -0.011773 0.000000 0.000000 0.000000
# 2 -0.005985 0.019704 -0.008813 0.000000 0.000000 0.000000
# 3 -0.011773 -0.008813 0.010742 0.000000 0.000000 0.000000
# 4 0.000000 0.000000 0.000000 0.028141 0.000000 0.000000
# 5 0.000000 0.000000 0.000000 0.000000 -0.032432 0.000000
# 6 0.000000 0.000000 0.000000 0.000000 0.000000 0.121513
#
#
# Mechanical properties :
#
#
# Convention : Reuss Voigt Hill
#
# Bulk Modulus (GPa) = 10.85643 65.74943 38.30293
# Shear Modulus (GPa) = 14.43751 14.19469 14.31610
#
# Velocity S-wave (km/s) = 2.90711 2.88256 2.89486
# Velocity P-wave (km/s) = 4.19803 7.04037 5.79613
#
# Compressibility (1/GPa) = 0.09211127
#
# Stress axis : x y z
#
# Youngs Moduli (GPa) = 8.71029 50.75146 93.08925
#
# Poissons Ratio (x) = 0.30373 1.09598
# Poissons Ratio (y) = 0.05213 0.82036
# Poissons Ratio (z) = 0.10255 0.44725
#
# Static dielectric constant tensor:
#      x y z
#    x 2.522220 0.000000 0.000000 
#    y 0.000000 3.237830 0.000000 
#    z 0.000000 0.000000 3.664600 
# 
# 
# High freq. dielectric constant tensor:
#      x y z
#    x 1.579570 0.000000 0.000000 
#    y 0.000000 1.650630 0.000000 
#    z 0.000000 0.000000 1.682870 
# 
# From -- ./inp_files/13163.got.cif
#   From: 2010.03.12/outbox.cif.g09.slc.cpg/sg47_7_cif.got.tgz:13163.got - 2010.04.14 03:12:58.
