data_PCOD8200138
_publ_section_title
;
Structure prediction by ZEFSAII (Michael W. Deem and Ramdas Pophale) SiO2 
 PCOD8200138
Probable space group: P M M M
;
_chemical_formula_sum "Si O2"
_cell_formula_units_Z 48
_cell_length_a 9.800877
_cell_length_b 18.248325
_cell_length_c 13.660342
_cell_angle_alpha 90.000000
_cell_angle_beta 90.000000
_cell_angle_gamma 90.000000
_cell_volume 2443.146549
_symmetry_space_group_name_H-M "P M M M"
_symmetry_group_IT_number 47
_symmetry_cell_setting 'orthorhombic'
loop_
_space_group_symop_operation_xyz
x,y,z
-x,-y,z
x,-y,-z
-x,y,-z
-x,-y,-z
x,y,-z
-x,y,z
x,-y,z
loop_
_atom_site_type_symbol
_atom_site_label
_atom_site_fract_x
_atom_site_fract_y
_atom_site_fract_z
Si Si1 0.500000 0.919474 0.384587
Si Si2 0.347666 0.586902 0.108778
Si Si3 0.840013 0.084028 0.111721
Si Si4 0.659845 0.693597 0.612806
Si Si5 0.251610 0.161515 0.704913
Si Si6 0.841835 0.586889 0.716568
Si Si7 0.000000 0.917556 0.614798
O O1 0.500000 0.921782 0.500000
O O2 0.373317 0.877075 0.347030
O O3 0.500000 0.000000 0.339209
O O4 0.500000 0.614239 0.140321
O O5 0.348056 0.500000 0.107068
O O6 0.230836 0.614309 0.183057
O O7 0.312635 0.616808 0.000000
O O8 0.757080 0.140752 0.180037
O O9 0.000000 0.094003 0.132258
O O10 0.797387 0.000000 0.134106
O O11 0.804492 0.103852 0.000000
O O12 0.674467 0.718980 0.500000
O O13 0.500000 0.679445 0.637362
O O14 0.727054 0.752202 0.687565
O O15 0.751829 0.620933 0.628430
O O16 0.124340 0.130309 0.648638
O O17 0.835129 0.500000 0.704565
O O18 0.000000 0.613461 0.715278
O O19 0.000000 0.926025 0.500000
O O20 0.000000 0.000000 0.661411
#
# Coordination Sequence:
#
# PCOD8200138 Si02
#       7
#     4   8   8   8   8   8   4
#     4  11  22  36  57  85 122 162 195 238 297 353
#     4   8  14  28  54  87 121 156 192 232 283 347
#     4   9  18  35  60  89 121 160 206 253 301 355
#     4  11  25  44  63  83 114 161 207 247 307 379
#     4  12  22  38  60  87 122 160 202 250 305 362
#     4  10  22  39  61  91 122 152 196 255 316 374
#     4  11  22  34  55  89 122 154 201 250 293 355
#
# _framework density 19.646794
#
# number of rings (size 3 to 8) (size 9 to 14) (size 15 to 20)
#    0.000    1.833    1.667    4.500    1.167    3.333 
#    0.000    4.583    0.000    2.500    0.000    0.000 
#    0.000    0.000    0.000    0.000    0.000    0.000 
#
# Total GULP energy -594935.985248 kJ/mol
# GULP energy per Si atom -12394.499693 kJ/mol
# Density = 1.960208 g / cm^3
# Si number density = 19.646794 Si / 1000 Ang^3
#
#
#
# Elastic Constant Matrix: (Units=GPa)
#
#
# Indices 1 2 3 4 5 6 
#
# 1 143.9903 43.6424 39.1238 0.0000 0.0000 0.0000
# 2 43.6424 65.5445 33.3106 0.0000 0.0000 0.0000
# 3 39.1238 33.3106 96.9652 0.0000 0.0000 0.0000
# 4 0.0000 0.0000 0.0000 32.4577 0.0000 0.0000
# 5 0.0000 0.0000 0.0000 0.0000 36.9089 0.0000
# 6 0.0000 0.0000 0.0000 0.0000 0.0000 34.1095
#
#
#
# Elastic Compliance Matrix: (Units=1/GPa)
#
#
# Indices 1 2 3 4 5 6 
#
# 1 0.008981 -0.005014 -0.001901 0.000000 0.000000 0.000000
# 2 -0.005014 0.021283 -0.005288 0.000000 0.000000 0.000000
# 3 -0.001901 -0.005288 0.012897 0.000000 0.000000 0.000000
# 4 0.000000 0.000000 0.000000 0.030809 0.000000 0.000000
# 5 0.000000 0.000000 0.000000 0.000000 0.027094 0.000000
# 6 0.000000 0.000000 0.000000 0.000000 0.000000 0.029317
#
#
# Mechanical properties :
#
#
# Convention : Reuss Voigt Hill
#
# Bulk Modulus (GPa) = 53.32226 59.85040 56.58633
# Shear Modulus (GPa) = 31.04831 33.39012 32.21922
#
# Velocity S-wave (km/s) = 3.97964 4.12700 4.05399
# Velocity P-wave (km/s) = 6.95098 7.29649 7.12583
#
# Compressibility (1/GPa) = 0.01875389
#
# Stress axis : x y z
#
# Youngs Moduli (GPa) = 111.34415 46.98630 77.53831
#
# Poissons Ratio (x) = 0.23558 0.14743
# Poissons Ratio (y) = 0.55825 0.41005
# Poissons Ratio (z) = 0.21171 0.24848
#
# Static dielectric constant tensor:
#      x y z
#    x 3.592950 0.000000 0.000000 
#    y 0.000000 5.491590 0.000000 
#    z 0.000000 0.000000 3.789130 
# 
# 
# High freq. dielectric constant tensor:
#      x y z
#    x 1.769610 0.000000 0.000000 
#    y 0.000000 1.745970 0.000000 
#    z 0.000000 0.000000 1.770480 
# 
# From -- ./inp_files/21047.got.cif
#   From: 2010.03.12/outbox.cif.g09.slc.cpg/sg47_11_cif.got.tgz:21047.got - 2010.04.14 03:12:58.
