data_PCOD8200012
_publ_section_title
;
Structure prediction by ZEFSAII (Michael W. Deem and Ramdas Pophale) SiO2 
 PCOD8200012
Probable space group: P M M M
;
_chemical_formula_sum "Si O2"
_cell_formula_units_Z 40
_cell_length_a 7.459377
_cell_length_b 27.715099
_cell_length_c 8.991595
_cell_angle_alpha 90.000000
_cell_angle_beta 90.000000
_cell_angle_gamma 90.000000
_cell_volume 1858.898721
_symmetry_space_group_name_H-M "P M M M"
_symmetry_group_IT_number 47
_symmetry_cell_setting 'orthorhombic'
loop_
_space_group_symop_operation_xyz
x,y,z
-x,-y,z
x,-y,-z
-x,y,-z
-x,-y,-z
x,y,-z
-x,y,z
x,-y,z
loop_
_atom_site_type_symbol
_atom_site_label
_atom_site_fract_x
_atom_site_fract_y
_atom_site_fract_z
Si Si1 0.286445 0.405217 0.832367
Si Si2 0.712739 0.215965 0.832814
Si Si3 0.713599 0.500000 0.332362
Si Si4 0.000000 0.056865 0.171868
Si Si5 0.286276 0.689691 0.667759
Si Si6 0.291637 0.118675 0.325224
O O1 0.500000 0.405295 0.831434
O O2 0.211819 0.452686 0.750442
O O3 0.212381 0.358078 0.748415
O O4 0.212566 0.404833 0.000000
O O5 0.500000 0.218569 0.835643
O O6 0.790157 0.263609 0.753364
O O7 0.776246 0.169372 0.741268
O O8 0.789758 0.213043 0.000000
O O9 0.500000 0.500000 0.331244
O O10 0.787337 0.500000 0.500000
O O11 0.820928 0.076248 0.250241
O O12 0.000000 0.000000 0.191091
O O13 0.000000 0.072476 0.000000
O O14 0.212724 0.690411 0.500000
O O15 0.500000 0.690057 0.668614
O O16 0.255358 0.119471 0.500000
O O17 0.500000 0.109439 0.288657
#
# Coordination Sequence:
#
# PCOD8200012 Si02
#       6
#     8   8   4   4   8   8
#     4   9  15  21  28  39  58  88 130 182 240 301
#     4   9  16  27  45  69  97 129 166 210 262 321
#     4   9  15  21  27  35  51  81 125 178 237 300
#     4  11  25  43  63  89 121 157 197 240 285 336
#     4   9  15  22  33  51  76 106 144 193 248 306
#     4  10  21  38  61  88 118 153 193 238 288 341
#
# _framework density 21.518117
#
# number of rings (size 3 to 8) (size 9 to 14) (size 15 to 20)
#    0.000    2.600    0.000    3.000    0.000   10.800 
#    0.000    2.000    0.000    0.000    0.000    0.000 
#    0.000    0.000    0.000    0.000    0.000    1.000 
#
# Total GULP energy -496032.621655 kJ/mol
# GULP energy per Si atom -12400.815541 kJ/mol
# Density = 2.146914 g / cm^3
# Si number density = 21.518117 Si / 1000 Ang^3
#
#
#
# Elastic Constant Matrix: (Units=GPa)
#
#
# Indices 1 2 3 4 5 6 
#
# 1 49.9845 33.8022 30.9235 0.0000 0.0000 0.0000
# 2 33.8022 175.7538 104.8920 0.0000 0.0000 0.0000
# 3 30.9235 104.8920 216.8857 0.0000 0.0000 0.0000
# 4 0.0000 0.0000 0.0000 46.3852 0.0000 0.0000
# 5 0.0000 0.0000 0.0000 0.0000 6.5160 0.0000
# 6 0.0000 0.0000 0.0000 0.0000 0.0000 -23.6896
#
#
#
# Elastic Compliance Matrix: (Units=1/GPa)
#
#
# Indices 1 2 3 4 5 6 
#
# 1 0.023400 -0.003527 -0.001630 0.000000 0.000000 0.000000
# 2 -0.003527 0.008530 -0.003622 0.000000 0.000000 0.000000
# 3 -0.001630 -0.003622 0.006595 0.000000 0.000000 0.000000
# 4 0.000000 0.000000 0.000000 0.021559 0.000000 0.000000
# 5 0.000000 0.000000 0.000000 0.000000 0.153469 0.000000
# 6 0.000000 0.000000 0.000000 0.000000 0.000000 -0.042213
#
#
# Mechanical properties :
#
#
# Convention : Reuss Voigt Hill
#
# Bulk Modulus (GPa) = 47.69884 86.87328 67.28606
# Shear Modulus (GPa) = 25.52464 24.04274 24.78369
#
# Velocity S-wave (km/s) = 3.44785 3.34627 3.39744
# Velocity P-wave (km/s) = 6.16970 7.44243 6.83575
#
# Compressibility (1/GPa) = 0.02096487
#
# Stress axis : x y z
#
# Youngs Moduli (GPa) = 42.73443 117.23141 151.62727
#
# Poissons Ratio (x) = 0.41353 0.24722
# Poissons Ratio (y) = 0.15074 0.54927
# Poissons Ratio (z) = 0.06968 0.42467
#
# Static dielectric constant tensor:
#      x y z
#    x 3.311990 0.000000 0.000000 
#    y 0.000000 3.962160 0.000000 
#    z 0.000000 0.000000 4.112560 
# 
# 
# High freq. dielectric constant tensor:
#      x y z
#    x 1.808550 0.000000 0.000000 
#    y 0.000000 1.849490 0.000000 
#    z 0.000000 0.000000 1.860730 
# 
# From -- ./inp_files/1877.got.cif
#   From: 2010.03.12/outbox.cif.g09.slc.cpg/sg47_1_cif.got.tgz:1877.got - 2010.04.14 03:12:58.
