data_PCOD8200210
_publ_section_title
;
Structure prediction by ZEFSAII (Michael W. Deem and Ramdas Pophale) SiO2 
 PCOD8200210
Probable space group: P M M M
;
_chemical_formula_sum "Si O2"
_cell_formula_units_Z 56
_cell_length_a 19.187772
_cell_length_b 8.896401
_cell_length_c 19.098498
_cell_angle_alpha 90.000000
_cell_angle_beta 90.000000
_cell_angle_gamma 90.000000
_cell_volume 3260.153983
_symmetry_space_group_name_H-M "P M M M"
_symmetry_group_IT_number 47
_symmetry_cell_setting 'orthorhombic'
loop_
_space_group_symop_operation_xyz
x,y,z
-x,-y,z
x,-y,-z
-x,y,-z
-x,-y,-z
x,y,-z
-x,y,z
x,-y,z
loop_
_atom_site_type_symbol
_atom_site_label
_atom_site_fract_x
_atom_site_fract_y
_atom_site_fract_z
Si Si1 0.292215 0.677879 0.787431
Si Si2 0.078187 0.324821 0.305171
Si Si3 0.670342 0.675836 0.420880
Si Si4 0.215101 0.321274 0.922841
Si Si5 0.787260 0.822788 0.661310
Si Si6 0.075683 0.678535 0.854599
Si Si7 0.423366 0.677391 0.705356
O O1 0.282277 0.500000 0.778154
O O2 0.273745 0.729553 0.866569
O O3 0.238998 0.755261 0.734599
O O4 0.371618 0.726346 0.768613
O O5 0.096392 0.500000 0.311424
O O6 0.133186 0.230215 0.351053
O O7 0.084714 0.268958 0.225191
O O8 0.000000 0.293223 0.333126
O O9 0.647251 0.712706 0.500000
O O10 0.685029 0.500000 0.409963
O O11 0.741168 0.763230 0.403142
O O12 0.608848 0.730469 0.368906
O O13 0.211496 0.500000 0.924777
O O14 0.139099 0.256268 0.901000
O O15 0.234650 0.258251 0.000000
O O16 0.782569 0.000000 0.663954
O O17 0.077219 0.500000 0.856597
O O18 0.000000 0.734952 0.883249
O O19 0.500000 0.751560 0.715716
O O20 0.431568 0.500000 0.704971
#
# Coordination Sequence:
#
# PCOD8200210 Si02
#       7
#     8   8   8   8   8   8   8
#     4   9  16  29  46  63  89 120 156 196 231 277
#     4   9  16  28  47  67  88 118 157 199 238 274
#     4   9  18  32  50  71  95 123 151 180 219 271
#     4   9  15  22  37  61  87 117 154 198 240 273
#     4  11  20  29  46  69  94 123 155 191 229 271
#     4   8  13  21  35  57  84 112 144 186 232 273
#     4   8  14  25  45  72  95 118 150 187 224 263
#
# _framework density 17.177102999999999
#
# number of rings (size 3 to 8) (size 9 to 14) (size 15 to 20)
#    0.000    3.000    1.429    3.000    0.000    1.143 
#    0.000    2.857    0.000    8.143    0.000   10.000 
#    0.000    2.286    0.000    5.143    0.000    5.714 
#
# Total GULP energy -693946.466140 kJ/mol
# GULP energy per Si atom -12391.901181 kJ/mol
# Density = 1.713801 g / cm^3
# Si number density = 17.177103 Si / 1000 Ang^3
#
#
#
# Elastic Constant Matrix: (Units=GPa)
#
#
# Indices 1 2 3 4 5 6 
#
# 1 153.1168 25.4770 68.6892 0.0000 0.0000 0.0000
# 2 25.4770 36.7909 12.6744 0.0000 0.0000 0.0000
# 3 68.6892 12.6744 94.4267 0.0000 0.0000 0.0000
# 4 0.0000 0.0000 0.0000 5.4091 0.0000 0.0000
# 5 0.0000 0.0000 0.0000 0.0000 20.6033 0.0000
# 6 0.0000 0.0000 0.0000 0.0000 0.0000 4.9011
#
#
#
# Elastic Compliance Matrix: (Units=1/GPa)
#
#
# Indices 1 2 3 4 5 6 
#
# 1 0.010458 -0.004845 -0.006957 0.000000 0.000000 0.000000
# 2 -0.004845 0.030743 -0.000602 0.000000 0.000000 0.000000
# 3 -0.006957 -0.000602 0.015732 0.000000 0.000000 0.000000
# 4 0.000000 0.000000 0.000000 0.184872 0.000000 0.000000
# 5 0.000000 0.000000 0.000000 0.000000 0.048536 0.000000
# 6 0.000000 0.000000 0.000000 0.000000 0.000000 0.204037
#
#
# Mechanical properties :
#
#
# Convention : Reuss Voigt Hill
#
# Bulk Modulus (GPa) = 31.12889 55.33504 43.23197
# Shear Modulus (GPa) = 9.43581 18.01563 13.72572
#
# Velocity S-wave (km/s) = 2.34631 3.24206 2.82985
# Velocity P-wave (km/s) = 5.04994 6.80433 5.99170
#
# Compressibility (1/GPa) = 0.03212450
#
# Stress axis : x y z
#
# Youngs Moduli (GPa) = 95.61792 32.52748 63.56464
#
# Poissons Ratio (x) = 0.15761 0.44224
# Poissons Ratio (y) = 0.46330 0.03825
# Poissons Ratio (z) = 0.66525 0.01958
#
# Static dielectric constant tensor:
#      x y z
#    x 3.586700 0.000000 0.000000 
#    y 0.000000 2.696570 0.000000 
#    z 0.000000 0.000000 3.231650 
# 
# 
# High freq. dielectric constant tensor:
#      x y z
#    x 1.666820 0.000000 0.000000 
#    y 0.000000 1.610450 0.000000 
#    z 0.000000 0.000000 1.639920 
# 
# From -- ./inp_files/9841.got.cif
#   From: 2010.03.12/outbox.cif.g09.slc.cpg/sg47_5_cif.got.tgz:9841.got - 2010.04.14 03:12:58.
