data_PCOD8200173
_publ_section_title
;
Structure prediction by ZEFSAII (Michael W. Deem and Ramdas Pophale) SiO2 
 PCOD8200173
Probable space group: P M M M
;
_chemical_formula_sum "Si O2"
_cell_formula_units_Z 44
_cell_length_a 8.799823
_cell_length_b 14.801511
_cell_length_c 17.112387
_cell_angle_alpha 90.000000
_cell_angle_beta 90.000000
_cell_angle_gamma 90.000000
_cell_volume 2228.899991
_symmetry_space_group_name_H-M "P M M M"
_symmetry_group_IT_number 47
_symmetry_cell_setting 'orthorhombic'
loop_
_space_group_symop_operation_xyz
x,y,z
-x,-y,z
x,-y,-z
-x,y,-z
-x,-y,-z
x,y,-z
-x,y,z
x,-y,z
loop_
_atom_site_type_symbol
_atom_site_label
_atom_site_fract_x
_atom_site_fract_y
_atom_site_fract_z
Si Si1 0.325362 0.661263 0.310636
Si Si2 0.671791 0.706858 0.861681
Si Si3 0.678537 0.900765 0.500000
Si Si4 0.675989 0.900891 0.803392
Si Si5 0.824728 0.158118 0.345412
Si Si6 0.180572 0.500000 0.406895
Si Si7 0.821672 0.601697 0.000000
O O1 0.500000 0.682592 0.335876
O O2 0.321838 0.645769 0.217065
O O3 0.205846 0.740730 0.319866
O O4 0.260599 0.583105 0.364672
O O5 0.500000 0.710162 0.893576
O O6 0.729996 0.812135 0.851841
O O7 0.775409 0.657143 0.923791
O O8 0.500000 0.904569 0.500000
O O9 0.732998 0.849565 0.575558
O O10 0.751268 0.000000 0.500000
O O11 0.500000 0.885279 0.782672
O O12 0.765178 0.908713 0.721727
O O13 0.699658 0.000000 0.845635
O O14 0.000000 0.138871 0.360745
O O15 0.214950 0.500000 0.500000
O O16 0.000000 0.500000 0.391921
O O17 0.750424 0.500000 0.000000
O O18 0.000000 0.593108 0.000000
#
# Coordination Sequence:
#
# PCOD8200173 Si02
#       7
#     8   8   4   8   8   4   4
#     4  10  22  41  63  86 114 154 202 245 292 353
#     4   9  20  39  63  91 119 154 199 244 291 349
#     4  11  23  37  53  74 105 148 195 243 293 347
#     4   9  18  36  61  87 117 154 196 239 287 351
#     4  11  22  35  54  81 114 149 190 242 299 351
#     4  11  25  41  59  86 121 156 197 249 305 356
#     4  11  25  41  60  89 122 158 195 241 304 363
#
# _framework density 19.740679
#
# number of rings (size 3 to 8) (size 9 to 14) (size 15 to 20)
#    0.000    1.909    0.000    4.636    2.545    8.364 
#    0.000    0.455    0.000    2.727    0.000    0.000 
#    0.000    0.000    0.000    0.000    0.000    0.000 
#
# Total GULP energy -545219.018218 kJ/mol
# GULP energy per Si atom -12391.341323 kJ/mol
# Density = 1.969575 g / cm^3
# Si number density = 19.740679 Si / 1000 Ang^3
#
#
#
# Elastic Constant Matrix: (Units=GPa)
#
#
# Indices 1 2 3 4 5 6 
#
# 1 77.6245 32.2757 35.3543 0.0000 0.0000 0.0000
# 2 32.2757 121.7194 52.3448 0.0000 0.0000 0.0000
# 3 35.3543 52.3448 102.7454 0.0000 0.0000 0.0000
# 4 0.0000 0.0000 0.0000 -2.0886 0.0000 0.0000
# 5 0.0000 0.0000 0.0000 0.0000 -31.1968 0.0000
# 6 0.0000 0.0000 0.0000 0.0000 0.0000 19.4792
#
#
#
# Elastic Compliance Matrix: (Units=1/GPa)
#
#
# Indices 1 2 3 4 5 6 
#
# 1 0.015793 -0.002370 -0.004227 0.000000 0.000000 0.000000
# 2 -0.002370 0.010876 -0.004726 0.000000 0.000000 0.000000
# 3 -0.004227 -0.004726 0.013595 0.000000 0.000000 0.000000
# 4 0.000000 0.000000 0.000000 -0.478792 0.000000 0.000000
# 5 0.000000 0.000000 0.000000 0.000000 -0.032055 0.000000
# 6 0.000000 0.000000 0.000000 0.000000 0.000000 0.051337
#
#
# Mechanical properties :
#
#
# Convention : Reuss Voigt Hill
#
# Bulk Modulus (GPa) = 56.75628 60.22656 58.49142
# Shear Modulus (GPa) = -12.79665 9.37971 -1.70847
#
# Velocity S-wave (km/s) = -2.54881 2.18215 -0.93131
# Velocity P-wave (km/s) = 4.48903 6.07652 5.34208
#
# Compressibility (1/GPa) = 0.01761920
#
# Stress axis : x y z
#
# Youngs Moduli (GPa) = 63.31866 91.94347 73.55788
#
# Poissons Ratio (x) = 0.21791 0.31092
# Poissons Ratio (y) = 0.15007 0.34760
# Poissons Ratio (z) = 0.26764 0.43448
#
# Static dielectric constant tensor:
#      x y z
#    x 3.567470 0.000000 0.000000 
#    y 0.000000 5.336660 0.000000 
#    z 0.000000 0.000000 3.548210 
# 
# 
# High freq. dielectric constant tensor:
#      x y z
#    x 1.769840 0.000000 0.000000 
#    y 0.000000 1.779720 0.000000 
#    z 0.000000 0.000000 1.756740 
# 
# From -- ./inp_files/26445.got.cif
#   From: 2010.03.12/outbox.cif.g09.slc.cpg/sg47_14_cif.got.tgz:26445.got - 2010.04.14 03:12:58.
