data_PCOD8200015
_publ_section_title
;
Structure prediction by ZEFSAII (Michael W. Deem and Ramdas Pophale) SiO2 
 PCOD8200015
Probable space group: P M M M
;
_chemical_formula_sum "Si O2"
_cell_formula_units_Z 36
_cell_length_a 9.257119
_cell_length_b 13.172754
_cell_length_c 13.743489
_cell_angle_alpha 90.000000
_cell_angle_beta 90.000000
_cell_angle_gamma 90.000000
_cell_volume 1675.905118
_symmetry_space_group_name_H-M "P M M M"
_symmetry_group_IT_number 47
_symmetry_cell_setting 'orthorhombic'
loop_
_space_group_symop_operation_xyz
x,y,z
-x,-y,z
x,-y,-z
-x,y,-z
-x,-y,-z
x,y,-z
-x,y,z
x,-y,z
loop_
_atom_site_type_symbol
_atom_site_label
_atom_site_fract_x
_atom_site_fract_y
_atom_site_fract_z
Si Si1 0.166335 0.386997 0.695272
Si Si2 0.165019 0.700947 0.107813
Si Si3 0.335992 0.197915 0.614937
Si Si4 0.337226 0.109487 0.115573
Si Si5 0.166254 0.000000 0.616436
O O1 0.208952 0.500000 0.659293
O O2 0.186401 0.387532 0.813206
O O3 0.266056 0.305003 0.643752
O O4 0.000000 0.362819 0.668744
O O5 0.243302 0.798283 0.156367
O O6 0.000000 0.732246 0.096266
O O7 0.225599 0.669631 0.000000
O O8 0.335015 0.191188 0.500000
O O9 0.500000 0.193117 0.654737
O O10 0.247525 0.101037 0.657378
O O11 0.500000 0.124417 0.152258
O O12 0.277328 0.000000 0.152038
O O13 0.330357 0.112627 0.000000
O O14 0.171658 0.000000 0.500000
O O15 0.000000 0.000000 0.652532
#
# Coordination Sequence:
#
# PCOD8200015 Si02
#       5
#     8   8   8   8   4
#     4  10  22  39  57  80 112 151 197 244 289 342
#     4   9  18  33  53  77 105 140 185 237 288 334
#     4  10  21  38  61  89 120 152 187 230 283 341
#     4   8  14  26  45  69  98 133 172 215 267 329
#     4   9  17  33  61  93 122 151 184 225 275 336
#
# _framework density 21.480930000000001
#
# number of rings (size 3 to 8) (size 9 to 14) (size 15 to 20)
#    0.000    2.778    0.000    1.667    0.000    5.333 
#    2.000    6.667    0.000    0.000    0.000    4.667 
#    0.000    0.000    0.000    0.000    0.000    0.000 
#
# Total GULP energy -446164.542438 kJ/mol
# GULP energy per Si atom -12393.459512 kJ/mol
# Density = 2.143204 g / cm^3
# Si number density = 21.480930 Si / 1000 Ang^3
#
#
#
# Elastic Constant Matrix: (Units=GPa)
#
#
# Indices 1 2 3 4 5 6 
#
# 1 120.9915 77.9040 9.0033 0.0000 0.0000 0.0000
# 2 77.9040 148.1470 20.7738 0.0000 0.0000 0.0000
# 3 9.0033 20.7738 14.0393 0.0000 0.0000 0.0000
# 4 0.0000 0.0000 0.0000 28.5346 0.0000 0.0000
# 5 0.0000 0.0000 0.0000 0.0000 9.7472 0.0000
# 6 0.0000 0.0000 0.0000 0.0000 0.0000 -14.3608
#
#
#
# Elastic Compliance Matrix: (Units=1/GPa)
#
#
# Indices 1 2 3 4 5 6 
#
# 1 0.012548 -0.006902 0.002166 0.000000 0.000000 0.000000
# 2 -0.006902 0.012314 -0.013795 0.000000 0.000000 0.000000
# 3 0.002166 -0.013795 0.090251 0.000000 0.000000 0.000000
# 4 0.000000 0.000000 0.000000 0.035045 0.000000 0.000000
# 5 0.000000 0.000000 0.000000 0.000000 0.102593 0.000000
# 6 0.000000 0.000000 0.000000 0.000000 0.000000 -0.069634
#
#
# Mechanical properties :
#
#
# Convention : Reuss Voigt Hill
#
# Bulk Modulus (GPa) = 12.81194 55.39333 34.10264
# Shear Modulus (GPa) = 20.30903 16.48399 18.39651
#
# Velocity S-wave (km/s) = 3.07814 2.77316 2.92963
# Velocity P-wave (km/s) = 4.31400 6.00809 5.23009
#
# Compressibility (1/GPa) = 0.07805216
#
# Stress axis : x y z
#
# Youngs Moduli (GPa) = 79.69364 81.20863 11.08018
#
# Poissons Ratio (x) = 0.56052 -0.02400
# Poissons Ratio (y) = 0.55006 0.15285
# Poissons Ratio (z) = -0.17263 1.12024
#
# Static dielectric constant tensor:
#      x y z
#    x 3.932310 0.000000 0.000000 
#    y 0.000000 4.185850 0.000000 
#    z 0.000000 0.000000 3.800640 
# 
# 
# High freq. dielectric constant tensor:
#      x y z
#    x 1.830170 0.000000 0.000000 
#    y 0.000000 1.838040 0.000000 
#    z 0.000000 0.000000 1.846860 
# 
# From -- ./inp_files/20550.got.cif
#   From: 2010.03.12/outbox.cif.g09.slc.cpg/sg47_11_cif.got.tgz:20550.got - 2010.04.14 03:12:58.
