data_PCOD8200353
_publ_section_title
;
Structure prediction by ZEFSAII (Michael W. Deem and Ramdas Pophale) SiO2 
 PCOD8200353
Probable space group: P M M M
;
_chemical_formula_sum "Si O2"
_cell_formula_units_Z 52
_cell_length_a 27.603611
_cell_length_b 8.883764
_cell_length_c 11.719962
_cell_angle_alpha 90.000000
_cell_angle_beta 90.000000
_cell_angle_gamma 90.000000
_cell_volume 2874.015559
_symmetry_space_group_name_H-M "P M M M"
_symmetry_group_IT_number 47
_symmetry_cell_setting 'orthorhombic'
loop_
_space_group_symop_operation_xyz
x,y,z
-x,-y,z
x,-y,-z
-x,y,-z
-x,-y,-z
x,y,-z
-x,y,z
x,-y,z
loop_
_atom_site_type_symbol
_atom_site_label
_atom_site_fract_x
_atom_site_fract_y
_atom_site_fract_z
Si Si1 0.000000 0.330156 0.635537
Si Si2 0.198456 0.822527 0.280099
Si Si3 0.240328 0.331338 0.500000
Si Si4 0.362533 0.176647 0.265112
Si Si5 0.726167 0.323250 0.132173
Si Si6 0.645659 0.668526 0.500000
Si Si7 0.554885 0.670441 0.865960
Si Si8 0.096305 0.175992 0.629845
O O1 0.048643 0.252921 0.683136
O O2 0.000000 0.500000 0.678422
O O3 0.000000 0.314598 0.500000
O O4 0.225271 0.761489 0.390422
O O5 0.221820 0.745241 0.168813
O O6 0.141555 0.781556 0.289505
O O7 0.206299 0.000000 0.273501
O O8 0.217610 0.500000 0.500000
O O9 0.297238 0.343169 0.500000
O O10 0.316141 0.252011 0.206869
O O11 0.372495 0.242100 0.389840
O O12 0.410415 0.209276 0.192568
O O13 0.352964 0.000000 0.272148
O O14 0.726932 0.500000 0.155902
O O15 0.717141 0.286009 0.000000
O O16 0.623285 0.500000 0.500000
O O17 0.500000 0.699325 0.824718
O O18 0.570941 0.500000 0.834563
O O19 0.558848 0.694651 0.000000
O O20 0.107029 0.231785 0.500000
O O21 0.086595 0.000000 0.628724
#
# Coordination Sequence:
#
# PCOD8200353 Si02
#       8
#     4   8   4   8   8   4   8   8
#     4   9  17  27  41  67  98 133 176 217 255 303
#     4  11  21  34  54  79 107 139 180 223 268 319
#     4  11  21  33  53  77 106 144 182 218 263 317
#     4  12  24  37  58  86 115 144 179 225 273 318
#     4  11  24  40  56  77 108 145 183 221 265 319
#     4  11  23  39  58  80 109 149 188 219 264 323
#     4   9  19  38  63  87 112 146 186 225 268 321
#     4   9  17  30  46  68 101 139 172 209 263 319
#
# _framework density 18.093153000000001
#
# number of rings (size 3 to 8) (size 9 to 14) (size 15 to 20)
#    0.000    1.615    2.308    3.923    0.000    6.462 
#    0.000    1.154    0.000    2.308    0.000    0.538 
#    0.000    4.308    0.000    0.000    0.000    0.000 
#
# Total GULP energy -644881.907726 kJ/mol
# GULP energy per Si atom -12401.575149 kJ/mol
# Density = 1.805197 g / cm^3
# Si number density = 18.093153 Si / 1000 Ang^3
#
#
#
# Elastic Constant Matrix: (Units=GPa)
#
#
# Indices 1 2 3 4 5 6 
#
# 1 105.7249 46.0886 35.4034 0.0000 0.0000 0.0000
# 2 46.0886 100.9636 42.3433 0.0000 0.0000 0.0000
# 3 35.4034 42.3433 70.6811 0.0000 0.0000 0.0000
# 4 0.0000 0.0000 0.0000 25.0066 0.0000 0.0000
# 5 0.0000 0.0000 0.0000 0.0000 23.5794 0.0000
# 6 0.0000 0.0000 0.0000 0.0000 0.0000 31.1187
#
#
#
# Elastic Compliance Matrix: (Units=1/GPa)
#
#
# Indices 1 2 3 4 5 6 
#
# 1 0.012531 -0.004124 -0.003806 0.000000 0.000000 0.000000
# 2 -0.004124 0.014585 -0.006672 0.000000 0.000000 0.000000
# 3 -0.003806 -0.006672 0.020051 0.000000 0.000000 0.000000
# 4 0.000000 0.000000 0.000000 0.039989 0.000000 0.000000
# 5 0.000000 0.000000 0.000000 0.000000 0.042410 0.000000
# 6 0.000000 0.000000 0.000000 0.000000 0.000000 0.032135
#
#
# Mechanical properties :
#
#
# Convention : Reuss Voigt Hill
#
# Bulk Modulus (GPa) = 55.66814 58.33782 57.00298
# Shear Modulus (GPa) = 25.39442 26.17655 25.78549
#
# Velocity S-wave (km/s) = 3.75045 3.80776 3.77921
# Velocity P-wave (km/s) = 7.04193 7.18645 7.11456
#
# Compressibility (1/GPa) = 0.01796360
#
# Stress axis : x y z
#
# Youngs Moduli (GPa) = 79.80381 68.56224 49.87163
#
# Poissons Ratio (x) = 0.28275 0.18981
# Poissons Ratio (y) = 0.32911 0.33275
# Poissons Ratio (z) = 0.30373 0.45745
#
# Static dielectric constant tensor:
#      x y z
#    x 3.479650 0.000000 0.000000 
#    y 0.000000 3.466440 0.000000 
#    z 0.000000 0.000000 3.172780 
# 
# 
# High freq. dielectric constant tensor:
#      x y z
#    x 1.704330 0.000000 0.000000 
#    y 0.000000 1.711280 0.000000 
#    z 0.000000 0.000000 1.672960 
# 
# From -- ./inp_files/19920.got.cif
#   From: 2010.03.12/outbox.cif.g09.slc.cpg/sg47_10_cif.got.tgz:19920.got - 2010.04.14 03:12:58.
