data_PCOD8200896
_publ_section_title
;
Structure prediction by ZEFSAII (Michael W. Deem and Ramdas Pophale) SiO2 
 PCOD8200896
Probable space group: P M M M
;
_chemical_formula_sum "Si O2"
_cell_formula_units_Z 52
_cell_length_a 10.376039
_cell_length_b 30.373421
_cell_length_c 9.557589
_cell_angle_alpha 90.000000
_cell_angle_beta 90.000000
_cell_angle_gamma 90.000000
_cell_volume 3012.129616
_symmetry_space_group_name_H-M "P M M M"
_symmetry_group_IT_number 47
_symmetry_cell_setting 'orthorhombic'
loop_
_space_group_symop_operation_xyz
x,y,z
-x,-y,z
x,-y,-z
-x,y,-z
-x,-y,-z
x,y,-z
-x,y,z
x,-y,z
loop_
_atom_site_type_symbol
_atom_site_label
_atom_site_fract_x
_atom_site_fract_y
_atom_site_fract_z
Si Si1 0.652372 0.786050 0.154681
Si Si2 0.355453 0.116652 0.166687
Si Si3 0.262181 0.450326 0.660498
Si Si4 0.500000 0.448111 0.154992
Si Si5 0.861209 0.362171 0.663061
Si Si6 0.856108 0.049507 0.833578
Si Si7 0.352220 0.295774 0.334625
O O1 0.500000 0.785425 0.142099
O O2 0.692669 0.834441 0.210665
O O3 0.698674 0.748983 0.263093
O O4 0.711728 0.776920 0.000000
O O5 0.500000 0.106620 0.224935
O O6 0.252659 0.081947 0.230028
O O7 0.359519 0.113969 0.000000
O O8 0.310629 0.448731 0.500000
O O9 0.214720 0.500000 0.697675
O O10 0.376107 0.433330 0.758893
O O11 0.150595 0.414833 0.687517
O O12 0.500000 0.500000 0.141205
O O13 0.500000 0.426509 0.000000
O O14 0.863958 0.351924 0.500000
O O15 0.740751 0.334562 0.724298
O O16 0.000000 0.348226 0.729073
O O17 0.000000 0.063515 0.783145
O O18 0.825529 0.000000 0.781875
O O19 0.851265 0.051277 0.000000
O O20 0.341786 0.289317 0.500000
O O21 0.500000 0.307112 0.291923
#
# Coordination Sequence:
#
# PCOD8200896 Si02
#       7
#     8   8   8   4   8   8   8
#     4   8  14  26  43  62  85 110 137 174 218 257
#     4   8  13  21  34  51  71  99 133 166 202 245
#     4   9  17  29  48  71  92 116 148 183 216 254
#     4   9  17  29  45  67  95 121 145 177 217 255
#     4   9  18  31  47  68  94 120 144 177 221 262
#     4   8  13  20  29  44  71 105 135 163 198 242
#     4   9  17  29  47  67  85 111 147 180 211 256
#
# _framework density 17.263532999999999
#
# number of rings (size 3 to 8) (size 9 to 14) (size 15 to 20)
#    0.000    3.462    0.000    1.615    1.077    1.538 
#    0.000    4.615    0.000    2.769    0.000    2.154 
#    0.000    0.615    0.000    7.692    0.000    8.923 
#
# Total GULP energy -644184.427958 kJ/mol
# GULP energy per Si atom -12388.162076 kJ/mol
# Density = 1.722424 g / cm^3
# Si number density = 17.263533 Si / 1000 Ang^3
#
#
#
# Elastic Constant Matrix: (Units=GPa)
#
#
# Indices 1 2 3 4 5 6 
#
# 1 112.9747 75.7560 20.2516 0.0000 0.0000 0.0000
# 2 75.7560 131.7285 20.8071 0.0000 0.0000 0.0000
# 3 20.2516 20.8071 28.7591 0.0000 0.0000 0.0000
# 4 0.0000 0.0000 0.0000 15.4829 0.0000 0.0000
# 5 0.0000 0.0000 0.0000 0.0000 2.2854 0.0000
# 6 0.0000 0.0000 0.0000 0.0000 0.0000 16.8160
#
#
#
# Elastic Compliance Matrix: (Units=1/GPa)
#
#
# Indices 1 2 3 4 5 6 
#
# 1 0.014990 -0.007850 -0.004876 0.000000 0.000000 0.000000
# 2 -0.007850 0.012682 -0.003647 0.000000 0.000000 0.000000
# 3 -0.004876 -0.003647 0.040844 0.000000 0.000000 0.000000
# 4 0.000000 0.000000 0.000000 0.064588 0.000000 0.000000
# 5 0.000000 0.000000 0.000000 0.000000 0.437559 0.000000
# 6 0.000000 0.000000 0.000000 0.000000 0.000000 0.059467
#
#
# Mechanical properties :
#
#
# Convention : Reuss Voigt Hill
#
# Bulk Modulus (GPa) = 27.95743 56.34353 42.15048
# Shear Modulus (GPa) = 7.40961 17.36003 12.38482
#
# Velocity S-wave (km/s) = 2.07398 3.17454 2.68133
# Velocity P-wave (km/s) = 4.68666 6.79302 5.83566
#
# Compressibility (1/GPa) = 0.03576866
#
# Stress axis : x y z
#
# Youngs Moduli (GPa) = 66.71289 78.85116 24.48346
#
# Poissons Ratio (x) = 0.61900 0.11938
# Poissons Ratio (y) = 0.52371 0.08930
# Poissons Ratio (z) = 0.32528 0.28761
#
# Static dielectric constant tensor:
#      x y z
#    x 3.349460 0.000000 0.000000 
#    y 0.000000 3.473070 0.000000 
#    z 0.000000 0.000000 2.936440 
# 
# 
# High freq. dielectric constant tensor:
#      x y z
#    x 1.651330 0.000000 0.000000 
#    y 0.000000 1.669090 0.000000 
#    z 0.000000 0.000000 1.609420 
# 
# From -- ./inp_files/4756.got.cif
#   From: 2010.03.12/outbox.cif.g09.slc.cpg/sg47_3_cif.got.tgz:4756.got - 2010.04.14 03:12:58.
