data_PCOD8200653
_publ_section_title
;
Structure prediction by ZEFSAII (Michael W. Deem and Ramdas Pophale) SiO2 
 PCOD8200653
Probable space group: P M M M
;
_chemical_formula_sum "Si O2"
_cell_formula_units_Z 24
_cell_length_a 17.068206
_cell_length_b 7.453352
_cell_length_c 9.430022
_cell_angle_alpha 90.000000
_cell_angle_beta 90.000000
_cell_angle_gamma 90.000000
_cell_volume 1199.643524
_symmetry_space_group_name_H-M "P M M M"
_symmetry_group_IT_number 47
_symmetry_cell_setting 'orthorhombic'
loop_
_space_group_symop_operation_xyz
x,y,z
-x,-y,z
x,-y,-z
-x,y,-z
-x,-y,-z
x,y,-z
-x,y,z
x,-y,z
loop_
_atom_site_type_symbol
_atom_site_label
_atom_site_fract_x
_atom_site_fract_y
_atom_site_fract_z
Si Si1 0.000000 0.214261 0.658661
Si Si2 0.682039 0.791947 0.165768
Si Si3 0.857764 0.212775 0.843226
Si Si4 0.592559 0.500000 0.663081
O O1 0.922398 0.290428 0.735701
O O2 0.000000 0.290300 0.500000
O O3 0.000000 0.000000 0.660019
O O4 0.770580 0.731116 0.204991
O O5 0.623289 0.678221 0.260505
O O6 0.668517 0.000000 0.202294
O O7 0.666023 0.755887 0.000000
O O8 0.862556 0.000000 0.849127
O O9 0.875394 0.289864 0.000000
O O10 0.500000 0.500000 0.675387
O O11 0.620162 0.500000 0.500000
#
# Coordination Sequence:
#
# PCOD8200653 Si02
#       4
#     4   8   8   4
#     4   9  15  21  35  66 105 142 180 217 255 308
#     4   9  19  37  61  86 110 142 187 234 277 323
#     4   8  14  26  45  70 101 137 177 221 268 314
#     4  11  25  41  57  82 115 148 179 217 276 345
#
# _framework density 20.005942000000001
#
# number of rings (size 3 to 8) (size 9 to 14) (size 15 to 20)
#    0.000    3.000    0.000    3.000    0.000    6.000 
#    0.000    6.667    0.000    1.000    0.000    7.000 
#    0.000    0.000    0.000    0.000    0.000    0.000 
#
# Total GULP energy -297523.131414 kJ/mol
# GULP energy per Si atom -12396.797142 kJ/mol
# Density = 1.996041 g / cm^3
# Si number density = 20.005942 Si / 1000 Ang^3
#
#
#
# Elastic Constant Matrix: (Units=GPa)
#
#
# Indices 1 2 3 4 5 6 
#
# 1 122.4795 41.8527 86.9870 0.0000 0.0000 0.0000
# 2 41.8527 74.3503 49.6762 0.0000 0.0000 0.0000
# 3 86.9870 49.6762 143.2793 0.0000 0.0000 0.0000
# 4 0.0000 0.0000 0.0000 15.4917 0.0000 0.0000
# 5 0.0000 0.0000 0.0000 0.0000 30.6049 0.0000
# 6 0.0000 0.0000 0.0000 0.0000 0.0000 -267.6677
#
#
#
# Elastic Compliance Matrix: (Units=1/GPa)
#
#
# Indices 1 2 3 4 5 6 
#
# 1 0.014864 -0.003043 -0.007969 0.000000 0.000000 0.000000
# 2 -0.003043 0.018128 -0.004438 0.000000 0.000000 0.000000
# 3 -0.007969 -0.004438 0.013356 0.000000 0.000000 0.000000
# 4 0.000000 0.000000 0.000000 0.064551 0.000000 0.000000
# 5 0.000000 0.000000 0.000000 0.000000 0.032675 0.000000
# 6 0.000000 0.000000 0.000000 0.000000 0.000000 -0.003736
#
#
# Mechanical properties :
#
#
# Convention : Reuss Voigt Hill
#
# Bulk Modulus (GPa) = 64.73075 77.46008 71.09542
# Shear Modulus (GPa) = 28.42735 -33.54133 -2.55699
#
# Velocity S-wave (km/s) = 3.77363 -4.09903 -1.13176
# Velocity P-wave (km/s) = 7.17029 4.04967 5.82292
#
# Compressibility (1/GPa) = 0.01544861
#
# Stress axis : x y z
#
# Youngs Moduli (GPa) = 67.27487 55.16442 74.87063
#
# Poissons Ratio (x) = 0.16785 0.59668
# Poissons Ratio (y) = 0.20469 0.33226
# Poissons Ratio (z) = 0.53615 0.24481
#
# Static dielectric constant tensor:
#      x y z
#    x 3.739740 0.000000 0.000000 
#    y 0.000000 3.266140 0.000000 
#    z 0.000000 0.000000 3.779080 
# 
# 
# High freq. dielectric constant tensor:
#      x y z
#    x 1.781110 0.000000 0.000000 
#    y 0.000000 1.764360 0.000000 
#    z 0.000000 0.000000 1.773570 
# 
# From -- ./inp_files/8364.got.cif
#   From: 2010.03.12/outbox.cif.g09.slc.cpg/sg47_5_cif.got.tgz:8364.got - 2010.04.14 03:12:58.
