data_PCOD8200625
_publ_section_title
;
Structure prediction by ZEFSAII (Michael W. Deem and Ramdas Pophale) SiO2 
 PCOD8200625
Probable space group: P M M M
;
_chemical_formula_sum "Si O2"
_cell_formula_units_Z 44
_cell_length_a 8.113121
_cell_length_b 9.341744
_cell_length_c 29.735596
_cell_angle_alpha 90.000000
_cell_angle_beta 90.000000
_cell_angle_gamma 90.000000
_cell_volume 2253.681619
_symmetry_space_group_name_H-M "P M M M"
_symmetry_group_IT_number 47
_symmetry_cell_setting 'orthorhombic'
loop_
_space_group_symop_operation_xyz
x,y,z
-x,-y,z
x,-y,-z
-x,y,-z
-x,-y,-z
x,y,-z
-x,y,z
x,-y,z
loop_
_atom_site_type_symbol
_atom_site_label
_atom_site_fract_x
_atom_site_fract_y
_atom_site_fract_z
Si Si1 0.310703 0.840682 0.786576
Si Si2 0.186369 0.329839 0.393471
Si Si3 0.500000 0.329444 0.551103
Si Si4 0.188999 0.337799 0.132038
Si Si5 0.692578 0.836614 0.051286
Si Si6 0.808737 0.655714 0.294220
O O1 0.500000 0.850438 0.774292
O O2 0.291783 0.751597 0.832101
O O3 0.224206 0.768455 0.744518
O O4 0.236641 0.000000 0.793674
O O5 0.178586 0.500000 0.396490
O O6 0.330298 0.269850 0.426279
O O7 0.245038 0.284681 0.343126
O O8 0.000000 0.270525 0.405104
O O9 0.500000 0.500000 0.554271
O O10 0.500000 0.275222 0.500000
O O11 0.256068 0.500000 0.130712
O O12 0.205905 0.269302 0.082834
O O13 0.000000 0.335260 0.147112
O O14 0.500000 0.814627 0.060217
O O15 0.742602 0.000000 0.061930
O O16 0.737333 0.798610 0.000000
O O17 0.724316 0.500000 0.283841
O O18 0.000000 0.627920 0.297090
#
# Coordination Sequence:
#
# PCOD8200625 Si02
#       6
#     8   8   4   8   8   8
#     4  11  24  38  53  77 106 135 171 215 263 317
#     4   8  15  27  42  64  96 132 172 219 265 314
#     4   9  16  24  38  64  97 137 181 217 260 319
#     4  11  24  39  55  78 108 140 176 217 259 309
#     4   9  19  37  60  84 109 138 174 216 261 310
#     4   9  18  33  53  76 101 133 175 217 260 315
#
# _framework density 19.523610999999999
#
# number of rings (size 3 to 8) (size 9 to 14) (size 15 to 20)
#    0.000    2.455    0.000    3.818    1.273    9.091 
#    0.000    4.545    0.000    0.000    0.000    0.000 
#    0.000    1.455    0.000    4.000    0.000    4.000 
#
# Total GULP energy -545396.011089 kJ/mol
# GULP energy per Si atom -12395.363888 kJ/mol
# Density = 1.947917 g / cm^3
# Si number density = 19.523611 Si / 1000 Ang^3
#
#
#
# Elastic Constant Matrix: (Units=GPa)
#
#
# Indices 1 2 3 4 5 6 
#
# 1 50.9433 14.4349 33.2585 0.0000 0.0000 0.0000
# 2 14.4349 91.9151 52.8275 0.0000 0.0000 0.0000
# 3 33.2585 52.8275 136.5767 0.0000 0.0000 0.0000
# 4 0.0000 0.0000 0.0000 -2.6584 0.0000 0.0000
# 5 0.0000 0.0000 0.0000 0.0000 35.0970 0.0000
# 6 0.0000 0.0000 0.0000 0.0000 0.0000 19.4695
#
#
#
# Elastic Compliance Matrix: (Units=1/GPa)
#
#
# Indices 1 2 3 4 5 6 
#
# 1 0.023359 -0.000513 -0.005490 0.000000 0.000000 0.000000
# 2 -0.000513 0.014001 -0.005291 0.000000 0.000000 0.000000
# 3 -0.005490 -0.005291 0.010705 0.000000 0.000000 0.000000
# 4 0.000000 0.000000 0.000000 -0.376165 0.000000 0.000000
# 5 0.000000 0.000000 0.000000 0.000000 0.028492 0.000000
# 6 0.000000 0.000000 0.000000 0.000000 0.000000 0.051362
#
#
# Mechanical properties :
#
#
# Convention : Reuss Voigt Hill
#
# Bulk Modulus (GPa) = 39.24949 53.38630 46.31790
# Shear Modulus (GPa) = -23.02399 22.30923 -0.35738
#
# Velocity S-wave (km/s) = -3.43780 3.38402 -0.42831
# Velocity P-wave (km/s) = 2.09505 6.53243 4.85087
#
# Compressibility (1/GPa) = 0.02547804
#
# Stress axis : x y z
#
# Youngs Moduli (GPa) = 42.80981 71.42396 93.41344
#
# Poissons Ratio (x) = 0.03666 0.51282
# Poissons Ratio (y) = 0.02197 0.49421
# Poissons Ratio (z) = 0.23502 0.37787
#
# Static dielectric constant tensor:
#      x y z
#    x 3.618820 0.000000 0.000000 
#    y 0.000000 3.756620 0.000000 
#    z 0.000000 0.000000 3.689740 
# 
# 
# High freq. dielectric constant tensor:
#      x y z
#    x 1.760110 0.000000 0.000000 
#    y 0.000000 1.724780 0.000000 
#    z 0.000000 0.000000 1.765150 
# 
# From -- ./inp_files/2183.got.cif
#   From: 2010.03.12/outbox.cif.g09.slc.cpg/sg47_2_cif.got.tgz:2183.got - 2010.04.14 03:12:58.
