data_PCOD8200031
_publ_section_title
;
Structure prediction by ZEFSAII (Michael W. Deem and Ramdas Pophale) SiO2 
 PCOD8200031
Probable space group: P M M M
;
_chemical_formula_sum "Si O2"
_cell_formula_units_Z 40
_cell_length_a 7.672782
_cell_length_b 27.723915
_cell_length_c 9.014351
_cell_angle_alpha 90.000000
_cell_angle_beta 90.000000
_cell_angle_gamma 90.000000
_cell_volume 1917.528742
_symmetry_space_group_name_H-M "P M M M"
_symmetry_group_IT_number 47
_symmetry_cell_setting 'orthorhombic'
loop_
_space_group_symop_operation_xyz
x,y,z
-x,-y,z
x,-y,-z
-x,y,-z
-x,-y,-z
x,y,-z
-x,y,z
x,-y,z
loop_
_atom_site_type_symbol
_atom_site_label
_atom_site_fract_x
_atom_site_fract_y
_atom_site_fract_z
Si Si1 0.293634 0.287606 0.666081
Si Si2 0.795796 0.000000 0.333490
Si Si3 0.297683 0.614903 0.175249
Si Si4 0.000000 0.556968 0.329276
Si Si5 0.708300 0.193942 0.833791
Si Si6 0.701567 0.898081 0.335034
O O1 0.216736 0.292412 0.500000
O O2 0.500000 0.284215 0.659877
O O3 0.236455 0.333362 0.763171
O O4 0.218271 0.239285 0.741256
O O5 0.730479 0.950423 0.256115
O O6 0.717337 0.000000 0.500000
O O7 0.000000 0.000000 0.332517
O O8 0.500000 0.604154 0.215630
O O9 0.175896 0.574962 0.249822
O O10 0.268983 0.614555 0.000000
O O11 0.000000 0.500000 0.316437
O O12 0.000000 0.574107 0.500000
O O13 0.500000 0.193990 0.835024
O O14 0.784756 0.144669 0.762480
O O15 0.781410 0.197681 0.000000
O O16 0.787706 0.898193 0.500000
O O17 0.500000 0.886798 0.349872
#
# Coordination Sequence:
#
# PCOD8200031 Si02
#       6
#     8   4   8   4   8   8
#     4   9  16  28  50  80 112 145 181 222 271 331
#     4   9  17  29  46  65  86 116 154 199 250 304
#     4  10  21  38  62  91 123 160 201 247 301 358
#     4  11  25  43  63  89 123 163 207 254 299 346
#     4   9  16  26  43  70 102 132 165 209 260 314
#     4   9  16  27  45  68  91 117 155 202 250 304
#
# _framework density 20.860181000000001
#
# number of rings (size 3 to 8) (size 9 to 14) (size 15 to 20)
#    0.000    2.600    0.000    2.400    0.000    8.400 
#    0.000    2.500    2.200    3.600    0.000    0.000 
#    0.000    0.000    0.000    0.000    0.000    0.000 
#
# Total GULP energy -495846.918247 kJ/mol
# GULP energy per Si atom -12396.172956 kJ/mol
# Density = 2.081270 g / cm^3
# Si number density = 20.860181 Si / 1000 Ang^3
#
#
#
# Elastic Constant Matrix: (Units=GPa)
#
#
# Indices 1 2 3 4 5 6 
#
# 1 52.1905 35.3370 33.0168 0.0000 0.0000 0.0000
# 2 35.3370 159.6202 77.1466 0.0000 0.0000 0.0000
# 3 33.0168 77.1466 146.3187 0.0000 0.0000 0.0000
# 4 0.0000 0.0000 0.0000 24.5082 0.0000 0.0000
# 5 0.0000 0.0000 0.0000 0.0000 13.9173 0.0000
# 6 0.0000 0.0000 0.0000 0.0000 0.0000 -11.4656
#
#
#
# Elastic Compliance Matrix: (Units=1/GPa)
#
#
# Indices 1 2 3 4 5 6 
#
# 1 0.023788 -0.003586 -0.003477 0.000000 0.000000 0.000000
# 2 -0.003586 0.008948 -0.003909 0.000000 0.000000 0.000000
# 3 -0.003477 -0.003909 0.009680 0.000000 0.000000 0.000000
# 4 0.000000 0.000000 0.000000 0.040803 0.000000 0.000000
# 5 0.000000 0.000000 0.000000 0.000000 0.071853 0.000000
# 6 0.000000 0.000000 0.000000 0.000000 0.000000 -0.087217
#
#
# Mechanical properties :
#
#
# Convention : Reuss Voigt Hill
#
# Bulk Modulus (GPa) = 48.84555 72.12558 60.48556
# Shear Modulus (GPa) = 51.74834 19.56725 35.65779
#
# Velocity S-wave (km/s) = 4.98609 3.06603 4.13894
# Velocity P-wave (km/s) = 7.52427 6.86912 7.20415
#
# Compressibility (1/GPa) = 0.02047270
#
# Stress axis : x y z
#
# Youngs Moduli (GPa) = 42.03784 111.76005 103.30742
#
# Poissons Ratio (x) = 0.40073 0.35923
# Poissons Ratio (y) = 0.15073 0.40379
# Poissons Ratio (z) = 0.14618 0.43683
#
# Static dielectric constant tensor:
#      x y z
#    x 3.360160 0.000000 0.000000 
#    y 0.000000 3.966360 0.000000 
#    z 0.000000 0.000000 3.891690 
# 
# 
# High freq. dielectric constant tensor:
#      x y z
#    x 1.787730 0.000000 0.000000 
#    y 0.000000 1.827630 0.000000 
#    z 0.000000 0.000000 1.805100 
# 
# From -- ./inp_files/1797.got.cif
#   From: 2010.03.12/outbox.cif.g09.slc.cpg/sg47_1_cif.got.tgz:1797.got - 2010.04.14 03:12:58.
