data_PCOD8200219
_publ_section_title
;
Structure prediction by ZEFSAII (Michael W. Deem and Ramdas Pophale) SiO2 
 PCOD8200219
Probable space group: P M M M
;
_chemical_formula_sum "Si O2"
_cell_formula_units_Z 52
_cell_length_a 14.302450
_cell_length_b 28.555018
_cell_length_c 9.273509
_cell_angle_alpha 90.000000
_cell_angle_beta 90.000000
_cell_angle_gamma 90.000000
_cell_volume 3787.363368
_symmetry_space_group_name_H-M "P M M M"
_symmetry_group_IT_number 47
_symmetry_cell_setting 'orthorhombic'
loop_
_space_group_symop_operation_xyz
x,y,z
-x,-y,z
x,-y,-z
-x,y,-z
-x,-y,-z
x,y,-z
-x,y,z
x,-y,z
loop_
_atom_site_type_symbol
_atom_site_label
_atom_site_fract_x
_atom_site_fract_y
_atom_site_fract_z
Si Si1 0.889001 0.225642 0.159452
Si Si2 0.797626 0.586651 0.328040
Si Si3 0.890699 0.669447 0.167379
Si Si4 0.888871 0.051515 0.161927
Si Si5 0.110881 0.500000 0.833273
Si Si6 0.111756 0.138869 0.661175
Si Si7 0.601331 0.552376 0.670558
O O1 0.860044 0.277729 0.209441
O O2 0.848284 0.185955 0.264922
O O3 0.000000 0.222785 0.154688
O O4 0.849113 0.215594 0.000000
O O5 0.811619 0.581796 0.500000
O O6 0.833751 0.636367 0.273782
O O7 0.853398 0.545771 0.248620
O O8 0.688216 0.584483 0.281715
O O9 0.000000 0.661613 0.195406
O O10 0.867444 0.658943 0.000000
O O11 0.847311 0.092593 0.261299
O O12 0.000000 0.054261 0.162486
O O13 0.857192 0.000000 0.218575
O O14 0.851653 0.059306 0.000000
O O15 0.000000 0.500000 0.826561
O O16 0.144808 0.500000 0.000000
O O17 0.150520 0.138285 0.500000
O O18 0.000000 0.138709 0.665197
O O19 0.599073 0.549526 0.500000
O O20 0.500000 0.571836 0.726163
O O21 0.617338 0.500000 0.732326
#
# Coordination Sequence:
#
# PCOD8200219 Si02
#       7
#     8   8   8   8   4   8   8
#     4   8  14  25  38  47  58  83 117 143 164 203
#     4  11  20  30  46  66  80  94 121 154 182 208
#     4   9  18  31  43  55  75 103 127 146 178 222
#     4   8  13  20  28  37  51  74 103 132 165 211
#     4  11  23  35  44  55  78 110 131 143 170 215
#     4   9  15  20  28  43  60  76  98 135 180 215
#     4   8  14  27  46  64  81  99 118 142 175 216
#
# _framework density 13.729869000000001
#
# number of rings (size 3 to 8) (size 9 to 14) (size 15 to 20)
#    0.000    3.000    0.769    3.462    0.000    5.538 
#    0.000    3.077    0.000    2.308    0.000    0.000 
#    0.000    0.000    0.000    0.000    0.000    0.000 
#
# Total GULP energy -644337.206780 kJ/mol
# GULP energy per Si atom -12391.100130 kJ/mol
# Density = 1.369862 g / cm^3
# Si number density = 13.729869 Si / 1000 Ang^3
#
#
#
# Elastic Constant Matrix: (Units=GPa)
#
#
# Indices 1 2 3 4 5 6 
#
# 1 46.5514 30.9328 26.8869 0.0000 0.0000 0.0000
# 2 30.9328 123.3945 65.7329 0.0000 0.0000 0.0000
# 3 26.8869 65.7329 85.8571 0.0000 0.0000 0.0000
# 4 0.0000 0.0000 0.0000 21.1173 0.0000 0.0000
# 5 0.0000 0.0000 0.0000 0.0000 4.8444 0.0000
# 6 0.0000 0.0000 0.0000 0.0000 0.0000 0.7996
#
#
#
# Elastic Compliance Matrix: (Units=1/GPa)
#
#
# Indices 1 2 3 4 5 6 
#
# 1 0.027273 -0.003862 -0.005584 0.000000 0.000000 0.000000
# 2 -0.003862 0.014233 -0.009687 0.000000 0.000000 0.000000
# 3 -0.005584 -0.009687 0.020812 0.000000 0.000000 0.000000
# 4 0.000000 0.000000 0.000000 0.047355 0.000000 0.000000
# 5 0.000000 0.000000 0.000000 0.000000 0.206426 0.000000
# 6 0.000000 0.000000 0.000000 0.000000 0.000000 1.250615
#
#
# Mechanical properties :
#
#
# Convention : Reuss Voigt Hill
#
# Bulk Modulus (GPa) = 41.57703 55.87868 48.72786
# Shear Modulus (GPa) = 3.09982 14.16894 8.63438
#
# Velocity S-wave (km/s) = 1.50420 3.21593 2.51046
# Velocity P-wave (km/s) = 5.77622 7.38760 6.63104
#
# Compressibility (1/GPa) = 0.02405174
#
# Stress axis : x y z
#
# Youngs Moduli (GPa) = 36.66603 70.26068 48.04828
#
# Poissons Ratio (x) = 0.27138 0.26829
# Poissons Ratio (y) = 0.14162 0.46545
# Poissons Ratio (z) = 0.20473 0.68062
#
# Static dielectric constant tensor:
#      x y z
#    x 2.448040 0.000000 0.000000 
#    y 0.000000 2.922280 0.000000 
#    z 0.000000 0.000000 2.786210 
# 
# 
# High freq. dielectric constant tensor:
#      x y z
#    x 1.456090 0.000000 0.000000 
#    y 0.000000 1.527990 0.000000 
#    z 0.000000 0.000000 1.522860 
# 
# From -- ./inp_files/8003.got.cif
#   From: 2010.03.12/outbox.cif.g09.slc.cpg/sg47_5_cif.got.tgz:8003.got - 2010.04.14 03:12:58.
