data_PCOD8200645
_publ_section_title
;
Structure prediction by ZEFSAII (Michael W. Deem and Ramdas Pophale) SiO2 
 PCOD8200645
Probable space group: P M M M
;
_chemical_formula_sum "Si O2"
_cell_formula_units_Z 33
_cell_length_a 11.803521
_cell_length_b 9.130179
_cell_length_c 14.914337
_cell_angle_alpha 90.000000
_cell_angle_beta 90.000000
_cell_angle_gamma 90.000000
_cell_volume 1607.292141
_symmetry_space_group_name_H-M "P M M M"
_symmetry_group_IT_number 47
_symmetry_cell_setting 'orthorhombic'
loop_
_space_group_symop_operation_xyz
x,y,z
-x,-y,z
x,-y,-z
-x,y,-z
-x,-y,-z
x,y,-z
-x,y,z
x,-y,z
loop_
_atom_site_type_symbol
_atom_site_label
_atom_site_fract_x
_atom_site_fract_y
_atom_site_fract_z
Si Si1 0.761148 0.664203 0.102371
Si Si2 0.000000 0.833209 0.646667
Si Si3 0.000000 0.000000 0.000000
Si Si4 0.000000 0.241390 0.849674
Si Si5 0.773599 0.668119 0.601608
Si Si6 0.366604 0.168727 0.748141
O O1 0.711572 0.500000 0.108766
O O2 0.888384 0.659143 0.140509
O O3 0.684320 0.774976 0.158446
O O4 0.759746 0.721578 0.000000
O O5 0.891521 0.751419 0.608066
O O6 0.000000 0.834054 0.753354
O O7 0.000000 0.000000 0.611964
O O8 0.000000 0.879461 0.075903
O O9 0.728299 0.677861 0.500000
O O10 0.791242 0.500000 0.631429
O O11 0.679718 0.740233 0.664675
O O12 0.500000 0.189023 0.751988
O O13 0.330888 0.000000 0.736380
#
# Coordination Sequence:
#
# PCOD8200645 Si02
#       6
#     8   4   1   4   8   8
#     4  11  24  41  65  95 131 170 212 263 319 382
#     4  12  24  38  64 101 135 170 209 254 317 386
#     4  12  24  36  58 104 140 176 210 264 304 394
#     4  12  23  36  62  97 133 170 208 254 316 376
#     4  11  25  44  68  97 130 168 210 263 326 388
#     4  11  26  45  66  93 126 168 219 270 322 380
#
# _framework density 20.531426
#
# number of rings (size 3 to 8) (size 9 to 14) (size 15 to 20)
#    0.000    0.727    4.242    2.545    1.697    8.727 
#    0.000    4.848    0.000    0.000    0.000    0.000 
#    0.000    0.000    0.000    0.000    0.000    0.000 
#
# Total GULP energy -408839.074475 kJ/mol
# GULP energy per Si atom -12389.062863 kJ/mol
# Density = 2.048470 g / cm^3
# Si number density = 20.531426 Si / 1000 Ang^3
#
#
#
# Elastic Constant Matrix: (Units=GPa)
#
#
# Indices 1 2 3 4 5 6 
#
# 1 103.5234 62.8146 44.4186 0.0000 0.0000 0.0000
# 2 62.8146 160.5980 58.2062 0.0000 0.0000 0.0000
# 3 44.4186 58.2062 122.7162 0.0000 0.0000 0.0000
# 4 0.0000 0.0000 0.0000 37.5882 0.0000 0.0000
# 5 0.0000 0.0000 0.0000 0.0000 8.4079 0.0000
# 6 0.0000 0.0000 0.0000 0.0000 0.0000 10.8154
#
#
#
# Elastic Compliance Matrix: (Units=1/GPa)
#
#
# Indices 1 2 3 4 5 6 
#
# 1 0.013451 -0.004222 -0.002866 0.000000 0.000000 0.000000
# 2 -0.004222 0.008845 -0.002667 0.000000 0.000000 0.000000
# 3 -0.002866 -0.002667 0.010451 0.000000 0.000000 0.000000
# 4 0.000000 0.000000 0.000000 0.026604 0.000000 0.000000
# 5 0.000000 0.000000 0.000000 0.000000 0.118936 0.000000
# 6 0.000000 0.000000 0.000000 0.000000 0.000000 0.092460
#
#
# Mechanical properties :
#
#
# Convention : Reuss Voigt Hill
#
# Bulk Modulus (GPa) = 75.54812 79.74626 77.64719
# Shear Modulus (GPa) = 16.96804 26.12217 21.54510
#
# Velocity S-wave (km/s) = 2.87791 3.57080 3.24292
# Velocity P-wave (km/s) = 6.92238 7.47838 7.20575
#
# Compressibility (1/GPa) = 0.01323660
#
# Stress axis : x y z
#
# Youngs Moduli (GPa) = 74.34118 113.06042 95.68234
#
# Poissons Ratio (x) = 0.47740 0.27424
# Poissons Ratio (y) = 0.31390 0.25517
# Poissons Ratio (z) = 0.21307 0.30152
#
# Static dielectric constant tensor:
#      x y z
#    x 3.609440 0.000000 0.000000 
#    y 0.000000 3.873450 0.000000 
#    z 0.000000 0.000000 4.028080 
# 
# 
# High freq. dielectric constant tensor:
#      x y z
#    x 1.785020 0.000000 0.000000 
#    y 0.000000 1.821860 0.000000 
#    z 0.000000 0.000000 1.826040 
# 
# From -- ./inp_files/3455.got.cif
#   From: 2010.03.12/outbox.cif.g09.slc.cpg/sg47_2_cif.got.tgz:3455.got - 2010.04.14 03:12:58.
