data_PCOD8200735
_publ_section_title
;
Structure prediction by ZEFSAII (Michael W. Deem and Ramdas Pophale) SiO2 
 PCOD8200735
Probable space group: P M M M
;
_chemical_formula_sum "Si O2"
_cell_formula_units_Z 44
_cell_length_a 28.431522
_cell_length_b 9.603047
_cell_length_c 9.709274
_cell_angle_alpha 90.000000
_cell_angle_beta 90.000000
_cell_angle_gamma 90.000000
_cell_volume 2650.915721
_symmetry_space_group_name_H-M "P M M M"
_symmetry_group_IT_number 47
_symmetry_cell_setting 'orthorhombic'
loop_
_space_group_symop_operation_xyz
x,y,z
-x,-y,z
x,-y,-z
-x,y,-z
-x,-y,-z
x,y,-z
-x,y,z
x,-y,z
loop_
_atom_site_type_symbol
_atom_site_label
_atom_site_fract_x
_atom_site_fract_y
_atom_site_fract_z
Si Si1 0.898195 0.834193 0.158613
Si Si2 0.000000 0.848375 0.837481
Si Si3 0.448000 0.165451 0.845421
Si Si4 0.278443 0.653822 0.336537
Si Si5 0.363754 0.837538 0.339865
Si Si6 0.826839 0.661982 0.339720
O O1 0.860938 0.758639 0.253465
O O2 0.950416 0.775027 0.202402
O O3 0.895778 0.000000 0.181327
O O4 0.887428 0.797266 0.000000
O O5 0.000000 0.000000 0.766664
O O6 0.000000 0.869570 0.000000
O O7 0.500000 0.220213 0.802321
O O8 0.408912 0.223649 0.740636
O O9 0.448096 0.000000 0.839651
O O10 0.435975 0.216063 0.000000
O O11 0.279147 0.649660 0.500000
O O12 0.290388 0.500000 0.278690
O O13 0.317221 0.761959 0.281450
O O14 0.226155 0.698593 0.290053
O O15 0.372150 0.805846 0.500000
O O16 0.356456 0.000000 0.311570
O O17 0.833570 0.697208 0.500000
O O18 0.837705 0.500000 0.311786
#
# Coordination Sequence:
#
# PCOD8200735 Si02
#       6
#     8   4   8   8   8   8
#     4   9  17  30  49  71  92 116 149 187 225 265
#     4   7  12  26  46  65  88 118 148 179 218 265
#     4   8  14  25  40  58  83 114 140 162 200 254
#     4   8  15  29  46  61  82 115 147 172 207 258
#     4   9  16  25  41  66  87 102 132 179 216 240
#     4   9  18  32  48  66  90 121 154 185 221 267
#
# _framework density 16.598037999999999
#
# number of rings (size 3 to 8) (size 9 to 14) (size 15 to 20)
#    0.000    3.545    0.000    2.727    0.000    1.818 
#    0.000    5.455    0.000    8.727    0.000    3.818 
#    0.000    0.000    0.000    0.000    0.000    0.000 
#
# Total GULP energy -545120.300383 kJ/mol
# GULP energy per Si atom -12389.097736 kJ/mol
# Density = 1.656026 g / cm^3
# Si number density = 16.598038 Si / 1000 Ang^3
#
#
#
# Elastic Constant Matrix: (Units=GPa)
#
#
# Indices 1 2 3 4 5 6 
#
# 1 173.8288 61.8063 66.7827 0.0000 0.0000 0.0000
# 2 61.8063 46.7288 34.9101 0.0000 0.0000 0.0000
# 3 66.7827 34.9101 58.0132 0.0000 0.0000 0.0000
# 4 0.0000 0.0000 0.0000 17.4511 0.0000 0.0000
# 5 0.0000 0.0000 0.0000 0.0000 -8.7509 0.0000
# 6 0.0000 0.0000 0.0000 0.0000 0.0000 0.6947
#
#
#
# Elastic Compliance Matrix: (Units=1/GPa)
#
#
# Indices 1 2 3 4 5 6 
#
# 1 0.012694 -0.010669 -0.008192 0.000000 0.000000 0.000000
# 2 -0.010669 0.047846 -0.016510 0.000000 0.000000 0.000000
# 3 -0.008192 -0.016510 0.036603 0.000000 0.000000 0.000000
# 4 0.000000 0.000000 0.000000 0.057303 0.000000 0.000000
# 5 0.000000 0.000000 0.000000 0.000000 -0.114274 0.000000
# 6 0.000000 0.000000 0.000000 0.000000 0.000000 1.439407
#
#
# Mechanical properties :
#
#
# Convention : Reuss Voigt Hill
#
# Bulk Modulus (GPa) = 37.87860 67.28543 52.58201
# Shear Modulus (GPa) = 3.20694 9.55045 6.37869
#
# Velocity S-wave (km/s) = 1.39151 2.40134 1.96249
# Velocity P-wave (km/s) = 5.04504 6.95088 6.07319
#
# Compressibility (1/GPa) = 0.02640013
#
# Stress axis : x y z
#
# Youngs Moduli (GPa) = 78.77993 20.90051 27.32028
#
# Poissons Ratio (x) = 0.22299 0.22381
# Poissons Ratio (y) = 0.84051 0.45105
# Poissons Ratio (z) = 0.64538 0.34506
#
# Static dielectric constant tensor:
#      x y z
#    x 3.590720 0.000000 0.000000 
#    y 0.000000 2.891850 0.000000 
#    z 0.000000 0.000000 2.893730 
# 
# 
# High freq. dielectric constant tensor:
#      x y z
#    x 1.657030 0.000000 0.000000 
#    y 0.000000 1.605690 0.000000 
#    z 0.000000 0.000000 1.610000 
# 
# From -- ./inp_files/2267.got.cif
#   From: 2010.03.12/outbox.cif.g09.slc.cpg/sg47_2_cif.got.tgz:2267.got - 2010.04.14 03:12:58.
