data_PCOD8200946
_publ_section_title
;
Structure prediction by ZEFSAII (Michael W. Deem and Ramdas Pophale) SiO2 
 PCOD8200946
Probable space group: P M M M
;
_chemical_formula_sum "Si O2"
_cell_formula_units_Z 52
_cell_length_a 13.729689
_cell_length_b 9.570497
_cell_length_c 26.551468
_cell_angle_alpha 90.000000
_cell_angle_beta 90.000000
_cell_angle_gamma 90.000000
_cell_volume 3488.861498
_symmetry_space_group_name_H-M "P M M M"
_symmetry_group_IT_number 47
_symmetry_cell_setting 'orthorhombic'
loop_
_space_group_symop_operation_xyz
x,y,z
-x,-y,z
x,-y,-z
-x,y,-z
-x,-y,-z
x,y,-z
-x,y,z
x,-y,z
loop_
_atom_site_type_symbol
_atom_site_label
_atom_site_fract_x
_atom_site_fract_y
_atom_site_fract_z
Si Si1 0.391603 0.665891 0.702270
Si Si2 0.611003 0.339019 0.894133
Si Si3 0.233215 0.160411 0.056344
Si Si4 0.615858 0.344129 0.409038
Si Si5 0.616302 0.157644 0.500000
Si Si6 0.732019 0.337764 0.795325
Si Si7 0.888333 0.836722 0.847977
O O1 0.500000 0.728694 0.711880
O O2 0.399228 0.500000 0.706015
O O3 0.352870 0.708514 0.646670
O O4 0.315651 0.720948 0.743859
O O5 0.500000 0.287840 0.894522
O O6 0.619686 0.500000 0.909729
O O7 0.670169 0.250775 0.934992
O O8 0.652515 0.313348 0.838536
O O9 0.149096 0.201733 0.095927
O O10 0.263506 0.000000 0.063466
O O11 0.193289 0.188745 0.000000
O O12 0.500000 0.350386 0.411403
O O13 0.657125 0.500000 0.419919
O O14 0.656926 0.237022 0.450599
O O15 0.500000 0.157554 0.500000
O O16 0.657058 0.000000 0.500000
O O17 0.761428 0.500000 0.790978
O O18 0.828985 0.249388 0.806218
O O19 0.000000 0.790368 0.844607
O O20 0.875050 0.000000 0.836642
#
# Coordination Sequence:
#
# PCOD8200946 Si02
#       7
#     8   8   8   8   4   8   8
#     4   8  13  22  38  59  80 103 133 166 196 227
#     4   9  17  28  42  60  82 108 133 155 185 228
#     4   9  18  31  45  61  79  99 127 162 195 227
#     4   8  13  21  33  48  67  96 134 168 194 223
#     4   9  15  21  29  43  67  99 134 171 204 227
#     4   9  16  27  44  63  81 101 128 162 195 229
#     4   9  18  32  47  61  78 100 125 155 195 241
#
# _framework density 14.904574999999999
#
# number of rings (size 3 to 8) (size 9 to 14) (size 15 to 20)
#    0.000    3.308    0.000    1.615    0.000    4.308 
#    0.000    3.846    0.000    2.308    0.000    4.308 
#    0.000    0.000    0.000    0.692    0.000   14.538 
#
# Total GULP energy -644594.744103 kJ/mol
# GULP energy per Si atom -12396.052771 kJ/mol
# Density = 1.487065 g / cm^3
# Si number density = 14.904575 Si / 1000 Ang^3
#
#
#
# Elastic Constant Matrix: (Units=GPa)
#
#
# Indices 1 2 3 4 5 6 
#
# 1 88.4866 36.8330 46.2433 0.0000 0.0000 0.0000
# 2 36.8330 54.7656 46.2614 0.0000 0.0000 0.0000
# 3 46.2433 46.2614 119.3836 0.0000 0.0000 0.0000
# 4 0.0000 0.0000 0.0000 17.1219 0.0000 0.0000
# 5 0.0000 0.0000 0.0000 0.0000 11.9515 0.0000
# 6 0.0000 0.0000 0.0000 0.0000 0.0000 19.3099
#
#
#
# Elastic Compliance Matrix: (Units=1/GPa)
#
#
# Indices 1 2 3 4 5 6 
#
# 1 0.016430 -0.008435 -0.003095 0.000000 0.000000 0.000000
# 2 -0.008435 0.031476 -0.008929 0.000000 0.000000 0.000000
# 3 -0.003095 -0.008929 0.013036 0.000000 0.000000 0.000000
# 4 0.000000 0.000000 0.000000 0.058405 0.000000 0.000000
# 5 0.000000 0.000000 0.000000 0.000000 0.083672 0.000000
# 6 0.000000 0.000000 0.000000 0.000000 0.000000 0.051787
#
#
# Mechanical properties :
#
#
# Convention : Reuss Voigt Hill
#
# Bulk Modulus (GPa) = 49.94808 57.92346 53.93577
# Shear Modulus (GPa) = 16.53443 18.56319 17.54881
#
# Velocity S-wave (km/s) = 3.33431 3.53295 3.43506
# Velocity P-wave (km/s) = 6.95760 7.45584 7.21102
#
# Compressibility (1/GPa) = 0.02002079
#
# Stress axis : x y z
#
# Youngs Moduli (GPa) = 60.86373 31.77044 76.71316
#
# Poissons Ratio (x) = 0.26800 0.23746
# Poissons Ratio (y) = 0.51341 0.68501
# Poissons Ratio (z) = 0.18840 0.28369
#
# Static dielectric constant tensor:
#      x y z
#    x 2.618890 0.000000 0.000000 
#    y 0.000000 2.836560 0.000000 
#    z 0.000000 0.000000 3.103870 
# 
# 
# High freq. dielectric constant tensor:
#      x y z
#    x 1.526460 0.000000 0.000000 
#    y 0.000000 1.558450 0.000000 
#    z 0.000000 0.000000 1.572650 
# 
# From -- ./inp_files/13402.got.cif
#   From: 2010.03.12/outbox.cif.g09.slc.cpg/sg47_7_cif.got.tgz:13402.got - 2010.04.14 03:12:58.
