data_PCOD8200312
_publ_section_title
;
Structure prediction by ZEFSAII (Michael W. Deem and Ramdas Pophale) SiO2 
 PCOD8200312
Probable space group: P M M M
;
_chemical_formula_sum "Si O2"
_cell_formula_units_Z 52
_cell_length_a 30.775343
_cell_length_b 11.790694
_cell_length_c 9.086299
_cell_angle_alpha 90.000000
_cell_angle_beta 90.000000
_cell_angle_gamma 90.000000
_cell_volume 3297.078553
_symmetry_space_group_name_H-M "P M M M"
_symmetry_group_IT_number 47
_symmetry_cell_setting 'orthorhombic'
loop_
_space_group_symop_operation_xyz
x,y,z
-x,-y,z
x,-y,-z
-x,y,-z
-x,-y,-z
x,y,-z
-x,y,z
x,-y,z
loop_
_atom_site_type_symbol
_atom_site_label
_atom_site_fract_x
_atom_site_fract_y
_atom_site_fract_z
Si Si1 0.253790 0.865163 0.334734
Si Si2 0.500000 0.366175 0.330560
Si Si3 0.000000 0.864781 0.166328
Si Si4 0.451518 0.000000 0.341309
Si Si5 0.430034 0.777326 0.828466
Si Si6 0.339302 0.870178 0.169308
Si Si7 0.830256 0.864703 0.166095
Si Si8 0.915124 0.135197 0.666268
O O1 0.251386 0.817394 0.500000
O O2 0.298779 0.824704 0.262663
O O3 0.212947 0.816311 0.244214
O O4 0.251882 0.000000 0.333430
O O5 0.500000 0.500000 0.316972
O O6 0.500000 0.325660 0.500000
O O7 0.455532 0.323197 0.253981
O O8 0.042562 0.818153 0.249321
O O9 0.000000 0.000000 0.166426
O O10 0.000000 0.818213 0.000000
O O11 0.444983 0.106013 0.238130
O O12 0.500000 0.000000 0.395042
O O13 0.424984 0.000000 0.500000
O O14 0.377778 0.778461 0.805005
O O15 0.442012 0.770924 0.000000
O O16 0.353273 0.000000 0.215840
O O17 0.324978 0.872456 0.000000
O O18 0.872267 0.818358 0.252426
O O19 0.830005 0.000000 0.167256
O O20 0.831742 0.818321 0.000000
O O21 0.915575 0.181825 0.500000
O O22 0.915210 0.000000 0.666403
#
# Coordination Sequence:
#
# PCOD8200312 Si02
#       8
#     8   4   4   4   8   8   8   8
#     4   9  16  24  34  50  70  94 121 146 175 218
#     4  11  25  42  55  70  93 119 147 179 214 251
#     4   9  15  21  27  35  47  63  87 123 169 219
#     4  11  21  31  47  73 100 122 142 168 210 251
#     4  11  21  34  53  73  93 117 147 178 208 246
#     4   9  17  29  42  61  87 109 129 157 195 235
#     4   9  15  22  31  41  55  79 107 136 171 213
#     4   9  15  21  28  37  49  66  92 129 170 214
#
# _framework density 15.771538
#
# number of rings (size 3 to 8) (size 9 to 14) (size 15 to 20)
#    0.000    2.385    1.538    2.538    0.000    8.615 
#    0.000    0.000    0.000    0.000    0.000    0.000 
#    0.000    0.000    0.000    0.000    0.000    0.000 
#
# Total GULP energy -644466.700152 kJ/mol
# GULP energy per Si atom -12393.590388 kJ/mol
# Density = 1.573564 g / cm^3
# Si number density = 15.771538 Si / 1000 Ang^3
#
#
#
# Elastic Constant Matrix: (Units=GPa)
#
#
# Indices 1 2 3 4 5 6 
#
# 1 140.1179 18.7070 84.3876 0.0000 0.0000 0.0000
# 2 18.7070 24.6767 21.5241 0.0000 0.0000 0.0000
# 3 84.3876 21.5241 153.6732 0.0000 0.0000 0.0000
# 4 0.0000 0.0000 0.0000 10.9640 0.0000 0.0000
# 5 0.0000 0.0000 0.0000 0.0000 29.5663 0.0000
# 6 0.0000 0.0000 0.0000 0.0000 0.0000 -25.4025
#
#
#
# Elastic Compliance Matrix: (Units=1/GPa)
#
#
# Indices 1 2 3 4 5 6 
#
# 1 0.010918 -0.003471 -0.005510 0.000000 0.000000 0.000000
# 2 -0.003471 0.047268 -0.004714 0.000000 0.000000 0.000000
# 3 -0.005510 -0.004714 0.010193 0.000000 0.000000 0.000000
# 4 0.000000 0.000000 0.000000 0.091207 0.000000 0.000000
# 5 0.000000 0.000000 0.000000 0.000000 0.033822 0.000000
# 6 0.000000 0.000000 0.000000 0.000000 0.000000 -0.039366
#
#
# Mechanical properties :
#
#
# Convention : Reuss Voigt Hill
#
# Bulk Modulus (GPa) = 24.39690 63.07837 43.73763
# Shear Modulus (GPa) = 25.62842 15.94884 20.78863
#
# Velocity S-wave (km/s) = 4.03548 3.18345 3.63452
# Velocity P-wave (km/s) = 6.10049 7.32082 6.73834
#
# Compressibility (1/GPa) = 0.04098882
#
# Stress axis : x y z
#
# Youngs Moduli (GPa) = 91.58778 21.15613 98.10576
#
# Poissons Ratio (x) = 0.07344 0.54051
# Poissons Ratio (y) = 0.31795 0.46249
# Poissons Ratio (z) = 0.50460 0.09973
#
# Static dielectric constant tensor:
#      x y z
#    x 3.289880 0.000000 0.000000 
#    y 0.000000 2.224880 0.000000 
#    z 0.000000 0.000000 3.270370 
# 
# 
# High freq. dielectric constant tensor:
#      x y z
#    x 1.622250 0.000000 0.000000 
#    y 0.000000 1.499840 0.000000 
#    z 0.000000 0.000000 1.631570 
# 
# From -- ./inp_files/14147.got.cif
#   From: 2010.03.12/outbox.cif.g09.slc.cpg/sg47_8_cif.got.tgz:14147.got - 2010.04.14 03:12:58.
