data_PCOD8200151
_publ_section_title
;
Structure prediction by ZEFSAII (Michael W. Deem and Ramdas Pophale) SiO2 
 PCOD8200151
Probable space group: P M M M
;
_chemical_formula_sum "Si O2"
_cell_formula_units_Z 64
_cell_length_a 8.941123
_cell_length_b 15.211050
_cell_length_c 23.668656
_cell_angle_alpha 90.000000
_cell_angle_beta 90.000000
_cell_angle_gamma 90.000000
_cell_volume 3219.028790
_symmetry_space_group_name_H-M "P M M M"
_symmetry_group_IT_number 47
_symmetry_cell_setting 'orthorhombic'
loop_
_space_group_symop_operation_xyz
x,y,z
-x,-y,z
x,-y,-z
-x,y,-z
-x,-y,-z
x,y,-z
-x,y,z
x,-y,z
loop_
_atom_site_type_symbol
_atom_site_label
_atom_site_fract_x
_atom_site_fract_y
_atom_site_fract_z
Si Si1 0.673284 0.402065 0.294810
Si Si2 0.172597 0.839529 0.834238
Si Si3 0.176203 0.230551 0.341489
Si Si4 0.330069 0.903211 0.736364
Si Si5 0.833422 0.603368 0.062755
Si Si6 0.673197 0.664737 0.826647
Si Si7 0.177708 0.901357 0.436427
Si Si8 0.331603 0.898188 0.936973
O O1 0.500000 0.388413 0.308196
O O2 0.726071 0.500000 0.314084
O O3 0.756200 0.327619 0.332130
O O4 0.700015 0.398959 0.226932
O O5 0.273649 0.911028 0.801062
O O6 0.218899 0.744791 0.811115
O O7 0.213625 0.843893 0.900224
O O8 0.000000 0.858881 0.824198
O O9 0.217982 0.166546 0.290484
O O10 0.239537 0.177869 0.396765
O O11 0.000000 0.242374 0.344946
O O12 0.500000 0.868337 0.732841
O O13 0.317966 0.000000 0.708600
O O14 0.843994 0.500000 0.059956
O O15 0.717621 0.626188 0.112425
O O16 0.000000 0.641364 0.076712
O O17 0.781508 0.637483 0.000000
O O18 0.500000 0.693338 0.830335
O O19 0.233314 0.881684 0.500000
O O20 0.000000 0.901180 0.433546
O O21 0.233547 0.000000 0.418074
O O22 0.500000 0.882828 0.914740
O O23 0.289261 0.000000 0.935190
O O24 0.316071 0.861366 0.000000
#
# Coordination Sequence:
#
# PCOD8200151 Si02
#       8
#     8   8   8   8   8   8   8   8
#     4  10  22  40  60  81 111 154 199 244 298 356
#     4  12  24  36  53  78 107 138 177 229 285 337
#     4  11  21  34  58  91 121 152 196 245 291 340
#     4  11  23  38  56  79 113 156 192 227 279 340
#     4   9  19  36  56  78 105 135 169 219 286 352
#     4  11  22  37  57  78 104 140 184 232 286 348
#     4   8  15  30  54  87 128 168 201 237 284 336
#     4   9  19  37  58  76  97 132 178 224 274 337
#
# _framework density 19.881772999999999
#
# number of rings (size 3 to 8) (size 9 to 14) (size 15 to 20)
#    0.000    1.875    1.250    4.500    0.000    5.750 
#    0.000    1.250    0.000    1.875    0.000    7.000 
#    0.000    0.000    0.000    0.000    0.000    0.000 
#
# Total GULP energy -793082.475034 kJ/mol
# GULP energy per Si atom -12391.913672 kJ/mol
# Density = 1.983652 g / cm^3
# Si number density = 19.881773 Si / 1000 Ang^3
#
#
#
# Elastic Constant Matrix: (Units=GPa)
#
#
# Indices 1 2 3 4 5 6 
#
# 1 72.2205 41.5473 33.4167 0.0000 0.0000 0.0000
# 2 41.5473 119.3309 53.1178 0.0000 0.0000 0.0000
# 3 33.4167 53.1178 105.1802 0.0000 0.0000 0.0000
# 4 0.0000 0.0000 0.0000 31.5887 0.0000 0.0000
# 5 0.0000 0.0000 0.0000 0.0000 16.4916 0.0000
# 6 0.0000 0.0000 0.0000 0.0000 0.0000 26.8628
#
#
#
# Elastic Compliance Matrix: (Units=1/GPa)
#
#
# Indices 1 2 3 4 5 6 
#
# 1 0.018174 -0.004847 -0.003326 0.000000 0.000000 0.000000
# 2 -0.004847 0.012103 -0.004572 0.000000 0.000000 0.000000
# 3 -0.003326 -0.004572 0.012873 0.000000 0.000000 0.000000
# 4 0.000000 0.000000 0.000000 0.031657 0.000000 0.000000
# 5 0.000000 0.000000 0.000000 0.000000 0.060637 0.000000
# 6 0.000000 0.000000 0.000000 0.000000 0.000000 0.037226
#
#
# Mechanical properties :
#
#
# Convention : Reuss Voigt Hill
#
# Bulk Modulus (GPa) = 56.62752 61.43278 59.03015
# Shear Modulus (GPa) = 24.50411 26.23195 25.36803
#
# Velocity S-wave (km/s) = 3.51449 3.63629 3.57591
# Velocity P-wave (km/s) = 6.70916 6.97110 6.84139
#
# Compressibility (1/GPa) = 0.01765926
#
# Stress axis : x y z
#
# Youngs Moduli (GPa) = 55.02392 82.62504 77.68008
#
# Poissons Ratio (x) = 0.40048 0.25838
# Poissons Ratio (y) = 0.26670 0.35517
# Poissons Ratio (z) = 0.18302 0.37778
#
# Static dielectric constant tensor:
#      x y z
#    x 3.445560 0.000000 0.000000 
#    y 0.000000 3.666450 0.000000 
#    z 0.000000 0.000000 3.815330 
# 
# 
# High freq. dielectric constant tensor:
#      x y z
#    x 1.760170 0.000000 0.000000 
#    y 0.000000 1.771680 0.000000 
#    z 0.000000 0.000000 1.764230 
# 
# From -- ./inp_files/25555.got.cif
#   From: 2010.03.12/outbox.cif.g09.slc.cpg/sg47_13_cif.got.tgz:25555.got - 2010.04.14 03:12:58.
