data_PCOD8200672
_publ_section_title
;
Structure prediction by ZEFSAII (Michael W. Deem and Ramdas Pophale) SiO2 
 PCOD8200672
Probable space group: P M M M
;
_chemical_formula_sum "Si O2"
_cell_formula_units_Z 44
_cell_length_a 28.357968
_cell_length_b 9.572119
_cell_length_c 9.764328
_cell_angle_alpha 90.000000
_cell_angle_beta 90.000000
_cell_angle_gamma 90.000000
_cell_volume 2650.486258
_symmetry_space_group_name_H-M "P M M M"
_symmetry_group_IT_number 47
_symmetry_cell_setting 'orthorhombic'
loop_
_space_group_symop_operation_xyz
x,y,z
-x,-y,z
x,-y,-z
-x,y,-z
-x,-y,-z
x,y,-z
-x,y,z
x,-y,z
loop_
_atom_site_type_symbol
_atom_site_label
_atom_site_fract_x
_atom_site_fract_y
_atom_site_fract_z
Si Si1 0.101236 0.342652 0.835981
Si Si2 0.622873 0.335721 0.843782
Si Si3 0.000000 0.334518 0.149623
Si Si4 0.271819 0.655257 0.162825
Si Si5 0.187080 0.842375 0.836512
Si Si6 0.554290 0.839673 0.342346
O O1 0.113526 0.500000 0.786791
O O2 0.140955 0.237657 0.780010
O O3 0.049624 0.293487 0.776390
O O4 0.098988 0.340085 0.000000
O O5 0.614391 0.500000 0.830812
O O6 0.675726 0.297488 0.792899
O O7 0.585787 0.258075 0.750386
O O8 0.615623 0.286664 0.000000
O O9 0.000000 0.500000 0.131619
O O10 0.000000 0.262983 0.000000
O O11 0.260474 0.500000 0.220195
O O12 0.233609 0.764556 0.220892
O O13 0.269495 0.649384 0.000000
O O14 0.186756 0.000000 0.779571
O O15 0.187211 0.841298 0.000000
O O16 0.564026 0.802875 0.500000
O O17 0.500000 0.811155 0.305681
O O18 0.567233 0.000000 0.312626
#
# Coordination Sequence:
#
# PCOD8200672 Si02
#       6
#     8   8   4   8   8   8
#     4   8  12  18  27  36  48  71 104 142 185 231
#     4   9  18  31  47  69  93 114 141 180 222 260
#     4   7  10  16  25  35  45  63  99 143 182 225
#     4   8  14  25  38  51  71  98 124 153 194 242
#     4   9  15  20  27  42  62  83 111 147 187 233
#     4   9  19  35  51  67  90 120 151 179 208 249
#
# _framework density 16.600726999999999
#
# number of rings (size 3 to 8) (size 9 to 14) (size 15 to 20)
#    0.000    3.545    0.000    3.273    0.000    4.364 
#    0.000    5.000    0.000    2.727    0.000    0.000 
#    0.000    0.000    0.000    0.000    0.000    0.000 
#
# Total GULP energy -545155.136363 kJ/mol
# GULP energy per Si atom -12389.889463 kJ/mol
# Density = 1.656294 g / cm^3
# Si number density = 16.600727 Si / 1000 Ang^3
#
#
#
# Elastic Constant Matrix: (Units=GPa)
#
#
# Indices 1 2 3 4 5 6 
#
# 1 149.1698 80.1269 36.1028 0.0000 0.0000 0.0000
# 2 80.1269 95.8985 24.3696 0.0000 0.0000 0.0000
# 3 36.1028 24.3696 22.7118 0.0000 0.0000 0.0000
# 4 0.0000 0.0000 0.0000 14.8447 0.0000 0.0000
# 5 0.0000 0.0000 0.0000 0.0000 -2.4936 0.0000
# 6 0.0000 0.0000 0.0000 0.0000 0.0000 12.0424
#
#
#
# Elastic Compliance Matrix: (Units=1/GPa)
#
#
# Indices 1 2 3 4 5 6 
#
# 1 0.014876 -0.008827 -0.014176 0.000000 0.000000 0.000000
# 2 -0.008827 0.019575 -0.006972 0.000000 0.000000 0.000000
# 3 -0.014176 -0.006972 0.074045 0.000000 0.000000 0.000000
# 4 0.000000 0.000000 0.000000 0.067364 0.000000 0.000000
# 5 0.000000 0.000000 0.000000 0.000000 -0.401027 0.000000
# 6 0.000000 0.000000 0.000000 0.000000 0.000000 0.083040
#
#
# Mechanical properties :
#
#
# Convention : Reuss Voigt Hill
#
# Bulk Modulus (GPa) = 20.59897 60.99763 40.79830
# Shear Modulus (GPa) = -75.76388 13.35740 -31.20324
#
# Velocity S-wave (km/s) = -6.76299 2.83967 -4.34017
# Velocity P-wave (km/s) = 6.96768 6.89749 0.69756
#
# Compressibility (1/GPa) = 0.04854611
#
# Stress axis : x y z
#
# Youngs Moduli (GPa) = 67.22091 51.08560 13.50536
#
# Poissons Ratio (x) = 0.45095 0.19145
# Poissons Ratio (y) = 0.59339 0.09416
# Poissons Ratio (z) = 0.95291 0.35616
#
# Static dielectric constant tensor:
#      x y z
#    x 3.520260 0.000000 0.000000 
#    y 0.000000 3.127490 0.000000 
#    z 0.000000 0.000000 2.428570 
# 
# 
# High freq. dielectric constant tensor:
#      x y z
#    x 1.660960 0.000000 0.000000 
#    y 0.000000 1.631410 0.000000 
#    z 0.000000 0.000000 1.556060 
# 
# From -- ./inp_files/13578.got.cif
#   From: 2010.03.12/outbox.cif.g09.slc.cpg/sg47_7_cif.got.tgz:13578.got - 2010.04.14 03:12:58.
