data_PCOD8200264
_publ_section_title
;
Structure prediction by ZEFSAII (Michael W. Deem and Ramdas Pophale) SiO2 
 PCOD8200264
Probable space group: P M M M
;
_chemical_formula_sum "Si O2"
_cell_formula_units_Z 48
_cell_length_a 17.943871
_cell_length_b 14.603621
_cell_length_c 9.920173
_cell_angle_alpha 90.000000
_cell_angle_beta 90.000000
_cell_angle_gamma 90.000000
_cell_volume 2599.536608
_symmetry_space_group_name_H-M "P M M M"
_symmetry_group_IT_number 47
_symmetry_cell_setting 'orthorhombic'
loop_
_space_group_symop_operation_xyz
x,y,z
-x,-y,z
x,-y,-z
-x,y,-z
-x,-y,-z
x,y,-z
-x,y,z
x,-y,z
loop_
_atom_site_type_symbol
_atom_site_label
_atom_site_fract_x
_atom_site_fract_y
_atom_site_fract_z
Si Si1 0.912267 0.396641 0.000000
Si Si2 0.088591 0.392980 0.500000
Si Si3 0.685483 0.341591 0.150117
Si Si4 0.799191 0.897799 0.158093
Si Si5 0.582903 0.500000 0.839013
Si Si6 0.158155 0.295603 0.753422
Si Si7 0.632374 0.143102 0.149369
Si Si8 0.500000 0.104221 0.351299
O O1 0.887908 0.338800 0.127002
O O2 0.878098 0.500000 0.000000
O O3 0.000000 0.405122 0.000000
O O4 0.115248 0.500000 0.500000
O O5 0.119287 0.334506 0.622765
O O6 0.000000 0.390672 0.500000
O O7 0.628827 0.413569 0.215164
O O8 0.756808 0.330384 0.245165
O O9 0.637769 0.251016 0.137805
O O10 0.713164 0.371378 0.000000
O O11 0.842149 0.816566 0.238754
O O12 0.711610 0.898993 0.194131
O O13 0.831209 0.000000 0.192790
O O14 0.808340 0.875207 0.000000
O O15 0.500000 0.500000 0.776187
O O16 0.577553 0.500000 0.000000
O O17 0.572970 0.123668 0.264049
O O18 0.609193 0.104747 0.000000
O O19 0.500000 0.155012 0.500000
O O20 0.500000 0.000000 0.387912
#
# Coordination Sequence:
#
# PCOD8200264 Si02
#       8
#     4   4   8   8   4   8   8   4
#     4  11  22  34  59  91 117 147 187 236 295 349
#     4  11  26  44  61  85 123 163 195 236 291 351
#     4   9  18  32  55  84 111 143 189 241 281 332
#     4   9  17  34  61  91 117 144 189 248 299 345
#     4   9  18  28  46  79 116 149 181 229 293 341
#     4  11  20  38  60  87 118 154 196 243 289 348
#     4   9  18  33  54  78 104 140 187 231 282 345
#     4  11  23  35  47  70 105 140 178 235 293 337
#
# _framework density 18.464829999999999
#
# number of rings (size 3 to 8) (size 9 to 14) (size 15 to 20)
#    0.000    2.167    1.667    2.750    3.500    2.667 
#    6.000    0.417    0.000    3.000    0.000    1.167 
#    0.000    0.000    0.000    0.000    0.000    0.000 
#
# Total GULP energy -594764.871392 kJ/mol
# GULP energy per Si atom -12390.934821 kJ/mol
# Density = 1.842280 g / cm^3
# Si number density = 18.464830 Si / 1000 Ang^3
#
#
#
# Elastic Constant Matrix: (Units=GPa)
#
#
# Indices 1 2 3 4 5 6 
#
# 1 76.4353 52.4773 42.7202 0.0000 0.0000 0.0000
# 2 52.4773 148.4600 42.7688 0.0000 0.0000 0.0000
# 3 42.7202 42.7688 115.3486 0.0000 0.0000 0.0000
# 4 0.0000 0.0000 0.0000 20.3429 0.0000 0.0000
# 5 0.0000 0.0000 0.0000 0.0000 30.4791 0.0000
# 6 0.0000 0.0000 0.0000 0.0000 0.0000 16.2601
#
#
#
# Elastic Compliance Matrix: (Units=1/GPa)
#
#
# Indices 1 2 3 4 5 6 
#
# 1 0.019806 -0.005472 -0.005306 0.000000 0.000000 0.000000
# 2 -0.005472 0.009053 -0.001330 0.000000 0.000000 0.000000
# 3 -0.005306 -0.001330 0.011128 0.000000 0.000000 0.000000
# 4 0.000000 0.000000 0.000000 0.049157 0.000000 0.000000
# 5 0.000000 0.000000 0.000000 0.000000 0.032809 0.000000
# 6 0.000000 0.000000 0.000000 0.000000 0.000000 0.061500
#
#
# Mechanical properties :
#
#
# Convention : Reuss Voigt Hill
#
# Bulk Modulus (GPa) = 63.41290 68.46405 65.93848
# Shear Modulus (GPa) = 23.48224 26.90161 25.19192
#
# Velocity S-wave (km/s) = 3.57000 3.82109 3.69768
# Velocity P-wave (km/s) = 7.17010 7.52504 7.34971
#
# Compressibility (1/GPa) = 0.01576966
#
# Stress axis : x y z
#
# Youngs Moduli (GPa) = 50.49074 110.45685 89.86565
#
# Poissons Ratio (x) = 0.60445 0.47684
# Poissons Ratio (y) = 0.27630 0.11953
# Poissons Ratio (z) = 0.26791 0.14692
#
# Static dielectric constant tensor:
#      x y z
#    x 3.344150 0.000000 0.000000 
#    y 0.000000 3.686730 0.000000 
#    z 0.000000 0.000000 2.924830 
# 
# 
# High freq. dielectric constant tensor:
#      x y z
#    x 1.707510 0.000000 0.000000 
#    y 0.000000 1.730880 0.000000 
#    z 0.000000 0.000000 1.682650 
# 
# From -- ./inp_files/9276.got.cif
#   From: 2010.03.12/outbox.cif.g09.slc.cpg/sg47_5_cif.got.tgz:9276.got - 2010.04.14 03:12:58.
