data_PCOD8200456
_publ_section_title
;
Structure prediction by ZEFSAII (Michael W. Deem and Ramdas Pophale) SiO2 
 PCOD8200456
Probable space group: P M M M
;
_chemical_formula_sum "Si O2"
_cell_formula_units_Z 32
_cell_length_a 7.499452
_cell_length_b 9.392736
_cell_length_c 24.212220
_cell_angle_alpha 90.000000
_cell_angle_beta 90.000000
_cell_angle_gamma 90.000000
_cell_volume 1705.517803
_symmetry_space_group_name_H-M "P M M M"
_symmetry_group_IT_number 47
_symmetry_cell_setting 'orthorhombic'
loop_
_space_group_symop_operation_xyz
x,y,z
-x,-y,z
x,-y,-z
-x,y,-z
-x,-y,-z
x,y,-z
-x,y,z
x,-y,z
loop_
_atom_site_type_symbol
_atom_site_label
_atom_site_fract_x
_atom_site_fract_y
_atom_site_fract_z
Si Si1 0.705453 0.837259 0.935805
Si Si2 0.000000 0.668367 0.252409
Si Si3 0.296275 0.332545 0.664427
Si Si4 0.288470 0.159690 0.439426
Si Si5 0.000000 0.670048 0.127685
O O1 0.500000 0.807850 0.921210
O O2 0.822932 0.728734 0.900963
O O3 0.756415 0.000000 0.921367
O O4 0.741906 0.808484 0.000000
O O5 0.177415 0.721192 0.284224
O O6 0.000000 0.727990 0.190425
O O7 0.000000 0.500000 0.249911
O O8 0.500000 0.286307 0.676402
O O9 0.279797 0.500000 0.655878
O O10 0.217623 0.262621 0.608614
O O11 0.218108 0.209440 0.500000
O O12 0.500000 0.163487 0.439876
O O13 0.220452 0.000000 0.427302
O O14 0.000000 0.500000 0.123791
#
# Coordination Sequence:
#
# PCOD8200456 Si02
#       5
#     8   4   8   8   4
#     4   9  19  37  59  81 108 143 178 212 256 311
#     4   9  20  36  49  68 100 133 166 203 246 295
#     4   9  17  31  51  69  88 122 165 203 238 284
#     4   8  14  26  45  69  96 122 148 188 247 304
#     4  11  22  34  53  81 111 142 176 219 266 309
#
# _framework density 18.762629
#
# number of rings (size 3 to 8) (size 9 to 14) (size 15 to 20)
#    0.000    3.000    0.000    2.250    0.000    4.000 
#    0.000   10.000    0.000    6.750    0.000    0.000 
#    0.000    0.000    0.000    0.000    0.000    0.000 
#
# Total GULP energy -396666.028317 kJ/mol
# GULP energy per Si atom -12395.813385 kJ/mol
# Density = 1.871992 g / cm^3
# Si number density = 18.762629 Si / 1000 Ang^3
#
#
#
# Elastic Constant Matrix: (Units=GPa)
#
#
# Indices 1 2 3 4 5 6 
#
# 1 98.9759 43.2265 72.6878 0.0000 0.0000 0.0000
# 2 43.2265 68.6493 64.0533 0.0000 0.0000 0.0000
# 3 72.6878 64.0533 155.2547 0.0000 0.0000 0.0000
# 4 0.0000 0.0000 0.0000 12.2495 0.0000 0.0000
# 5 0.0000 0.0000 0.0000 0.0000 6.4252 0.0000
# 6 0.0000 0.0000 0.0000 0.0000 0.0000 20.4255
#
#
#
# Elastic Compliance Matrix: (Units=1/GPa)
#
#
# Indices 1 2 3 4 5 6 
#
# 1 0.016449 -0.005157 -0.005573 0.000000 0.000000 0.000000
# 2 -0.005157 0.025301 -0.008024 0.000000 0.000000 0.000000
# 3 -0.005573 -0.008024 0.012361 0.000000 0.000000 0.000000
# 4 0.000000 0.000000 0.000000 0.081636 0.000000 0.000000
# 5 0.000000 0.000000 0.000000 0.000000 0.155637 0.000000
# 6 0.000000 0.000000 0.000000 0.000000 0.000000 0.048958
#
#
# Mechanical properties :
#
#
# Convention : Reuss Voigt Hill
#
# Bulk Modulus (GPa) = 60.23488 75.86836 68.05162
# Shear Modulus (GPa) = 13.04173 17.34753 15.19463
#
# Velocity S-wave (km/s) = 2.63932 3.04399 2.84885
# Velocity P-wave (km/s) = 6.43905 7.27174 6.86802
#
# Compressibility (1/GPa) = 0.01660168
#
# Stress axis : x y z
#
# Youngs Moduli (GPa) = 60.79433 39.52466 80.90080
#
# Poissons Ratio (x) = 0.20383 0.45090
# Poissons Ratio (y) = 0.31352 0.64913
# Poissons Ratio (z) = 0.33884 0.31714
#
# Static dielectric constant tensor:
#      x y z
#    x 3.403360 0.000000 0.000000 
#    y 0.000000 3.301820 0.000000 
#    z 0.000000 0.000000 3.757810 
# 
# 
# High freq. dielectric constant tensor:
#      x y z
#    x 1.728930 0.000000 0.000000 
#    y 0.000000 1.708350 0.000000 
#    z 0.000000 0.000000 1.728040 
# 
# From -- ./inp_files/31626.got.cif
#   From: 2010.03.12/outbox.cif.g09.slc.cpg/sg47_16_cif.got.tgz:31626.got - 2010.04.14 03:12:58.
