data_PCOD8200825
_publ_section_title
;
Structure prediction by ZEFSAII (Michael W. Deem and Ramdas Pophale) SiO2 
 PCOD8200825
Probable space group: P M M M
;
_chemical_formula_sum "Si O2"
_cell_formula_units_Z 44
_cell_length_a 9.476215
_cell_length_b 28.703041
_cell_length_c 9.366127
_cell_angle_alpha 90.000000
_cell_angle_beta 90.000000
_cell_angle_gamma 90.000000
_cell_volume 2547.550837
_symmetry_space_group_name_H-M "P M M M"
_symmetry_group_IT_number 47
_symmetry_cell_setting 'orthorhombic'
loop_
_space_group_symop_operation_xyz
x,y,z
-x,-y,z
x,-y,-z
-x,y,-z
-x,-y,-z
x,y,-z
-x,y,z
x,-y,z
loop_
_atom_site_type_symbol
_atom_site_label
_atom_site_fract_x
_atom_site_fract_y
_atom_site_fract_z
Si Si1 0.667996 0.187711 0.840697
Si Si2 0.158852 0.000000 0.829476
Si Si3 0.667819 0.551573 0.660278
Si Si4 0.342560 0.914830 0.830017
Si Si5 0.331667 0.274081 0.338966
Si Si6 0.668405 0.637762 0.839011
O O1 0.500000 0.189692 0.847377
O O2 0.713321 0.136449 0.783768
O O3 0.727561 0.227076 0.734504
O O4 0.728382 0.196886 0.000000
O O5 0.237635 0.045862 0.769601
O O6 0.000000 0.000000 0.769972
O O7 0.160049 0.000000 0.000000
O O8 0.722343 0.562027 0.500000
O O9 0.500000 0.553530 0.660838
O O10 0.718425 0.500000 0.709423
O O11 0.728625 0.590482 0.767457
O O12 0.500000 0.924151 0.769180
O O13 0.348679 0.916660 0.000000
O O14 0.273000 0.276812 0.500000
O O15 0.500000 0.273841 0.339356
O O16 0.274750 0.318298 0.250608
O O17 0.500000 0.637488 0.839145
O O18 0.726781 0.641019 0.000000
#
# Coordination Sequence:
#
# PCOD8200825 Si02
#       6
#     8   4   8   8   8   8
#     4   8  13  21  32  45  61  82 108 135 164 204
#     4   9  15  21  31  51  78 101 120 148 186 221
#     4   8  13  20  27  33  43  62  90 125 164 204
#     4   8  13  21  33  48  68  96 125 149 177 218
#     4   9  15  21  29  41  57  75  95 124 165 209
#     4   9  15  20  26  36  50  69  93 122 159 206
#
# _framework density 17.271488999999999
#
# number of rings (size 3 to 8) (size 9 to 14) (size 15 to 20)
#    0.000    3.545    0.000    3.000    0.000    5.818 
#    0.000    1.818    0.000    0.000    0.000    0.636 
#    0.000    5.818    0.000    0.000    0.000    0.000 
#
# Total GULP energy -545242.548625 kJ/mol
# GULP energy per Si atom -12391.876105 kJ/mol
# Density = 1.723218 g / cm^3
# Si number density = 17.271489 Si / 1000 Ang^3
#
#
#
# Elastic Constant Matrix: (Units=GPa)
#
#
# Indices 1 2 3 4 5 6 
#
# 1 26.6142 30.4722 13.6710 0.0000 0.0000 0.0000
# 2 30.4722 193.4290 84.6757 0.0000 0.0000 0.0000
# 3 13.6710 84.6757 105.8181 0.0000 0.0000 0.0000
# 4 0.0000 0.0000 0.0000 16.0300 0.0000 0.0000
# 5 0.0000 0.0000 0.0000 0.0000 1.8864 0.0000
# 6 0.0000 0.0000 0.0000 0.0000 0.0000 0.9398
#
#
#
# Elastic Compliance Matrix: (Units=1/GPa)
#
#
# Indices 1 2 3 4 5 6 
#
# 1 0.045846 -0.007126 -0.000221 0.000000 0.000000 0.000000
# 2 -0.007126 0.009065 -0.006333 0.000000 0.000000 0.000000
# 3 -0.000221 -0.006333 0.014546 0.000000 0.000000 0.000000
# 4 0.000000 0.000000 0.000000 0.062383 0.000000 0.000000
# 5 0.000000 0.000000 0.000000 0.000000 0.530114 0.000000
# 6 0.000000 0.000000 0.000000 0.000000 0.000000 1.064010
#
#
# Mechanical properties :
#
#
# Convention : Reuss Voigt Hill
#
# Bulk Modulus (GPa) = 23.75420 64.83324 44.29372
# Shear Modulus (GPa) = 2.82908 16.90739 9.86824
#
# Velocity S-wave (km/s) = 1.28123 3.13216 2.39291
# Velocity P-wave (km/s) = 3.99650 7.12038 5.77373
#
# Compressibility (1/GPa) = 0.04209782
#
# Stress axis : x y z
#
# Youngs Moduli (GPa) = 21.81207 110.31712 68.74531
#
# Poissons Ratio (x) = 0.78609 0.01520
# Poissons Ratio (y) = 0.15543 0.43537
# Poissons Ratio (z) = 0.00482 0.69864
#
# Static dielectric constant tensor:
#      x y z
#    x 2.482100 0.000000 0.000000 
#    y 0.000000 3.698130 0.000000 
#    z 0.000000 0.000000 3.133840 
# 
# 
# High freq. dielectric constant tensor:
#      x y z
#    x 1.572070 0.000000 0.000000 
#    y 0.000000 1.691060 0.000000 
#    z 0.000000 0.000000 1.639710 
# 
# From -- ./inp_files/2287.got.cif
#   From: 2010.03.12/outbox.cif.g09.slc.cpg/sg47_2_cif.got.tgz:2287.got - 2010.04.14 03:12:58.
