data_PCOD8200734
_publ_section_title
;
Structure prediction by ZEFSAII (Michael W. Deem and Ramdas Pophale) SiO2 
 PCOD8200734
Probable space group: P M M M
;
_chemical_formula_sum "Si O2"
_cell_formula_units_Z 40
_cell_length_a 9.318399
_cell_length_b 25.995792
_cell_length_c 9.729664
_cell_angle_alpha 90.000000
_cell_angle_beta 90.000000
_cell_angle_gamma 90.000000
_cell_volume 2356.905656
_symmetry_space_group_name_H-M "P M M M"
_symmetry_group_IT_number 47
_symmetry_cell_setting 'orthorhombic'
loop_
_space_group_symop_operation_xyz
x,y,z
-x,-y,z
x,-y,-z
-x,y,-z
-x,-y,-z
x,y,-z
-x,y,z
x,-y,z
loop_
_atom_site_type_symbol
_atom_site_label
_atom_site_fract_x
_atom_site_fract_y
_atom_site_fract_z
Si Si1 0.167379 0.808261 0.841020
Si Si2 0.837518 0.500000 0.163778
Si Si3 0.661577 0.402073 0.836007
Si Si4 0.656551 0.000000 0.337497
Si Si5 0.159190 0.693187 0.163289
Si Si6 0.671156 0.889033 0.656661
O O1 0.208075 0.750397 0.792948
O O2 0.261330 0.846796 0.753564
O O3 0.000000 0.818638 0.815291
O O4 0.206403 0.816278 0.000000
O O5 0.754859 0.550201 0.219506
O O6 0.000000 0.500000 0.220938
O O7 0.839220 0.500000 0.000000
O O8 0.500000 0.406687 0.778762
O O9 0.730438 0.349175 0.778686
O O10 0.660607 0.402125 0.000000
O O11 0.732911 0.054182 0.297373
O O12 0.500000 0.000000 0.267248
O O13 0.635960 0.000000 0.500000
O O14 0.000000 0.681255 0.221457
O O15 0.152830 0.690442 0.000000
O O16 0.716076 0.877045 0.500000
O O17 0.500000 0.888445 0.671642
#
# Coordination Sequence:
#
# PCOD8200734 Si02
#       6
#     8   4   8   4   8   8
#     4   9  18  31  45  63  89 119 149 181 218 262
#     4   9  15  21  29  41  61  93 130 165 204 251
#     4   9  15  21  30  46  67  91 125 170 212 247
#     4   7  12  26  46  65  86 112 142 177 216 259
#     4   8  14  25  38  50  69 101 137 168 202 250
#     4   9  17  30  49  70  89 112 145 183 221 262
#
# _framework density 16.971405000000001
#
# number of rings (size 3 to 8) (size 9 to 14) (size 15 to 20)
#    0.000    3.400    0.000    3.300    0.000    5.200 
#    0.000    3.000    0.000    4.800    0.000    0.000 
#    0.000    0.000    0.000    0.900    0.000   17.800 
#
# Total GULP energy -495594.746848 kJ/mol
# GULP energy per Si atom -12389.868671 kJ/mol
# Density = 1.693278 g / cm^3
# Si number density = 16.971405 Si / 1000 Ang^3
#
#
#
# Elastic Constant Matrix: (Units=GPa)
#
#
# Indices 1 2 3 4 5 6 
#
# 1 99.2999 81.3307 24.0661 0.0000 0.0000 0.0000
# 2 81.3307 172.1670 35.3544 0.0000 0.0000 0.0000
# 3 24.0661 35.3544 26.7258 0.0000 0.0000 0.0000
# 4 0.0000 0.0000 0.0000 -12.0883 0.0000 0.0000
# 5 0.0000 0.0000 0.0000 0.0000 14.0856 0.0000
# 6 0.0000 0.0000 0.0000 0.0000 0.0000 27.0040
#
#
#
# Elastic Compliance Matrix: (Units=1/GPa)
#
#
# Indices 1 2 3 4 5 6 
#
# 1 0.017214 -0.006794 -0.006513 0.000000 0.000000 0.000000
# 2 -0.006794 0.010656 -0.007979 0.000000 0.000000 0.000000
# 3 -0.006513 -0.007979 0.053836 0.000000 0.000000 0.000000
# 4 0.000000 0.000000 0.000000 -0.082724 0.000000 0.000000
# 5 0.000000 0.000000 0.000000 0.000000 0.070995 0.000000
# 6 0.000000 0.000000 0.000000 0.000000 0.000000 0.037032
#
#
# Mechanical properties :
#
#
# Convention : Reuss Voigt Hill
#
# Bulk Modulus (GPa) = 25.55269 64.41058 44.98164
# Shear Modulus (GPa) = 30.74572 16.29635 23.52103
#
# Velocity S-wave (km/s) = 4.26093 3.10211 3.72684
# Velocity P-wave (km/s) = 6.26868 7.13201 6.71424
#
# Compressibility (1/GPa) = 0.03913482
#
# Stress axis : x y z
#
# Youngs Moduli (GPa) = 58.09326 93.84136 18.57486
#
# Poissons Ratio (x) = 0.63758 0.12097
# Poissons Ratio (y) = 0.39470 0.14820
# Poissons Ratio (z) = 0.37835 0.74873
#
# Static dielectric constant tensor:
#      x y z
#    x 3.167390 0.000000 0.000000 
#    y 0.000000 3.599970 0.000000 
#    z 0.000000 0.000000 2.521280 
# 
# 
# High freq. dielectric constant tensor:
#      x y z
#    x 1.646210 0.000000 0.000000 
#    y 0.000000 1.677660 0.000000 
#    z 0.000000 0.000000 1.577900 
# 
# From -- ./inp_files/1809.got.cif
#   From: 2010.03.12/outbox.cif.g09.slc.cpg/sg47_1_cif.got.tgz:1809.got - 2010.04.14 03:12:58.
