data_PCOD8200202
_publ_section_title
;
Structure prediction by ZEFSAII (Michael W. Deem and Ramdas Pophale) SiO2 
 PCOD8200202
Probable space group: P M M M
;
_chemical_formula_sum "Si O2"
_cell_formula_units_Z 52
_cell_length_a 9.264984
_cell_length_b 14.265031
_cell_length_c 26.880048
_cell_angle_alpha 90.000000
_cell_angle_beta 90.000000
_cell_angle_gamma 90.000000
_cell_volume 3552.609177
_symmetry_space_group_name_H-M "P M M M"
_symmetry_group_IT_number 47
_symmetry_cell_setting 'orthorhombic'
loop_
_space_group_symop_operation_xyz
x,y,z
-x,-y,z
x,-y,-z
-x,y,-z
-x,-y,-z
x,y,-z
-x,y,z
x,-y,z
loop_
_atom_site_type_symbol
_atom_site_label
_atom_site_fract_x
_atom_site_fract_y
_atom_site_fract_z
Si Si1 0.336745 0.111675 0.500000
Si Si2 0.669233 0.760094 0.885633
Si Si3 0.339695 0.889094 0.688135
Si Si4 0.162468 0.111854 0.404707
Si Si5 0.842542 0.897959 0.941961
Si Si6 0.328214 0.105568 0.798435
Si Si7 0.168466 0.608604 0.056528
O O1 0.500000 0.150699 0.500000
O O2 0.254223 0.149686 0.451361
O O3 0.338154 0.000000 0.500000
O O4 0.500000 0.741362 0.883069
O O5 0.710053 0.830645 0.929650
O O6 0.728074 0.812825 0.835737
O O7 0.746908 0.662609 0.899440
O O8 0.500000 0.846077 0.680536
O O9 0.233528 0.848323 0.645994
O O10 0.278236 0.864354 0.742957
O O11 0.350684 0.000000 0.682688
O O12 0.000000 0.150997 0.408633
O O13 0.161209 0.000000 0.404550
O O14 0.000000 0.859469 0.923438
O O15 0.813999 0.000000 0.917804
O O16 0.848038 0.908927 0.000000
O O17 0.500000 0.101565 0.800547
O O18 0.269655 0.000000 0.811351
O O19 0.204558 0.500000 0.064071
O O20 0.000000 0.628579 0.063392
O O21 0.214000 0.639055 0.000000
#
# Coordination Sequence:
#
# PCOD8200202 Si02
#       7
#     4   8   8   8   8   8   8
#     4   9  15  21  29  41  57  81 115 149 184 233
#     4  11  20  28  43  66  86 101 121 156 198 232
#     4   8  13  23  37  47  59  88 126 153 175 214
#     4   9  15  21  29  43  63  83 107 149 200 232
#     4   9  18  31  43  55  76 107 136 156 178 217
#     4   8  15  27  40  55  78 106 131 154 184 225
#     4   9  19  36  53  64  77 101 129 154 186 234
#
# _framework density 14.637129
#
# number of rings (size 3 to 8) (size 9 to 14) (size 15 to 20)
#    0.000    3.000    0.000    3.923    0.000    6.462 
#    0.000    3.077    0.000    3.692    0.000    0.000 
#    0.000    0.000    0.000    0.000    0.000    0.000 
#
# Total GULP energy -644194.053822 kJ/mol
# GULP energy per Si atom -12388.347189 kJ/mol
# Density = 1.460381 g / cm^3
# Si number density = 14.637129 Si / 1000 Ang^3
#
#
#
# Elastic Constant Matrix: (Units=GPa)
#
#
# Indices 1 2 3 4 5 6 
#
# 1 74.8015 24.4007 50.3308 0.0000 0.0000 0.0000
# 2 24.4007 48.7471 37.8817 0.0000 0.0000 0.0000
# 3 50.3308 37.8817 108.2368 0.0000 0.0000 0.0000
# 4 0.0000 0.0000 0.0000 0.3334 0.0000 0.0000
# 5 0.0000 0.0000 0.0000 0.0000 15.7949 0.0000
# 6 0.0000 0.0000 0.0000 0.0000 0.0000 14.5160
#
#
#
# Elastic Compliance Matrix: (Units=1/GPa)
#
#
# Indices 1 2 3 4 5 6 
#
# 1 0.019960 -0.003816 -0.007946 0.000000 0.000000 0.000000
# 2 -0.003816 0.028908 -0.008343 0.000000 0.000000 0.000000
# 3 -0.007946 -0.008343 0.015854 0.000000 0.000000 0.000000
# 4 0.000000 0.000000 0.000000 2.999390 0.000000 0.000000
# 5 0.000000 0.000000 0.000000 0.000000 0.063312 0.000000
# 6 0.000000 0.000000 0.000000 0.000000 0.000000 0.068890
#
#
# Mechanical properties :
#
#
# Convention : Reuss Voigt Hill
#
# Bulk Modulus (GPa) = 40.79719 50.77907 45.78813
# Shear Modulus (GPa) = 1.54098 14.07367 7.80733
#
# Velocity S-wave (km/s) = 1.02717 3.10418 2.31203
# Velocity P-wave (km/s) = 5.41661 6.90037 6.20302
#
# Compressibility (1/GPa) = 0.02451149
#
# Stress axis : x y z
#
# Youngs Moduli (GPa) = 50.10003 34.59307 63.07664
#
# Poissons Ratio (x) = 0.13202 0.50120
# Poissons Ratio (y) = 0.19120 0.52623
# Poissons Ratio (z) = 0.39809 0.28860
#
# Static dielectric constant tensor:
#      x y z
#    x 2.894160 0.000000 0.000000 
#    y 0.000000 2.492090 0.000000 
#    z 0.000000 0.000000 3.038460 
# 
# 
# High freq. dielectric constant tensor:
#      x y z
#    x 1.557380 0.000000 0.000000 
#    y 0.000000 1.495840 0.000000 
#    z 0.000000 0.000000 1.557910 
# 
# From -- ./inp_files/33413.got.cif
#   From: 2010.03.12/outbox.cif.g09.slc.cpg/sg47_17_cif.got.tgz:33413.got - 2010.04.14 03:12:58.
