data_PCOD8200431
_publ_section_title
;
Structure prediction by ZEFSAII (Michael W. Deem and Ramdas Pophale) SiO2 
 PCOD8200431
Probable space group: P M M M
;
_chemical_formula_sum "Si O2"
_cell_formula_units_Z 52
_cell_length_a 13.988540
_cell_length_b 23.671938
_cell_length_c 9.052434
_cell_angle_alpha 90.000000
_cell_angle_beta 90.000000
_cell_angle_gamma 90.000000
_cell_volume 2997.585442
_symmetry_space_group_name_H-M "P M M M"
_symmetry_group_IT_number 47
_symmetry_cell_setting 'orthorhombic'
loop_
_space_group_symop_operation_xyz
x,y,z
-x,-y,z
x,-y,-z
-x,y,-z
-x,-y,-z
x,y,-z
-x,y,z
x,-y,z
loop_
_atom_site_type_symbol
_atom_site_label
_atom_site_fract_x
_atom_site_fract_y
_atom_site_fract_z
Si Si1 0.239380 0.826961 0.673237
Si Si2 0.794400 0.063618 0.823093
Si Si3 0.391087 0.759828 0.835010
Si Si4 0.110802 0.261135 0.825532
Si Si5 0.000000 0.065532 0.157714
Si Si6 0.606962 0.435392 0.326269
Si Si7 0.729292 0.347136 0.164610
O O1 0.221985 0.831642 0.500000
O O2 0.266107 0.888550 0.741626
O O3 0.333728 0.791839 0.708393
O O4 0.147591 0.796176 0.747140
O O5 0.901120 0.078310 0.758529
O O6 0.762175 0.000000 0.777596
O O7 0.790576 0.069438 0.000000
O O8 0.500000 0.763724 0.787967
O O9 0.360020 0.695042 0.836117
O O10 0.373293 0.785440 0.000000
O O11 0.175223 0.314947 0.773423
O O12 0.000000 0.271733 0.783865
O O13 0.125277 0.252320 0.000000
O O14 0.000000 0.000000 0.119493
O O15 0.000000 0.098431 0.000000
O O16 0.610716 0.427545 0.500000
O O17 0.500000 0.417389 0.270252
O O18 0.625394 0.500000 0.280809
O O19 0.695454 0.399898 0.261206
O O20 0.751592 0.369235 0.000000
#
# Coordination Sequence:
#
# PCOD8200431 Si02
#       7
#     8   8   8   8   4   8   8
#     4  11  22  32  46  73 105 129 154 194 246 297
#     4   9  17  31  50  69  91 124 165 200 234 285
#     4   9  18  34  54  73  95 125 163 203 240 286
#     4   9  19  36  54  69  92 130 170 205 241 285
#     4   7  12  24  43  65  83 107 149 191 222 261
#     4   9  18  31  46  68 101 138 168 192 229 288
#     4   9  17  30  50  76  98 119 157 205 249 283
#
# _framework density 17.347294999999999
#
# number of rings (size 3 to 8) (size 9 to 14) (size 15 to 20)
#    0.000    2.846    0.000    4.154    1.077    4.615 
#    0.000    0.769    0.000    2.308    0.000    6.462 
#    0.000    0.000    0.000    0.000    0.000    0.000 
#
# Total GULP energy -644181.600137 kJ/mol
# GULP energy per Si atom -12388.107695 kJ/mol
# Density = 1.730781 g / cm^3
# Si number density = 17.347295 Si / 1000 Ang^3
#
#
#
# Elastic Constant Matrix: (Units=GPa)
#
#
# Indices 1 2 3 4 5 6 
#
# 1 95.1466 43.4846 29.0807 0.0000 0.0000 0.0000
# 2 43.4846 100.1449 42.6116 0.0000 0.0000 0.0000
# 3 29.0807 42.6116 60.1303 0.0000 0.0000 0.0000
# 4 0.0000 0.0000 0.0000 16.1543 0.0000 0.0000
# 5 0.0000 0.0000 0.0000 0.0000 19.0351 0.0000
# 6 0.0000 0.0000 0.0000 0.0000 0.0000 15.4070
#
#
#
# Elastic Compliance Matrix: (Units=1/GPa)
#
#
# Indices 1 2 3 4 5 6 
#
# 1 0.013587 -0.004444 -0.003422 0.000000 0.000000 0.000000
# 2 -0.004444 0.015750 -0.009012 0.000000 0.000000 0.000000
# 3 -0.003422 -0.009012 0.024672 0.000000 0.000000 0.000000
# 4 0.000000 0.000000 0.000000 0.061903 0.000000 0.000000
# 5 0.000000 0.000000 0.000000 0.000000 0.052534 0.000000
# 6 0.000000 0.000000 0.000000 0.000000 0.000000 0.064905
#
#
# Mechanical properties :
#
#
# Convention : Reuss Voigt Hill
#
# Bulk Modulus (GPa) = 49.37492 53.97509 51.67500
# Shear Modulus (GPa) = 18.25768 19.46896 18.86332
#
# Velocity S-wave (km/s) = 3.24771 3.35372 3.30114
# Velocity P-wave (km/s) = 6.52594 6.79548 6.66207
#
# Compressibility (1/GPa) = 0.02025320
#
# Stress axis : x y z
#
# Youngs Moduli (GPa) = 73.60068 63.49358 40.53191
#
# Poissons Ratio (x) = 0.28214 0.13870
# Poissons Ratio (y) = 0.32705 0.36527
# Poissons Ratio (z) = 0.25186 0.57220
#
# Static dielectric constant tensor:
#      x y z
#    x 3.360310 0.000000 0.000000 
#    y 0.000000 3.156290 0.000000 
#    z 0.000000 0.000000 2.975860 
# 
# 
# High freq. dielectric constant tensor:
#      x y z
#    x 1.654590 0.000000 0.000000 
#    y 0.000000 1.661290 0.000000 
#    z 0.000000 0.000000 1.648540 
# 
# From -- ./inp_files/7593.got.cif
#   From: 2010.03.12/outbox.cif.g09.slc.cpg/sg47_4_cif.got.tgz:7593.got - 2010.04.14 03:12:58.
