data_PCOD8200361
_publ_section_title
;
Structure prediction by ZEFSAII (Michael W. Deem and Ramdas Pophale) SiO2 
 PCOD8200361
Probable space group: P M M M
;
_chemical_formula_sum "Si O2"
_cell_formula_units_Z 28
_cell_length_a 16.853490
_cell_length_b 11.713939
_cell_length_c 7.715603
_cell_angle_alpha 90.000000
_cell_angle_beta 90.000000
_cell_angle_gamma 90.000000
_cell_volume 1523.220160
_symmetry_space_group_name_H-M "P M M M"
_symmetry_group_IT_number 47
_symmetry_cell_setting 'orthorhombic'
loop_
_space_group_symop_operation_xyz
x,y,z
-x,-y,z
x,-y,-z
-x,y,-z
-x,-y,-z
x,y,-z
-x,y,z
x,-y,z
loop_
_atom_site_type_symbol
_atom_site_label
_atom_site_fract_x
_atom_site_fract_y
_atom_site_fract_z
Si Si1 0.091331 0.134744 0.500000
Si Si2 0.827734 0.270912 0.198718
Si Si3 0.500000 0.371946 0.702974
Si Si4 0.906603 0.500000 0.300316
Si Si5 0.332460 0.627117 0.200221
O O1 0.132123 0.179785 0.674750
O O2 0.000000 0.175730 0.500000
O O3 0.098640 0.000000 0.500000
O O4 0.873917 0.389859 0.203002
O O5 0.737922 0.292224 0.270551
O O6 0.829193 0.224593 0.000000
O O7 0.500000 0.500000 0.781164
O O8 0.500000 0.371339 0.500000
O O9 0.418403 0.312684 0.767752
O O10 0.878952 0.500000 0.500000
O O11 0.000000 0.500000 0.284514
O O12 0.330413 0.500000 0.288383
O O13 0.315667 0.611460 0.000000
#
# Coordination Sequence:
#
# PCOD8200361 Si02
#       5
#     4   8   4   4   8
#     4  11  26  45  61  80 107 143 192 245 290 332
#     4  11  22  37  59  85 113 149 187 227 281 339
#     4   9  17  25  41  71 109 152 185 210 252 314
#     4  11  21  33  53  83 117 148 178 221 282 345
#     4   9  17  30  47  74 112 149 181 216 262 324
#
# _framework density 18.382110999999998
#
# number of rings (size 3 to 8) (size 9 to 14) (size 15 to 20)
#    0.000    1.857    2.857    1.714    2.000    5.143 
#    0.000    1.429    0.000    0.000    0.000    2.000 
#    0.000    4.571    0.000    0.000    0.000    0.000 
#
# Total GULP energy -347059.715213 kJ/mol
# GULP energy per Si atom -12394.989829 kJ/mol
# Density = 1.834027 g / cm^3
# Si number density = 18.382111 Si / 1000 Ang^3
#
#
#
# Elastic Constant Matrix: (Units=GPa)
#
#
# Indices 1 2 3 4 5 6 
#
# 1 174.7725 44.0273 50.5179 0.0000 0.0000 0.0000
# 2 44.0273 53.7900 24.5640 0.0000 0.0000 0.0000
# 3 50.5179 24.5640 81.6688 0.0000 0.0000 0.0000
# 4 0.0000 0.0000 0.0000 245.7405 0.0000 0.0000
# 5 0.0000 0.0000 0.0000 0.0000 26.7671 0.0000
# 6 0.0000 0.0000 0.0000 0.0000 0.0000 4.6939
#
#
#
# Elastic Compliance Matrix: (Units=1/GPa)
#
#
# Indices 1 2 3 4 5 6 
#
# 1 0.007961 -0.004947 -0.003437 0.000000 0.000000 0.000000
# 2 -0.004947 0.024625 -0.004347 0.000000 0.000000 0.000000
# 3 -0.003437 -0.004347 0.015678 0.000000 0.000000 0.000000
# 4 0.000000 0.000000 0.000000 0.004069 0.000000 0.000000
# 5 0.000000 0.000000 0.000000 0.000000 0.037359 0.000000
# 6 0.000000 0.000000 0.000000 0.000000 0.000000 0.213042
#
#
# Mechanical properties :
#
#
# Convention : Reuss Voigt Hill
#
# Bulk Modulus (GPa) = 43.85281 60.93883 52.39582
# Shear Modulus (GPa) = 14.88999 68.18178 41.53588
#
# Velocity S-wave (km/s) = 2.84918 6.09688 4.75866
# Velocity P-wave (km/s) = 5.89337 9.09866 7.66543
#
# Compressibility (1/GPa) = 0.02280356
#
# Stress axis : x y z
#
# Youngs Moduli (GPa) = 125.60768 40.60945 63.78466
#
# Poissons Ratio (x) = 0.20089 0.21921
# Poissons Ratio (y) = 0.62137 0.27724
# Poissons Ratio (z) = 0.43168 0.17651
#
# Static dielectric constant tensor:
#      x y z
#    x 4.000750 0.000000 0.000000 
#    y 0.000000 2.907800 0.000000 
#    z 0.000000 0.000000 3.403980 
# 
# 
# High freq. dielectric constant tensor:
#      x y z
#    x 1.741390 0.000000 0.000000 
#    y 0.000000 1.638700 0.000000 
#    z 0.000000 0.000000 1.720840 
# 
# From -- ./inp_files/8543.got.cif
#   From: 2010.03.12/outbox.cif.g09.slc.cpg/sg47_5_cif.got.tgz:8543.got - 2010.04.14 03:12:58.
