data_PCOD8200578
_publ_section_title
;
Structure prediction by ZEFSAII (Michael W. Deem and Ramdas Pophale) SiO2 
 PCOD8200578
Probable space group: P M M M
;
_chemical_formula_sum "Si O2"
_cell_formula_units_Z 48
_cell_length_a 15.663574
_cell_length_b 9.220555
_cell_length_c 17.632012
_cell_angle_alpha 90.000000
_cell_angle_beta 90.000000
_cell_angle_gamma 90.000000
_cell_volume 2546.535874
_symmetry_space_group_name_H-M "P M M M"
_symmetry_group_IT_number 47
_symmetry_cell_setting 'orthorhombic'
loop_
_space_group_symop_operation_xyz
x,y,z
-x,-y,z
x,-y,-z
-x,y,-z
-x,-y,-z
x,y,-z
-x,y,z
x,-y,z
loop_
_atom_site_type_symbol
_atom_site_label
_atom_site_fract_x
_atom_site_fract_y
_atom_site_fract_z
Si Si1 0.167099 0.665938 0.654297
Si Si2 0.500000 0.839911 0.911412
Si Si3 0.151727 0.326214 0.823449
Si Si4 0.636179 0.659785 0.668711
Si Si5 0.900432 0.663511 0.500000
Si Si6 0.000000 0.829445 0.089695
Si Si7 0.346424 0.335350 0.156345
Si Si8 0.500000 0.169920 0.583684
O O1 0.136738 0.500000 0.654430
O O2 0.137631 0.729290 0.736182
O O3 0.267192 0.681991 0.645504
O O4 0.128424 0.743277 0.578679
O O5 0.411844 0.760723 0.890798
O O6 0.500000 0.000000 0.873540
O O7 0.500000 0.855654 0.000000
O O8 0.139795 0.500000 0.828234
O O9 0.247497 0.284056 0.851191
O O10 0.084388 0.244825 0.876241
O O11 0.604521 0.500000 0.643658
O O12 0.623231 0.676443 0.757686
O O13 0.584083 0.782311 0.626976
O O14 0.861635 0.500000 0.500000
O O15 0.000000 0.660238 0.500000
O O16 0.000000 0.000000 0.109052
O O17 0.000000 0.802465 0.000000
O O18 0.353673 0.500000 0.126990
O O19 0.500000 0.238483 0.500000
O O20 0.500000 0.000000 0.579636
#
# Coordination Sequence:
#
# PCOD8200578 Si02
#       8
#     8   4   8   8   4   4   8   4
#     4   8  16  30  50  81 113 139 172 220 268 314
#     4  11  24  37  52  80 114 147 182 219 268 336
#     4   9  19  37  61  85 111 144 185 231 279 330
#     4   9  18  34  55  77 101 134 179 223 264 312
#     4   9  16  24  42  79 116 139 165 208 266 314
#     4  11  25  41  57  82 115 148 184 229 277 329
#     4   9  19  37  59  84 110 138 179 230 279 328
#     4  11  24  35  44  68 106 143 182 223 266 312
#
# _framework density 18.849135
#
# number of rings (size 3 to 8) (size 9 to 14) (size 15 to 20)
#    0.000    2.667    0.000    3.250    2.333    6.000 
#    0.000    5.833    0.000    0.000    0.000    0.583 
#    0.000    0.000    0.000    0.000    0.000    0.000 
#
# Total GULP energy -594824.064970 kJ/mol
# GULP energy per Si atom -12392.168020 kJ/mol
# Density = 1.880623 g / cm^3
# Si number density = 18.849135 Si / 1000 Ang^3
#
#
#
# Elastic Constant Matrix: (Units=GPa)
#
#
# Indices 1 2 3 4 5 6 
#
# 1 106.9926 48.9555 71.1425 0.0000 0.0000 0.0000
# 2 48.9555 67.6633 43.5679 0.0000 0.0000 0.0000
# 3 71.1425 43.5679 112.3206 0.0000 0.0000 0.0000
# 4 0.0000 0.0000 0.0000 20.0854 0.0000 0.0000
# 5 0.0000 0.0000 0.0000 0.0000 32.9407 0.0000
# 6 0.0000 0.0000 0.0000 0.0000 0.0000 7.8711
#
#
#
# Elastic Compliance Matrix: (Units=1/GPa)
#
#
# Indices 1 2 3 4 5 6 
#
# 1 0.018888 -0.007948 -0.008881 0.000000 0.000000 0.000000
# 2 -0.007948 0.023043 -0.003904 0.000000 0.000000 0.000000
# 3 -0.008881 -0.003904 0.016042 0.000000 0.000000 0.000000
# 4 0.000000 0.000000 0.000000 0.049787 0.000000 0.000000
# 5 0.000000 0.000000 0.000000 0.000000 0.030358 0.000000
# 6 0.000000 0.000000 0.000000 0.000000 0.000000 0.127046
#
#
# Mechanical properties :
#
#
# Convention : Reuss Voigt Hill
#
# Bulk Modulus (GPa) = 60.57464 68.25648 64.41556
# Shear Modulus (GPa) = 16.01883 20.40016 18.20950
#
# Velocity S-wave (km/s) = 2.91837 3.29338 3.11153
# Velocity P-wave (km/s) = 6.60017 7.12407 6.86712
#
# Compressibility (1/GPa) = 0.01650856
#
# Stress axis : x y z
#
# Youngs Moduli (GPa) = 52.94400 43.39679 62.33484
#
# Poissons Ratio (x) = 0.34490 0.55357
# Poissons Ratio (y) = 0.42077 0.24337
# Poissons Ratio (z) = 0.47017 0.16943
#
# Static dielectric constant tensor:
#      x y z
#    x 3.383700 0.000000 0.000000 
#    y 0.000000 3.222570 0.000000 
#    z 0.000000 0.000000 3.666220 
# 
# 
# High freq. dielectric constant tensor:
#      x y z
#    x 1.742160 0.000000 0.000000 
#    y 0.000000 1.691550 0.000000 
#    z 0.000000 0.000000 1.742310 
# 
# From -- ./inp_files/28099.got.cif
#   From: 2010.03.12/outbox.cif.g09.slc.cpg/sg47_15_cif.got.tgz:28099.got - 2010.04.14 03:12:58.
