data_PCOD8200664
_publ_section_title
;
Structure prediction by ZEFSAII (Michael W. Deem and Ramdas Pophale) SiO2 
 PCOD8200664
Probable space group: P M M M
;
_chemical_formula_sum "Si O2"
_cell_formula_units_Z 52
_cell_length_a 20.762217
_cell_length_b 8.635444
_cell_length_c 14.633258
_cell_angle_alpha 90.000000
_cell_angle_beta 90.000000
_cell_angle_gamma 90.000000
_cell_volume 2623.610907
_symmetry_space_group_name_H-M "P M M M"
_symmetry_group_IT_number 47
_symmetry_cell_setting 'orthorhombic'
loop_
_space_group_symop_operation_xyz
x,y,z
-x,-y,z
x,-y,-z
-x,y,-z
-x,-y,-z
x,y,-z
-x,y,z
x,-y,z
loop_
_atom_site_type_symbol
_atom_site_label
_atom_site_fract_x
_atom_site_fract_y
_atom_site_fract_z
Si Si1 0.116012 0.679679 0.281537
Si Si2 0.000000 0.182579 0.395607
Si Si3 0.370783 0.816206 0.401608
Si Si4 0.225254 0.821956 0.605631
Si Si5 0.429451 0.184774 0.780216
Si Si6 0.831557 0.183058 0.104949
Si Si7 0.312969 0.816031 0.898688
O O1 0.099352 0.500000 0.280594
O O2 0.183268 0.711114 0.331281
O O3 0.119312 0.737419 0.176017
O O4 0.062103 0.766369 0.339390
O O5 0.000000 0.250448 0.500000
O O6 0.000000 0.000000 0.402074
O O7 0.392638 0.747887 0.500000
O O8 0.298089 0.764877 0.378963
O O9 0.419347 0.757524 0.323829
O O10 0.370832 0.000000 0.407105
O O11 0.204818 0.804746 0.500000
O O12 0.216224 0.000000 0.637430
O O13 0.500000 0.243501 0.813527
O O14 0.370798 0.256419 0.838671
O O15 0.427029 0.000000 0.785413
O O16 0.758604 0.233799 0.133251
O O17 0.839505 0.000000 0.112787
O O18 0.846257 0.235022 0.000000
O O19 0.316764 0.000000 0.896367
O O20 0.325009 0.753062 0.000000
#
# Coordination Sequence:
#
# PCOD8200664 Si02
#       7
#     8   4   8   8   8   8   8
#     4  12  24  36  55  84 117 145 168 210 270 317
#     4  11  25  45  66  85 110 149 191 218 238 285
#     4   8  14  24  38  57  82 117 165 216 258 300
#     4   9  17  31  52  74  97 133 181 224 261 311
#     4   9  15  20  29  51  87 129 165 200 252 316
#     4   9  18  35  59  81 102 137 185 227 261 308
#     4   8  14  25  42  64  89 121 165 214 258 302
#
# _framework density 19.820012999999999
#
# number of rings (size 3 to 8) (size 9 to 14) (size 15 to 20)
#    0.000    2.692    0.000    4.846    0.000    6.154 
#    0.000    3.462    0.000    2.308    0.000    0.000 
#    0.000    9.846    0.000   27.077    0.000   27.077 
#
# Total GULP energy -644409.171593 kJ/mol
# GULP energy per Si atom -12392.484069 kJ/mol
# Density = 1.977490 g / cm^3
# Si number density = 19.820013 Si / 1000 Ang^3
#
#
#
# Elastic Constant Matrix: (Units=GPa)
#
#
# Indices 1 2 3 4 5 6 
#
# 1 84.9120 16.8524 65.1461 0.0000 0.0000 0.0000
# 2 16.8524 38.1800 24.6321 0.0000 0.0000 0.0000
# 3 65.1461 24.6321 124.4938 0.0000 0.0000 0.0000
# 4 0.0000 0.0000 0.0000 10.0889 0.0000 0.0000
# 5 0.0000 0.0000 0.0000 0.0000 28.8098 0.0000
# 6 0.0000 0.0000 0.0000 0.0000 0.0000 -3.5297
#
#
#
# Elastic Compliance Matrix: (Units=1/GPa)
#
#
# Indices 1 2 3 4 5 6 
#
# 1 0.019861 -0.002363 -0.009925 0.000000 0.000000 0.000000
# 2 -0.002363 0.030305 -0.004760 0.000000 0.000000 0.000000
# 3 -0.009925 -0.004760 0.014168 0.000000 0.000000 0.000000
# 4 0.000000 0.000000 0.000000 0.099119 0.000000 0.000000
# 5 0.000000 0.000000 0.000000 0.000000 0.034710 0.000000
# 6 0.000000 0.000000 0.000000 0.000000 0.000000 -0.283307
#
#
# Mechanical properties :
#
#
# Convention : Reuss Voigt Hill
#
# Bulk Modulus (GPa) = 33.07066 51.20524 42.13795
# Shear Modulus (GPa) = -122.04770 16.47080 -52.78845
#
# Velocity S-wave (km/s) = -7.85568 2.88587 -5.16640
# Velocity P-wave (km/s) = 8.09695 6.08239 3.77922
#
# Compressibility (1/GPa) = 0.03023829
#
# Stress axis : x y z
#
# Youngs Moduli (GPa) = 50.35029 32.99736 70.58102
#
# Poissons Ratio (x) = 0.07797 0.70055
# Poissons Ratio (y) = 0.11898 0.33594
# Poissons Ratio (z) = 0.49975 0.15706
#
# Static dielectric constant tensor:
#      x y z
#    x 3.738380 0.000000 0.000000 
#    y 0.000000 2.958340 0.000000 
#    z 0.000000 0.000000 4.075710 
# 
# 
# High freq. dielectric constant tensor:
#      x y z
#    x 1.767160 0.000000 0.000000 
#    y 0.000000 1.706070 0.000000 
#    z 0.000000 0.000000 1.788510 
# 
# From -- ./inp_files/25011.got.cif
#   From: 2010.03.12/outbox.cif.g09.slc.cpg/sg47_13_cif.got.tgz:25011.got - 2010.04.14 03:12:58.
