data_PCOD8200795
_publ_section_title
;
Structure prediction by ZEFSAII (Michael W. Deem and Ramdas Pophale) SiO2 
 PCOD8200795
Probable space group: P M M M
;
_chemical_formula_sum "Si O2"
_cell_formula_units_Z 52
_cell_length_a 25.866829
_cell_length_b 17.482133
_cell_length_c 9.511306
_cell_angle_alpha 90.000000
_cell_angle_beta 90.000000
_cell_angle_gamma 90.000000
_cell_volume 4301.082432
_symmetry_space_group_name_H-M "P M M M"
_symmetry_group_IT_number 47
_symmetry_cell_setting 'orthorhombic'
loop_
_space_group_symop_operation_xyz
x,y,z
-x,-y,z
x,-y,-z
-x,y,-z
-x,-y,-z
x,y,-z
-x,y,z
x,-y,z
loop_
_atom_site_type_symbol
_atom_site_label
_atom_site_fract_x
_atom_site_fract_y
_atom_site_fract_z
Si Si1 0.648943 0.591043 0.342099
Si Si2 0.059602 0.711522 0.161983
Si Si3 0.556763 0.590967 0.842358
Si Si4 0.061659 0.000000 0.839039
Si Si5 0.762546 0.590893 0.657975
Si Si6 0.142670 0.587095 0.837240
Si Si7 0.938605 0.856520 0.339987
O O1 0.640519 0.620418 0.500000
O O2 0.646074 0.500000 0.337257
O O3 0.602967 0.627484 0.249359
O O4 0.705740 0.618139 0.288175
O O5 0.092016 0.635991 0.198737
O O6 0.079284 0.778840 0.263699
O O7 0.000000 0.691248 0.191040
O O8 0.067506 0.737177 0.000000
O O9 0.500000 0.615556 0.784050
O O10 0.560714 0.500000 0.841056
O O11 0.563583 0.621927 0.000000
O O12 0.082781 0.073431 0.753644
O O13 0.000000 0.000000 0.843116
O O14 0.082813 0.000000 0.000000
O O15 0.772002 0.620918 0.500000
O O16 0.763806 0.500000 0.660684
O O17 0.807974 0.622896 0.756699
O O18 0.131003 0.500000 0.790216
O O19 0.156867 0.591081 0.000000
O O20 0.916721 0.859900 0.500000
O O21 0.000000 0.860820 0.344300
#
# Coordination Sequence:
#
# PCOD8200795 Si02
#       7
#     8   8   8   4   8   8   8
#     4   8  13  20  29  40  52  67  88 112 139 173
#     4   9  17  28  39  50  66  86 105 127 158 195
#     4   8  13  19  25  35  52  71  88 106 131 165
#     4   9  15  23  37  55  73  91 107 121 141 171
#     4   8  14  24  35  45  57  72  91 119 155 190
#     4   9  17  27  38  51  63  77 102 134 165 198
#     4   9  16  25  37  53  71  88 106 126 146 173
#
# _framework density 12.089980000000001
#
# number of rings (size 3 to 8) (size 9 to 14) (size 15 to 20)
#    0.000    3.462    0.000    2.077    0.000    4.615 
#    0.000    6.154    0.000    0.000    0.000    4.308 
#    0.000    0.000    0.000    0.000    0.000    0.000 
#
# Total GULP energy -644338.233364 kJ/mol
# GULP energy per Si atom -12391.119872 kJ/mol
# Density = 1.206246 g / cm^3
# Si number density = 12.089980 Si / 1000 Ang^3
#
#
#
# Elastic Constant Matrix: (Units=GPa)
#
#
# Indices 1 2 3 4 5 6 
#
# 1 79.6009 28.1678 44.6912 0.0000 0.0000 0.0000
# 2 28.1678 41.9222 32.0179 0.0000 0.0000 0.0000
# 3 44.6912 32.0179 73.7211 0.0000 0.0000 0.0000
# 4 0.0000 0.0000 0.0000 11.7712 0.0000 0.0000
# 5 0.0000 0.0000 0.0000 0.0000 20.4021 0.0000
# 6 0.0000 0.0000 0.0000 0.0000 0.0000 0.4760
#
#
#
# Elastic Compliance Matrix: (Units=1/GPa)
#
#
# Indices 1 2 3 4 5 6 
#
# 1 0.020092 -0.006281 -0.009452 0.000000 0.000000 0.000000
# 2 -0.006281 0.037657 -0.012547 0.000000 0.000000 0.000000
# 3 -0.009452 -0.012547 0.024744 0.000000 0.000000 0.000000
# 4 0.000000 0.000000 0.000000 0.084953 0.000000 0.000000
# 5 0.000000 0.000000 0.000000 0.000000 0.049015 0.000000
# 6 0.000000 0.000000 0.000000 0.000000 0.000000 2.100771
#
#
# Mechanical properties :
#
#
# Convention : Reuss Voigt Hill
#
# Bulk Modulus (GPa) = 38.56194 44.99976 41.78085
# Shear Modulus (GPa) = 2.09869 12.55434 7.32652
#
# Velocity S-wave (km/s) = 1.31896 3.22593 2.46438
# Velocity P-wave (km/s) = 5.85530 7.15381 6.53688
#
# Compressibility (1/GPa) = 0.02593230
#
# Stress axis : x y z
#
# Youngs Moduli (GPa) = 49.77048 26.55567 40.41328
#
# Poissons Ratio (x) = 0.16679 0.38201
# Poissons Ratio (y) = 0.31260 0.50707
# Poissons Ratio (z) = 0.47046 0.33320
#
# Static dielectric constant tensor:
#      x y z
#    x 2.582160 0.000000 0.000000 
#    y 0.000000 2.145330 0.000000 
#    z 0.000000 0.000000 2.703970 
# 
# 
# High freq. dielectric constant tensor:
#      x y z
#    x 1.440320 0.000000 0.000000 
#    y 0.000000 1.399520 0.000000 
#    z 0.000000 0.000000 1.468450 
# 
# From -- ./inp_files/13428.got.cif
#   From: 2010.03.12/outbox.cif.g09.slc.cpg/sg47_7_cif.got.tgz:13428.got - 2010.04.14 03:12:58.
