data_PCOD8200001
_publ_section_title
;
Structure prediction by ZEFSAII (Michael W. Deem and Ramdas Pophale) SiO2 
 PCOD8200001
Probable space group: P M M M
;
_chemical_formula_sum "Si O2"
_cell_formula_units_Z 48
_cell_length_a 30.934289
_cell_length_b 8.865082
_cell_length_c 9.008655
_cell_angle_alpha 90.000000
_cell_angle_beta 90.000000
_cell_angle_gamma 90.000000
_cell_volume 2470.488581
_symmetry_space_group_name_H-M "P M M M"
_symmetry_group_IT_number 47
_symmetry_cell_setting 'orthorhombic'
loop_
_space_group_symop_operation_xyz
x,y,z
-x,-y,z
x,-y,-z
-x,y,-z
-x,-y,-z
x,y,-z
-x,y,z
x,-y,z
loop_
_atom_site_type_symbol
_atom_site_label
_atom_site_fract_x
_atom_site_fract_y
_atom_site_fract_z
Si Si1 0.500000 0.177907 0.661437
Si Si2 0.169071 0.323373 0.170045
Si Si3 0.406544 0.827330 0.322800
Si Si4 0.000000 0.670751 0.675271
Si Si5 0.248146 0.174450 0.672644
Si Si6 0.079862 0.176892 0.829081
Si Si7 0.672156 0.674190 0.173326
O O1 0.500000 0.256354 0.500000
O O2 0.454447 0.220393 0.740562
O O3 0.500000 0.000000 0.637972
O O4 0.162069 0.500000 0.188441
O O5 0.207775 0.271538 0.273842
O O6 0.125581 0.242276 0.224383
O O7 0.179942 0.279987 0.000000
O O8 0.405146 0.809574 0.500000
O O9 0.373159 0.714521 0.248035
O O10 0.395523 0.000000 0.278825
O O11 0.957507 0.752966 0.731439
O O12 0.000000 0.500000 0.734560
O O13 0.000000 0.677176 0.500000
O O14 0.256013 0.205497 0.500000
O O15 0.290765 0.222319 0.759192
O O16 0.238573 0.000000 0.705258
O O17 0.080376 0.000000 0.802870
O O18 0.071222 0.218943 0.000000
O O19 0.683110 0.500000 0.205079
O O20 0.669000 0.707878 0.000000
#
# Coordination Sequence:
#
# PCOD8200001 Si02
#       7
#     4   8   8   4   8   8   8
#     4   7  12  26  50  79 108 136 170 217 268 317
#     4  10  21  38  61  88 116 147 183 223 270 325
#     4   9  17  32  56  83 108 137 177 223 270 321
#     4  11  24  39  56  82 116 153 192 235 284 332
#     4  11  24  40  59  84 111 141 180 225 273 325
#     4  10  21  38  61  87 114 148 190 232 276 328
#     4  11  24  39  54  76 108 145 183 223 270 323
#
# _framework density 19.429354
#
# number of rings (size 3 to 8) (size 9 to 14) (size 15 to 20)
#    0.000    2.000    0.000    4.500    0.000   11.333 
#    0.000    0.833    0.000    4.000    0.000    0.000 
#    0.000    0.000    0.000    0.000    0.000    0.000 
#
# Total GULP energy -595218.348095 kJ/mol
# GULP energy per Si atom -12400.382252 kJ/mol
# Density = 1.938513 g / cm^3
# Si number density = 19.429354 Si / 1000 Ang^3
#
#
#
# Elastic Constant Matrix: (Units=GPa)
#
#
# Indices 1 2 3 4 5 6 
#
# 1 138.8790 34.7998 41.5201 0.0000 0.0000 0.0000
# 2 34.7998 63.0564 32.9820 0.0000 0.0000 0.0000
# 3 41.5201 32.9820 61.5572 0.0000 0.0000 0.0000
# 4 0.0000 0.0000 0.0000 30.2194 0.0000 0.0000
# 5 0.0000 0.0000 0.0000 0.0000 59.0098 0.0000
# 6 0.0000 0.0000 0.0000 0.0000 0.0000 41.5905
#
#
#
# Elastic Compliance Matrix: (Units=1/GPa)
#
#
# Indices 1 2 3 4 5 6 
#
# 1 0.009311 -0.002575 -0.004900 0.000000 0.000000 0.000000
# 2 -0.002575 0.022746 -0.010450 0.000000 0.000000 0.000000
# 3 -0.004900 -0.010450 0.025149 0.000000 0.000000 0.000000
# 4 0.000000 0.000000 0.000000 0.033091 0.000000 0.000000
# 5 0.000000 0.000000 0.000000 0.000000 0.016946 0.000000
# 6 0.000000 0.000000 0.000000 0.000000 0.000000 0.024044
#
#
# Mechanical properties :
#
#
# Convention : Reuss Voigt Hill
#
# Bulk Modulus (GPa) = 46.82796 53.56628 50.19712
# Shear Modulus (GPa) = 28.69308 36.44331 32.56820
#
# Velocity S-wave (km/s) = 3.84707 4.33561 4.09863
# Velocity P-wave (km/s) = 6.62475 7.25900 6.94911
#
# Compressibility (1/GPa) = 0.02135476
#
# Stress axis : x y z
#
# Youngs Moduli (GPa) = 107.40150 43.96339 39.76237
#
# Poissons Ratio (x) = 0.11322 0.19485
# Poissons Ratio (y) = 0.27660 0.41552
# Poissons Ratio (z) = 0.52629 0.45943
#
# Static dielectric constant tensor:
#      x y z
#    x 3.819450 0.000000 0.000000 
#    y 0.000000 3.555740 0.000000 
#    z 0.000000 0.000000 3.430390 
# 
# 
# High freq. dielectric constant tensor:
#      x y z
#    x 1.777490 0.000000 0.000000 
#    y 0.000000 1.757110 0.000000 
#    z 0.000000 0.000000 1.741630 
# 
# From -- ./inp_files/13848.got.cif
#   From: 2010.03.12/outbox.cif.g09.slc.cpg/sg47_7_cif.got.tgz:13848.got - 2010.04.14 03:12:58.
