data_PCOD8200751
_publ_section_title
;
Structure prediction by ZEFSAII (Michael W. Deem and Ramdas Pophale) SiO2 
 PCOD8200751
Probable space group: P M M M
;
_chemical_formula_sum "Si O2"
_cell_formula_units_Z 44
_cell_length_a 9.345322
_cell_length_b 28.791681
_cell_length_c 9.681344
_cell_angle_alpha 90.000000
_cell_angle_beta 90.000000
_cell_angle_gamma 90.000000
_cell_volume 2604.935316
_symmetry_space_group_name_H-M "P M M M"
_symmetry_group_IT_number 47
_symmetry_cell_setting 'orthorhombic'
loop_
_space_group_symop_operation_xyz
x,y,z
-x,-y,z
x,-y,-z
-x,y,-z
-x,-y,-z
x,y,-z
-x,y,z
x,-y,z
loop_
_atom_site_type_symbol
_atom_site_label
_atom_site_fract_x
_atom_site_fract_y
_atom_site_fract_z
Si Si1 0.338488 0.000000 0.335911
Si Si2 0.667047 0.732597 0.840669
Si Si3 0.339824 0.549171 0.664080
Si Si4 0.671184 0.351402 0.655638
Si Si5 0.833726 0.823594 0.841074
Si Si6 0.833689 0.910818 0.339629
O O1 0.256377 0.045635 0.282765
O O2 0.500000 0.000000 0.277619
O O3 0.337334 0.000000 0.500000
O O4 0.500000 0.740168 0.812750
O O5 0.728712 0.689206 0.754340
O O6 0.747091 0.778743 0.790514
O O7 0.699714 0.722117 0.000000
O O8 0.346967 0.551511 0.500000
O O9 0.500000 0.547163 0.724349
O O10 0.262145 0.500000 0.709354
O O11 0.267767 0.598239 0.710917
O O12 0.724589 0.341060 0.500000
O O13 0.500000 0.353779 0.659164
O O14 0.783554 0.866468 0.747581
O O15 0.000000 0.812835 0.819310
O O16 0.798818 0.835580 0.000000
O O17 0.801862 0.900654 0.500000
O O18 0.000000 0.922165 0.315417
#
# Coordination Sequence:
#
# PCOD8200751 Si02
#       6
#     4   8   8   8   8   8
#     4   9  17  29  46  69  94 116 138 165 198 238
#     4   9  17  28  41  57  79 107 134 162 202 247
#     4   7   9  14  26  45  69  97 128 160 193 231
#     4   8  13  21  34  53  76 102 133 166 198 237
#     4   9  18  32  47  62  82 109 140 171 202 239
#     4   9  17  30  48  67  86 110 139 169 201 236
#
# _framework density 16.891014999999999
#
# number of rings (size 3 to 8) (size 9 to 14) (size 15 to 20)
#    0.000    3.545    0.000    1.909    0.000    2.545 
#    0.000    0.455    0.000    3.273    0.000    3.818 
#    0.000    0.727    0.000    9.091    0.000    8.364 
#
# Total GULP energy -545105.603884 kJ/mol
# GULP energy per Si atom -12388.763725 kJ/mol
# Density = 1.685257 g / cm^3
# Si number density = 16.891015 Si / 1000 Ang^3
#
#
#
# Elastic Constant Matrix: (Units=GPa)
#
#
# Indices 1 2 3 4 5 6 
#
# 1 36.5927 55.0689 21.9349 0.0000 0.0000 0.0000
# 2 55.0689 214.3134 72.3253 0.0000 0.0000 0.0000
# 3 21.9349 72.3253 51.2629 0.0000 0.0000 0.0000
# 4 0.0000 0.0000 0.0000 8.1949 0.0000 0.0000
# 5 0.0000 0.0000 0.0000 0.0000 11.4471 0.0000
# 6 0.0000 0.0000 0.0000 0.0000 0.0000 4.4088
#
#
#
# Elastic Compliance Matrix: (Units=1/GPa)
#
#
# Indices 1 2 3 4 5 6 
#
# 1 0.045404 -0.009755 -0.005665 0.000000 0.000000 0.000000
# 2 -0.009755 0.011003 -0.011349 0.000000 0.000000 0.000000
# 3 -0.005665 -0.011349 0.037944 0.000000 0.000000 0.000000
# 4 0.000000 0.000000 0.000000 0.122026 0.000000 0.000000
# 5 0.000000 0.000000 0.000000 0.000000 0.087358 0.000000
# 6 0.000000 0.000000 0.000000 0.000000 0.000000 0.226822
#
#
# Mechanical properties :
#
#
# Convention : Reuss Voigt Hill
#
# Bulk Modulus (GPa) = 24.50256 66.75857 45.63056
# Shear Modulus (GPa) = 8.36541 14.99949 11.68245
#
# Velocity S-wave (km/s) = 2.22785 2.98319 2.63275
# Velocity P-wave (km/s) = 4.59951 7.17460 6.02621
#
# Compressibility (1/GPa) = 0.04081207
#
# Stress axis : x y z
#
# Youngs Moduli (GPa) = 22.02447 90.88558 26.35475
#
# Poissons Ratio (x) = 0.88660 0.14929
# Poissons Ratio (y) = 0.21485 0.29911
# Poissons Ratio (z) = 0.12476 1.03150
#
# Static dielectric constant tensor:
#      x y z
#    x 2.796010 0.000000 0.000000 
#    y 0.000000 3.667270 0.000000 
#    z 0.000000 0.000000 2.930910 
# 
# 
# High freq. dielectric constant tensor:
#      x y z
#    x 1.603120 0.000000 0.000000 
#    y 0.000000 1.675210 0.000000 
#    z 0.000000 0.000000 1.616990 
# 
# From -- ./inp_files/2120.got.cif
#   From: 2010.03.12/outbox.cif.g09.slc.cpg/sg47_2_cif.got.tgz:2120.got - 2010.04.14 03:12:58.
