data_PCOD8200608
_publ_section_title
;
Structure prediction by ZEFSAII (Michael W. Deem and Ramdas Pophale) SiO2 
 PCOD8200608
Probable space group: P M M M
;
_chemical_formula_sum "Si O2"
_cell_formula_units_Z 44
_cell_length_a 28.356803
_cell_length_b 9.588327
_cell_length_c 9.040455
_cell_angle_alpha 90.000000
_cell_angle_beta 90.000000
_cell_angle_gamma 90.000000
_cell_volume 2458.048182
_symmetry_space_group_name_H-M "P M M M"
_symmetry_group_IT_number 47
_symmetry_cell_setting 'orthorhombic'
loop_
_space_group_symop_operation_xyz
x,y,z
-x,-y,z
x,-y,-z
-x,y,-z
-x,-y,-z
x,y,-z
-x,y,z
x,-y,z
loop_
_atom_site_type_symbol
_atom_site_label
_atom_site_fract_x
_atom_site_fract_y
_atom_site_fract_z
Si Si1 0.684012 0.845910 0.675602
Si Si2 0.868980 0.660109 0.825181
Si Si3 0.789615 0.162285 0.672681
Si Si4 0.398965 0.343635 0.677513
Si Si5 0.500000 0.333921 0.337472
Si Si6 0.054742 0.841208 0.328988
O O1 0.680072 0.848937 0.500000
O O2 0.736389 0.794482 0.718561
O O3 0.643508 0.747950 0.744119
O O4 0.675536 0.000000 0.739988
O O5 0.868088 0.500000 0.770621
O O6 0.823571 0.739771 0.765052
O O7 0.916361 0.732899 0.768348
O O8 0.868464 0.668914 0.000000
O O9 0.798558 0.188821 0.500000
O O10 0.798868 0.000000 0.710199
O O11 0.400358 0.338008 0.500000
O O12 0.389267 0.500000 0.732260
O O13 0.450293 0.289889 0.740323
O O14 0.500000 0.500000 0.352371
O O15 0.500000 0.265694 0.500000
O O16 0.067727 0.818417 0.500000
O O17 0.000000 0.811336 0.300467
O O18 0.067317 0.000000 0.283376
#
# Coordination Sequence:
#
# PCOD8200608 Si02
#       6
#     8   8   8   8   4   8
#     4   8  14  24  37  55  79 104 135 182 233 273
#     4  11  24  37  49  72 105 134 160 195 238 281
#     4   9  18  33  52  71  91 120 160 202 241 284
#     4   8  12  18  29  45  67  99 139 178 216 263
#     4   7  10  16  25  39  63  97 136 175 212 255
#     4   9  19  37  60  83 104 128 162 200 233 271
#
# _framework density 17.900382
#
# number of rings (size 3 to 8) (size 9 to 14) (size 15 to 20)
#    0.000    3.182    0.000    3.818    0.000    5.818 
#    0.000    5.000    0.000    2.727    0.000    0.000 
#    0.000    0.000    0.000    0.818    0.000   16.909 
#
# Total GULP energy -545207.695139 kJ/mol
# GULP energy per Si atom -12391.083980 kJ/mol
# Density = 1.785964 g / cm^3
# Si number density = 17.900382 Si / 1000 Ang^3
#
#
#
# Elastic Constant Matrix: (Units=GPa)
#
#
# Indices 1 2 3 4 5 6 
#
# 1 156.7585 87.0294 35.1727 0.0000 0.0000 0.0000
# 2 87.0294 110.8024 36.4787 0.0000 0.0000 0.0000
# 3 35.1727 36.4787 33.5456 0.0000 0.0000 0.0000
# 4 0.0000 0.0000 0.0000 18.7449 0.0000 0.0000
# 5 0.0000 0.0000 0.0000 0.0000 -2.8274 0.0000
# 6 0.0000 0.0000 0.0000 0.0000 0.0000 34.9535
#
#
#
# Elastic Compliance Matrix: (Units=1/GPa)
#
#
# Indices 1 2 3 4 5 6 
#
# 1 0.011570 -0.007935 -0.003503 0.000000 0.000000 0.000000
# 2 -0.007935 0.019499 -0.012885 0.000000 0.000000 0.000000
# 3 -0.003503 -0.012885 0.047495 0.000000 0.000000 0.000000
# 4 0.000000 0.000000 0.000000 0.053348 0.000000 0.000000
# 5 0.000000 0.000000 0.000000 0.000000 -0.353678 0.000000
# 6 0.000000 0.000000 0.000000 0.000000 0.000000 0.028609
#
#
# Mechanical properties :
#
#
# Convention : Reuss Voigt Hill
#
# Bulk Modulus (GPa) = 33.42338 68.71867 51.07102
# Shear Modulus (GPa) = -37.16419 19.66923 -8.74748
#
# Velocity S-wave (km/s) = -4.56144 3.31844 -2.21300
# Velocity P-wave (km/s) = 3.00498 7.29078 4.69711
#
# Compressibility (1/GPa) = 0.02991918
#
# Stress axis : x y z
#
# Youngs Moduli (GPa) = 86.42729 51.28403 21.05497
#
# Poissons Ratio (x) = 0.40692 0.07376
# Poissons Ratio (y) = 0.68577 0.27129
# Poissons Ratio (z) = 0.30278 0.66078
#
# Static dielectric constant tensor:
#      x y z
#    x 3.710580 0.000000 0.000000 
#    y 0.000000 3.402220 0.000000 
#    z 0.000000 0.000000 2.761910 
# 
# 
# High freq. dielectric constant tensor:
#      x y z
#    x 1.717180 0.000000 0.000000 
#    y 0.000000 1.681100 0.000000 
#    z 0.000000 0.000000 1.633060 
# 
# From -- ./inp_files/2291.got.cif
#   From: 2010.03.12/outbox.cif.g09.slc.cpg/sg47_2_cif.got.tgz:2291.got - 2010.04.14 03:12:58.
