data_PCOD8200834
_publ_section_title
;
Structure prediction by ZEFSAII (Michael W. Deem and Ramdas Pophale) SiO2 
 PCOD8200834
Probable space group: P M M M
;
_chemical_formula_sum "Si O2"
_cell_formula_units_Z 52
_cell_length_a 9.316303
_cell_length_b 33.645613
_cell_length_c 9.573881
_cell_angle_alpha 90.000000
_cell_angle_beta 90.000000
_cell_angle_gamma 90.000000
_cell_volume 3000.959091
_symmetry_space_group_name_H-M "P M M M"
_symmetry_group_IT_number 47
_symmetry_cell_setting 'orthorhombic'
loop_
_space_group_symop_operation_xyz
x,y,z
-x,-y,z
x,-y,-z
-x,y,-z
-x,-y,-z
x,y,-z
-x,y,z
x,-y,z
loop_
_atom_site_type_symbol
_atom_site_label
_atom_site_fract_x
_atom_site_fract_y
_atom_site_fract_z
Si Si1 0.667895 0.194348 0.338957
Si Si2 0.166953 0.883942 0.338339
Si Si3 0.328437 0.500000 0.842540
Si Si4 0.670650 0.571559 0.656513
Si Si5 0.671003 0.731314 0.157844
Si Si6 0.170596 0.956239 0.842925
Si Si7 0.670772 0.659877 0.656763
O O1 0.703428 0.204559 0.500000
O O2 0.500000 0.186873 0.317896
O O3 0.749842 0.155119 0.288064
O O4 0.724244 0.230319 0.243270
O O5 0.194639 0.892355 0.500000
O O6 0.231896 0.921916 0.257126
O O7 0.000000 0.877368 0.304989
O O8 0.500000 0.500000 0.841712
O O9 0.267633 0.460921 0.764144
O O10 0.268820 0.500000 0.000000
O O11 0.725646 0.561763 0.500000
O O12 0.500000 0.570042 0.657495
O O13 0.722608 0.615698 0.701616
O O14 0.500000 0.729994 0.156937
O O15 0.733310 0.692038 0.234453
O O16 0.731413 0.732883 0.000000
O O17 0.000000 0.955930 0.836412
O O18 0.225749 0.000000 0.794784
O O19 0.223477 0.947554 0.000000
O O20 0.725561 0.669686 0.500000
O O21 0.500000 0.661662 0.657554
#
# Coordination Sequence:
#
# PCOD8200834 Si02
#       7
#     8   8   4   8   8   8   8
#     4   9  17  29  43  57  77 106 133 156 190 237
#     4   9  17  28  43  64  85 103 129 166 199 224
#     4   9  15  19  23  33  49  69  95 131 176 221
#     4   8  13  20  28  36  48  70 100 133 171 218
#     4   9  16  24  35  52  71  90 116 152 189 223
#     4   8  14  25  41  61  84 108 132 158 191 231
#     4   8  13  21  32  44  58  79 108 142 182 226
#
# _framework density 17.327794000000001
#
# number of rings (size 3 to 8) (size 9 to 14) (size 15 to 20)
#    0.000    3.462    0.000    2.077    0.000    4.308 
#    0.000    4.615    0.000    0.462    0.000    3.231 
#    0.000    0.000    0.000    0.000    0.000    0.000 
#
# Total GULP energy -644466.719562 kJ/mol
# GULP energy per Si atom -12393.590761 kJ/mol
# Density = 1.728835 g / cm^3
# Si number density = 17.327794 Si / 1000 Ang^3
#
#
#
# Elastic Constant Matrix: (Units=GPa)
#
#
# Indices 1 2 3 4 5 6 
#
# 1 8.4475 19.6741 13.4407 0.0000 0.0000 0.0000
# 2 19.6741 193.0845 111.5899 0.0000 0.0000 0.0000
# 3 13.4407 111.5899 127.0317 0.0000 0.0000 0.0000
# 4 0.0000 0.0000 0.0000 28.3044 0.0000 0.0000
# 5 0.0000 0.0000 0.0000 0.0000 6.9082 0.0000
# 6 0.0000 0.0000 0.0000 0.0000 0.0000 -1.0882
#
#
#
# Elastic Compliance Matrix: (Units=1/GPa)
#
#
# Indices 1 2 3 4 5 6 
#
# 1 0.156881 -0.012984 -0.005193 0.000000 0.000000 0.000000
# 2 -0.012984 0.011594 -0.008811 0.000000 0.000000 0.000000
# 3 -0.005193 -0.008811 0.016162 0.000000 0.000000 0.000000
# 4 0.000000 0.000000 0.000000 0.035330 0.000000 0.000000
# 5 0.000000 0.000000 0.000000 0.000000 0.144755 0.000000
# 6 0.000000 0.000000 0.000000 0.000000 0.000000 -0.918950
#
#
# Mechanical properties :
#
#
# Convention : Reuss Voigt Hill
#
# Bulk Modulus (GPa) = 7.65343 68.66368 38.15855
# Shear Modulus (GPa) = -10.94817 19.08215 4.06699
#
# Velocity S-wave (km/s) = -2.51634 3.32210 1.53368
# Velocity P-wave (km/s) = 2.00405 7.37750 5.02052
#
# Compressibility (1/GPa) = 0.13066041
#
# Stress axis : x y z
#
# Youngs Moduli (GPa) = 6.37425 86.24919 61.87491
#
# Poissons Ratio (x) = 1.11984 0.32135
# Poissons Ratio (y) = 0.08276 0.54519
# Poissons Ratio (z) = 0.03310 0.75996
#
# Static dielectric constant tensor:
#      x y z
#    x 2.477410 0.000000 0.000000 
#    y 0.000000 3.643350 0.000000 
#    z 0.000000 0.000000 3.407500 
# 
# 
# High freq. dielectric constant tensor:
#      x y z
#    x 1.581890 0.000000 0.000000 
#    y 0.000000 1.687310 0.000000 
#    z 0.000000 0.000000 1.670160 
# 
# From -- ./inp_files/4836.got.cif
#   From: 2010.03.12/outbox.cif.g09.slc.cpg/sg47_3_cif.got.tgz:4836.got - 2010.04.14 03:12:58.
