data_PCOD8200252
_publ_section_title
;
Structure prediction by ZEFSAII (Michael W. Deem and Ramdas Pophale) SiO2 
 PCOD8200252
Probable space group: P M M M
;
_chemical_formula_sum "Si O2"
_cell_formula_units_Z 52
_cell_length_a 22.916000
_cell_length_b 8.664675
_cell_length_c 14.391217
_cell_angle_alpha 90.000000
_cell_angle_beta 90.000000
_cell_angle_gamma 90.000000
_cell_volume 2857.515619
_symmetry_space_group_name_H-M "P M M M"
_symmetry_group_IT_number 47
_symmetry_cell_setting 'orthorhombic'
loop_
_space_group_symop_operation_xyz
x,y,z
-x,-y,z
x,-y,-z
-x,y,-z
-x,-y,-z
x,y,-z
-x,y,z
x,-y,z
loop_
_atom_site_type_symbol
_atom_site_label
_atom_site_fract_x
_atom_site_fract_y
_atom_site_fract_z
Si Si1 0.780995 0.178503 0.608872
Si Si2 0.890603 0.680906 0.293932
Si Si3 0.566742 0.821273 0.606726
Si Si4 0.671754 0.319015 0.294128
Si Si5 0.152275 0.683121 0.898873
Si Si6 0.000000 0.818657 0.603719
Si Si7 0.283214 0.317048 0.100785
O O1 0.785198 0.209105 0.500000
O O2 0.829167 0.283128 0.658301
O O3 0.717028 0.226948 0.642250
O O4 0.792242 0.000000 0.632779
O O5 0.902951 0.500000 0.300669
O O6 0.888317 0.738800 0.186280
O O7 0.942444 0.769044 0.343040
O O8 0.578030 0.775524 0.500000
O O9 0.500000 0.787356 0.633871
O O10 0.606603 0.717052 0.672595
O O11 0.581911 0.000000 0.622266
O O12 0.684870 0.500000 0.302956
O O13 0.677046 0.261605 0.186838
O O14 0.155318 0.500000 0.896413
O O15 0.217721 0.748174 0.884457
O O16 0.127763 0.738517 0.000000
O O17 0.000000 0.746351 0.500000
O O18 0.000000 0.000000 0.596259
O O19 0.280896 0.500000 0.099148
O O20 0.307381 0.257960 0.000000
#
# Coordination Sequence:
#
# PCOD8200252 Si02
#       7
#     8   8   8   8   8   4   8
#     4  11  23  36  50  72 107 146 174 204 259 323
#     4  11  21  36  59  84 104 130 175 226 263 296
#     4   9  19  36  54  71  99 143 184 213 255 319
#     4  11  20  31  52  82 107 131 172 223 265 299
#     4   8  14  28  52  80 108 135 164 204 258 315
#     4  11  25  43  58  73 102 146 183 209 256 325
#     4   8  14  27  48  75 107 138 166 202 255 314
#
# _framework density 18.197624999999999
#
# number of rings (size 3 to 8) (size 9 to 14) (size 15 to 20)
#    0.000    2.231    1.538    3.923    0.000    6.154 
#    0.000    1.154    0.000    7.385    0.000    3.231 
#    0.000    0.000    0.000    0.000    0.000    0.000 
#
# Total GULP energy -644602.557370 kJ/mol
# GULP energy per Si atom -12396.203026 kJ/mol
# Density = 1.815621 g / cm^3
# Si number density = 18.197625 Si / 1000 Ang^3
#
#
#
# Elastic Constant Matrix: (Units=GPa)
#
#
# Indices 1 2 3 4 5 6 
#
# 1 88.3573 14.3468 60.3860 0.0000 0.0000 0.0000
# 2 14.3468 34.1835 34.9344 0.0000 0.0000 0.0000
# 3 60.3860 34.9344 156.7081 0.0000 0.0000 0.0000
# 4 0.0000 0.0000 0.0000 -5.2779 0.0000 0.0000
# 5 0.0000 0.0000 0.0000 0.0000 -76.8703 0.0000
# 6 0.0000 0.0000 0.0000 0.0000 0.0000 27.8547
#
#
#
# Elastic Compliance Matrix: (Units=1/GPa)
#
#
# Indices 1 2 3 4 5 6 
#
# 1 0.015371 -0.000515 -0.005808 0.000000 0.000000 0.000000
# 2 -0.000515 0.037902 -0.008251 0.000000 0.000000 0.000000
# 3 -0.005808 -0.008251 0.010459 0.000000 0.000000 0.000000
# 4 0.000000 0.000000 0.000000 -0.189471 0.000000 0.000000
# 5 0.000000 0.000000 0.000000 0.000000 -0.013009 0.000000
# 6 0.000000 0.000000 0.000000 0.000000 0.000000 0.035901
#
#
# Mechanical properties :
#
#
# Convention : Reuss Voigt Hill
#
# Bulk Modulus (GPa) = 28.91590 55.39816 42.15703
# Shear Modulus (GPa) = -80.42328 0.44674 -39.98827
#
# Velocity S-wave (km/s) = -6.65510 0.49601 -4.69278
# Velocity P-wave (km/s) = 6.56729 5.55308 2.47918
#
# Compressibility (1/GPa) = 0.03458305
#
# Stress axis : x y z
#
# Youngs Moduli (GPa) = 65.05841 26.38368 95.61414
#
# Poissons Ratio (x) = 0.01360 0.55534
# Poissons Ratio (y) = 0.03354 0.78889
# Poissons Ratio (z) = 0.37786 0.21769
#
# Static dielectric constant tensor:
#      x y z
#    x 3.302040 0.000000 0.000000 
#    y 0.000000 3.102700 0.000000 
#    z 0.000000 0.000000 3.894600 
# 
# 
# High freq. dielectric constant tensor:
#      x y z
#    x 1.685230 0.000000 0.000000 
#    y 0.000000 1.682590 0.000000 
#    z 0.000000 0.000000 1.721940 
# 
# From -- ./inp_files/25021.got.cif
#   From: 2010.03.12/outbox.cif.g09.slc.cpg/sg47_13_cif.got.tgz:25021.got - 2010.04.14 03:12:58.
