data_PCOD8200153
_publ_section_title
;
Structure prediction by ZEFSAII (Michael W. Deem and Ramdas Pophale) SiO2 
 PCOD8200153
Probable space group: P M M M
;
_chemical_formula_sum "Si O2"
_cell_formula_units_Z 48
_cell_length_a 15.513372
_cell_length_b 17.785967
_cell_length_c 8.763802
_cell_angle_alpha 90.000000
_cell_angle_beta 90.000000
_cell_angle_gamma 90.000000
_cell_volume 2418.111074
_symmetry_space_group_name_H-M "P M M M"
_symmetry_group_IT_number 47
_symmetry_cell_setting 'orthorhombic'
loop_
_space_group_symop_operation_xyz
x,y,z
-x,-y,z
x,-y,-z
-x,y,-z
-x,-y,-z
x,y,-z
-x,y,z
x,-y,z
loop_
_atom_site_type_symbol
_atom_site_label
_atom_site_fract_x
_atom_site_fract_y
_atom_site_fract_z
Si Si1 0.167656 0.415238 0.681583
Si Si2 0.339234 0.332822 0.681072
Si Si3 0.500000 0.588833 0.826921
Si Si4 0.833928 0.913341 0.822004
Si Si5 0.339519 0.169054 0.819467
Si Si6 0.000000 0.670853 0.317978
Si Si7 0.500000 0.088861 0.673904
Si Si8 0.000000 0.840342 0.679894
O O1 0.165959 0.417499 0.500000
O O2 0.168754 0.500000 0.747101
O O3 0.251300 0.370835 0.740246
O O4 0.083933 0.372147 0.745341
O O5 0.341705 0.327254 0.500000
O O6 0.416622 0.383769 0.737945
O O7 0.348030 0.250895 0.749967
O O8 0.500000 0.500000 0.825772
O O9 0.500000 0.620148 0.000000
O O10 0.750802 0.866938 0.767511
O O11 0.916016 0.884286 0.732024
O O12 0.817662 0.000000 0.781253
O O13 0.851861 0.902255 0.000000
O O14 0.415554 0.117607 0.758213
O O15 0.346836 0.173594 0.000000
O O16 0.000000 0.755673 0.253161
O O17 0.000000 0.670912 0.500000
O O18 0.500000 0.117970 0.500000
O O19 0.500000 0.000000 0.682383
O O20 0.000000 0.836751 0.500000
#
# Coordination Sequence:
#
# PCOD8200153 Si02
#       8
#     8   8   4   8   8   4   4   4
#     4   9  17  30  51  79 110 146 185 225 274 332
#     4  11  22  37  58  85 118 151 188 237 290 345
#     4  11  24  41  60  83 113 151 196 243 290 343
#     4  10  22  40  60  82 111 150 194 238 285 341
#     4  11  23  40  62  86 115 153 196 238 284 344
#     4   9  17  30  49  77 114 147 178 222 274 331
#     4  11  24  41  62  89 119 149 184 233 292 347
#     4  11  22  35  55  85 118 151 188 236 294 347
#
# _framework density 19.850204999999999
#
# number of rings (size 3 to 8) (size 9 to 14) (size 15 to 20)
#    0.000    1.667    0.000    4.750    0.000    7.667 
#    0.000    0.000    0.000    0.000    0.000    0.000 
#    0.000   12.000    0.000    0.000    0.000    0.000 
#
# Total GULP energy -595414.397142 kJ/mol
# GULP energy per Si atom -12404.466607 kJ/mol
# Density = 1.980502 g / cm^3
# Si number density = 19.850205 Si / 1000 Ang^3
#
#
#
# Elastic Constant Matrix: (Units=GPa)
#
#
# Indices 1 2 3 4 5 6 
#
# 1 162.7186 37.9408 43.0539 0.0000 0.0000 0.0000
# 2 37.9408 96.9173 27.8133 0.0000 0.0000 0.0000
# 3 43.0539 27.8133 62.1823 0.0000 0.0000 0.0000
# 4 0.0000 0.0000 0.0000 20.6401 0.0000 0.0000
# 5 0.0000 0.0000 0.0000 0.0000 42.8761 0.0000
# 6 0.0000 0.0000 0.0000 0.0000 0.0000 53.0097
#
#
#
# Elastic Compliance Matrix: (Units=1/GPa)
#
#
# Indices 1 2 3 4 5 6 
#
# 1 0.007765 -0.001717 -0.004608 0.000000 0.000000 0.000000
# 2 -0.001717 0.012217 -0.004276 0.000000 0.000000 0.000000
# 3 -0.004608 -0.004276 0.021185 0.000000 0.000000 0.000000
# 4 0.000000 0.000000 0.000000 0.048449 0.000000 0.000000
# 5 0.000000 0.000000 0.000000 0.000000 0.023323 0.000000
# 6 0.000000 0.000000 0.000000 0.000000 0.000000 0.018864
#
#
# Mechanical properties :
#
#
# Convention : Reuss Voigt Hill
#
# Bulk Modulus (GPa) = 50.08794 59.93715 55.01254
# Shear Modulus (GPa) = 31.31604 37.50584 34.41094
#
# Velocity S-wave (km/s) = 3.97623 4.35149 4.16809
# Velocity P-wave (km/s) = 6.80943 7.45034 7.13708
#
# Compressibility (1/GPa) = 0.01996489
#
# Stress axis : x y z
#
# Youngs Moduli (GPa) = 128.77665 81.85034 47.20328
#
# Poissons Ratio (x) = 0.14057 0.21753
# Poissons Ratio (y) = 0.22117 0.20182
# Poissons Ratio (z) = 0.59346 0.34996
#
# Static dielectric constant tensor:
#      x y z
#    x 3.889970 0.000000 0.000000 
#    y 0.000000 3.824330 0.000000 
#    z 0.000000 0.000000 3.495530 
# 
# 
# High freq. dielectric constant tensor:
#      x y z
#    x 1.794680 0.000000 0.000000 
#    y 0.000000 1.794470 0.000000 
#    z 0.000000 0.000000 1.754380 
# 
# From -- ./inp_files/6572.got.cif
#   From: 2010.03.12/outbox.cif.g09.slc.cpg/sg47_4_cif.got.tgz:6572.got - 2010.04.14 03:12:58.
