data_PCOD8200837
_publ_section_title
;
Structure prediction by ZEFSAII (Michael W. Deem and Ramdas Pophale) SiO2 
 PCOD8200837
Probable space group: P M M M
;
_chemical_formula_sum "Si O2"
_cell_formula_units_Z 44
_cell_length_a 13.940444
_cell_length_b 9.282450
_cell_length_c 25.950162
_cell_angle_alpha 90.000000
_cell_angle_beta 90.000000
_cell_angle_gamma 90.000000
_cell_volume 3357.989224
_symmetry_space_group_name_H-M "P M M M"
_symmetry_group_IT_number 47
_symmetry_cell_setting 'orthorhombic'
loop_
_space_group_symop_operation_xyz
x,y,z
-x,-y,z
x,-y,-z
-x,y,-z
-x,-y,-z
x,y,-z
-x,y,z
x,-y,z
loop_
_atom_site_type_symbol
_atom_site_label
_atom_site_fract_x
_atom_site_fract_y
_atom_site_fract_z
Si Si1 0.256140 0.662349 0.443723
Si Si2 0.110743 0.830542 0.500000
Si Si3 0.385456 0.337653 0.153310
Si Si4 0.385951 0.838205 0.056945
Si Si5 0.610298 0.669039 0.351596
Si Si6 0.385872 0.162839 0.251352
O O1 0.308767 0.663776 0.500000
O O2 0.223689 0.500000 0.429613
O O3 0.161042 0.762780 0.448641
O O4 0.328679 0.721660 0.400747
O O5 0.000000 0.787184 0.500000
O O6 0.126364 0.000000 0.500000
O O7 0.500000 0.336799 0.153363
O O8 0.346155 0.500000 0.157518
O O9 0.344661 0.268230 0.100513
O O10 0.345493 0.245955 0.201400
O O11 0.500000 0.837733 0.059152
O O12 0.348702 0.000000 0.067907
O O13 0.351788 0.786988 0.000000
O O14 0.500000 0.708076 0.362944
O O15 0.621996 0.500000 0.340615
O O16 0.650033 0.754870 0.302290
O O17 0.500000 0.162946 0.249717
O O18 0.345827 0.000000 0.251404
#
# Coordination Sequence:
#
# PCOD8200837 Si02
#       6
#     8   4   8   8   8   8
#     4   8  16  28  41  58  75  93 115 137 167 205
#     4   9  17  29  44  59  74  92 113 139 170 201
#     4   9  15  21  29  40  53  70  96 129 162 197
#     4   8  13  20  28  37  50  68  89 117 158 204
#     4   9  16  26  39  53  71  93 116 141 167 200
#     4   9  16  24  33  44  59  81 108 135 164 197
#
# _framework density 13.103078999999999
#
# number of rings (size 3 to 8) (size 9 to 14) (size 15 to 20)
#    0.545    2.818    0.000    1.636    0.000    6.545 
#    0.000    3.636    0.000    0.545    0.000    0.000 
#    0.000    0.000    0.000    0.000    0.000    0.000 
#
# Total GULP energy -545175.233707 kJ/mol
# GULP energy per Si atom -12390.346221 kJ/mol
# Density = 1.307326 g / cm^3
# Si number density = 13.103079 Si / 1000 Ang^3
#
#
#
# Elastic Constant Matrix: (Units=GPa)
#
#
# Indices 1 2 3 4 5 6 
#
# 1 31.7415 25.9495 31.4758 0.0000 0.0000 0.0000
# 2 25.9495 86.5801 61.8937 0.0000 0.0000 0.0000
# 3 31.4758 61.8937 119.7872 0.0000 0.0000 0.0000
# 4 0.0000 0.0000 0.0000 25.2678 0.0000 0.0000
# 5 0.0000 0.0000 0.0000 0.0000 0.6892 0.0000
# 6 0.0000 0.0000 0.0000 0.0000 0.0000 9.9682
#
#
#
# Elastic Compliance Matrix: (Units=1/GPa)
#
#
# Indices 1 2 3 4 5 6 
#
# 1 0.045972 -0.008155 -0.007866 0.000000 0.000000 0.000000
# 2 -0.008155 0.019762 -0.008068 0.000000 0.000000 0.000000
# 3 -0.007866 -0.008068 0.014584 0.000000 0.000000 0.000000
# 4 0.000000 0.000000 0.000000 0.039576 0.000000 0.000000
# 5 0.000000 0.000000 0.000000 0.000000 1.450982 0.000000
# 6 0.000000 0.000000 0.000000 0.000000 0.000000 0.100319
#
#
# Mechanical properties :
#
#
# Convention : Reuss Voigt Hill
#
# Bulk Modulus (GPa) = 31.11501 52.97188 42.04345
# Shear Modulus (GPa) = 2.89003 15.10435 8.99719
#
# Velocity S-wave (km/s) = 1.48674 3.39888 2.62324
# Velocity P-wave (km/s) = 5.17157 7.47783 6.42896
#
# Compressibility (1/GPa) = 0.03213883
#
# Stress axis : x y z
#
# Youngs Moduli (GPa) = 21.75250 50.60250 68.56980
#
# Poissons Ratio (x) = 0.41269 0.53936
# Poissons Ratio (y) = 0.17740 0.55322
# Poissons Ratio (z) = 0.17110 0.40826
#
# Static dielectric constant tensor:
#      x y z
#    x 2.033150 0.000000 0.000000 
#    y 0.000000 2.758940 0.000000 
#    z 0.000000 0.000000 2.811290 
# 
# 
# High freq. dielectric constant tensor:
#      x y z
#    x 1.410390 0.000000 0.000000 
#    y 0.000000 1.509790 0.000000 
#    z 0.000000 0.000000 1.507140 
# 
# From -- ./inp_files/33757.got.cif
#   From: 2010.03.12/outbox.cif.g09.slc.cpg/sg47_17_cif.got.tgz:33757.got - 2010.04.14 03:12:58.
