data_PCOD8200931
_publ_section_title
;
Structure prediction by ZEFSAII (Michael W. Deem and Ramdas Pophale) SiO2 
 PCOD8200931
Probable space group: P M M M
;
_chemical_formula_sum "Si O2"
_cell_formula_units_Z 64
_cell_length_a 34.091363
_cell_length_b 9.498765
_cell_length_c 13.662175
_cell_angle_alpha 90.000000
_cell_angle_beta 90.000000
_cell_angle_gamma 90.000000
_cell_volume 4424.165373
_symmetry_space_group_name_H-M "P M M M"
_symmetry_group_IT_number 47
_symmetry_cell_setting 'orthorhombic'
loop_
_space_group_symop_operation_xyz
x,y,z
-x,-y,z
x,-y,-z
-x,y,-z
-x,-y,-z
x,y,-z
-x,y,z
x,-y,z
loop_
_atom_site_type_symbol
_atom_site_label
_atom_site_fract_x
_atom_site_fract_y
_atom_site_fract_z
Si Si1 0.233330 0.663160 0.227110
Si Si2 0.456456 0.657954 0.883587
Si Si3 0.804850 0.836445 0.387896
Si Si4 0.311108 0.336552 0.113307
Si Si5 0.614611 0.158661 0.116529
Si Si6 0.043384 0.833009 0.390695
Si Si7 0.155585 0.663381 0.112064
Si Si8 0.882993 0.164542 0.272161
O O1 0.233531 0.500000 0.255766
O O2 0.227417 0.750981 0.326337
O O3 0.273791 0.708802 0.176936
O O4 0.199117 0.697538 0.150007
O O5 0.500000 0.705495 0.849180
O O6 0.447480 0.500000 0.845569
O O7 0.424223 0.765307 0.840441
O O8 0.454429 0.658284 0.000000
O O9 0.802653 0.786911 0.500000
O O10 0.848397 0.803640 0.348995
O O11 0.794805 0.000000 0.377059
O O12 0.321788 0.500000 0.127799
O O13 0.347331 0.244106 0.151929
O O14 0.301591 0.305264 0.000000
O O15 0.616349 0.000000 0.157984
O O16 0.612961 0.157901 0.000000
O O17 0.050153 0.772384 0.500000
O O18 0.076722 0.774936 0.318156
O O19 0.000000 0.788511 0.352784
O O20 0.046947 0.000000 0.395512
O O21 0.145480 0.500000 0.125307
O O22 0.123722 0.752973 0.171441
O O23 0.153275 0.710664 0.000000
O O24 0.885746 0.000000 0.247643
#
# Coordination Sequence:
#
# PCOD8200931 Si02
#       8
#     8   8   8   8   8   8   8   8
#     4   9  17  28  42  59  75  95 127 162 192 222
#     4   8  13  21  32  44  59  83 117 155 192 229
#     4   9  17  28  41  58  81 105 124 146 183 229
#     4   9  16  26  39  52  69  95 125 157 192 228
#     4   9  16  23  31  46  67  90 118 153 192 230
#     4   8  13  22  39  63  86 105 126 154 189 228
#     4   9  17  29  43  58  78 103 130 160 194 230
#     4   9  16  26  42  63  83 102 127 158 188 221
#
# _framework density 14.466006
#
# number of rings (size 3 to 8) (size 9 to 14) (size 15 to 20)
#    0.000    3.250    0.000    1.875    0.000    5.750 
#    0.000    1.250    0.000    4.125    0.000    3.500 
#    0.000    0.000    0.000    0.000    0.000    0.625 
#
# Total GULP energy -793388.460428 kJ/mol
# GULP energy per Si atom -12396.694694 kJ/mol
# Density = 1.443308 g / cm^3
# Si number density = 14.466006 Si / 1000 Ang^3
#
#
#
# Elastic Constant Matrix: (Units=GPa)
#
#
# Indices 1 2 3 4 5 6 
#
# 1 124.1337 55.9434 50.2620 0.0000 0.0000 0.0000
# 2 55.9434 60.9249 39.1991 0.0000 0.0000 0.0000
# 3 50.2620 39.1991 82.5453 0.0000 0.0000 0.0000
# 4 0.0000 0.0000 0.0000 18.5032 0.0000 0.0000
# 5 0.0000 0.0000 0.0000 0.0000 12.5772 0.0000
# 6 0.0000 0.0000 0.0000 0.0000 0.0000 20.6427
#
#
#
# Elastic Compliance Matrix: (Units=1/GPa)
#
#
# Indices 1 2 3 4 5 6 
#
# 1 0.014448 -0.010953 -0.003596 0.000000 0.000000 0.000000
# 2 -0.010953 0.031938 -0.008498 0.000000 0.000000 0.000000
# 3 -0.003596 -0.008498 0.018340 0.000000 0.000000 0.000000
# 4 0.000000 0.000000 0.000000 0.054045 0.000000 0.000000
# 5 0.000000 0.000000 0.000000 0.000000 0.079509 0.000000
# 6 0.000000 0.000000 0.000000 0.000000 0.000000 0.048443
#
#
# Mechanical properties :
#
#
# Convention : Reuss Voigt Hill
#
# Bulk Modulus (GPa) = 53.66924 62.04589 57.85756
# Shear Modulus (GPa) = 16.72089 18.49127 17.60608
#
# Velocity S-wave (km/s) = 3.40350 3.57915 3.49243
# Velocity P-wave (km/s) = 7.25437 7.75012 7.50634
#
# Compressibility (1/GPa) = 0.01863265
#
# Stress axis : x y z
#
# Youngs Moduli (GPa) = 69.21335 31.31025 54.52684
#
# Poissons Ratio (x) = 0.34294 0.19608
# Poissons Ratio (y) = 0.75809 0.46335
# Poissons Ratio (z) = 0.24890 0.26606
#
# Static dielectric constant tensor:
#      x y z
#    x 2.958800 0.000000 0.000000 
#    y 0.000000 2.791380 0.000000 
#    z 0.000000 0.000000 2.561750 
# 
# 
# High freq. dielectric constant tensor:
#      x y z
#    x 1.553680 0.000000 0.000000 
#    y 0.000000 1.544650 0.000000 
#    z 0.000000 0.000000 1.508370 
# 
# From -- ./inp_files/25894.got.cif
#   From: 2010.03.12/outbox.cif.g09.slc.cpg/sg47_13_cif.got.tgz:25894.got - 2010.04.14 03:12:58.
