data_PCOD8200326
_publ_section_title
;
Structure prediction by ZEFSAII (Michael W. Deem and Ramdas Pophale) SiO2 
 PCOD8200326
Probable space group: P M M M
;
_chemical_formula_sum "Si O2"
_cell_formula_units_Z 52
_cell_length_a 9.219862
_cell_length_b 28.493514
_cell_length_c 14.005644
_cell_angle_alpha 90.000000
_cell_angle_beta 90.000000
_cell_angle_gamma 90.000000
_cell_volume 3679.370452
_symmetry_space_group_name_H-M "P M M M"
_symmetry_group_IT_number 47
_symmetry_cell_setting 'orthorhombic'
loop_
_space_group_symop_operation_xyz
x,y,z
-x,-y,z
x,-y,-z
-x,y,-z
-x,-y,-z
x,y,-z
-x,y,z
x,-y,z
loop_
_atom_site_type_symbol
_atom_site_label
_atom_site_fract_x
_atom_site_fract_y
_atom_site_fract_z
Si Si1 0.163502 0.270267 0.613685
Si Si2 0.663105 0.640087 0.614018
Si Si3 0.670253 0.916198 0.285610
Si Si4 0.832341 0.000000 0.387179
Si Si5 0.162962 0.448253 0.386485
Si Si6 0.834068 0.054770 0.891306
Si Si7 0.332563 0.179531 0.609471
O O1 0.166557 0.271361 0.500000
O O2 0.247681 0.315559 0.654147
O O3 0.240062 0.222903 0.650219
O O4 0.000000 0.271473 0.653010
O O5 0.665533 0.639944 0.500000
O O6 0.500000 0.643529 0.652989
O O7 0.732874 0.592101 0.655096
O O8 0.500000 0.927741 0.288719
O O9 0.727022 0.916310 0.176913
O O10 0.705542 0.865461 0.327873
O O11 0.755521 0.953921 0.347754
O O12 0.817001 0.000000 0.500000
O O13 0.000000 0.000000 0.354490
O O14 0.163432 0.446005 0.500000
O O15 0.216877 0.500000 0.353041
O O16 0.000000 0.439169 0.349088
O O17 0.000000 0.070240 0.874109
O O18 0.816454 0.000000 0.867492
O O19 0.788088 0.065162 0.000000
O O20 0.291913 0.168110 0.500000
O O21 0.500000 0.193755 0.618078
#
# Coordination Sequence:
#
# PCOD8200326 Si02
#       7
#     8   8   8   4   8   8   8
#     4   9  16  25  37  51  65  85 117 152 182 216
#     4   9  15  21  30  43  59  80 106 139 180 223
#     4  11  21  32  48  68  86 105 129 160 195 230
#     4  11  23  35  46  61  84 113 139 160 184 223
#     4   8  13  20  28  38  54  76 102 135 176 220
#     4   9  18  33  51  68  87 109 130 155 188 226
#     4   9  18  31  43  56  78 104 126 152 189 229
#
# _framework density 14.132853000000001
#
# number of rings (size 3 to 8) (size 9 to 14) (size 15 to 20)
#    0.000    2.692    0.769    3.000    0.000    6.769 
#    0.000    3.846    0.000    0.000    0.000    0.000 
#    0.000    0.000    0.000    0.000    0.000    0.000 
#
# Total GULP energy -644690.235341 kJ/mol
# GULP energy per Si atom -12397.889141 kJ/mol
# Density = 1.410069 g / cm^3
# Si number density = 14.132853 Si / 1000 Ang^3
#
#
#
# Elastic Constant Matrix: (Units=GPa)
#
#
# Indices 1 2 3 4 5 6 
#
# 1 112.6007 79.0882 29.2931 0.0000 0.0000 0.0000
# 2 79.0882 125.8916 31.2723 0.0000 0.0000 0.0000
# 3 29.2931 31.2723 40.0682 0.0000 0.0000 0.0000
# 4 0.0000 0.0000 0.0000 1.7150 0.0000 0.0000
# 5 0.0000 0.0000 0.0000 0.0000 14.7779 0.0000
# 6 0.0000 0.0000 0.0000 0.0000 0.0000 28.9410
#
#
#
# Elastic Compliance Matrix: (Units=1/GPa)
#
#
# Indices 1 2 3 4 5 6 
#
# 1 0.016657 -0.009229 -0.004975 0.000000 0.000000 0.000000
# 2 -0.009229 0.014967 -0.004934 0.000000 0.000000 0.000000
# 3 -0.004975 -0.004934 0.032446 0.000000 0.000000 0.000000
# 4 0.000000 0.000000 0.000000 0.583076 0.000000 0.000000
# 5 0.000000 0.000000 0.000000 0.000000 0.067669 0.000000
# 6 0.000000 0.000000 0.000000 0.000000 0.000000 0.034553
#
#
# Mechanical properties :
#
#
# Convention : Reuss Voigt Hill
#
# Bulk Modulus (GPa) = 38.76912 61.98530 50.37721
# Shear Modulus (GPa) = 6.27950 18.34725 12.31338
#
# Velocity S-wave (km/s) = 2.11018 3.60696 2.95491
# Velocity P-wave (km/s) = 5.78175 7.82950 6.88221
#
# Compressibility (1/GPa) = 0.02579372
#
# Stress axis : x y z
#
# Youngs Moduli (GPa) = 60.03426 66.81498 30.82071
#
# Poissons Ratio (x) = 0.61661 0.15333
# Poissons Ratio (y) = 0.55403 0.15208
# Poissons Ratio (z) = 0.29867 0.32969
#
# Static dielectric constant tensor:
#      x y z
#    x 2.939130 0.000000 0.000000 
#    y 0.000000 2.905610 0.000000 
#    z 0.000000 0.000000 2.327850 
# 
# 
# High freq. dielectric constant tensor:
#      x y z
#    x 1.553610 0.000000 0.000000 
#    y 0.000000 1.542680 0.000000 
#    z 0.000000 0.000000 1.468910 
# 
# From -- ./inp_files/21973.got.cif
#   From: 2010.03.12/outbox.cif.g09.slc.cpg/sg47_11_cif.got.tgz:21973.got - 2010.04.14 03:12:58.
