data_PCOD8200769
_publ_section_title
;
Structure prediction by ZEFSAII (Michael W. Deem and Ramdas Pophale) SiO2 
 PCOD8200769
Probable space group: P M M M
;
_chemical_formula_sum "Si O2"
_cell_formula_units_Z 44
_cell_length_a 23.421657
_cell_length_b 14.520341
_cell_length_c 9.393087
_cell_angle_alpha 90.000000
_cell_angle_beta 90.000000
_cell_angle_gamma 90.000000
_cell_volume 3194.499151
_symmetry_space_group_name_H-M "P M M M"
_symmetry_group_IT_number 47
_symmetry_cell_setting 'orthorhombic'
loop_
_space_group_symop_operation_xyz
x,y,z
-x,-y,z
x,-y,-z
-x,y,-z
-x,-y,-z
x,y,-z
-x,y,z
x,-y,z
loop_
_atom_site_type_symbol
_atom_site_label
_atom_site_fract_x
_atom_site_fract_y
_atom_site_fract_z
Si Si1 0.168014 0.109608 0.160019
Si Si2 0.500000 0.103702 0.669798
Si Si3 0.063232 0.109528 0.340196
Si Si4 0.610331 0.789322 0.669407
Si Si5 0.277898 0.892776 0.333849
Si Si6 0.564438 0.399453 0.669201
O O1 0.111004 0.150314 0.234278
O O2 0.223004 0.142641 0.247925
O O3 0.165474 0.000000 0.159123
O O4 0.171407 0.148763 0.000000
O O5 0.500000 0.105526 0.500000
O O6 0.443680 0.154147 0.729342
O O7 0.500000 0.000000 0.728127
O O8 0.075285 0.145657 0.500000
O O9 0.000000 0.141457 0.289772
O O10 0.066389 0.000000 0.340194
O O11 0.610048 0.794595 0.500000
O O12 0.668684 0.834395 0.725858
O O13 0.605170 0.683264 0.723915
O O14 0.266349 0.874826 0.500000
O O15 0.290809 0.000000 0.305707
O O16 0.563220 0.397805 0.500000
O O17 0.500000 0.382963 0.725212
O O18 0.586820 0.500000 0.722366
#
# Coordination Sequence:
#
# PCOD8200769 Si02
#       6
#     8   4   8   8   8   8
#     4   9  16  24  33  45  62  86 116 147 175 202
#     4   9  14  18  25  39  60  82 105 138 176 208
#     4   8  13  21  33  48  65  85 110 142 178 209
#     4   9  14  20  29  43  62  84 109 138 173 211
#     4   9  16  24  33  45  63  88 116 144 173 205
#     4   8  12  18  28  42  62  86 106 127 166 219
#
# _framework density 13.773676999999999
#
# number of rings (size 3 to 8) (size 9 to 14) (size 15 to 20)
#    0.000    3.364    0.909    2.182    0.000    4.727 
#    0.000    1.818    0.000    0.000    0.000    0.636 
#    0.000    4.364    0.000    2.000    0.000    2.727 
#
# Total GULP energy -545208.307385 kJ/mol
# GULP energy per Si atom -12391.097895 kJ/mol
# Density = 1.374233 g / cm^3
# Si number density = 13.773677 Si / 1000 Ang^3
#
#
#
# Elastic Constant Matrix: (Units=GPa)
#
#
# Indices 1 2 3 4 5 6 
#
# 1 134.3748 45.1290 46.9589 0.0000 0.0000 0.0000
# 2 45.1290 67.7692 17.3108 0.0000 0.0000 0.0000
# 3 46.9589 17.3108 45.7231 0.0000 0.0000 0.0000
# 4 0.0000 0.0000 0.0000 2.6950 0.0000 0.0000
# 5 0.0000 0.0000 0.0000 0.0000 3.1887 0.0000
# 6 0.0000 0.0000 0.0000 0.0000 0.0000 4.7194
#
#
#
# Elastic Compliance Matrix: (Units=1/GPa)
#
#
# Indices 1 2 3 4 5 6 
#
# 1 0.013527 -0.006044 -0.011604 0.000000 0.000000 0.000000
# 2 -0.006044 0.019036 -0.001000 0.000000 0.000000 0.000000
# 3 -0.011604 -0.001000 0.034167 0.000000 0.000000 0.000000
# 4 0.000000 0.000000 0.000000 0.371053 0.000000 0.000000
# 5 0.000000 0.000000 0.000000 0.000000 0.313610 0.000000
# 6 0.000000 0.000000 0.000000 0.000000 0.000000 0.211890
#
#
# Mechanical properties :
#
#
# Convention : Reuss Voigt Hill
#
# Bulk Modulus (GPa) = 33.97407 51.85162 42.91285
# Shear Modulus (GPa) = 4.94858 11.35184 8.15021
#
# Velocity S-wave (km/s) = 1.89752 2.87395 2.43518
# Velocity P-wave (km/s) = 5.43326 6.98140 6.25541
#
# Compressibility (1/GPa) = 0.02943421
#
# Stress axis : x y z
#
# Youngs Moduli (GPa) = 73.92675 52.53191 29.26762
#
# Poissons Ratio (x) = 0.31749 0.33963
# Poissons Ratio (y) = 0.44679 0.02927
# Poissons Ratio (z) = 0.85787 0.05253
#
# Static dielectric constant tensor:
#      x y z
#    x 2.899980 0.000000 0.000000 
#    y 0.000000 2.595850 0.000000 
#    z 0.000000 0.000000 2.455330 
# 
# 
# High freq. dielectric constant tensor:
#      x y z
#    x 1.527010 0.000000 0.000000 
#    y 0.000000 1.476170 0.000000 
#    z 0.000000 0.000000 1.486990 
# 
# From -- ./inp_files/13369.got.cif
#   From: 2010.03.12/outbox.cif.g09.slc.cpg/sg47_7_cif.got.tgz:13369.got - 2010.04.14 03:12:58.
