data_PCOD8200304
_publ_section_title
;
Structure prediction by ZEFSAII (Michael W. Deem and Ramdas Pophale) SiO2 
 PCOD8200304
Probable space group: P M M M
;
_chemical_formula_sum "Si O2"
_cell_formula_units_Z 40
_cell_length_a 18.169116
_cell_length_b 16.896430
_cell_length_c 9.203601
_cell_angle_alpha 90.000000
_cell_angle_beta 90.000000
_cell_angle_gamma 90.000000
_cell_volume 2825.442892
_symmetry_space_group_name_H-M "P M M M"
_symmetry_group_IT_number 47
_symmetry_cell_setting 'orthorhombic'
loop_
_space_group_symop_operation_xyz
x,y,z
-x,-y,z
x,-y,-z
-x,y,-z
-x,-y,-z
x,y,-z
-x,y,z
x,-y,z
loop_
_atom_site_type_symbol
_atom_site_label
_atom_site_fract_x
_atom_site_fract_y
_atom_site_fract_z
Si Si1 0.580185 0.000000 0.828507
Si Si2 0.412059 0.171209 0.166944
Si Si3 0.779299 0.589957 0.669804
Si Si4 0.919638 0.405967 0.835978
Si Si5 0.500000 0.406467 0.166872
Si Si6 0.368657 0.322283 0.671826
O O1 0.618882 0.083491 0.786499
O O2 0.500000 0.000000 0.753882
O O3 0.568960 0.000000 0.000000
O O4 0.500000 0.175868 0.187075
O O5 0.372326 0.232241 0.273742
O O6 0.391411 0.190254 0.000000
O O7 0.792411 0.591300 0.500000
O O8 0.764896 0.500000 0.723764
O O9 0.852678 0.627803 0.740455
O O10 0.710496 0.643399 0.715267
O O11 0.918574 0.500000 0.828001
O O12 0.000000 0.375964 0.779489
O O13 0.907698 0.376665 0.000000
O O14 0.500000 0.500000 0.176102
O O15 0.571588 0.374773 0.246818
O O16 0.500000 0.376676 0.000000
O O17 0.383015 0.326325 0.500000
#
# Coordination Sequence:
#
# PCOD8200304 Si02
#       6
#     4   8   8   8   4   8
#     4   7  12  24  43  63  79  99 125 160 203 244
#     4   9  16  28  45  62  80 102 133 167 202 247
#     4   9  18  30  41  55  77 107 140 168 198 239
#     4   8  14  25  41  60  79  98 124 162 205 242
#     4  11  23  35  45  56  71 100 145 185 212 241
#     4  11  21  31  43  59  82 108 135 171 212 244
#
# _framework density 14.157071999999999
#
# number of rings (size 3 to 8) (size 9 to 14) (size 15 to 20)
#    0.000    2.800    1.000    3.300    0.000    3.600 
#    0.000    4.500    0.000    1.800    0.000    0.000 
#    0.000    0.000    0.000    0.900    0.000   17.600 
#
# Total GULP energy -495649.418002 kJ/mol
# GULP energy per Si atom -12391.235450 kJ/mol
# Density = 1.412485 g / cm^3
# Si number density = 14.157072 Si / 1000 Ang^3
#
#
#
# Elastic Constant Matrix: (Units=GPa)
#
#
# Indices 1 2 3 4 5 6 
#
# 1 111.0367 44.4646 51.3523 0.0000 0.0000 0.0000
# 2 44.4646 83.3501 35.6658 0.0000 0.0000 0.0000
# 3 51.3523 35.6658 59.8280 0.0000 0.0000 0.0000
# 4 0.0000 0.0000 0.0000 16.3438 0.0000 0.0000
# 5 0.0000 0.0000 0.0000 0.0000 11.1295 0.0000
# 6 0.0000 0.0000 0.0000 0.0000 0.0000 -0.0020
#
#
#
# Elastic Compliance Matrix: (Units=1/GPa)
#
#
# Indices 1 2 3 4 5 6 
#
# 1 0.015657 -0.003493 -0.011357 0.000000 0.000000 0.000000
# 2 -0.003493 0.016885 -0.007068 0.000000 0.000000 0.000000
# 3 -0.011357 -0.007068 0.030676 0.000000 0.000000 0.000000
# 4 0.000000 0.000000 0.000000 0.061185 0.000000 0.000000
# 5 0.000000 0.000000 0.000000 0.000000 0.089851 0.000000
# 6 0.000000 0.000000 0.000000 0.000000 0.000000**********
#
#
# Mechanical properties :
#
#
# Convention : Reuss Voigt Hill
#
# Bulk Modulus (GPa) = 51.59112 57.46446 54.52779
# Shear Modulus (GPa) = -0.00982 13.67639 6.83328
#
# Velocity S-wave (km/s) = -0.08340 3.11150 2.19937
# Velocity P-wave (km/s) = 6.04250 7.32034 6.71190
#
# Compressibility (1/GPa) = 0.01938318
#
# Stress axis : x y z
#
# Youngs Moduli (GPa) = 63.86917 59.22291 32.59896
#
# Poissons Ratio (x) = 0.20686 0.37021
# Poissons Ratio (y) = 0.22309 0.23041
# Poissons Ratio (z) = 0.72534 0.41858
#
# Static dielectric constant tensor:
#      x y z
#    x 2.864300 0.000000 0.000000 
#    y 0.000000 2.858470 0.000000 
#    z 0.000000 0.000000 2.770060 
# 
# 
# High freq. dielectric constant tensor:
#      x y z
#    x 1.518830 0.000000 0.000000 
#    y 0.000000 1.517370 0.000000 
#    z 0.000000 0.000000 1.538830 
# 
# From -- ./inp_files/9330.got.cif
#   From: 2010.03.12/outbox.cif.g09.slc.cpg/sg47_5_cif.got.tgz:9330.got - 2010.04.14 03:12:58.
