data_PCOD8200314
_publ_section_title
;
Structure prediction by ZEFSAII (Michael W. Deem and Ramdas Pophale) SiO2 
 PCOD8200314
Probable space group: P M M M
;
_chemical_formula_sum "Si O2"
_cell_formula_units_Z 52
_cell_length_a 23.961308
_cell_length_b 8.914738
_cell_length_c 13.879124
_cell_angle_alpha 90.000000
_cell_angle_beta 90.000000
_cell_angle_gamma 90.000000
_cell_volume 2964.702786
_symmetry_space_group_name_H-M "P M M M"
_symmetry_group_IT_number 47
_symmetry_cell_setting 'orthorhombic'
loop_
_space_group_symop_operation_xyz
x,y,z
-x,-y,z
x,-y,-z
-x,y,-z
-x,-y,-z
x,y,-z
-x,y,z
x,-y,z
loop_
_atom_site_type_symbol
_atom_site_label
_atom_site_fract_x
_atom_site_fract_y
_atom_site_fract_z
Si Si1 0.341078 0.324088 0.776774
Si Si2 0.171382 0.829994 0.282643
Si Si3 0.723154 0.821296 0.609595
Si Si4 0.934415 0.665708 0.000000
Si Si5 0.564626 0.174181 0.890360
Si Si6 0.248253 0.169767 0.892092
Si Si7 0.062682 0.178706 0.803678
O O1 0.341786 0.500000 0.760050
O O2 0.325787 0.246689 0.674966
O O3 0.401441 0.270867 0.812855
O O4 0.296524 0.281308 0.858289
O O5 0.216043 0.754734 0.356108
O O6 0.194118 0.814854 0.174088
O O7 0.107825 0.764323 0.277544
O O8 0.166175 0.000000 0.316953
O O9 0.712769 0.772602 0.500000
O O10 0.722260 0.000000 0.623223
O O11 0.916804 0.755530 0.905019
O O12 0.906544 0.500000 0.000000
O O13 0.000000 0.647974 0.000000
O O14 0.500000 0.208896 0.871976
O O15 0.577754 0.000000 0.873648
O O16 0.580867 0.218929 0.000000
O O17 0.272035 0.000000 0.886400
O O18 0.230188 0.212976 0.000000
O O19 0.000000 0.232066 0.774894
O O20 0.064937 0.000000 0.813156
#
# Coordination Sequence:
#
# PCOD8200314 Si02
#       7
#     8   8   8   4   8   8   8
#     4  11  21  31  47  73 104 131 156 195 248 295
#     4   8  15  27  45  68  89 112 151 196 236 282
#     4   9  18  35  57  73  86 115 161 206 246 293
#     4   9  17  27  37  53  81 117 155 189 218 255
#     4   9  18  33  53  76 104 141 180 208 226 256
#     4   9  17  29  45  63  88 127 168 201 232 273
#     4   9  16  26  42  62  86 118 153 188 229 282
#
# _framework density 17.539701999999998
#
# number of rings (size 3 to 8) (size 9 to 14) (size 15 to 20)
#    0.000    2.846    0.000    3.462    1.077    4.000 
#    0.000    3.846    0.000    0.923    0.000    6.462 
#    0.000    0.000    0.000    9.385    0.000   10.154 
#
# Total GULP energy -644319.646342 kJ/mol
# GULP energy per Si atom -12390.762430 kJ/mol
# Density = 1.749978 g / cm^3
# Si number density = 17.539702 Si / 1000 Ang^3
#
#
#
# Elastic Constant Matrix: (Units=GPa)
#
#
# Indices 1 2 3 4 5 6 
#
# 1 98.2424 33.0010 48.8434 0.0000 0.0000 0.0000
# 2 33.0010 53.1512 32.1894 0.0000 0.0000 0.0000
# 3 48.8434 32.1894 111.3593 0.0000 0.0000 0.0000
# 4 0.0000 0.0000 0.0000 10.6493 0.0000 0.0000
# 5 0.0000 0.0000 0.0000 0.0000 21.3739 0.0000
# 6 0.0000 0.0000 0.0000 0.0000 0.0000 7.5605
#
#
#
# Elastic Compliance Matrix: (Units=1/GPa)
#
#
# Indices 1 2 3 4 5 6 
#
# 1 0.014559 -0.006270 -0.004573 0.000000 0.000000 0.000000
# 2 -0.006270 0.025507 -0.004623 0.000000 0.000000 0.000000
# 3 -0.004573 -0.004623 0.012322 0.000000 0.000000 0.000000
# 4 0.000000 0.000000 0.000000 0.093903 0.000000 0.000000
# 5 0.000000 0.000000 0.000000 0.000000 0.046786 0.000000
# 6 0.000000 0.000000 0.000000 0.000000 0.000000 0.132266
#
#
# Mechanical properties :
#
#
# Convention : Reuss Voigt Hill
#
# Bulk Modulus (GPa) = 46.60768 54.53561 50.57164
# Shear Modulus (GPa) = 13.75794 17.83136 15.79465
#
# Velocity S-wave (km/s) = 2.80373 3.19192 3.00410
# Velocity P-wave (km/s) = 6.09193 6.68914 6.39751
#
# Compressibility (1/GPa) = 0.02145569
#
# Stress axis : x y z
#
# Youngs Moduli (GPa) = 68.68749 39.20526 81.15461
#
# Poissons Ratio (x) = 0.24580 0.37114
# Poissons Ratio (y) = 0.43065 0.37518
# Poissons Ratio (z) = 0.31413 0.18125
#
# Static dielectric constant tensor:
#      x y z
#    x 3.374980 0.000000 0.000000 
#    y 0.000000 3.069120 0.000000 
#    z 0.000000 0.000000 3.144220 
# 
# 
# High freq. dielectric constant tensor:
#      x y z
#    x 1.678720 0.000000 0.000000 
#    y 0.000000 1.651010 0.000000 
#    z 0.000000 0.000000 1.651220 
# 
# From -- ./inp_files/25402.got.cif
#   From: 2010.03.12/outbox.cif.g09.slc.cpg/sg47_13_cif.got.tgz:25402.got - 2010.04.14 03:12:58.
