data_PCOD8200965
_publ_section_title
;
Structure prediction by ZEFSAII (Michael W. Deem and Ramdas Pophale) SiO2 
 PCOD8200965
Probable space group: P M M M
;
_chemical_formula_sum "Si O2"
_cell_formula_units_Z 36
_cell_length_a 23.415639
_cell_length_b 9.134940
_cell_length_c 9.421145
_cell_angle_alpha 90.000000
_cell_angle_beta 90.000000
_cell_angle_gamma 90.000000
_cell_volume 2015.187224
_symmetry_space_group_name_H-M "P M M M"
_symmetry_group_IT_number 47
_symmetry_cell_setting 'orthorhombic'
loop_
_space_group_symop_operation_xyz
x,y,z
-x,-y,z
x,-y,-z
-x,y,-z
-x,-y,-z
x,y,-z
-x,y,z
x,-y,z
loop_
_atom_site_type_symbol
_atom_site_label
_atom_site_fract_x
_atom_site_fract_y
_atom_site_fract_z
Si Si1 0.000000 0.165524 0.169426
Si Si2 0.332180 0.174427 0.340222
Si Si3 0.776719 0.171024 0.164519
Si Si4 0.110527 0.665085 0.831101
Si Si5 0.436734 0.825866 0.840693
O O1 0.055884 0.247917 0.228959
O O2 0.000000 0.000000 0.227375
O O3 0.000000 0.166242 0.000000
O O4 0.329397 0.235938 0.500000
O O5 0.277011 0.228934 0.254061
O O6 0.389120 0.238644 0.265490
O O7 0.334079 0.000000 0.339813
O O8 0.832024 0.256244 0.221801
O O9 0.788026 0.000000 0.188540
O O10 0.764249 0.204915 0.000000
O O11 0.109060 0.500000 0.771889
O O12 0.108675 0.665838 0.000000
O O13 0.500000 0.774462 0.791291
O O14 0.433818 0.000000 0.840370
O O15 0.424299 0.768770 0.000000
#
# Coordination Sequence:
#
# PCOD8200965 Si02
#       5
#     4   8   8   8   8
#     4   9  15  23  37  59  88 117 142 171 212 260
#     4   9  16  24  35  53  77 106 141 180 218 254
#     4   9  16  26  40  57  79 109 143 176 212 256
#     4   9  16  25  38  58  84 112 142 177 215 253
#     4   8  13  21  33  50  75 108 142 174 212 259
#
# _framework density 17.864346000000001
#
# number of rings (size 3 to 8) (size 9 to 14) (size 15 to 20)
#    0.000    3.222    0.000    2.333    0.000    7.111 
#    0.000    2.222    0.000    0.667    0.000    0.778 
#    0.000    7.111    0.000   10.222    0.000   13.111 
#
# Total GULP energy -446259.033829 kJ/mol
# GULP energy per Si atom -12396.084273 kJ/mol
# Density = 1.782369 g / cm^3
# Si number density = 17.864346 Si / 1000 Ang^3
#
#
#
# Elastic Constant Matrix: (Units=GPa)
#
#
# Indices 1 2 3 4 5 6 
#
# 1 204.8063 56.4338 74.6888 0.0000 0.0000 0.0000
# 2 56.4338 63.2754 23.7492 0.0000 0.0000 0.0000
# 3 74.6888 23.7492 75.3000 0.0000 0.0000 0.0000
# 4 0.0000 0.0000 0.0000 4.3376 0.0000 0.0000
# 5 0.0000 0.0000 0.0000 0.0000 5.5835 0.0000
# 6 0.0000 0.0000 0.0000 0.0000 0.0000 3.8002
#
#
#
# Elastic Compliance Matrix: (Units=1/GPa)
#
#
# Indices 1 2 3 4 5 6 
#
# 1 0.008981 -0.005293 -0.007239 0.000000 0.000000 0.000000
# 2 -0.005293 0.021045 -0.001388 0.000000 0.000000 0.000000
# 3 -0.007239 -0.001388 0.020898 0.000000 0.000000 0.000000
# 4 0.000000 0.000000 0.000000 0.230540 0.000000 0.000000
# 5 0.000000 0.000000 0.000000 0.000000 0.179098 0.000000
# 6 0.000000 0.000000 0.000000 0.000000 0.000000 0.263141
#
#
# Mechanical properties :
#
#
# Convention : Reuss Voigt Hill
#
# Bulk Modulus (GPa) = 43.31698 72.56948 57.94323
# Shear Modulus (GPa) = 6.58556 15.31161 10.94858
#
# Velocity S-wave (km/s) = 1.92209 2.93081 2.47831
# Velocity P-wave (km/s) = 5.40613 7.22244 6.37926
#
# Compressibility (1/GPa) = 0.02308563
#
# Stress axis : x y z
#
# Youngs Moduli (GPa) = 111.34723 47.51629 47.85202
#
# Poissons Ratio (x) = 0.25150 0.34638
# Poissons Ratio (y) = 0.58936 0.06640
# Poissons Ratio (z) = 0.80600 0.06593
#
# Static dielectric constant tensor:
#      x y z
#    x 3.631980 0.000000 0.000000 
#    y 0.000000 2.905060 0.000000 
#    z 0.000000 0.000000 3.042740 
# 
# 
# High freq. dielectric constant tensor:
#      x y z
#    x 1.712370 0.000000 0.000000 
#    y 0.000000 1.641660 0.000000 
#    z 0.000000 0.000000 1.647350 
# 
# From -- ./inp_files/1360.got.cif
#   From: 2010.03.12/outbox.cif.g09.slc.cpg/sg47_1_cif.got.tgz:1360.got - 2010.04.14 03:12:58.
