data_PCOD8200483
_publ_section_title
;
Structure prediction by ZEFSAII (Michael W. Deem and Ramdas Pophale) SiO2 
 PCOD8200483
Probable space group: P M M M
;
_chemical_formula_sum "Si O2"
_cell_formula_units_Z 52
_cell_length_a 32.702697
_cell_length_b 8.287310
_cell_length_c 11.704281
_cell_angle_alpha 90.000000
_cell_angle_beta 90.000000
_cell_angle_gamma 90.000000
_cell_volume 3172.063664
_symmetry_space_group_name_H-M "P M M M"
_symmetry_group_IT_number 47
_symmetry_cell_setting 'orthorhombic'
loop_
_space_group_symop_operation_xyz
x,y,z
-x,-y,z
x,-y,-z
-x,y,-z
-x,-y,-z
x,y,-z
-x,y,z
x,-y,z
loop_
_atom_site_type_symbol
_atom_site_label
_atom_site_fract_x
_atom_site_fract_y
_atom_site_fract_z
Si Si1 0.500000 0.184953 0.134890
Si Si2 0.093221 0.819763 0.864238
Si Si3 0.046741 0.500000 0.864239
Si Si4 0.423207 0.311102 0.265769
Si Si5 0.261364 0.181681 0.135832
Si Si6 0.545524 0.187800 0.500000
Si Si7 0.822682 0.680043 0.135717
Si Si8 0.653386 0.310503 0.127729
O O1 0.460396 0.272725 0.182446
O O2 0.500000 0.000000 0.176183
O O3 0.500000 0.201012 0.000000
O O4 0.066820 0.667384 0.816131
O O5 0.140209 0.794866 0.824499
O O6 0.079032 0.000000 0.820672
O O7 0.089916 0.817291 0.000000
O O8 0.000000 0.500000 0.824142
O O9 0.051310 0.500000 0.000000
O O10 0.419338 0.500000 0.282334
O O11 0.428792 0.235465 0.389611
O O12 0.381957 0.238260 0.209027
O O13 0.220505 0.261863 0.188390
O O14 0.302153 0.270409 0.180503
O O15 0.263101 0.000000 0.179738
O O16 0.259458 0.193219 0.000000
O O17 0.500000 0.269440 0.500000
O O18 0.539043 0.000000 0.500000
O O19 0.831904 0.500000 0.179650
O O20 0.819743 0.682752 0.000000
O O21 0.647969 0.500000 0.119348
O O22 0.649061 0.235006 0.000000
#
# Coordination Sequence:
#
# PCOD8200483 Si02
#       8
#     4   8   4   8   8   4   8   8
#     4  11  23  36  51  74 101 125 147 173 214 261
#     4   9  15  22  31  42  56  76 107 147 191 241
#     4   9  16  24  30  38  54  76 106 146 196 248
#     4  11  22  36  56  75  93 118 151 186 216 253
#     4   9  16  24  36  56  79 104 132 158 189 238
#     4  11  23  39  57  75  96 118 146 184 226 260
#     4   9  14  21  33  47  65  89 117 152 192 233
#     4   9  18  32  47  66  92 118 141 168 207 255
#
# _framework density 16.393114000000001
#
# number of rings (size 3 to 8) (size 9 to 14) (size 15 to 20)
#    0.000    2.385    1.538    2.308    0.000    6.769 
#    0.000    3.077    0.000    0.000    0.000    0.000 
#    0.000    0.000    0.000    0.000    0.000    0.000 
#
# Total GULP energy -644459.672264 kJ/mol
# GULP energy per Si atom -12393.455236 kJ/mol
# Density = 1.635580 g / cm^3
# Si number density = 16.393114 Si / 1000 Ang^3
#
#
#
# Elastic Constant Matrix: (Units=GPa)
#
#
# Indices 1 2 3 4 5 6 
#
# 1 134.7936 47.3520 26.2995 0.0000 0.0000 0.0000
# 2 47.3520 87.9973 16.3262 0.0000 0.0000 0.0000
# 3 26.2995 16.3262 40.6174 0.0000 0.0000 0.0000
# 4 0.0000 0.0000 0.0000 11.5360 0.0000 0.0000
# 5 0.0000 0.0000 0.0000 0.0000 0.1464 0.0000
# 6 0.0000 0.0000 0.0000 0.0000 0.0000 19.1554
#
#
#
# Elastic Compliance Matrix: (Units=1/GPa)
#
#
# Indices 1 2 3 4 5 6 
#
# 1 0.009886 -0.004465 -0.004606 0.000000 0.000000 0.000000
# 2 -0.004465 0.014296 -0.002855 0.000000 0.000000 0.000000
# 3 -0.004606 -0.002855 0.028750 0.000000 0.000000 0.000000
# 4 0.000000 0.000000 0.000000 0.086685 0.000000 0.000000
# 5 0.000000 0.000000 0.000000 0.000000 6.831886 0.000000
# 6 0.000000 0.000000 0.000000 0.000000 0.000000 0.052205
#
#
# Mechanical properties :
#
#
# Convention : Reuss Voigt Hill
#
# Bulk Modulus (GPa) = 34.38895 49.26263 41.82579
# Shear Modulus (GPa) = 0.70849 17.72958 9.21903
#
# Velocity S-wave (km/s) = 0.65812 3.29222 2.37401
# Velocity P-wave (km/s) = 4.64766 6.67590 5.75189
#
# Compressibility (1/GPa) = 0.02907911
#
# Stress axis : x y z
#
# Youngs Moduli (GPa) = 101.15236 69.94734 34.78224
#
# Poissons Ratio (x) = 0.31232 0.16022
# Poissons Ratio (y) = 0.45166 0.09931
# Poissons Ratio (z) = 0.46595 0.19972
#
# Static dielectric constant tensor:
#      x y z
#    x 3.320450 0.000000 0.000000 
#    y 0.000000 3.303290 0.000000 
#    z 0.000000 0.000000 2.642410 
# 
# 
# High freq. dielectric constant tensor:
#      x y z
#    x 1.641920 0.000000 0.000000 
#    y 0.000000 1.646410 0.000000 
#    z 0.000000 0.000000 1.541090 
# 
# From -- ./inp_files/20090.got.cif
#   From: 2010.03.12/outbox.cif.g09.slc.cpg/sg47_11_cif.got.tgz:20090.got - 2010.04.14 03:12:58.
