data_PCOD8200592
_publ_section_title
;
Structure prediction by ZEFSAII (Michael W. Deem and Ramdas Pophale) SiO2 
 PCOD8200592
Probable space group: P M M M
;
_chemical_formula_sum "Si O2"
_cell_formula_units_Z 44
_cell_length_a 9.887108
_cell_length_b 28.266892
_cell_length_c 8.721655
_cell_angle_alpha 90.000000
_cell_angle_beta 90.000000
_cell_angle_gamma 90.000000
_cell_volume 2437.509074
_symmetry_space_group_name_H-M "P M M M"
_symmetry_group_IT_number 47
_symmetry_cell_setting 'orthorhombic'
loop_
_space_group_symop_operation_xyz
x,y,z
-x,-y,z
x,-y,-z
-x,y,-z
-x,-y,-z
x,y,-z
-x,y,z
x,-y,z
loop_
_atom_site_type_symbol
_atom_site_label
_atom_site_fract_x
_atom_site_fract_y
_atom_site_fract_z
Si Si1 0.844952 0.078111 0.180635
Si Si2 0.848611 0.447495 0.182468
Si Si3 0.149436 0.184816 0.817788
Si Si4 0.655158 0.000000 0.319033
Si Si5 0.348810 0.263262 0.182475
Si Si6 0.348566 0.631786 0.182452
O O1 0.809811 0.131732 0.230513
O O2 0.735446 0.046006 0.263892
O O3 0.000000 0.065534 0.228308
O O4 0.829116 0.070887 0.000000
O O5 0.801467 0.500000 0.234808
O O6 0.749886 0.407893 0.254459
O O7 0.000000 0.437493 0.242621
O O8 0.846550 0.444642 0.000000
O O9 0.251759 0.223208 0.745439
O O10 0.000000 0.196681 0.755103
O O11 0.149583 0.188110 0.000000
O O12 0.500000 0.000000 0.255732
O O13 0.652411 0.000000 0.500000
O O14 0.500000 0.253648 0.243380
O O15 0.300734 0.315722 0.234287
O O16 0.347010 0.260277 0.000000
O O17 0.500000 0.622024 0.242939
O O18 0.346881 0.628804 0.000000
#
# Coordination Sequence:
#
# PCOD8200592 Si02
#       6
#     8   8   8   4   8   8
#     4   9  18  33  52  72  92 115 146 181 215 256
#     4   8  13  19  24  30  41  59  88 128 172 217
#     4   8  14  24  38  57  78  97 120 153 191 232
#     4  11  24  37  48  68  96 121 148 181 214 252
#     4   8  13  20  29  43  64  87 110 138 176 225
#     4   8  13  19  25  34  49  70  97 129 167 214
#
# _framework density 18.051214999999999
#
# number of rings (size 3 to 8) (size 9 to 14) (size 15 to 20)
#    0.000    3.545    0.000    3.273    0.000    4.000 
#    0.000    7.273    0.000    0.000    0.000    0.000 
#    0.000    0.000    0.000    0.000    0.000    0.000 
#
# Total GULP energy -545186.727734 kJ/mol
# GULP energy per Si atom -12390.607448 kJ/mol
# Density = 1.801013 g / cm^3
# Si number density = 18.051215 Si / 1000 Ang^3
#
#
#
# Elastic Constant Matrix: (Units=GPa)
#
#
# Indices 1 2 3 4 5 6 
#
# 1 142.6557 120.7274 16.3118 0.0000 0.0000 0.0000
# 2 120.7274 181.9386 13.3607 0.0000 0.0000 0.0000
# 3 16.3118 13.3607 11.5195 0.0000 0.0000 0.0000
# 4 0.0000 0.0000 0.0000 -2.3715 0.0000 0.0000
# 5 0.0000 0.0000 0.0000 0.0000 8.5614 0.0000
# 6 0.0000 0.0000 0.0000 0.0000 0.0000 41.7580
#
#
#
# Elastic Compliance Matrix: (Units=1/GPa)
#
#
# Indices 1 2 3 4 5 6 
#
# 1 0.017457 -0.010678 -0.012335 0.000000 0.000000 0.000000
# 2 -0.010678 0.012539 0.000576 0.000000 0.000000 0.000000
# 3 -0.012335 0.000576 0.103607 0.000000 0.000000 0.000000
# 4 0.000000 0.000000 0.000000 -0.421670 0.000000 0.000000
# 5 0.000000 0.000000 0.000000 0.000000 0.116803 0.000000
# 6 0.000000 0.000000 0.000000 0.000000 0.000000 0.023948
#
#
# Mechanical properties :
#
#
# Convention : Reuss Voigt Hill
#
# Bulk Modulus (GPa) = 11.27005 70.76820 41.01912
# Shear Modulus (GPa) = -68.61799 21.97049 -23.32375
#
# Velocity S-wave (km/s) = -6.17215 3.49251 -3.59846
# Velocity P-wave (km/s) = 6.67361 7.45337 2.34688
#
# Compressibility (1/GPa) = 0.08873078
#
# Stress axis : x y z
#
# Youngs Moduli (GPa) = 57.28436 79.74831 9.65189
#
# Poissons Ratio (x) = 0.85154 0.11905
# Poissons Ratio (y) = 0.61167 -0.00556
# Poissons Ratio (z) = 0.70658 -0.04596
#
# Static dielectric constant tensor:
#      x y z
#    x 3.713830 0.000000 0.000000 
#    y 0.000000 3.755410 0.000000 
#    z 0.000000 0.000000 2.525480 
# 
# 
# High freq. dielectric constant tensor:
#      x y z
#    x 1.701360 0.000000 0.000000 
#    y 0.000000 1.714480 0.000000 
#    z 0.000000 0.000000 1.616270 
# 
# From -- ./inp_files/2237.got.cif
#   From: 2010.03.12/outbox.cif.g09.slc.cpg/sg47_2_cif.got.tgz:2237.got - 2010.04.14 03:12:58.
