data_PCOD8200355
_publ_section_title
;
Structure prediction by ZEFSAII (Michael W. Deem and Ramdas Pophale) SiO2 
 PCOD8200355
Probable space group: P M M M
;
_chemical_formula_sum "Si O2"
_cell_formula_units_Z 56
_cell_length_a 23.744788
_cell_length_b 14.499790
_cell_length_c 8.665228
_cell_angle_alpha 90.000000
_cell_angle_beta 90.000000
_cell_angle_gamma 90.000000
_cell_volume 2983.389818
_symmetry_space_group_name_H-M "P M M M"
_symmetry_group_IT_number 47
_symmetry_cell_setting 'orthorhombic'
loop_
_space_group_symop_operation_xyz
x,y,z
-x,-y,z
x,-y,-z
-x,y,-z
-x,-y,-z
x,y,-z
-x,y,z
x,-y,z
loop_
_atom_site_type_symbol
_atom_site_label
_atom_site_fract_x
_atom_site_fract_y
_atom_site_fract_z
Si Si1 0.233401 0.745640 0.319149
Si Si2 0.149207 0.604947 0.817193
Si Si3 0.354573 0.257416 0.819853
Si Si4 0.937586 0.244457 0.817328
Si Si5 0.155693 0.895264 0.183320
Si Si6 0.562324 0.897510 0.816651
Si Si7 0.563437 0.608185 0.675336
O O1 0.224313 0.749935 0.500000
O O2 0.203322 0.654146 0.255036
O O3 0.298447 0.737162 0.278984
O O4 0.209288 0.839937 0.246642
O O5 0.144489 0.500000 0.756525
O O6 0.093133 0.660765 0.766364
O O7 0.156548 0.607677 0.000000
O O8 0.390436 0.171403 0.753638
O O9 0.392168 0.347638 0.792617
O O10 0.339686 0.248174 0.000000
O O11 0.901355 0.156269 0.760511
O O12 0.000000 0.240836 0.742477
O O13 0.942661 0.241489 0.000000
O O14 0.155568 0.000000 0.247027
O O15 0.159646 0.894561 0.000000
O O16 0.500000 0.870173 0.754610
O O17 0.578021 0.000000 0.759378
O O18 0.561444 0.893416 0.000000
O O19 0.575702 0.639956 0.500000
O O20 0.500000 0.636943 0.723033
O O21 0.570949 0.500000 0.690137
#
# Coordination Sequence:
#
# PCOD8200355 Si02
#       7
#     8   8   8   8   8   8   8
#     4  11  23  37  52  72 101 136 176 220 263 310
#     4   9  18  34  55  77 103 136 173 213 257 305
#     4  11  21  33  53  79 103 130 169 215 262 308
#     4   8  14  26  48  82 116 137 161 204 256 308
#     4   9  18  34  55  77 104 139 176 214 256 301
#     4   8  15  29  49  74 102 128 155 191 239 296
#     4   9  19  36  55  75 103 138 171 205 253 313
#
# _framework density 18.770595
#
# number of rings (size 3 to 8) (size 9 to 14) (size 15 to 20)
#    0.000    2.714    0.000    3.857    0.000    3.429 
#    0.000    5.000    0.000    8.143    0.000   13.000 
#    0.000    0.000    0.000    0.000    0.000    0.000 
#
# Total GULP energy -694255.493736 kJ/mol
# GULP energy per Si atom -12397.419531 kJ/mol
# Density = 1.872787 g / cm^3
# Si number density = 18.770595 Si / 1000 Ang^3
#
#
#
# Elastic Constant Matrix: (Units=GPa)
#
#
# Indices 1 2 3 4 5 6 
#
# 1 136.5128 66.3056 15.6282 0.0000 0.0000 0.0000
# 2 66.3056 143.1035 24.7499 0.0000 0.0000 0.0000
# 3 15.6282 24.7499 28.7652 0.0000 0.0000 0.0000
# 4 0.0000 0.0000 0.0000 12.8787 0.0000 0.0000
# 5 0.0000 0.0000 0.0000 0.0000 10.8483 0.0000
# 6 0.0000 0.0000 0.0000 0.0000 0.0000 -85.8097
#
#
#
# Elastic Compliance Matrix: (Units=1/GPa)
#
#
# Indices 1 2 3 4 5 6 
#
# 1 0.009516 -0.004130 -0.001617 0.000000 0.000000 0.000000
# 2 -0.004130 0.010002 -0.006362 0.000000 0.000000 0.000000
# 3 -0.001617 -0.006362 0.041117 0.000000 0.000000 0.000000
# 4 0.000000 0.000000 0.000000 0.077648 0.000000 0.000000
# 5 0.000000 0.000000 0.000000 0.000000 0.092180 0.000000
# 6 0.000000 0.000000 0.000000 0.000000 0.000000 -0.011654
#
#
# Mechanical properties :
#
#
# Convention : Reuss Voigt Hill
#
# Bulk Modulus (GPa) = 27.45942 57.97210 42.71576
# Shear Modulus (GPa) = 19.59520 1.02998 10.31259
#
# Velocity S-wave (km/s) = 3.23450 0.74156 2.34647
# Velocity P-wave (km/s) = 5.34883 5.62892 5.49066
#
# Compressibility (1/GPa) = 0.03641737
#
# Stress axis : x y z
#
# Youngs Moduli (GPa) = 105.08374 99.98354 24.32108
#
# Poissons Ratio (x) = 0.41289 0.03933
# Poissons Ratio (y) = 0.43395 0.15473
# Poissons Ratio (z) = 0.16993 0.63609
#
# Static dielectric constant tensor:
#      x y z
#    x 3.597140 0.000000 0.000000 
#    y 0.000000 3.676420 0.000000 
#    z 0.000000 0.000000 3.103890 
# 
# 
# High freq. dielectric constant tensor:
#      x y z
#    x 1.731590 0.000000 0.000000 
#    y 0.000000 1.735200 0.000000 
#    z 0.000000 0.000000 1.695080 
# 
# From -- ./inp_files/11213.got.cif
#   From: 2010.03.12/outbox.cif.g09.slc.cpg/sg47_6_cif.got.tgz:11213.got - 2010.04.14 03:12:58.
