data_PCOD8200606
_publ_section_title
;
Structure prediction by ZEFSAII (Michael W. Deem and Ramdas Pophale) SiO2 
 PCOD8200606
Probable space group: P M M M
;
_chemical_formula_sum "Si O2"
_cell_formula_units_Z 44
_cell_length_a 9.652325
_cell_length_b 8.016058
_cell_length_c 29.888842
_cell_angle_alpha 90.000000
_cell_angle_beta 90.000000
_cell_angle_gamma 90.000000
_cell_volume 2312.607217
_symmetry_space_group_name_H-M "P M M M"
_symmetry_group_IT_number 47
_symmetry_cell_setting 'orthorhombic'
loop_
_space_group_symop_operation_xyz
x,y,z
-x,-y,z
x,-y,-z
-x,y,-z
-x,-y,-z
x,y,-z
-x,y,z
x,-y,z
loop_
_atom_site_type_symbol
_atom_site_label
_atom_site_fract_x
_atom_site_fract_y
_atom_site_fract_z
Si Si1 0.654004 0.802955 0.050025
Si Si2 0.164067 0.500000 0.549921
Si Si3 0.847903 0.693063 0.871269
Si Si4 0.345205 0.197150 0.207905
Si Si5 0.346684 0.802781 0.693013
Si Si6 0.162958 0.192789 0.389295
O O1 0.500000 0.736456 0.062735
O O2 0.766827 0.737821 0.084065
O O3 0.652478 0.000000 0.051991
O O4 0.693135 0.741962 0.000000
O O5 0.227627 0.500000 0.500000
O O6 0.212567 0.672977 0.573545
O O7 0.000000 0.500000 0.547864
O O8 0.872150 0.500000 0.870896
O O9 0.765500 0.739579 0.827036
O O10 0.000000 0.780987 0.871226
O O11 0.500000 0.261502 0.195541
O O12 0.304345 0.263303 0.257594
O O13 0.344763 0.000000 0.206935
O O14 0.500000 0.734770 0.680204
O O15 0.235656 0.745976 0.656293
O O16 0.351852 0.000000 0.694844
O O17 0.000000 0.204744 0.381086
O O18 0.203252 0.000000 0.402584
#
# Coordination Sequence:
#
# PCOD8200606 Si02
#       6
#     8   4   8   8   8   8
#     4   9  19  37  60  82 100 123 163 212 257 304
#     4   9  18  32  49  73 105 137 173 219 264 305
#     4  11  24  37  48  71 108 142 170 204 250 302
#     4   9  18  34  56  78  99 129 171 214 255 304
#     4   8  15  30  52  76 101 129 163 206 256 306
#     4   9  17  30  50  75 101 133 173 214 260 313
#
# _framework density 19.026145
#
# number of rings (size 3 to 8) (size 9 to 14) (size 15 to 20)
#    0.000    2.818    0.000    2.727    0.000    6.182 
#    1.636    6.818    0.000    1.091    0.000    2.545 
#    0.000    0.000    0.000    0.000    0.000    0.000 
#
# Total GULP energy -545218.986658 kJ/mol
# GULP energy per Si atom -12391.340606 kJ/mol
# Density = 1.898284 g / cm^3
# Si number density = 19.026145 Si / 1000 Ang^3
#
#
#
# Elastic Constant Matrix: (Units=GPa)
#
#
# Indices 1 2 3 4 5 6 
#
# 1 117.4059 35.2766 93.1407 0.0000 0.0000 0.0000
# 2 35.2766 59.6354 50.5568 0.0000 0.0000 0.0000
# 3 93.1407 50.5568 171.9716 0.0000 0.0000 0.0000
# 4 0.0000 0.0000 0.0000 91.3651 0.0000 0.0000
# 5 0.0000 0.0000 0.0000 0.0000 34.9086 0.0000
# 6 0.0000 0.0000 0.0000 0.0000 0.0000 20.5087
#
#
#
# Elastic Compliance Matrix: (Units=1/GPa)
#
#
# Indices 1 2 3 4 5 6 
#
# 1 0.015251 -0.002689 -0.007470 0.000000 0.000000 0.000000
# 2 -0.002689 0.022809 -0.005249 0.000000 0.000000 0.000000
# 3 -0.007470 -0.005249 0.011404 0.000000 0.000000 0.000000
# 4 0.000000 0.000000 0.000000 0.010945 0.000000 0.000000
# 5 0.000000 0.000000 0.000000 0.000000 0.028646 0.000000
# 6 0.000000 0.000000 0.000000 0.000000 0.000000 0.048760
#
#
# Mechanical properties :
#
#
# Convention : Reuss Voigt Hill
#
# Bulk Modulus (GPa) = 53.62378 78.55123 66.08750
# Shear Modulus (GPa) = 28.59640 40.69241 34.64441
#
# Velocity S-wave (km/s) = 3.88107 4.62969 4.27181
# Velocity P-wave (km/s) = 6.95191 8.36387 7.69036
#
# Compressibility (1/GPa) = 0.01864844
#
# Stress axis : x y z
#
# Youngs Moduli (GPa) = 65.56831 43.84172 87.69159
#
# Poissons Ratio (x) = 0.11790 0.65502
# Poissons Ratio (y) = 0.17633 0.46030
# Poissons Ratio (z) = 0.48977 0.23013
#
# Static dielectric constant tensor:
#      x y z
#    x 6.043350 0.000000 0.000000 
#    y 0.000000 3.390440 0.000000 
#    z 0.000000 0.000000 3.452820 
# 
# 
# High freq. dielectric constant tensor:
#      x y z
#    x 1.729060 0.000000 0.000000 
#    y 0.000000 1.726580 0.000000 
#    z 0.000000 0.000000 1.742680 
# 
# From -- ./inp_files/33898.got.cif
#   From: 2010.03.12/outbox.cif.g09.slc.cpg/sg47_17_cif.got.tgz:33898.got - 2010.04.14 03:12:58.
