data_PCOD8200722
_publ_section_title
;
Structure prediction by ZEFSAII (Michael W. Deem and Ramdas Pophale) SiO2 
 PCOD8200722
Probable space group: P M M M
;
_chemical_formula_sum "Si O2"
_cell_formula_units_Z 52
_cell_length_a 9.449918
_cell_length_b 33.689001
_cell_length_c 9.699800
_cell_angle_alpha 90.000000
_cell_angle_beta 90.000000
_cell_angle_gamma 90.000000
_cell_volume 3088.011809
_symmetry_space_group_name_H-M "P M M M"
_symmetry_group_IT_number 47
_symmetry_cell_setting 'orthorhombic'
loop_
_space_group_symop_operation_xyz
x,y,z
-x,-y,z
x,-y,-z
-x,y,-z
-x,-y,-z
x,y,-z
-x,y,z
x,-y,z
loop_
_atom_site_type_symbol
_atom_site_label
_atom_site_fract_x
_atom_site_fract_y
_atom_site_fract_z
Si Si1 0.658791 0.044009 0.836013
Si Si2 0.840781 0.883672 0.835884
Si Si3 0.664139 0.808035 0.159731
Si Si4 0.169240 0.414917 0.154829
Si Si5 0.835256 0.656657 0.659343
Si Si6 0.154825 0.500000 0.163543
Si Si7 0.664021 0.733513 0.658786
O O1 0.500000 0.052703 0.782094
O O2 0.765196 0.076954 0.774979
O O3 0.707827 0.000000 0.787940
O O4 0.658914 0.046157 0.000000
O O5 0.755040 0.845134 0.786380
O O6 0.000000 0.881726 0.777284
O O7 0.841529 0.885459 0.000000
O O8 0.500000 0.818369 0.183837
O O9 0.712423 0.770335 0.248318
O O10 0.694658 0.798615 0.000000
O O11 0.225347 0.380708 0.255764
O O12 0.231424 0.458229 0.204360
O O13 0.000000 0.417486 0.158879
O O14 0.220889 0.404928 0.000000
O O15 0.806100 0.647535 0.500000
O O16 0.752810 0.695658 0.708381
O O17 0.000000 0.663795 0.689678
O O18 0.000000 0.500000 0.233588
O O19 0.136976 0.500000 0.000000
O O20 0.696494 0.743985 0.500000
O O21 0.500000 0.723596 0.681727
#
# Coordination Sequence:
#
# PCOD8200722 Si02
#       7
#     8   8   8   8   8   4   8
#     4   8  13  21  33  49  72 106 144 174 201 239
#     4   9  16  24  35  54  80 107 134 167 207 246
#     4   9  17  29  44  60  79 104 133 166 203 241
#     4   8  13  22  37  57  81 109 138 165 196 237
#     4   9  17  28  41  59  83 106 128 161 205 244
#     4   7  10  18  33  53  78 107 136 164 194 231
#     4   9  18  32  47  61  79 106 138 168 200 242
#
# _framework density 16.839314999999999
#
# number of rings (size 3 to 8) (size 9 to 14) (size 15 to 20)
#    0.000    3.462    0.000    1.846    0.000    3.385 
#    0.000    1.923    0.000    2.308    0.000    0.538 
#    0.000    4.923    0.000    7.077    0.000    9.077 
#
# Total GULP energy -644418.989307 kJ/mol
# GULP energy per Si atom -12392.672871 kJ/mol
# Density = 1.680099 g / cm^3
# Si number density = 16.839315 Si / 1000 Ang^3
#
#
#
# Elastic Constant Matrix: (Units=GPa)
#
#
# Indices 1 2 3 4 5 6 
#
# 1 65.7490 74.4774 24.7363 0.0000 0.0000 0.0000
# 2 74.4774 196.5349 58.1835 0.0000 0.0000 0.0000
# 3 24.7363 58.1835 39.3400 0.0000 0.0000 0.0000
# 4 0.0000 0.0000 0.0000 3.5761 0.0000 0.0000
# 5 0.0000 0.0000 0.0000 0.0000 10.1952 0.0000
# 6 0.0000 0.0000 0.0000 0.0000 0.0000 17.7563
#
#
#
# Elastic Compliance Matrix: (Units=1/GPa)
#
#
# Indices 1 2 3 4 5 6 
#
# 1 0.026882 -0.009220 -0.003267 0.000000 0.000000 0.000000
# 2 -0.009220 0.012213 -0.012266 0.000000 0.000000 0.000000
# 3 -0.003267 -0.012266 0.045615 0.000000 0.000000 0.000000
# 4 0.000000 0.000000 0.000000 0.279632 0.000000 0.000000
# 5 0.000000 0.000000 0.000000 0.000000 0.098086 0.000000
# 6 0.000000 0.000000 0.000000 0.000000 0.000000 0.056318
#
#
# Mechanical properties :
#
#
# Convention : Reuss Voigt Hill
#
# Bulk Modulus (GPa) = 28.40517 68.49091 48.44804
# Shear Modulus (GPa) = 8.62087 15.92064 12.27076
#
# Velocity S-wave (km/s) = 2.26508 3.07814 2.70237
# Velocity P-wave (km/s) = 4.87297 7.30718 6.21050
#
# Compressibility (1/GPa) = 0.03520486
#
# Stress axis : x y z
#
# Youngs Moduli (GPa) = 37.19898 81.87673 21.92255
#
# Poissons Ratio (x) = 0.75491 0.07162
# Poissons Ratio (y) = 0.34298 0.26891
# Poissons Ratio (z) = 0.12152 1.00432
#
# Static dielectric constant tensor:
#      x y z
#    x 3.000990 0.000000 0.000000 
#    y 0.000000 3.529470 0.000000 
#    z 0.000000 0.000000 2.787030 
# 
# 
# High freq. dielectric constant tensor:
#      x y z
#    x 1.620660 0.000000 0.000000 
#    y 0.000000 1.667320 0.000000 
#    z 0.000000 0.000000 1.600430 
# 
# From -- ./inp_files/15636.got.cif
#   From: 2010.03.12/outbox.cif.g09.slc.cpg/sg47_8_cif.got.tgz:15636.got - 2010.04.14 03:12:58.
