data_PCOD8200533
_publ_section_title
;
Structure prediction by ZEFSAII (Michael W. Deem and Ramdas Pophale) SiO2 
 PCOD8200533
Probable space group: P M M M
;
_chemical_formula_sum "Si O2"
_cell_formula_units_Z 64
_cell_length_a 23.627650
_cell_length_b 14.854209
_cell_length_c 8.975475
_cell_angle_alpha 90.000000
_cell_angle_beta 90.000000
_cell_angle_gamma 90.000000
_cell_volume 3150.122921
_symmetry_space_group_name_H-M "P M M M"
_symmetry_group_IT_number 47
_symmetry_cell_setting 'orthorhombic'
loop_
_space_group_symop_operation_xyz
x,y,z
-x,-y,z
x,-y,-z
-x,y,-z
-x,-y,-z
x,y,-z
-x,y,z
x,-y,z
loop_
_atom_site_type_symbol
_atom_site_label
_atom_site_fract_x
_atom_site_fract_y
_atom_site_fract_z
Si Si1 0.846649 0.230253 0.824109
Si Si2 0.233980 0.900404 0.666819
Si Si3 0.790608 0.398372 0.326898
Si Si4 0.563435 0.104174 0.668247
Si Si5 0.333849 0.152442 0.836302
Si Si6 0.677457 0.645469 0.166128
Si Si7 0.437155 0.393715 0.333089
Si Si8 0.066171 0.897777 0.671836
O O1 0.796293 0.162567 0.785471
O O2 0.833283 0.328534 0.754386
O O3 0.903167 0.181969 0.762259
O O4 0.852252 0.242551 0.000000
O O5 0.230175 0.859926 0.500000
O O6 0.298944 0.907714 0.719017
O O7 0.206914 0.000000 0.668752
O O8 0.788121 0.371874 0.500000
O O9 0.814645 0.500000 0.305369
O O10 0.726254 0.399385 0.265530
O O11 0.571561 0.138374 0.500000
O O12 0.500000 0.121139 0.722145
O O13 0.602242 0.161376 0.778259
O O14 0.579531 0.000000 0.680349
O O15 0.306165 0.250392 0.842875
O O16 0.333147 0.107675 0.000000
O O17 0.614115 0.636933 0.228886
O O18 0.678786 0.603042 0.000000
O O19 0.426677 0.356085 0.500000
O O20 0.500000 0.360395 0.277475
O O21 0.437349 0.500000 0.336679
O O22 0.085094 0.889773 0.500000
O O23 0.000000 0.879900 0.689815
O O24 0.080527 0.000000 0.728232
#
# Coordination Sequence:
#
# PCOD8200533 Si02
#       8
#     8   8   8   8   8   8   8   8
#     4  12  24  38  60  93 130 166 204 251 307 359
#     4  11  23  38  58  83 114 156 201 244 291 347
#     4  11  24  42  65  89 115 156 209 260 309 365
#     4   9  19  36  55  73  95 130 180 233 285 347
#     4  11  23  36  51  76 109 142 179 231 294 355
#     4  11  23  37  54  80 113 146 183 237 305 369
#     4   9  19  36  56  77 101 133 178 231 289 359
#     4   9  19  38  65  97 135 180 224 260 296 344
#
# _framework density 20.316666000000001
#
# number of rings (size 3 to 8) (size 9 to 14) (size 15 to 20)
#    0.000    1.625    1.250    4.875    0.000   10.000 
#    0.000    4.375    0.000    0.375    0.000    2.625 
#    0.000    0.000    0.000    0.000    0.000    0.000 
#
# Total GULP energy -793273.965278 kJ/mol
# GULP energy per Si atom -12394.905707 kJ/mol
# Density = 2.027042 g / cm^3
# Si number density = 20.316666 Si / 1000 Ang^3
#
#
#
# Elastic Constant Matrix: (Units=GPa)
#
#
# Indices 1 2 3 4 5 6 
#
# 1 102.6254 36.6192 55.9561 0.0000 0.0000 0.0000
# 2 36.6192 98.8933 48.7336 0.0000 0.0000 0.0000
# 3 55.9561 48.7336 138.6870 0.0000 0.0000 0.0000
# 4 0.0000 0.0000 0.0000 35.6123 0.0000 0.0000
# 5 0.0000 0.0000 0.0000 0.0000 24.7828 0.0000
# 6 0.0000 0.0000 0.0000 0.0000 0.0000 28.7465
#
#
#
# Elastic Compliance Matrix: (Units=1/GPa)
#
#
# Indices 1 2 3 4 5 6 
#
# 1 0.013066 -0.002710 -0.004320 0.000000 0.000000 0.000000
# 2 -0.002710 0.012792 -0.003402 0.000000 0.000000 0.000000
# 3 -0.004320 -0.003402 0.010149 0.000000 0.000000 0.000000
# 4 0.000000 0.000000 0.000000 0.028080 0.000000 0.000000
# 5 0.000000 0.000000 0.000000 0.000000 0.040351 0.000000
# 6 0.000000 0.000000 0.000000 0.000000 0.000000 0.034787
#
#
# Mechanical properties :
#
#
# Convention : Reuss Voigt Hill
#
# Bulk Modulus (GPa) = 66.03004 69.20263 67.61633
# Shear Modulus (GPa) = 30.27838 31.08810 30.68324
#
# Velocity S-wave (km/s) = 3.86466 3.91599 3.89041
# Velocity P-wave (km/s) = 7.24466 7.38800 7.31668
#
# Compressibility (1/GPa) = 0.01514462
#
# Stress axis : x y z
#
# Youngs Moduli (GPa) = 76.53244 78.17676 98.53513
#
# Poissons Ratio (x) = 0.21183 0.42565
# Poissons Ratio (y) = 0.20737 0.33518
# Poissons Ratio (z) = 0.33060 0.26593
#
# Static dielectric constant tensor:
#      x y z
#    x 3.711560 0.000000 0.000000 
#    y 0.000000 3.671820 0.000000 
#    z 0.000000 0.000000 3.720920 
# 
# 
# High freq. dielectric constant tensor:
#      x y z
#    x 1.783240 0.000000 0.000000 
#    y 0.000000 1.791850 0.000000 
#    z 0.000000 0.000000 1.792210 
# 
# From -- ./inp_files/12652.got.cif
#   From: 2010.03.12/outbox.cif.g09.slc.cpg/sg47_7_cif.got.tgz:12652.got - 2010.04.14 03:12:58.
