data_PCOD8200796
_publ_section_title
;
Structure prediction by ZEFSAII (Michael W. Deem and Ramdas Pophale) SiO2 
 PCOD8200796
Probable space group: P M M M
;
_chemical_formula_sum "Si O2"
_cell_formula_units_Z 48
_cell_length_a 10.055023
_cell_length_b 14.861127
_cell_length_c 25.167560
_cell_angle_alpha 90.000000
_cell_angle_beta 90.000000
_cell_angle_gamma 90.000000
_cell_volume 3760.762664
_symmetry_space_group_name_H-M "P M M M"
_symmetry_group_IT_number 47
_symmetry_cell_setting 'orthorhombic'
loop_
_space_group_symop_operation_xyz
x,y,z
-x,-y,z
x,-y,-z
-x,y,-z
-x,-y,-z
x,y,-z
-x,y,z
x,-y,z
loop_
_atom_site_type_symbol
_atom_site_label
_atom_site_fract_x
_atom_site_fract_y
_atom_site_fract_z
Si Si1 0.652182 0.250724 0.061190
Si Si2 0.347843 0.603654 0.147170
Si Si3 0.148948 0.607080 0.354517
Si Si4 0.148913 0.099929 0.936933
Si Si5 0.648883 0.392918 0.440823
Si Si6 0.148839 0.393143 0.236310
O O1 0.500000 0.218838 0.067456
O O2 0.680079 0.341771 0.093421
O O3 0.744736 0.171626 0.085039
O O4 0.686704 0.271946 0.000000
O O5 0.500000 0.614407 0.166065
O O6 0.313663 0.500000 0.134632
O O7 0.255005 0.643834 0.193849
O O8 0.156861 0.500000 0.355632
O O9 0.250354 0.649159 0.397553
O O10 0.186421 0.642002 0.295380
O O11 0.000000 0.638555 0.369354
O O12 0.000000 0.127772 0.918799
O O13 0.183233 0.000000 0.914961
O O14 0.157069 0.097869 0.000000
O O15 0.690059 0.360413 0.500000
O O16 0.500000 0.359474 0.427322
O O17 0.653645 0.500000 0.438717
O O18 0.153748 0.500000 0.236700
O O19 0.000000 0.360539 0.220915
#
# Coordination Sequence:
#
# PCOD8200796 Si02
#       6
#     8   8   8   8   8   8
#     4   9  17  27  38  53  71  89 109 133 162 197
#     4   9  17  27  37  49  65  86 112 139 166 197
#     4   8  13  20  29  40  52  67  90 120 153 188
#     4   8  14  25  40  56  72  88 105 126 154 190
#     4   8  13  19  25  35  52  71  89 111 143 184
#     4   8  14  24  35  45  57  74  99 132 166 195
#
# _framework density 12.763369000000001
#
# number of rings (size 3 to 8) (size 9 to 14) (size 15 to 20)
#    0.000    3.667    0.000    2.000    0.000    2.333 
#    0.000    8.333    0.000    0.000    0.000    4.667 
#    0.000    0.000    0.000    0.000    0.000    0.000 
#
# Total GULP energy -594784.980944 kJ/mol
# GULP energy per Si atom -12391.353770 kJ/mol
# Density = 1.273432 g / cm^3
# Si number density = 12.763369 Si / 1000 Ang^3
#
#
#
# Elastic Constant Matrix: (Units=GPa)
#
#
# Indices 1 2 3 4 5 6 
#
# 1 90.9965 33.4990 60.8389 0.0000 0.0000 0.0000
# 2 33.4990 35.3128 24.5293 0.0000 0.0000 0.0000
# 3 60.8389 24.5293 78.5543 0.0000 0.0000 0.0000
# 4 0.0000 0.0000 0.0000 0.8379 0.0000 0.0000
# 5 0.0000 0.0000 0.0000 0.0000 24.3228 0.0000
# 6 0.0000 0.0000 0.0000 0.0000 0.0000 13.2322
#
#
#
# Elastic Compliance Matrix: (Units=1/GPa)
#
#
# Indices 1 2 3 4 5 6 
#
# 1 0.027569 -0.014457 -0.016837 0.000000 0.000000 0.000000
# 2 -0.014457 0.043743 -0.002463 0.000000 0.000000 0.000000
# 3 -0.016837 -0.002463 0.026539 0.000000 0.000000 0.000000
# 4 0.000000 0.000000 0.000000 1.193508 0.000000 0.000000
# 5 0.000000 0.000000 0.000000 0.000000 0.041114 0.000000
# 6 0.000000 0.000000 0.000000 0.000000 0.000000 0.075573
#
#
# Mechanical properties :
#
#
# Convention : Reuss Voigt Hill
#
# Bulk Modulus (GPa) = 32.96231 49.17757 41.06994
# Shear Modulus (GPa) = 3.36548 13.41166 8.38857
#
# Velocity S-wave (km/s) = 1.62559 3.24511 2.56645
# Velocity P-wave (km/s) = 5.42265 7.25637 6.40547
#
# Compressibility (1/GPa) = 0.03033768
#
# Stress axis : x y z
#
# Youngs Moduli (GPa) = 36.27318 22.86063 37.68047
#
# Poissons Ratio (x) = 0.33050 0.63443
# Poissons Ratio (y) = 0.52440 0.09279
# Poissons Ratio (z) = 0.61073 0.05629
#
# Static dielectric constant tensor:
#      x y z
#    x 2.854040 0.000000 0.000000 
#    y 0.000000 2.213830 0.000000 
#    z 0.000000 0.000000 2.676680 
# 
# 
# High freq. dielectric constant tensor:
#      x y z
#    x 1.497400 0.000000 0.000000 
#    y 0.000000 1.419120 0.000000 
#    z 0.000000 0.000000 1.472430 
# 
# From -- ./inp_files/4715.got.cif
#   From: 2010.03.12/outbox.cif.g09.slc.cpg/sg47_3_cif.got.tgz:4715.got - 2010.04.14 03:12:58.
