data_PCOD8200990
_publ_section_title
;
Structure prediction by ZEFSAII (Michael W. Deem and Ramdas Pophale) SiO2 
 PCOD8200990
Probable space group: P M M M
;
_chemical_formula_sum "Si O2"
_cell_formula_units_Z 52
_cell_length_a 24.073755
_cell_length_b 9.529536
_cell_length_c 13.674311
_cell_angle_alpha 90.000000
_cell_angle_beta 90.000000
_cell_angle_gamma 90.000000
_cell_volume 3137.047137
_symmetry_space_group_name_H-M "P M M M"
_symmetry_group_IT_number 47
_symmetry_cell_setting 'orthorhombic'
loop_
_space_group_symop_operation_xyz
x,y,z
-x,-y,z
x,-y,-z
-x,y,-z
-x,-y,-z
x,y,-z
-x,y,z
x,-y,z
loop_
_atom_site_type_symbol
_atom_site_label
_atom_site_fract_x
_atom_site_fract_y
_atom_site_fract_z
Si Si1 0.241724 0.842083 0.891500
Si Si2 0.561091 0.666508 0.109922
Si Si3 0.329608 0.334468 0.209268
Si Si4 0.741996 0.663268 0.390041
Si Si5 0.934357 0.657818 0.000000
Si Si6 0.168677 0.841177 0.708088
Si Si7 0.936696 0.162738 0.814368
O O1 0.291821 0.735814 0.872770
O O2 0.192065 0.816092 0.816711
O O3 0.265099 0.000000 0.880863
O O4 0.218145 0.814304 0.000000
O O5 0.500000 0.723267 0.141679
O O6 0.559844 0.500000 0.108369
O O7 0.607192 0.717425 0.188920
O O8 0.575367 0.720425 0.000000
O O9 0.324763 0.500000 0.195973
O O10 0.307777 0.288406 0.317236
O O11 0.722605 0.698947 0.500000
O O12 0.754565 0.500000 0.376796
O O13 0.800124 0.741017 0.368177
O O14 0.915568 0.741448 0.096420
O O15 0.908727 0.500000 0.000000
O O16 0.000000 0.648811 0.000000
O O17 0.102872 0.807628 0.719810
O O18 0.178322 0.000000 0.671709
O O19 0.000000 0.197864 0.783722
O O20 0.930980 0.000000 0.846573
#
# Coordination Sequence:
#
# PCOD8200990 Si02
#       7
#     8   8   8   8   4   8   8
#     4   9  17  27  39  58  87 117 139 168 212 254
#     4   8  13  21  36  61  90 117 145 177 209 241
#     4   9  16  27  44  63  83 110 147 182 211 251
#     4   9  18  32  48  65  86 110 138 179 230 273
#     4   9  17  27  39  59  87 119 153 181 204 239
#     4   9  18  30  46  66  86 110 143 179 215 262
#     4   9  17  29  45  63  85 115 148 180 216 259
#
# _framework density 16.576098999999999
#
# number of rings (size 3 to 8) (size 9 to 14) (size 15 to 20)
#    0.000    3.154    0.000    1.154    1.077    2.769 
#    0.000    0.000    0.000    1.385    0.000    8.615 
#    0.000    0.000    0.000    7.692    0.000    8.308 
#
# Total GULP energy -644379.918468 kJ/mol
# GULP energy per Si atom -12391.921509 kJ/mol
# Density = 1.653837 g / cm^3
# Si number density = 16.576099 Si / 1000 Ang^3
#
#
#
# Elastic Constant Matrix: (Units=GPa)
#
#
# Indices 1 2 3 4 5 6 
#
# 1 102.4307 25.8052 41.5582 0.0000 0.0000 0.0000
# 2 25.8052 37.7387 24.1890 0.0000 0.0000 0.0000
# 3 41.5582 24.1890 78.4139 0.0000 0.0000 0.0000
# 4 0.0000 0.0000 0.0000 19.0869 0.0000 0.0000
# 5 0.0000 0.0000 0.0000 0.0000 19.2711 0.0000
# 6 0.0000 0.0000 0.0000 0.0000 0.0000 15.4210
#
#
#
# Elastic Compliance Matrix: (Units=1/GPa)
#
#
# Indices 1 2 3 4 5 6 
#
# 1 0.013363 -0.005731 -0.005314 0.000000 0.000000 0.000000
# 2 -0.005731 0.035486 -0.007909 0.000000 0.000000 0.000000
# 3 -0.005314 -0.007909 0.018009 0.000000 0.000000 0.000000
# 4 0.000000 0.000000 0.000000 0.052392 0.000000 0.000000
# 5 0.000000 0.000000 0.000000 0.000000 0.051891 0.000000
# 6 0.000000 0.000000 0.000000 0.000000 0.000000 0.064846
#
#
# Mechanical properties :
#
#
# Convention : Reuss Voigt Hill
#
# Bulk Modulus (GPa) = 34.54345 44.63200 39.58773
# Shear Modulus (GPa) = 17.63381 19.22454 18.42917
#
# Velocity S-wave (km/s) = 3.26515 3.40924 3.33797
# Velocity P-wave (km/s) = 5.92448 6.51776 6.22819
#
# Compressibility (1/GPa) = 0.02894904
#
# Stress axis : x y z
#
# Youngs Moduli (GPa) = 74.83614 28.17976 55.52752
#
# Poissons Ratio (x) = 0.16150 0.29507
# Poissons Ratio (y) = 0.42889 0.43919
# Poissons Ratio (z) = 0.39768 0.22289
#
# Static dielectric constant tensor:
#      x y z
#    x 3.378710 0.000000 0.000000 
#    y 0.000000 3.063200 0.000000 
#    z 0.000000 0.000000 2.989340 
# 
# 
# High freq. dielectric constant tensor:
#      x y z
#    x 1.633240 0.000000 0.000000 
#    y 0.000000 1.622480 0.000000 
#    z 0.000000 0.000000 1.610250 
# 
# From -- ./inp_files/21741.got.cif
#   From: 2010.03.12/outbox.cif.g09.slc.cpg/sg47_11_cif.got.tgz:21741.got - 2010.04.14 03:12:58.
