data_PCOD8200750
_publ_section_title
;
Structure prediction by ZEFSAII (Michael W. Deem and Ramdas Pophale) SiO2 
 PCOD8200750
Probable space group: P M M M
;
_chemical_formula_sum "Si O2"
_cell_formula_units_Z 52
_cell_length_a 9.260704
_cell_length_b 9.590147
_cell_length_c 34.109943
_cell_angle_alpha 90.000000
_cell_angle_beta 90.000000
_cell_angle_gamma 90.000000
_cell_volume 3029.355635
_symmetry_space_group_name_H-M "P M M M"
_symmetry_group_IT_number 47
_symmetry_cell_setting 'orthorhombic'
loop_
_space_group_symop_operation_xyz
x,y,z
-x,-y,z
x,-y,-z
-x,y,-z
-x,-y,-z
x,y,-z
-x,y,z
x,-y,z
loop_
_atom_site_type_symbol
_atom_site_label
_atom_site_fract_x
_atom_site_fract_y
_atom_site_fract_z
Si Si1 0.667948 0.161477 0.075783
Si Si2 0.836992 0.665775 0.773546
Si Si3 0.667907 0.338465 0.150555
Si Si4 0.672636 0.156989 0.374614
Si Si5 0.668439 0.662305 0.697695
Si Si6 0.162848 0.834259 0.000000
Si Si7 0.338318 0.834338 0.458496
O O1 0.500000 0.183660 0.066507
O O2 0.717803 0.249970 0.113171
O O3 0.702976 0.000000 0.084194
O O4 0.755965 0.220301 0.038682
O O5 0.833746 0.500000 0.773311
O O6 0.756825 0.719771 0.812445
O O7 0.753557 0.721281 0.735286
O O8 0.000000 0.723560 0.773212
O O9 0.500000 0.315826 0.159969
O O10 0.702172 0.500000 0.142055
O O11 0.500000 0.159480 0.376805
O O12 0.728952 0.257354 0.340324
O O13 0.734425 0.213069 0.417077
O O14 0.727121 0.000000 0.365875
O O15 0.500000 0.691827 0.704822
O O16 0.698864 0.500000 0.690800
O O17 0.000000 0.776307 0.000000
O O18 0.166398 0.000000 0.000000
O O19 0.259966 0.788587 0.500000
O O20 0.500000 0.773628 0.460205
O O21 0.345268 0.000000 0.456513
#
# Coordination Sequence:
#
# PCOD8200750 Si02
#       7
#     8   8   8   8   8   4   8
#     4   9  17  30  48  68  89 114 144 175 206 243
#     4   9  17  29  45  63  82 107 139 170 200 241
#     4   9  17  30  48  68  88 110 138 173 211 247
#     4   8  13  21  34  53  76 102 132 164 198 237
#     4   9  16  26  41  59  78 102 133 167 200 236
#     4   9  17  29  46  67  90 118 150 179 206 240
#     4   7   9  14  26  45  69  97 128 159 190 229
#
# _framework density 17.165367
#
# number of rings (size 3 to 8) (size 9 to 14) (size 15 to 20)
#    0.000    3.462    0.000    2.077    0.000    3.385 
#    0.000    1.154    0.000    7.846    0.000    3.231 
#    0.000    0.615    0.000    7.692    0.000    7.077 
#
# Total GULP energy -644275.246501 kJ/mol
# GULP energy per Si atom -12389.908587 kJ/mol
# Density = 1.712630 g / cm^3
# Si number density = 17.165367 Si / 1000 Ang^3
#
#
#
# Elastic Constant Matrix: (Units=GPa)
#
#
# Indices 1 2 3 4 5 6 
#
# 1 58.0323 22.4039 68.6983 0.0000 0.0000 0.0000
# 2 22.4039 38.5956 56.2430 0.0000 0.0000 0.0000
# 3 68.6983 56.2430 217.6174 0.0000 0.0000 0.0000
# 4 0.0000 0.0000 0.0000 22.5882 0.0000 0.0000
# 5 0.0000 0.0000 0.0000 0.0000 4.2787 0.0000
# 6 0.0000 0.0000 0.0000 0.0000 0.0000 8.8117
#
#
#
# Elastic Compliance Matrix: (Units=1/GPa)
#
#
# Indices 1 2 3 4 5 6 
#
# 1 0.028211 -0.005451 -0.007497 0.000000 0.000000 0.000000
# 2 -0.005451 0.042617 -0.009293 0.000000 0.000000 0.000000
# 3 -0.007497 -0.009293 0.009364 0.000000 0.000000 0.000000
# 4 0.000000 0.000000 0.000000 0.044271 0.000000 0.000000
# 5 0.000000 0.000000 0.000000 0.000000 0.233717 0.000000
# 6 0.000000 0.000000 0.000000 0.000000 0.000000 0.113485
#
#
# Mechanical properties :
#
#
# Convention : Reuss Voigt Hill
#
# Bulk Modulus (GPa) = 28.00449 67.65953 47.83201
# Shear Modulus (GPa) = 9.46879 18.26240 13.86560
#
# Velocity S-wave (km/s) = 2.35121 3.26530 2.84521
# Velocity P-wave (km/s) = 4.87041 7.32927 6.22250
#
# Compressibility (1/GPa) = 0.03570856
#
# Stress axis : x y z
#
# Youngs Moduli (GPa) = 35.44709 23.46503 106.79473
#
# Poissons Ratio (x) = 0.12791 0.80063
# Poissons Ratio (y) = 0.19322 0.99249
# Poissons Ratio (z) = 0.26575 0.21807
#
# Static dielectric constant tensor:
#      x y z
#    x 2.923760 0.000000 0.000000 
#    y 0.000000 2.839190 0.000000 
#    z 0.000000 0.000000 3.703720 
# 
# 
# High freq. dielectric constant tensor:
#      x y z
#    x 1.622330 0.000000 0.000000 
#    y 0.000000 1.614500 0.000000 
#    z 0.000000 0.000000 1.688270 
# 
# From -- ./inp_files/14102.got.cif
#   From: 2010.03.12/outbox.cif.g09.slc.cpg/sg47_8_cif.got.tgz:14102.got - 2010.04.14 03:12:58.
