data_PCOD8200281
_publ_section_title
;
Structure prediction by ZEFSAII (Michael W. Deem and Ramdas Pophale) SiO2 
 PCOD8200281
Probable space group: P M M M
;
_chemical_formula_sum "Si O2"
_cell_formula_units_Z 44
_cell_length_a 21.478028
_cell_length_b 14.264960
_cell_length_c 9.208755
_cell_angle_alpha 90.000000
_cell_angle_beta 90.000000
_cell_angle_gamma 90.000000
_cell_volume 2821.407920
_symmetry_space_group_name_H-M "P M M M"
_symmetry_group_IT_number 47
_symmetry_cell_setting 'orthorhombic'
loop_
_space_group_symop_operation_xyz
x,y,z
-x,-y,z
x,-y,-z
-x,y,-z
-x,-y,-z
x,y,-z
-x,y,z
x,-y,z
loop_
_atom_site_type_symbol
_atom_site_label
_atom_site_fract_x
_atom_site_fract_y
_atom_site_fract_z
Si Si1 0.572519 0.898244 0.341964
Si Si2 0.000000 0.111938 0.835477
Si Si3 0.570616 0.391862 0.670049
Si Si4 0.756650 0.891796 0.170702
Si Si5 0.119336 0.110980 0.663318
Si Si6 0.357310 0.239530 0.168804
O O1 0.596211 0.859743 0.500000
O O2 0.500000 0.910350 0.349223
O O3 0.587135 0.830284 0.209323
O O4 0.603179 0.000000 0.312714
O O5 0.060622 0.151449 0.752232
O O6 0.000000 0.000000 0.836918
O O7 0.000000 0.150556 0.000000
O O8 0.578133 0.374607 0.500000
O O9 0.500000 0.360829 0.716736
O O10 0.580240 0.500000 0.710257
O O11 0.626566 0.336349 0.749796
O O12 0.817931 0.859151 0.255297
O O13 0.704807 0.815831 0.219759
O O14 0.738165 0.000000 0.209973
O O15 0.769626 0.884494 0.000000
O O16 0.119232 0.152480 0.500000
O O17 0.113974 0.000000 0.657158
O O18 0.355803 0.261362 0.000000
#
# Coordination Sequence:
#
# PCOD8200281 Si02
#       6
#     8   4   8   8   8   8
#     4   9  18  31  44  58  79 109 143 175 206 245
#     4   9  15  23  37  55  77 109 144 177 218 259
#     4   9  19  36  54  68  83 106 137 174 218 269
#     4   9  18  31  42  55  83 120 150 174 207 254
#     4   9  16  25  38  57  79 105 144 189 219 240
#     4  11  21  30  44  66  88 110 137 173 217 262
#
# _framework density 15.595051
#
# number of rings (size 3 to 8) (size 9 to 14) (size 15 to 20)
#    0.000    2.636    0.000    3.545    0.000    9.091 
#    0.000    3.636    0.000    0.000    0.000    0.000 
#    0.000    0.000    0.000    0.818    0.000   15.364 
#
# Total GULP energy -545163.759131 kJ/mol
# GULP energy per Si atom -12390.085435 kJ/mol
# Density = 1.555956 g / cm^3
# Si number density = 15.595051 Si / 1000 Ang^3
#
#
#
# Elastic Constant Matrix: (Units=GPa)
#
#
# Indices 1 2 3 4 5 6 
#
# 1 102.9748 47.1427 58.2736 0.0000 0.0000 0.0000
# 2 47.1427 63.5423 32.8502 0.0000 0.0000 0.0000
# 3 58.2736 32.8502 74.3099 0.0000 0.0000 0.0000
# 4 0.0000 0.0000 0.0000 17.6851 0.0000 0.0000
# 5 0.0000 0.0000 0.0000 0.0000 27.4635 0.0000
# 6 0.0000 0.0000 0.0000 0.0000 0.0000 3.4045
#
#
#
# Elastic Compliance Matrix: (Units=1/GPa)
#
#
# Indices 1 2 3 4 5 6 
#
# 1 0.020855 -0.009096 -0.012333 0.000000 0.000000 0.000000
# 2 -0.009096 0.024367 -0.003639 0.000000 0.000000 0.000000
# 3 -0.012333 -0.003639 0.024737 0.000000 0.000000 0.000000
# 4 0.000000 0.000000 0.000000 0.056545 0.000000 0.000000
# 5 0.000000 0.000000 0.000000 0.000000 0.036412 0.000000
# 6 0.000000 0.000000 0.000000 0.000000 0.000000 0.293730
#
#
# Mechanical properties :
#
#
# Convention : Reuss Voigt Hill
#
# Bulk Modulus (GPa) = 50.44609 57.48445 53.96527
# Shear Modulus (GPa) = 9.73918 16.54799 13.14358
#
# Velocity S-wave (km/s) = 2.50172 3.26099 2.90626
# Velocity P-wave (km/s) = 6.38455 7.14979 6.77798
#
# Compressibility (1/GPa) = 0.01982314
#
# Stress axis : x y z
#
# Youngs Moduli (GPa) = 47.95053 41.03832 40.42486
#
# Poissons Ratio (x) = 0.37330 0.49856
# Poissons Ratio (y) = 0.43618 0.14709
# Poissons Ratio (z) = 0.59137 0.14933
#
# Static dielectric constant tensor:
#      x y z
#    x 2.977090 0.000000 0.000000 
#    y 0.000000 2.729230 0.000000 
#    z 0.000000 0.000000 3.100130 
# 
# 
# High freq. dielectric constant tensor:
#      x y z
#    x 1.588510 0.000000 0.000000 
#    y 0.000000 1.550280 0.000000 
#    z 0.000000 0.000000 1.607270 
# 
# From -- ./inp_files/6808.got.cif
#   From: 2010.03.12/outbox.cif.g09.slc.cpg/sg47_4_cif.got.tgz:6808.got - 2010.04.14 03:12:58.
