data_PCOD8200279
_publ_section_title
;
Structure prediction by ZEFSAII (Michael W. Deem and Ramdas Pophale) SiO2 
 PCOD8200279
Probable space group: P M M M
;
_chemical_formula_sum "Si O2"
_cell_formula_units_Z 56
_cell_length_a 29.247486
_cell_length_b 14.237233
_cell_length_c 9.312823
_cell_angle_alpha 90.000000
_cell_angle_beta 90.000000
_cell_angle_gamma 90.000000
_cell_volume 3877.889977
_symmetry_space_group_name_H-M "P M M M"
_symmetry_group_IT_number 47
_symmetry_cell_setting 'orthorhombic'
loop_
_space_group_symop_operation_xyz
x,y,z
-x,-y,z
x,-y,-z
-x,y,-z
-x,-y,-z
x,y,-z
-x,y,z
x,-y,z
loop_
_atom_site_type_symbol
_atom_site_label
_atom_site_fract_x
_atom_site_fract_y
_atom_site_fract_z
Si Si1 0.396416 0.260469 0.832658
Si Si2 0.135806 0.387796 0.161875
Si Si3 0.949442 0.611662 0.661220
Si Si4 0.312032 0.391546 0.831841
Si Si5 0.777962 0.611175 0.338574
Si Si6 0.553209 0.601886 0.655989
Si Si7 0.552001 0.891244 0.667621
O O1 0.350305 0.315347 0.786070
O O2 0.436750 0.330168 0.787768
O O3 0.407472 0.163308 0.751213
O O4 0.397276 0.239416 0.000000
O O5 0.136122 0.500000 0.162117
O O6 0.088997 0.348163 0.231737
O O7 0.178446 0.347996 0.253092
O O8 0.139284 0.349131 0.000000
O O9 0.939381 0.648015 0.500000
O O10 0.947639 0.500000 0.661765
O O11 0.000000 0.645415 0.711371
O O12 0.326033 0.500000 0.794784
O O13 0.267710 0.359227 0.744385
O O14 0.301116 0.383917 0.000000
O O15 0.777200 0.652868 0.500000
O O16 0.781964 0.500000 0.344912
O O17 0.571009 0.640383 0.500000
O O18 0.500000 0.589433 0.646716
O O19 0.575770 0.500000 0.685483
O O20 0.558262 0.871351 0.500000
O O21 0.500000 0.860972 0.712867
O O22 0.559101 0.000000 0.703743
#
# Coordination Sequence:
#
# PCOD8200279 Si02
#       7
#     8   8   8   8   8   8   8
#     4  11  21  30  44  66  87 105 125 154 193 230
#     4   9  15  21  30  43  59  81 108 140 182 229
#     4   8  13  20  28  38  54  76 103 139 182 224
#     4   9  18  31  42  54  78 107 129 151 184 226
#     4   9  16  25  37  51  65  85 118 155 185 216
#     4   9  18  31  44  58  79 108 137 159 179 211
#     4   9  19  36  54  68  83 105 131 157 186 223
#
# _framework density 14.440842
#
# number of rings (size 3 to 8) (size 9 to 14) (size 15 to 20)
#    0.000    2.857    0.000    3.429    0.000    8.286 
#    0.000    4.286    0.000    0.000    0.000    0.000 
#    0.000    0.000    0.000    0.000    0.000    0.000 
#
# Total GULP energy -693831.505307 kJ/mol
# GULP energy per Si atom -12389.848309 kJ/mol
# Density = 1.440797 g / cm^3
# Si number density = 14.440842 Si / 1000 Ang^3
#
#
#
# Elastic Constant Matrix: (Units=GPa)
#
#
# Indices 1 2 3 4 5 6 
#
# 1 104.9957 34.8914 63.8769 0.0000 0.0000 0.0000
# 2 34.8914 43.2143 26.9997 0.0000 0.0000 0.0000
# 3 63.8769 26.9997 85.1501 0.0000 0.0000 0.0000
# 4 0.0000 0.0000 0.0000 13.0209 0.0000 0.0000
# 5 0.0000 0.0000 0.0000 0.0000 29.1290 0.0000
# 6 0.0000 0.0000 0.0000 0.0000 0.0000 0.9450
#
#
#
# Elastic Compliance Matrix: (Units=1/GPa)
#
#
# Indices 1 2 3 4 5 6 
#
# 1 0.019648 -0.008299 -0.012108 0.000000 0.000000 0.000000
# 2 -0.008299 0.032363 -0.004036 0.000000 0.000000 0.000000
# 3 -0.012108 -0.004036 0.022107 0.000000 0.000000 0.000000
# 4 0.000000 0.000000 0.000000 0.076800 0.000000 0.000000
# 5 0.000000 0.000000 0.000000 0.000000 0.034330 0.000000
# 6 0.000000 0.000000 0.000000 0.000000 0.000000 1.058194
#
#
# Mechanical properties :
#
#
# Convention : Reuss Voigt Hill
#
# Bulk Modulus (GPa) = 39.63275 53.87734 46.75505
# Shear Modulus (GPa) = 3.84397 15.79178 9.81787
#
# Velocity S-wave (km/s) = 1.63329 3.31047 2.61026
# Velocity P-wave (km/s) = 5.57327 7.21126 6.44452
#
# Compressibility (1/GPa) = 0.02523166
#
# Stress axis : x y z
#
# Youngs Moduli (GPa) = 50.89474 30.89955 45.23504
#
# Poissons Ratio (x) = 0.25644 0.54771
# Poissons Ratio (y) = 0.42239 0.18256
# Poissons Ratio (z) = 0.61624 0.12471
#
# Static dielectric constant tensor:
#      x y z
#    x 2.919100 0.000000 0.000000 
#    y 0.000000 2.399390 0.000000 
#    z 0.000000 0.000000 2.979600 
# 
# 
# High freq. dielectric constant tensor:
#      x y z
#    x 1.549290 0.000000 0.000000 
#    y 0.000000 1.481780 0.000000 
#    z 0.000000 0.000000 1.562950 
# 
# From -- ./inp_files/8141.got.cif
#   From: 2010.03.12/outbox.cif.g09.slc.cpg/sg47_5_cif.got.tgz:8141.got - 2010.04.14 03:12:58.
