data_PCOD8200206
_publ_section_title
;
Structure prediction by ZEFSAII (Michael W. Deem and Ramdas Pophale) SiO2 
 PCOD8200206
Probable space group: P M M M
;
_chemical_formula_sum "Si O2"
_cell_formula_units_Z 64
_cell_length_a 14.217505
_cell_length_b 31.263344
_cell_length_c 8.887160
_cell_angle_alpha 90.000000
_cell_angle_beta 90.000000
_cell_angle_gamma 90.000000
_cell_volume 3950.224862
_symmetry_space_group_name_H-M "P M M M"
_symmetry_group_IT_number 47
_symmetry_cell_setting 'orthorhombic'
loop_
_space_group_symop_operation_xyz
x,y,z
-x,-y,z
x,-y,-z
-x,y,-z
-x,-y,-z
x,y,-z
-x,y,z
x,-y,z
loop_
_atom_site_type_symbol
_atom_site_label
_atom_site_fract_x
_atom_site_fract_y
_atom_site_fract_z
Si Si1 0.390782 0.201801 0.823335
Si Si2 0.391545 0.049367 0.827125
Si Si3 0.611771 0.454719 0.331338
Si Si4 0.714725 0.719236 0.322451
Si Si5 0.605796 0.363267 0.679836
Si Si6 0.106502 0.151728 0.173839
Si Si7 0.286508 0.123146 0.675986
Si Si8 0.106120 0.748619 0.826323
O O1 0.500000 0.201782 0.781107
O O2 0.343275 0.242645 0.750015
O O3 0.345764 0.158503 0.763366
O O4 0.373062 0.203895 0.000000
O O5 0.500000 0.058992 0.789680
O O6 0.326318 0.076715 0.717225
O O7 0.367991 0.000000 0.797173
O O8 0.370469 0.061456 0.000000
O O9 0.652238 0.456673 0.500000
O O10 0.500000 0.452476 0.337433
O O11 0.642686 0.500000 0.249737
O O12 0.644145 0.409512 0.255878
O O13 0.705374 0.723163 0.500000
O O14 0.673208 0.674390 0.262179
O O15 0.823660 0.720890 0.274944
O O16 0.605483 0.365668 0.500000
O O17 0.500000 0.353827 0.738095
O O18 0.177184 0.124582 0.276251
O O19 0.127157 0.201595 0.200463
O O20 0.000000 0.140540 0.222211
O O21 0.122450 0.139945 0.000000
O O22 0.295559 0.131445 0.500000
O O23 0.000000 0.737481 0.776682
O O24 0.121716 0.736962 0.000000
#
# Coordination Sequence:
#
# PCOD8200206 Si02
#       8
#     8   8   8   8   8   8   8   8
#     4  11  23  36  48  63  90 130 169 198 221 258
#     4   9  19  37  59  79 100 131 168 199 228 269
#     4   7   9  15  29  48  72 108 152 188 217 258
#     4  11  20  29  44  67  94 122 150 187 236 283
#     4   8  14  23  34  53  86 123 152 182 224 272
#     4   9  18  34  55  74  94 124 160 196 233 276
#     4  12  23  33  51  79 105 127 153 193 242 283
#     4   9  18  33  51  67  86 117 156 195 232 273
#
# _framework density 16.201609000000001
#
# number of rings (size 3 to 8) (size 9 to 14) (size 15 to 20)
#    0.000    2.500    1.250    4.875    0.000    4.000 
#    0.000    1.875    0.000    0.375    0.000    2.625 
#    0.000    2.500    0.000   20.375    0.000   12.750 
#
# Total GULP energy -793203.885906 kJ/mol
# GULP energy per Si atom -12393.810717 kJ/mol
# Density = 1.616473 g / cm^3
# Si number density = 16.201609 Si / 1000 Ang^3
#
#
#
# Elastic Constant Matrix: (Units=GPa)
#
#
# Indices 1 2 3 4 5 6 
#
# 1 95.8374 54.2243 37.6209 0.0000 0.0000 0.0000
# 2 54.2243 106.7309 25.5324 0.0000 0.0000 0.0000
# 3 37.6209 25.5324 40.0911 0.0000 0.0000 0.0000
# 4 0.0000 0.0000 0.0000 1.5764 0.0000 0.0000
# 5 0.0000 0.0000 0.0000 0.0000 18.5366 0.0000
# 6 0.0000 0.0000 0.0000 0.0000 0.0000 10.2529
#
#
#
# Elastic Compliance Matrix: (Units=1/GPa)
#
#
# Indices 1 2 3 4 5 6 
#
# 1 0.019837 -0.006636 -0.014389 0.000000 0.000000 0.000000
# 2 -0.006636 0.013273 -0.002226 0.000000 0.000000 0.000000
# 3 -0.014389 -0.002226 0.039863 0.000000 0.000000 0.000000
# 4 0.000000 0.000000 0.000000 0.634351 0.000000 0.000000
# 5 0.000000 0.000000 0.000000 0.000000 0.053947 0.000000
# 6 0.000000 0.000000 0.000000 0.000000 0.000000 0.097533
#
#
# Mechanical properties :
#
#
# Convention : Reuss Voigt Hill
#
# Bulk Modulus (GPa) = 37.77590 53.04607 45.41099
# Shear Modulus (GPa) = 5.46968 14.42531 9.94749
#
# Velocity S-wave (km/s) = 1.83938 2.98713 2.48055
# Velocity P-wave (km/s) = 5.27995 6.68652 6.02443
#
# Compressibility (1/GPa) = 0.02647190
#
# Stress axis : x y z
#
# Youngs Moduli (GPa) = 50.40994 75.33893 25.08591
#
# Poissons Ratio (x) = 0.49996 0.36096
# Poissons Ratio (y) = 0.33453 0.05584
# Poissons Ratio (z) = 0.72534 0.16770
#
# Static dielectric constant tensor:
#      x y z
#    x 3.044560 0.000000 0.000000 
#    y 0.000000 3.340400 0.000000 
#    z 0.000000 0.000000 2.835490 
# 
# 
# High freq. dielectric constant tensor:
#      x y z
#    x 1.606180 0.000000 0.000000 
#    y 0.000000 1.620080 0.000000 
#    z 0.000000 0.000000 1.601160 
# 
# From -- ./inp_files/8323.got.cif
#   From: 2010.03.12/outbox.cif.g09.slc.cpg/sg47_5_cif.got.tgz:8323.got - 2010.04.14 03:12:58.
