data_PCOD8200232
_publ_section_title
;
Structure prediction by ZEFSAII (Michael W. Deem and Ramdas Pophale) SiO2 
 PCOD8200232
Probable space group: P M M M
;
_chemical_formula_sum "Si O2"
_cell_formula_units_Z 52
_cell_length_a 27.271586
_cell_length_b 8.729851
_cell_length_c 12.228949
_cell_angle_alpha 90.000000
_cell_angle_beta 90.000000
_cell_angle_gamma 90.000000
_cell_volume 2911.430052
_symmetry_space_group_name_H-M "P M M M"
_symmetry_group_IT_number 47
_symmetry_cell_setting 'orthorhombic'
loop_
_space_group_symop_operation_xyz
x,y,z
-x,-y,z
x,-y,-z
-x,y,-z
-x,-y,-z
x,y,-z
-x,y,z
x,-y,z
loop_
_atom_site_type_symbol
_atom_site_label
_atom_site_fract_x
_atom_site_fract_y
_atom_site_fract_z
Si Si1 0.215869 0.827091 0.628314
Si Si2 0.442814 0.318737 0.000000
Si Si3 0.500000 0.681365 0.628227
Si Si4 0.946434 0.318447 0.119661
Si Si5 0.675371 0.181774 0.378475
Si Si6 0.944629 0.180467 0.500000
Si Si7 0.881129 0.320654 0.311297
Si Si8 0.413511 0.182207 0.769842
O O1 0.205544 0.823362 0.500000
O O2 0.270167 0.760018 0.653449
O O3 0.176058 0.721659 0.687222
O O4 0.210977 0.000000 0.672717
O O5 0.417603 0.250541 0.108431
O O6 0.435774 0.500000 0.000000
O O7 0.500000 0.273142 0.000000
O O8 0.500000 0.500000 0.645147
O O9 0.500000 0.725979 0.500000
O O10 0.546643 0.752185 0.687256
O O11 0.946845 0.500000 0.113213
O O12 0.902199 0.264002 0.195689
O O13 0.000000 0.262953 0.163221
O O14 0.936836 0.248093 0.000000
O O15 0.660441 0.244968 0.500000
O O16 0.638038 0.234464 0.283787
O O17 0.676757 0.000000 0.386446
O O18 0.914218 0.233143 0.396709
O O19 0.000000 0.249704 0.500000
O O20 0.947542 0.000000 0.500000
O O21 0.887002 0.500000 0.332205
O O22 0.418968 0.000000 0.777245
#
# Coordination Sequence:
#
# PCOD8200232 Si02
#       8
#     8   4   4   8   8   4   8   8
#     4   9  17  32  53  74 103 142 173 201 253 319
#     4  11  23  39  57  77 112 154 184 214 269 336
#     4  11  23  36  51  78 119 155 177 207 270 335
#     4   8  15  29  48  69  94 127 164 203 252 303
#     4   8  16  32  55  82 107 134 171 217 265 308
#     4  11  23  35  47  69 105 145 175 204 257 320
#     4  11  20  30  50  78 104 130 168 216 258 302
#     4  11  21  35  59  85 107 137 187 236 266 304
#
# _framework density 17.860638999999999
#
# number of rings (size 3 to 8) (size 9 to 14) (size 15 to 20)
#    0.000    2.231    1.538    3.923    0.000    2.769 
#    0.000    1.538    1.692    3.692    0.000    5.385 
#    0.000    0.000    0.000    0.000    0.000    0.000 
#
# Total GULP energy -644517.881562 kJ/mol
# GULP energy per Si atom -12394.574645 kJ/mol
# Density = 1.781999 g / cm^3
# Si number density = 17.860639 Si / 1000 Ang^3
#
#
#
# Elastic Constant Matrix: (Units=GPa)
#
#
# Indices 1 2 3 4 5 6 
#
# 1 155.9073 34.3086 85.1457 0.0000 0.0000 0.0000
# 2 34.3086 53.0287 34.6777 0.0000 0.0000 0.0000
# 3 85.1457 34.6777 133.7892 0.0000 0.0000 0.0000
# 4 0.0000 0.0000 0.0000 -14.7106 0.0000 0.0000
# 5 0.0000 0.0000 0.0000 0.0000 14.1781 0.0000
# 6 0.0000 0.0000 0.0000 0.0000 0.0000 17.7872
#
#
#
# Elastic Compliance Matrix: (Units=1/GPa)
#
#
# Indices 1 2 3 4 5 6 
#
# 1 0.010171 -0.002827 -0.005740 0.000000 0.000000 0.000000
# 2 -0.002827 0.023492 -0.004290 0.000000 0.000000 0.000000
# 3 -0.005740 -0.004290 0.012240 0.000000 0.000000 0.000000
# 4 0.000000 0.000000 0.000000 -0.067978 0.000000 0.000000
# 5 0.000000 0.000000 0.000000 0.000000 0.070531 0.000000
# 6 0.000000 0.000000 0.000000 0.000000 0.000000 0.056220
#
#
# Mechanical properties :
#
#
# Convention : Reuss Voigt Hill
#
# Bulk Modulus (GPa) = 49.53319 72.33213 60.93266
# Shear Modulus (GPa) = 36.46443 16.02382 26.24413
#
# Velocity S-wave (km/s) = 4.52332 2.99851 3.83741
# Velocity P-wave (km/s) = 7.42118 7.25080 7.33648
#
# Compressibility (1/GPa) = 0.02018848
#
# Stress axis : x y z
#
# Youngs Moduli (GPa) = 98.31778 42.56771 81.70120
#
# Poissons Ratio (x) = 0.12032 0.46900
# Poissons Ratio (y) = 0.27791 0.35051
# Poissons Ratio (z) = 0.56438 0.18262
#
# Static dielectric constant tensor:
#      x y z
#    x 4.071440 0.000000 0.000000 
#    y 0.000000 3.117350 0.000000 
#    z 0.000000 0.000000 2.678750 
# 
# 
# High freq. dielectric constant tensor:
#      x y z
#    x 1.698480 0.000000 0.000000 
#    y 0.000000 1.671770 0.000000 
#    z 0.000000 0.000000 1.684630 
# 
# From -- ./inp_files/19841.got.cif
#   From: 2010.03.12/outbox.cif.g09.slc.cpg/sg47_10_cif.got.tgz:19841.got - 2010.04.14 03:12:58.
