data_PCOD8200851
_publ_section_title
;
Structure prediction by ZEFSAII (Michael W. Deem and Ramdas Pophale) SiO2 
 PCOD8200851
Probable space group: P M M M
;
_chemical_formula_sum "Si O2"
_cell_formula_units_Z 64
_cell_length_a 25.545492
_cell_length_b 25.545495
_cell_length_c 9.314357
_cell_angle_alpha 90.000000
_cell_angle_beta 90.000000
_cell_angle_gamma 90.000000
_cell_volume 6078.290794
_symmetry_space_group_name_H-M "P M M M"
_symmetry_group_IT_number 47
_symmetry_cell_setting 'orthorhombic'
loop_
_space_group_symop_operation_xyz
x,y,z
-x,-y,z
x,-y,-z
-x,y,-z
-x,-y,-z
x,y,-z
-x,y,z
x,-y,z
loop_
_atom_site_type_symbol
_atom_site_label
_atom_site_fract_x
_atom_site_fract_y
_atom_site_fract_z
Si Si1 0.562285 0.254579 0.662152
Si Si2 0.942118 0.562238 0.661217
Si Si3 0.355348 0.440083 0.166025
Si Si4 0.562511 0.155418 0.838158
Si Si5 0.440083 0.355347 0.833975
Si Si6 0.155418 0.437489 0.838158
Si Si7 0.562238 0.057882 0.338783
Si Si8 0.745421 0.562285 0.337848
O O1 0.584182 0.253587 0.500000
O O2 0.500000 0.252796 0.662519
O O3 0.584392 0.204446 0.747549
O O4 0.581594 0.307185 0.740414
O O5 0.930718 0.582501 0.500000
O O6 0.939939 0.500000 0.661776
O O7 0.898046 0.584739 0.767914
O O8 0.000000 0.580956 0.711627
O O9 0.368766 0.500000 0.204990
O O10 0.406554 0.406554 0.203240
O O11 0.307185 0.418406 0.259586
O O12 0.339176 0.434809 0.000000
O O13 0.500000 0.155512 0.837312
O O14 0.584739 0.101954 0.767914
O O15 0.583996 0.159288 0.000000
O O16 0.500000 0.368766 0.795010
O O17 0.434809 0.339176 0.000000
O O18 0.155512 0.500000 0.837312
O O19 0.204446 0.415608 0.747549
O O20 0.159288 0.416004 0.000000
O O21 0.582502 0.069282 0.500000
O O22 0.500000 0.060061 0.338224
O O23 0.580956 0.000000 0.288373
O O24 0.746413 0.584182 0.500000
O O25 0.747204 0.500000 0.337481
#
# Coordination Sequence:
#
# PCOD8200851 Si02
#       8
#     8   8   8   8   8   8   8   8
#     4   9  16  25  36  47  58  72  89 107 126 150
#     4   8  13  20  28  38  54  75  95 112 129 148
#     4   9  17  28  40  52  64  75  86 102 126 158
#     4   9  15  21  30  43  57  72  90 111 131 149
#     4   9  17  28  40  52  64  75  86 102 126 158
#     4   9  15  21  30  43  57  72  90 111 131 149
#     4   8  13  20  28  38  54  75  95 112 129 148
#     4   9  16  25  36  47  58  72  89 107 126 150
#
# _framework density 10.529275999999999
#
# number of rings (size 3 to 8) (size 9 to 14) (size 15 to 20)
#    0.000    3.250    0.000    2.250    0.000    7.250 
#    0.000    3.750    0.000    0.000    0.000    3.500 
#    0.000    0.000    0.000    0.000    0.000    0.000 
#
# Total GULP energy -793269.784936 kJ/mol
# GULP energy per Si atom -12394.840390 kJ/mol
# Density = 1.050531 g / cm^3
# Si number density = 10.529276 Si / 1000 Ang^3
#
#
#
# Elastic Constant Matrix: (Units=GPa)
#
#
# Indices 1 2 3 4 5 6 
#
# 1 50.3856 21.8711 35.4386 0.0000 0.0000 0.0000
# 2 21.8711 50.3856 35.4386 0.0000 0.0000 0.0000
# 3 35.4386 35.4386 84.9319 0.0000 0.0000 0.0000
# 4 0.0000 0.0000 0.0000 14.0713 0.0000 0.0000
# 5 0.0000 0.0000 0.0000 0.0000 14.0713 0.0000
# 6 0.0000 0.0000 0.0000 0.0000 0.0000 0.2393
#
#
#
# Elastic Compliance Matrix: (Units=1/GPa)
#
#
# Indices 1 2 3 4 5 6 
#
# 1 0.029249 -0.005820 -0.009776 0.000000 0.000000 0.000000
# 2 -0.005820 0.029249 -0.009776 0.000000 0.000000 0.000000
# 3 -0.009776 -0.009776 0.019932 0.000000 0.000000 0.000000
# 4 0.000000 0.000000 0.000000 0.071067 0.000000 0.000000
# 5 0.000000 0.000000 0.000000 0.000000 0.071067 0.000000
# 6 0.000000 0.000000 0.000000 0.000000 0.000000 4.178134
#
#
# Mechanical properties :
#
#
# Convention : Reuss Voigt Hill
#
# Bulk Modulus (GPa) = 36.11887 41.24442 38.68164
# Shear Modulus (GPa) = 1.12141 11.87338 6.49740
#
# Velocity S-wave (km/s) = 1.03313 3.36170 2.48680
# Velocity P-wave (km/s) = 5.98338 7.37050 6.71287
#
# Compressibility (1/GPa) = 0.02768636
#
# Stress axis : x y z
#
# Youngs Moduli (GPa) = 34.18887 34.18887 50.16988
#
# Poissons Ratio (x) = 0.19900 0.49045
# Poissons Ratio (y) = 0.19900 0.49045
# Poissons Ratio (z) = 0.33423 0.33423
#
# Static dielectric constant tensor:
#      x y z
#    x 2.111120 0.000000 0.000000 
#    y 0.000000 2.111120 0.000000 
#    z 0.000000 0.000000 2.484400 
# 
# 
# High freq. dielectric constant tensor:
#      x y z
#    x 1.357050 0.000000 0.000000 
#    y 0.000000 1.357050 0.000000 
#    z 0.000000 0.000000 1.412080 
# 
# From -- ./inp_files/13532.got.cif
#   From: 2010.03.12/outbox.cif.g09.slc.cpg/sg47_7_cif.got.tgz:13532.got - 2010.04.14 03:12:58.
