data_PCOD8200013
_publ_section_title
;
Structure prediction by ZEFSAII (Michael W. Deem and Ramdas Pophale) SiO2 
 PCOD8200013
Probable space group: P M M M
;
_chemical_formula_sum "Si O2"
_cell_formula_units_Z 24
_cell_length_a 17.295778
_cell_length_b 8.945374
_cell_length_c 7.424535
_cell_angle_alpha 90.000000
_cell_angle_beta 90.000000
_cell_angle_gamma 90.000000
_cell_volume 1148.703288
_symmetry_space_group_name_H-M "P M M M"
_symmetry_group_IT_number 47
_symmetry_cell_setting 'orthorhombic'
loop_
_space_group_symop_operation_xyz
x,y,z
-x,-y,z
x,-y,-z
-x,y,-z
-x,-y,-z
x,y,-z
-x,y,z
x,-y,z
loop_
_atom_site_type_symbol
_atom_site_label
_atom_site_fract_x
_atom_site_fract_y
_atom_site_fract_z
Si Si1 0.000000 0.331363 0.714831
Si Si2 0.848007 0.168042 0.713817
Si Si3 0.308128 0.675514 0.290914
Si Si4 0.590913 0.826802 0.000000
O O1 0.924315 0.248078 0.791283
O O2 0.000000 0.500000 0.788285
O O3 0.000000 0.330021 0.500000
O O4 0.851717 0.166537 0.500000
O O5 0.772985 0.258275 0.779133
O O6 0.843986 0.000000 0.790638
O O7 0.322142 0.713369 0.500000
O O8 0.306927 0.500000 0.255070
O O9 0.376894 0.749940 0.179779
O O10 0.500000 0.802940 0.000000
O O11 0.614159 0.000000 0.000000
#
# Coordination Sequence:
#
# PCOD8200013 Si02
#       4
#     4   8   8   4
#     4   9  15  23  39  68 107 148 192 239 282 328
#     4   9  16  27  46  74 109 149 192 236 283 335
#     4  10  21  38  61  88 118 153 193 238 289 344
#     4  11  25  43  63  88 117 150 189 235 289 349
#
# _framework density 20.893122999999999
#
# number of rings (size 3 to 8) (size 9 to 14) (size 15 to 20)
#    0.000    2.333    0.000    3.000    0.000   10.000 
#    0.000    3.333    0.000    1.000    0.000    7.000 
#    0.000    0.000    0.000    0.000    0.000    0.000 
#
# Total GULP energy -297653.586851 kJ/mol
# GULP energy per Si atom -12402.232785 kJ/mol
# Density = 2.084557 g / cm^3
# Si number density = 20.893123 Si / 1000 Ang^3
#
#
#
# Elastic Constant Matrix: (Units=GPa)
#
#
# Indices 1 2 3 4 5 6 
#
# 1 150.5659 94.2467 48.7348 0.0000 0.0000 0.0000
# 2 94.2467 190.6245 47.4780 0.0000 0.0000 0.0000
# 3 48.7348 47.4780 70.4801 0.0000 0.0000 0.0000
# 4 0.0000 0.0000 0.0000 17.7069 0.0000 0.0000
# 5 0.0000 0.0000 0.0000 0.0000 -73.6130 0.0000
# 6 0.0000 0.0000 0.0000 0.0000 0.0000 38.7917
#
#
#
# Elastic Compliance Matrix: (Units=1/GPa)
#
#
# Indices 1 2 3 4 5 6 
#
# 1 0.010742 -0.004159 -0.004626 0.000000 0.000000 0.000000
# 2 -0.004159 0.007914 -0.002455 0.000000 0.000000 0.000000
# 3 -0.004626 -0.002455 0.019041 0.000000 0.000000 0.000000
# 4 0.000000 0.000000 0.000000 0.056475 0.000000 0.000000
# 5 0.000000 0.000000 0.000000 0.000000 -0.013585 0.000000
# 6 0.000000 0.000000 0.000000 0.000000 0.000000 0.025779
#
#
# Mechanical properties :
#
#
# Convention : Reuss Voigt Hill
#
# Bulk Modulus (GPa) = 65.71884 88.06552 76.89218
# Shear Modulus (GPa) = 37.33583 11.32450 24.33017
#
# Velocity S-wave (km/s) = 4.23187 2.33066 3.41619
# Velocity P-wave (km/s) = 7.44321 7.03453 7.24175
#
# Compressibility (1/GPa) = 0.01521634
#
# Stress axis : x y z
#
# Youngs Moduli (GPa) = 93.09003 126.36504 52.51734
#
# Poissons Ratio (x) = 0.52553 0.24297
# Poissons Ratio (y) = 0.38714 0.12894
# Poissons Ratio (z) = 0.43067 0.31025
#
# Static dielectric constant tensor:
#      x y z
#    x 3.797120 0.000000 0.000000 
#    y 0.000000 3.994560 0.000000 
#    z 0.000000 0.000000 3.444360 
# 
# 
# High freq. dielectric constant tensor:
#      x y z
#    x 1.818950 0.000000 0.000000 
#    y 0.000000 1.834990 0.000000 
#    z 0.000000 0.000000 1.800360 
# 
# From -- ./inp_files/8382.got.cif
#   From: 2010.03.12/outbox.cif.g09.slc.cpg/sg47_5_cif.got.tgz:8382.got - 2010.04.14 03:12:58.
