data_PCOD8200752
_publ_section_title
;
Structure prediction by ZEFSAII (Michael W. Deem and Ramdas Pophale) SiO2 
 PCOD8200752
Probable space group: P M M M
;
_chemical_formula_sum "Si O2"
_cell_formula_units_Z 52
_cell_length_a 9.130111
_cell_length_b 13.974032
_cell_length_c 26.849489
_cell_angle_alpha 90.000000
_cell_angle_beta 90.000000
_cell_angle_gamma 90.000000
_cell_volume 3425.577643
_symmetry_space_group_name_H-M "P M M M"
_symmetry_group_IT_number 47
_symmetry_cell_setting 'orthorhombic'
loop_
_space_group_symop_operation_xyz
x,y,z
-x,-y,z
x,-y,-z
-x,y,-z
-x,-y,-z
x,y,-z
-x,y,z
x,-y,z
loop_
_atom_site_type_symbol
_atom_site_label
_atom_site_fract_x
_atom_site_fract_y
_atom_site_fract_z
Si Si1 0.174227 0.894099 0.749086
Si Si2 0.665092 0.386267 0.000000
Si Si3 0.825572 0.394511 0.295194
Si Si4 0.828221 0.388744 0.902092
Si Si5 0.174320 0.210901 0.349024
Si Si6 0.826002 0.709213 0.802743
Si Si7 0.174300 0.107960 0.554760
O O1 0.230249 0.859008 0.694972
O O2 0.225966 0.818447 0.791510
O O3 0.000000 0.897527 0.748342
O O4 0.238524 0.000000 0.760473
O O5 0.747130 0.348506 0.950871
O O6 0.669346 0.500000 0.000000
O O7 0.500000 0.346813 0.000000
O O8 0.761385 0.500000 0.306887
O O9 0.772769 0.319523 0.337600
O O10 0.767834 0.359600 0.241319
O O11 0.000000 0.397426 0.294067
O O12 0.793104 0.500000 0.892298
O O13 0.765227 0.328037 0.855501
O O14 0.000000 0.372851 0.910116
O O15 0.239965 0.176348 0.402044
O O16 0.000000 0.207274 0.350562
O O17 0.000000 0.703679 0.803789
O O18 0.227453 0.143361 0.500000
O O19 0.000000 0.109449 0.556697
O O20 0.229840 0.000000 0.564235
#
# Coordination Sequence:
#
# PCOD8200752 Si02
#       7
#     8   4   8   8   8   8   8
#     4   8  12  17  25  38  57  77  93 113 149 196
#     4   9  17  27  37  51  72  95 116 138 165 195
#     4   8  12  17  24  34  49  68  89 113 143 181
#     4   9  15  23  36  52  70  91 113 136 162 194
#     4   8  12  16  22  31  43  62  87 113 145 189
#     4   8  13  19  28  44  62  79  99 122 150 187
#     4   8  12  16  21  28  37  51  76 113 153 188
#
# _framework density 15.179921999999999
#
# number of rings (size 3 to 8) (size 9 to 14) (size 15 to 20)
#    0.000    3.769    0.000    3.462    0.000    4.615 
#    0.000    0.000    0.000    0.462    0.000    3.769 
#    0.000    4.923    0.000    0.000    0.000    0.000 
#
# Total GULP energy -644179.354143 kJ/mol
# GULP energy per Si atom -12388.064503 kJ/mol
# Density = 1.514537 g / cm^3
# Si number density = 15.179922 Si / 1000 Ang^3
#
#
#
# Elastic Constant Matrix: (Units=GPa)
#
#
# Indices 1 2 3 4 5 6 
#
# 1 11.5100 10.7240 17.6348 0.0000 0.0000 0.0000
# 2 10.7240 125.6197 78.3642 0.0000 0.0000 0.0000
# 3 17.6348 78.3642 154.1047 0.0000 0.0000 0.0000
# 4 0.0000 0.0000 0.0000 26.3837 0.0000 0.0000
# 5 0.0000 0.0000 0.0000 0.0000 0.0973 0.0000
# 6 0.0000 0.0000 0.0000 0.0000 0.0000 1.9695
#
#
#
# Elastic Compliance Matrix: (Units=1/GPa)
#
#
# Indices 1 2 3 4 5 6 
#
# 1 0.105753 -0.002166 -0.011000 0.000000 0.000000 0.000000
# 2 -0.002166 0.011703 -0.005703 0.000000 0.000000 0.000000
# 3 -0.011000 -0.005703 0.010648 0.000000 0.000000 0.000000
# 4 0.000000 0.000000 0.000000 0.037902 0.000000 0.000000
# 5 0.000000 0.000000 0.000000 0.000000 10.276099 0.000000
# 6 0.000000 0.000000 0.000000 0.000000 0.000000 0.507738
#
#
# Mechanical properties :
#
#
# Convention : Reuss Voigt Hill
#
# Bulk Modulus (GPa) = 11.06622 56.07561 33.57091
# Shear Modulus (GPa) = 0.45382 17.99086 9.22234
#
# Velocity S-wave (km/s) = 0.54736 3.44637 2.46750
# Velocity P-wave (km/s) = 2.77585 7.27031 5.50285
#
# Compressibility (1/GPa) = 0.09036512
#
# Stress axis : x y z
#
# Youngs Moduli (GPa) = 9.45602 85.44540 93.91256
#
# Poissons Ratio (x) = 0.18505 1.03307
# Poissons Ratio (y) = 0.02048 0.53563
# Poissons Ratio (z) = 0.10402 0.48734
#
# Static dielectric constant tensor:
#      x y z
#    x 2.241710 0.000000 0.000000 
#    y 0.000000 3.157510 0.000000 
#    z 0.000000 0.000000 3.199000 
# 
# 
# High freq. dielectric constant tensor:
#      x y z
#    x 1.505740 0.000000 0.000000 
#    y 0.000000 1.568730 0.000000 
#    z 0.000000 0.000000 1.581910 
# 
# From -- ./inp_files/18070.got.cif
#   From: 2010.03.12/outbox.cif.g09.slc.cpg/sg47_10_cif.got.tgz:18070.got - 2010.04.14 03:12:58.
