data_PCOD8200132
_publ_section_title
;
Structure prediction by ZEFSAII (Michael W. Deem and Ramdas Pophale) SiO2 
 PCOD8200132
Probable space group: P M M M
;
_chemical_formula_sum "Si O2"
_cell_formula_units_Z 48
_cell_length_a 8.884786
_cell_length_b 29.717665
_cell_length_c 9.616081
_cell_angle_alpha 90.000000
_cell_angle_beta 90.000000
_cell_angle_gamma 90.000000
_cell_volume 2538.982850
_symmetry_space_group_name_H-M "P M M M"
_symmetry_group_IT_number 47
_symmetry_cell_setting 'orthorhombic'
loop_
_space_group_symop_operation_xyz
x,y,z
-x,-y,z
x,-y,-z
-x,y,-z
-x,-y,-z
x,y,-z
-x,y,z
x,-y,z
loop_
_atom_site_type_symbol
_atom_site_label
_atom_site_fract_x
_atom_site_fract_y
_atom_site_fract_z
Si Si1 0.321743 0.948343 0.500000
Si Si2 0.330513 0.548900 0.834919
Si Si3 0.822691 0.723097 0.663568
Si Si4 0.821398 0.106759 0.256173
Si Si5 0.823430 0.361952 0.843000
Si Si6 0.321972 0.802122 0.162344
Si Si7 0.822645 0.950806 0.000000
O O1 0.500000 0.948363 0.500000
O O2 0.259098 0.920009 0.375019
O O3 0.261158 0.000000 0.500000
O O4 0.500000 0.555539 0.780973
O O5 0.269043 0.500000 0.782029
O O6 0.232729 0.590584 0.779660
O O7 0.326041 0.549056 0.000000
O O8 0.778926 0.723238 0.500000
O O9 0.774022 0.676048 0.733488
O O10 0.728590 0.759423 0.749064
O O11 0.000000 0.732421 0.682292
O O12 0.760923 0.156778 0.237153
O O13 0.000000 0.108657 0.279264
O O14 0.767016 0.077595 0.128038
O O15 0.000000 0.364614 0.853283
O O16 0.758740 0.352460 0.000000
O O17 0.500000 0.808420 0.173806
O O18 0.272655 0.797560 0.000000
O O19 0.000000 0.956460 0.000000
O O20 0.745736 0.000000 0.000000
#
# Coordination Sequence:
#
# PCOD8200132 Si02
#       7
#     4   8   8   8   8   8   4
#     4  11  25  43  61  87 125 163 195 231 278 331
#     4   8  14  25  43  70 104 140 178 222 272 327
#     4  10  22  39  59  82 110 146 189 234 283 341
#     4  11  22  39  64  90 118 153 193 236 280 331
#     4   9  17  30  50  77 107 139 178 229 282 331
#     4  11  24  41  61  86 117 149 185 232 289 347
#     4   9  18  34  59  91 119 143 183 235 278 321
#
# _framework density 18.90521
#
# number of rings (size 3 to 8) (size 9 to 14) (size 15 to 20)
#    0.000    2.167    0.833    2.750    1.167    4.333 
#    0.000    3.333    0.000    2.500    0.000    3.500 
#    0.000    0.000    0.000    0.000    0.000    0.000 
#
# Total GULP energy -594871.829785 kJ/mol
# GULP energy per Si atom -12393.163121 kJ/mol
# Density = 1.886218 g / cm^3
# Si number density = 18.905210 Si / 1000 Ang^3
#
#
#
# Elastic Constant Matrix: (Units=GPa)
#
#
# Indices 1 2 3 4 5 6 
#
# 1 50.7572 44.4261 35.6073 0.0000 0.0000 0.0000
# 2 44.4261 167.8478 63.9445 0.0000 0.0000 0.0000
# 3 35.6073 63.9445 116.7486 0.0000 0.0000 0.0000
# 4 0.0000 0.0000 0.0000 -89.2150 0.0000 0.0000
# 5 0.0000 0.0000 0.0000 0.0000 14.3772 0.0000
# 6 0.0000 0.0000 0.0000 0.0000 0.0000 4.0623
#
#
#
# Elastic Compliance Matrix: (Units=1/GPa)
#
#
# Indices 1 2 3 4 5 6 
#
# 1 0.028392 -0.005328 -0.005741 0.000000 0.000000 0.000000
# 2 -0.005328 0.008528 -0.003046 0.000000 0.000000 0.000000
# 3 -0.005741 -0.003046 0.011985 0.000000 0.000000 0.000000
# 4 0.000000 0.000000 0.000000 -0.011209 0.000000 0.000000
# 5 0.000000 0.000000 0.000000 0.000000 0.069555 0.000000
# 6 0.000000 0.000000 0.000000 0.000000 0.000000 0.246165
#
#
# Mechanical properties :
#
#
# Convention : Reuss Voigt Hill
#
# Bulk Modulus (GPa) = 48.36709 69.25662 58.81186
# Shear Modulus (GPa) = 12.86874 -1.39673 5.73600
#
# Velocity S-wave (km/s) = 2.61185 -0.86047 1.74375
# Velocity P-wave (km/s) = 5.89366 5.97712 5.93554
#
# Compressibility (1/GPa) = 0.02067521
#
# Stress axis : x y z
#
# Youngs Moduli (GPa) = 35.22059 117.25509 83.43785
#
# Poissons Ratio (x) = 0.62469 0.47906
# Poissons Ratio (y) = 0.18764 0.25417
# Poissons Ratio (z) = 0.20222 0.35719
#
# Static dielectric constant tensor:
#      x y z
#    x 3.379520 0.000000 0.000000 
#    y 0.000000 3.958460 0.000000 
#    z 0.000000 0.000000 3.411810 
# 
# 
# High freq. dielectric constant tensor:
#      x y z
#    x 1.723280 0.000000 0.000000 
#    y 0.000000 1.755750 0.000000 
#    z 0.000000 0.000000 1.721330 
# 
# From -- ./inp_files/2658.got.cif
#   From: 2010.03.12/outbox.cif.g09.slc.cpg/sg47_2_cif.got.tgz:2658.got - 2010.04.14 03:12:58.
