data_PCOD8200177
_publ_section_title
;
Structure prediction by ZEFSAII (Michael W. Deem and Ramdas Pophale) SiO2 
 PCOD8200177
Probable space group: P M M M
;
_chemical_formula_sum "Si O2"
_cell_formula_units_Z 48
_cell_length_a 9.561679
_cell_length_b 28.603144
_cell_length_c 8.831008
_cell_angle_alpha 90.000000
_cell_angle_beta 90.000000
_cell_angle_gamma 90.000000
_cell_volume 2415.228420
_symmetry_space_group_name_H-M "P M M M"
_symmetry_group_IT_number 47
_symmetry_cell_setting 'orthorhombic'
loop_
_space_group_symop_operation_xyz
x,y,z
-x,-y,z
x,-y,-z
-x,y,-z
-x,-y,-z
x,y,-z
-x,y,z
x,-y,z
loop_
_atom_site_type_symbol
_atom_site_label
_atom_site_fract_x
_atom_site_fract_y
_atom_site_fract_z
Si Si1 0.338997 0.786144 0.321039
Si Si2 0.245989 0.398729 0.823879
Si Si3 0.000000 0.445974 0.667531
Si Si4 0.160896 0.293416 0.176690
Si Si5 0.500000 0.447183 0.677475
Si Si6 0.340915 0.054440 0.324827
Si Si7 0.838773 0.131027 0.821589
O O1 0.334810 0.790050 0.500000
O O2 0.500000 0.787425 0.263240
O O3 0.266446 0.738275 0.270976
O O4 0.251939 0.828710 0.253930
O O5 0.200578 0.346277 0.784728
O O6 0.374686 0.414590 0.725912
O O7 0.128017 0.433699 0.772753
O O8 0.279448 0.404639 0.000000
O O9 0.000000 0.500000 0.635450
O O10 0.000000 0.421243 0.500000
O O11 0.000000 0.284012 0.224615
O O12 0.180354 0.282391 0.000000
O O13 0.500000 0.500000 0.749602
O O14 0.500000 0.453508 0.500000
O O15 0.314739 0.066692 0.500000
O O16 0.500000 0.068508 0.280835
O O17 0.229232 0.081633 0.223135
O O18 0.316741 0.000000 0.294028
O O19 0.000000 0.133122 0.765557
O O20 0.832244 0.137595 0.000000
#
# Coordination Sequence:
#
# PCOD8200177 Si02
#       7
#     8   8   4   8   4   8   8
#     4  11  25  42  62  91 121 153 198 248 298 358
#     4  11  23  41  64  91 121 159 204 250 300 360
#     4  11  23  39  61  91 125 161 201 247 302 359
#     4  10  22  42  64  89 121 154 192 241 297 355
#     4  11  25  43  61  87 125 163 201 251 306 359
#     4   9  19  37  61  89 122 161 206 256 306 358
#     4  11  24  40  59  87 123 162 204 252 304 358
#
# _framework density 19.873896999999999
#
# number of rings (size 3 to 8) (size 9 to 14) (size 15 to 20)
#    0.000    1.500    0.833    4.000    1.167   12.667 
#    0.000    2.500    0.000    0.000    0.000    0.000 
#    0.000    0.000    0.000    0.000    0.000    0.000 
#
# Total GULP energy -595195.315293 kJ/mol
# GULP energy per Si atom -12399.902402 kJ/mol
# Density = 1.982866 g / cm^3
# Si number density = 19.873897 Si / 1000 Ang^3
#
#
#
# Elastic Constant Matrix: (Units=GPa)
#
#
# Indices 1 2 3 4 5 6 
#
# 1 178.4124 64.0891 51.2882 0.0000 0.0000 0.0000
# 2 64.0891 96.0929 44.3686 0.0000 0.0000 0.0000
# 3 51.2882 44.3686 67.0064 0.0000 0.0000 0.0000
# 4 0.0000 0.0000 0.0000 35.6261 0.0000 0.0000
# 5 0.0000 0.0000 0.0000 0.0000 40.3174 0.0000
# 6 0.0000 0.0000 0.0000 0.0000 0.0000 39.8915
#
#
#
# Elastic Compliance Matrix: (Units=1/GPa)
#
#
# Indices 1 2 3 4 5 6 
#
# 1 0.007965 -0.003597 -0.003715 0.000000 0.000000 0.000000
# 2 -0.003597 0.016614 -0.008248 0.000000 0.000000 0.000000
# 3 -0.003715 -0.008248 0.023229 0.000000 0.000000 0.000000
# 4 0.000000 0.000000 0.000000 0.028069 0.000000 0.000000
# 5 0.000000 0.000000 0.000000 0.000000 0.024803 0.000000
# 6 0.000000 0.000000 0.000000 0.000000 0.000000 0.025068
#
#
# Mechanical properties :
#
#
# Convention : Reuss Voigt Hill
#
# Bulk Modulus (GPa) = 59.92191 73.44483 66.68337
# Shear Modulus (GPa) = 30.78258 35.28473 33.03366
#
# Velocity S-wave (km/s) = 3.93987 4.21816 4.08139
# Velocity P-wave (km/s) = 7.13535 7.79484 7.47237
#
# Compressibility (1/GPa) = 0.01668839
#
# Stress axis : x y z
#
# Youngs Moduli (GPa) = 125.54913 60.19095 43.05051
#
# Poissons Ratio (x) = 0.21651 0.15992
# Poissons Ratio (y) = 0.45161 0.35506
# Poissons Ratio (z) = 0.46639 0.49643
#
# Static dielectric constant tensor:
#      x y z
#    x 5.077370 0.000000 0.000000 
#    y 0.000000 3.772960 0.000000 
#    z 0.000000 0.000000 3.633320 
# 
# 
# High freq. dielectric constant tensor:
#      x y z
#    x 1.790300 0.000000 0.000000 
#    y 0.000000 1.786440 0.000000 
#    z 0.000000 0.000000 1.776760 
# 
# From -- ./inp_files/2810.got.cif
#   From: 2010.03.12/outbox.cif.g09.slc.cpg/sg47_2_cif.got.tgz:2810.got - 2010.04.14 03:12:58.
