data_PCOD8200839
_publ_section_title
;
Structure prediction by ZEFSAII (Michael W. Deem and Ramdas Pophale) SiO2 
 PCOD8200839
Probable space group: P M M M
;
_chemical_formula_sum "Si O2"
_cell_formula_units_Z 44
_cell_length_a 25.594511
_cell_length_b 9.443517
_cell_length_c 12.735982
_cell_angle_alpha 90.000000
_cell_angle_beta 90.000000
_cell_angle_gamma 90.000000
_cell_volume 3078.314865
_symmetry_space_group_name_H-M "P M M M"
_symmetry_group_IT_number 47
_symmetry_cell_setting 'orthorhombic'
loop_
_space_group_symop_operation_xyz
x,y,z
-x,-y,z
x,-y,-z
-x,y,-z
-x,-y,-z
x,y,-z
-x,y,z
x,-y,z
loop_
_atom_site_type_symbol
_atom_site_label
_atom_site_fract_x
_atom_site_fract_y
_atom_site_fract_z
Si Si1 0.439204 0.665256 0.299414
Si Si2 0.846482 0.840840 0.125468
Si Si3 0.942177 0.658914 0.124822
Si Si4 0.562020 0.839674 0.500000
Si Si5 0.750915 0.657507 0.875394
Si Si6 0.635674 0.668246 0.116236
O O1 0.500000 0.692784 0.277052
O O2 0.428602 0.500000 0.322737
O O3 0.418283 0.755655 0.397658
O O4 0.407871 0.721051 0.197842
O O5 0.898318 0.764116 0.170314
O O6 0.795226 0.761436 0.170026
O O7 0.846015 0.000000 0.169234
O O8 0.846458 0.839496 0.000000
O O9 0.930628 0.500000 0.165400
O O10 0.000000 0.708126 0.162311
O O11 0.939971 0.659899 0.000000
O O12 0.500000 0.841246 0.500000
O O13 0.584252 0.000000 0.500000
O O14 0.759777 0.500000 0.828368
O O15 0.693386 0.717157 0.845408
O O16 0.755137 0.648820 0.000000
O O17 0.635713 0.500000 0.109274
O O18 0.622894 0.730303 0.000000
#
# Coordination Sequence:
#
# PCOD8200839 Si02
#       6
#     8   8   8   4   8   8
#     4   9  16  26  42  62  80  97 120 152 187 222
#     4   9  15  20  27  40  56  74 100 136 174 206
#     4   8  13  20  28  37  50  70  97 129 167 211
#     4   9  17  29  43  57  75  99 125 151 180 217
#     4   8  13  22  34  44  58  84 114 139 165 204
#     4   8  14  24  38  57  78  98 121 150 185 224
#
# _framework density 14.293533999999999
#
# number of rings (size 3 to 8) (size 9 to 14) (size 15 to 20)
#    0.000    3.545    0.000    2.455    0.000    4.000 
#    0.000    4.545    0.000    1.636    0.000    2.545 
#    0.000    0.000    0.000    0.000    0.000    0.000 
#
# Total GULP energy -545245.662609 kJ/mol
# GULP energy per Si atom -12391.946877 kJ/mol
# Density = 1.426100 g / cm^3
# Si number density = 14.293534 Si / 1000 Ang^3
#
#
#
# Elastic Constant Matrix: (Units=GPa)
#
#
# Indices 1 2 3 4 5 6 
#
# 1 106.5401 53.9942 42.3446 0.0000 0.0000 0.0000
# 2 53.9942 80.2431 29.9488 0.0000 0.0000 0.0000
# 3 42.3446 29.9488 50.8896 0.0000 0.0000 0.0000
# 4 0.0000 0.0000 0.0000 6.2272 0.0000 0.0000
# 5 0.0000 0.0000 0.0000 0.0000 0.8831 0.0000
# 6 0.0000 0.0000 0.0000 0.0000 0.0000 10.9761
#
#
#
# Elastic Compliance Matrix: (Units=1/GPa)
#
#
# Indices 1 2 3 4 5 6 
#
# 1 0.017299 -0.008032 -0.009667 0.000000 0.000000 0.000000
# 2 -0.008032 0.019699 -0.004910 0.000000 0.000000 0.000000
# 3 -0.009667 -0.004910 0.030584 0.000000 0.000000 0.000000
# 4 0.000000 0.000000 0.000000 0.160586 0.000000 0.000000
# 5 0.000000 0.000000 0.000000 0.000000 1.132427 0.000000
# 6 0.000000 0.000000 0.000000 0.000000 0.000000 0.091107
#
#
# Mechanical properties :
#
#
# Convention : Reuss Voigt Hill
#
# Bulk Modulus (GPa) = 44.71511 54.47198 49.59355
# Shear Modulus (GPa) = 3.32364 11.04296 7.18330
#
# Velocity S-wave (km/s) = 1.52654 2.78256 2.24421
# Velocity P-wave (km/s) = 5.87013 6.96532 6.44105
#
# Compressibility (1/GPa) = 0.02236380
#
# Stress axis : x y z
#
# Youngs Moduli (GPa) = 57.80625 50.76342 32.69693
#
# Poissons Ratio (x) = 0.40774 0.31610
# Poissons Ratio (y) = 0.46431 0.16053
# Poissons Ratio (z) = 0.55884 0.24923
#
# Static dielectric constant tensor:
#      x y z
#    x 3.041830 0.000000 0.000000 
#    y 0.000000 2.843080 0.000000 
#    z 0.000000 0.000000 2.398380 
# 
# 
# High freq. dielectric constant tensor:
#      x y z
#    x 1.550250 0.000000 0.000000 
#    y 0.000000 1.535870 0.000000 
#    z 0.000000 0.000000 1.471820 
# 
# From -- ./inp_files/15407.got.cif
#   From: 2010.03.12/outbox.cif.g09.slc.cpg/sg47_8_cif.got.tgz:15407.got - 2010.04.14 03:12:58.
