data_PCOD8200758
_publ_section_title
;
Structure prediction by ZEFSAII (Michael W. Deem and Ramdas Pophale) SiO2 
 PCOD8200758
Probable space group: P M M M
;
_chemical_formula_sum "Si O2"
_cell_formula_units_Z 52
_cell_length_a 26.937208
_cell_length_b 13.972815
_cell_length_c 9.107278
_cell_angle_alpha 90.000000
_cell_angle_beta 90.000000
_cell_angle_gamma 90.000000
_cell_volume 3427.875835
_symmetry_space_group_name_H-M "P M M M"
_symmetry_group_IT_number 47
_symmetry_cell_setting 'orthorhombic'
loop_
_space_group_symop_operation_xyz
x,y,z
-x,-y,z
x,-y,-z
-x,y,-z
-x,-y,-z
x,y,-z
-x,y,z
x,-y,z
loop_
_atom_site_type_symbol
_atom_site_label
_atom_site_fract_x
_atom_site_fract_y
_atom_site_fract_z
Si Si1 0.793484 0.789553 0.825565
Si Si2 0.694826 0.888951 0.827617
Si Si3 0.054584 0.711360 0.174762
Si Si4 0.500000 0.885783 0.165955
Si Si5 0.109783 0.105176 0.174678
Si Si6 0.848805 0.605852 0.825047
Si Si7 0.596320 0.886162 0.334488
O O1 0.740497 0.825522 0.765580
O O2 0.836250 0.860916 0.768114
O O3 0.806701 0.681340 0.771785
O O4 0.792180 0.792860 0.000000
O O5 0.646085 0.850642 0.745442
O O6 0.705673 0.000000 0.792164
O O7 0.686334 0.874207 0.000000
O O8 0.068287 0.819071 0.227215
O O9 0.096590 0.637990 0.232745
O O10 0.000000 0.684350 0.237663
O O11 0.053679 0.708066 0.000000
O O12 0.548613 0.845560 0.248319
O O13 0.500000 0.000000 0.166857
O O14 0.500000 0.846727 0.000000
O O15 0.097807 0.000000 0.239774
O O16 0.110800 0.101350 0.000000
O O17 0.836665 0.500000 0.762602
O O18 0.849924 0.604693 0.000000
O O19 0.595422 0.846148 0.500000
O O20 0.594571 0.000000 0.333905
#
# Coordination Sequence:
#
# PCOD8200758 Si02
#       7
#     8   8   8   4   8   8   8
#     4   8  13  20  29  41  56  74 101 139 177 211
#     4   9  15  22  33  48  65  87 117 150 180 209
#     4   8  13  18  22  31  47  68  99 136 169 205
#     4   9  15  23  35  49  67  95 132 165 184 201
#     4   8  12  17  24  33  47  69  97 131 171 209
#     4   8  13  20  28  37  51  73 100 132 173 216
#     4   9  16  24  33  47  69  96 124 153 184 213
#
# _framework density 15.169745000000001
#
# number of rings (size 3 to 8) (size 9 to 14) (size 15 to 20)
#    0.000    3.615    0.000    3.000    0.000    5.231 
#    0.000    3.077    0.000    0.000    0.000    0.000 
#    0.000    0.615    0.000    0.692    0.000   28.692 
#
# Total GULP energy -644259.399314 kJ/mol
# GULP energy per Si atom -12389.603833 kJ/mol
# Density = 1.513522 g / cm^3
# Si number density = 15.169745 Si / 1000 Ang^3
#
#
#
# Elastic Constant Matrix: (Units=GPa)
#
#
# Indices 1 2 3 4 5 6 
#
# 1 137.1435 40.9558 32.3353 0.0000 0.0000 0.0000
# 2 40.9558 83.0963 11.7777 0.0000 0.0000 0.0000
# 3 32.3353 11.7777 35.0022 0.0000 0.0000 0.0000
# 4 0.0000 0.0000 0.0000 2.2625 0.0000 0.0000
# 5 0.0000 0.0000 0.0000 0.0000 1.4150 0.0000
# 6 0.0000 0.0000 0.0000 0.0000 0.0000 13.2216
#
#
#
# Elastic Compliance Matrix: (Units=1/GPa)
#
#
# Indices 1 2 3 4 5 6 
#
# 1 0.010434 -0.003966 -0.008305 0.000000 0.000000 0.000000
# 2 -0.003966 0.014144 -0.001096 0.000000 0.000000 0.000000
# 3 -0.008305 -0.001096 0.036610 0.000000 0.000000 0.000000
# 4 0.000000 0.000000 0.000000 0.441998 0.000000 0.000000
# 5 0.000000 0.000000 0.000000 0.000000 0.706722 0.000000
# 6 0.000000 0.000000 0.000000 0.000000 0.000000 0.075634
#
#
# Mechanical properties :
#
#
# Convention : Reuss Voigt Hill
#
# Bulk Modulus (GPa) = 29.02232 47.26441 38.14336
# Shear Modulus (GPa) = 3.77712 14.72468 9.25090
#
# Velocity S-wave (km/s) = 1.57965 3.11892 2.47214
# Velocity P-wave (km/s) = 4.74345 6.64792 5.77474
#
# Compressibility (1/GPa) = 0.03445624
#
# Stress axis : x y z
#
# Youngs Moduli (GPa) = 95.84134 70.70116 27.31473
#
# Poissons Ratio (x) = 0.28037 0.22684
# Poissons Ratio (y) = 0.38006 0.02993
# Poissons Ratio (z) = 0.79593 0.07748
#
# Static dielectric constant tensor:
#      x y z
#    x 3.143870 0.000000 0.000000 
#    y 0.000000 2.910050 0.000000 
#    z 0.000000 0.000000 2.435280 
# 
# 
# High freq. dielectric constant tensor:
#      x y z
#    x 1.585980 0.000000 0.000000 
#    y 0.000000 1.542810 0.000000 
#    z 0.000000 0.000000 1.525070 
# 
# From -- ./inp_files/13400.got.cif
#   From: 2010.03.12/outbox.cif.g09.slc.cpg/sg47_7_cif.got.tgz:13400.got - 2010.04.14 03:12:58.
