data_PCOD8200376
_publ_section_title
;
Structure prediction by ZEFSAII (Michael W. Deem and Ramdas Pophale) SiO2 
 PCOD8200376
Probable space group: P M M M
;
_chemical_formula_sum "Si O2"
_cell_formula_units_Z 52
_cell_length_a 11.962588
_cell_length_b 9.087700
_cell_length_c 28.184764
_cell_angle_alpha 90.000000
_cell_angle_beta 90.000000
_cell_angle_gamma 90.000000
_cell_volume 3064.033647
_symmetry_space_group_name_H-M "P M M M"
_symmetry_group_IT_number 47
_symmetry_cell_setting 'orthorhombic'
loop_
_space_group_symop_operation_xyz
x,y,z
-x,-y,z
x,-y,-z
-x,y,-z
-x,-y,-z
x,y,-z
-x,y,z
x,-y,z
loop_
_atom_site_type_symbol
_atom_site_label
_atom_site_fract_x
_atom_site_fract_y
_atom_site_fract_z
Si Si1 0.875167 0.173958 0.000000
Si Si2 0.870535 0.325784 0.833418
Si Si3 0.867476 0.662088 0.272601
Si Si4 0.726563 0.824151 0.912247
Si Si5 0.126172 0.827490 0.362708
Si Si6 0.500000 0.336601 0.556250
Si Si7 0.500000 0.674940 0.055808
Si Si8 0.718349 0.173107 0.553723
O O1 0.808085 0.228489 0.954256
O O2 0.000000 0.243509 0.000000
O O3 0.884597 0.000000 0.000000
O O4 0.853227 0.500000 0.841189
O O5 0.837222 0.279103 0.779774
O O6 0.785580 0.231370 0.864676
O O7 0.000000 0.284112 0.844436
O O8 0.816642 0.500000 0.279509
O O9 0.817629 0.761650 0.314992
O O10 0.000000 0.656837 0.276216
O O11 0.607519 0.746398 0.919174
O O12 0.710122 0.000000 0.911096
O O13 0.184501 0.774660 0.411045
O O14 0.000000 0.771864 0.367707
O O15 0.134425 0.000000 0.356993
O O16 0.500000 0.500000 0.578080
O O17 0.500000 0.341851 0.500000
O O18 0.608168 0.250168 0.573879
O O19 0.500000 0.500000 0.064094
O O20 0.500000 0.714151 0.000000
O O21 0.748718 0.222826 0.500000
O O22 0.698005 0.000000 0.555445
#
# Coordination Sequence:
#
# PCOD8200376 Si02
#       8
#     4   8   8   8   8   4   4   8
#     4   9  18  31  47  72 106 135 156 187 236 287
#     4   9  18  33  52  76 105 133 164 203 249 299
#     4   8  15  29  48  68  94 130 165 197 237 288
#     4  11  21  34  54  77 104 134 168 207 246 289
#     4   9  17  28  44  69  98 126 159 198 237 283
#     4   9  17  29  45  64  85 112 153 201 238 272
#     4  11  23  39  57  74  99 136 179 213 243 289
#     4   9  17  29  45  65  92 126 159 193 239 292
#
# _framework density 16.971093
#
# number of rings (size 3 to 8) (size 9 to 14) (size 15 to 20)
#    0.000    2.692    0.769    2.308    0.000    3.692 
#    0.000    3.077    0.000    2.769    0.000    8.615 
#    0.000    0.000    0.000    0.000    0.000    0.000 
#
# Total GULP energy -644546.491297 kJ/mol
# GULP energy per Si atom -12395.124833 kJ/mol
# Density = 1.693247 g / cm^3
# Si number density = 16.971093 Si / 1000 Ang^3
#
#
#
# Elastic Constant Matrix: (Units=GPa)
#
#
# Indices 1 2 3 4 5 6 
#
# 1 106.6117 44.4122 67.4725 0.0000 0.0000 0.0000
# 2 44.4122 53.3729 49.4760 0.0000 0.0000 0.0000
# 3 67.4725 49.4760 135.0493 0.0000 0.0000 0.0000
# 4 0.0000 0.0000 0.0000 26.1535 0.0000 0.0000
# 5 0.0000 0.0000 0.0000 0.0000 3.7049 0.0000
# 6 0.0000 0.0000 0.0000 0.0000 0.0000 20.0649
#
#
#
# Elastic Compliance Matrix: (Units=1/GPa)
#
#
# Indices 1 2 3 4 5 6 
#
# 1 0.016155 -0.009026 -0.004765 0.000000 0.000000 0.000000
# 2 -0.009026 0.033414 -0.007732 0.000000 0.000000 0.000000
# 3 -0.004765 -0.007732 0.012618 0.000000 0.000000 0.000000
# 4 0.000000 0.000000 0.000000 0.038236 0.000000 0.000000
# 5 0.000000 0.000000 0.000000 0.000000 0.269915 0.000000
# 6 0.000000 0.000000 0.000000 0.000000 0.000000 0.049838
#
#
# Mechanical properties :
#
#
# Convention : Reuss Voigt Hill
#
# Bulk Modulus (GPa) = 52.24136 68.63947 60.44041
# Shear Modulus (GPa) = 10.64728 18.89620 14.77174
#
# Velocity S-wave (km/s) = 2.50747 3.34044 2.95347
# Velocity P-wave (km/s) = 6.26359 7.44384 6.87907
#
# Compressibility (1/GPa) = 0.01914192
#
# Stress axis : x y z
#
# Youngs Moduli (GPa) = 61.89852 29.92726 79.25327
#
# Poissons Ratio (x) = 0.27014 0.37761
# Poissons Ratio (y) = 0.55872 0.61277
# Poissons Ratio (z) = 0.29492 0.23139
#
# Static dielectric constant tensor:
#      x y z
#    x 3.162140 0.000000 0.000000 
#    y 0.000000 3.169480 0.000000 
#    z 0.000000 0.000000 3.353610 
# 
# 
# High freq. dielectric constant tensor:
#      x y z
#    x 1.634090 0.000000 0.000000 
#    y 0.000000 1.649210 0.000000 
#    z 0.000000 0.000000 1.654630 
# 
# From -- ./inp_files/34561.got.cif
#   From: 2010.03.12/outbox.cif.g09.slc.cpg/sg47_18_cif.got.tgz:34561.got - 2010.04.14 03:12:58.
