data_PCOD8200764
_publ_section_title
;
Structure prediction by ZEFSAII (Michael W. Deem and Ramdas Pophale) SiO2 
 PCOD8200764
Probable space group: P M M M
;
_chemical_formula_sum "Si O2"
_cell_formula_units_Z 60
_cell_length_a 9.743331
_cell_length_b 14.447076
_cell_length_c 28.649050
_cell_angle_alpha 90.000000
_cell_angle_beta 90.000000
_cell_angle_gamma 90.000000
_cell_volume 4032.716010
_symmetry_space_group_name_H-M "P M M M"
_symmetry_group_IT_number 47
_symmetry_cell_setting 'orthorhombic'
loop_
_space_group_symop_operation_xyz
x,y,z
-x,-y,z
x,-y,-z
-x,y,-z
-x,-y,-z
x,y,-z
-x,y,z
x,-y,z
loop_
_atom_site_type_symbol
_atom_site_label
_atom_site_fract_x
_atom_site_fract_y
_atom_site_fract_z
Si Si1 0.163099 0.101119 0.733848
Si Si2 0.163616 0.396016 0.317391
Si Si3 0.346245 0.390112 0.948381
Si Si4 0.836857 0.101234 0.628476
Si Si5 0.836148 0.605692 0.500000
Si Si6 0.159875 0.608306 0.864748
Si Si7 0.163521 0.291223 0.408565
Si Si8 0.163319 0.710470 0.227106
O O1 0.216889 0.118658 0.681184
O O2 0.215537 0.183026 0.767986
O O3 0.000000 0.102910 0.732751
O O4 0.214543 0.000000 0.751781
O O5 0.220234 0.500000 0.317824
O O6 0.219922 0.345078 0.363386
O O7 0.221414 0.346284 0.271207
O O8 0.000000 0.394189 0.317251
O O9 0.500000 0.355998 0.936071
O O10 0.341942 0.500000 0.948725
O O11 0.240082 0.352864 0.909878
O O12 0.303876 0.353464 0.000000
O O13 0.784785 0.184140 0.594799
O O14 0.000000 0.102225 0.629459
O O15 0.785191 0.000000 0.610486
O O16 0.781998 0.500000 0.500000
O O17 0.777686 0.659724 0.454843
O O18 0.000000 0.605770 0.500000
O O19 0.187737 0.500000 0.855538
O O20 0.218230 0.665245 0.820571
O O21 0.000000 0.627140 0.873475
O O22 0.000000 0.295135 0.409631
O O23 0.000000 0.704766 0.227132
#
# Coordination Sequence:
#
# PCOD8200764 Si02
#       8
#     8   8   8   8   4   8   8   8
#     4   8  12  18  28  40  54  75 102 128 157 198
#     4   9  14  18  25  35  48  70  98 122 149 196
#     4   8  14  25  39  52  68  96 133 162 178 201
#     4   8  12  18  27  36  44  57  83 119 157 198
#     4   9  16  22  25  29  39  55  80 122 170 206
#     4   9  16  23  32  50  76 100 118 144 184 219
#     4   9  14  20  26  32  41  58  86 122 161 200
#     4   9  14  20  28  42  64  85 104 128 165 210
#
# _framework density 14.878311999999999
#
# number of rings (size 3 to 8) (size 9 to 14) (size 15 to 20)
#    0.000    3.400    1.333    2.000    0.000    3.467 
#    0.000    1.667    0.000    2.000    0.000    0.000 
#    0.000    1.067    0.000    6.667    0.000    1.333 
#
# Total GULP energy -743348.856690 kJ/mol
# GULP energy per Si atom -12389.147611 kJ/mol
# Density = 1.484445 g / cm^3
# Si number density = 14.878312 Si / 1000 Ang^3
#
#
#
# Elastic Constant Matrix: (Units=GPa)
#
#
# Indices 1 2 3 4 5 6 
#
# 1 13.5249 14.3334 25.1288 0.0000 0.0000 0.0000
# 2 14.3334 124.0755 69.2759 0.0000 0.0000 0.0000
# 3 25.1288 69.2759 134.9235 0.0000 0.0000 0.0000
# 4 0.0000 0.0000 0.0000 15.4890 0.0000 0.0000
# 5 0.0000 0.0000 0.0000 0.0000 0.7065 0.0000
# 6 0.0000 0.0000 0.0000 0.0000 0.0000 2.2063
#
#
#
# Elastic Compliance Matrix: (Units=1/GPa)
#
#
# Indices 1 2 3 4 5 6 
#
# 1 0.113357 -0.001833 -0.020171 0.000000 0.000000 0.000000
# 2 -0.001833 0.011328 -0.005475 0.000000 0.000000 0.000000
# 3 -0.020171 -0.005475 0.013980 0.000000 0.000000 0.000000
# 4 0.000000 0.000000 0.000000 0.064562 0.000000 0.000000
# 5 0.000000 0.000000 0.000000 0.000000 1.415455 0.000000
# 6 0.000000 0.000000 0.000000 0.000000 0.000000 0.453254
#
#
# Mechanical properties :
#
#
# Convention : Reuss Voigt Hill
#
# Bulk Modulus (GPa) = 11.94647 54.44445 33.19546
# Shear Modulus (GPa) = 2.32040 14.59940 8.45990
#
# Velocity S-wave (km/s) = 1.25019 3.13590 2.38713
# Velocity P-wave (km/s) = 3.18290 7.05581 5.47336
#
# Compressibility (1/GPa) = 0.08370677
#
# Stress axis : x y z
#
# Youngs Moduli (GPa) = 8.82168 88.27451 71.53312
#
# Poissons Ratio (x) = 0.16180 1.44290
# Poissons Ratio (y) = 0.01617 0.39165
# Poissons Ratio (z) = 0.17794 0.48331
#
# Static dielectric constant tensor:
#      x y z
#    x 2.221190 0.000000 0.000000 
#    y 0.000000 3.139990 0.000000 
#    z 0.000000 0.000000 3.054670 
# 
# 
# High freq. dielectric constant tensor:
#      x y z
#    x 1.487300 0.000000 0.000000 
#    y 0.000000 1.565310 0.000000 
#    z 0.000000 0.000000 1.564230 
# 
# From -- ./inp_files/32570.got.cif
#   From: 2010.03.12/outbox.cif.g09.slc.cpg/sg47_17_cif.got.tgz:32570.got - 2010.04.14 03:12:58.
