data_PCOD8200251
_publ_section_title
;
Structure prediction by ZEFSAII (Michael W. Deem and Ramdas Pophale) SiO2 
 PCOD8200251
Probable space group: P M M M
;
_chemical_formula_sum "Si O2"
_cell_formula_units_Z 52
_cell_length_a 12.233576
_cell_length_b 8.659028
_cell_length_c 25.136033
_cell_angle_alpha 90.000000
_cell_angle_beta 90.000000
_cell_angle_gamma 90.000000
_cell_volume 2662.682023
_symmetry_space_group_name_H-M "P M M M"
_symmetry_group_IT_number 47
_symmetry_cell_setting 'orthorhombic'
loop_
_space_group_symop_operation_xyz
x,y,z
-x,-y,z
x,-y,-z
-x,y,-z
-x,-y,-z
x,y,-z
-x,y,z
x,-y,z
loop_
_atom_site_type_symbol
_atom_site_label
_atom_site_fract_x
_atom_site_fract_y
_atom_site_fract_z
Si Si1 0.871610 0.827262 0.056358
Si Si2 0.379058 0.325865 0.331079
Si Si3 0.000000 0.317701 0.752325
Si Si4 0.372496 0.316915 0.500000
Si Si5 0.175004 0.178518 0.829749
Si Si6 0.000000 0.683701 0.370681
Si Si7 0.379618 0.672279 0.206230
Si Si8 0.774347 0.179426 0.406704
O O1 0.841215 0.742612 0.111779
O O2 0.000000 0.835461 0.053752
O O3 0.822160 0.000000 0.058546
O O4 0.830034 0.749050 0.000000
O O5 0.500000 0.291739 0.355066
O O6 0.343362 0.500000 0.347074
O O7 0.384368 0.307603 0.268739
O O8 0.289164 0.204727 0.351320
O O9 0.893009 0.261830 0.783556
O O10 0.000000 0.500000 0.751084
O O11 0.000000 0.256938 0.691019
O O12 0.372432 0.500000 0.500000
O O13 0.500000 0.257808 0.500000
O O14 0.304890 0.258127 0.550528
O O15 0.302248 0.197265 0.817696
O O16 0.139395 0.000000 0.830714
O O17 0.105725 0.745310 0.402529
O O18 0.000000 0.500000 0.372704
O O19 0.500000 0.698290 0.182055
O O20 0.337262 0.500000 0.191866
O O21 0.789057 0.000000 0.419758
#
# Coordination Sequence:
#
# PCOD8200251 Si02
#       8
#     8   8   4   4   8   4   8   8
#     4   8  14  27  47  71 101 137 175 217 272 334
#     4   9  18  35  58  81 108 147 191 226 265 329
#     4  11  23  37  55  81 115 154 188 220 267 330
#     4  11  25  46  71  94 117 151 193 229 266 325
#     4  11  20  31  52  81 109 137 178 233 283 325
#     4  11  25  44  62  80 112 161 203 222 253 330
#     4   9  19  35  53  74 105 147 188 223 267 330
#     4  12  25  40  61  91 122 148 181 234 289 324
#
# _framework density 19.529178999999999
#
# number of rings (size 3 to 8) (size 9 to 14) (size 15 to 20)
#    0.000    1.923    0.769    5.308    0.000    8.923 
#    0.000    3.077    0.000    2.769    0.000    3.231 
#    0.000    0.000    0.000    0.000    0.000    0.000 
#
# Total GULP energy -644322.196249 kJ/mol
# GULP energy per Si atom -12390.811466 kJ/mol
# Density = 1.948473 g / cm^3
# Si number density = 19.529179 Si / 1000 Ang^3
#
#
#
# Elastic Constant Matrix: (Units=GPa)
#
#
# Indices 1 2 3 4 5 6 
#
# 1 129.7974 36.3165 57.4653 0.0000 0.0000 0.0000
# 2 36.3165 66.0162 32.3170 0.0000 0.0000 0.0000
# 3 57.4653 32.3170 93.1739 0.0000 0.0000 0.0000
# 4 0.0000 0.0000 0.0000 12.4919 0.0000 0.0000
# 5 0.0000 0.0000 0.0000 0.0000 -2.4862 0.0000
# 6 0.0000 0.0000 0.0000 0.0000 0.0000 26.7557
#
#
#
# Elastic Compliance Matrix: (Units=1/GPa)
#
#
# Indices 1 2 3 4 5 6 
#
# 1 0.011179 -0.003342 -0.005735 0.000000 0.000000 0.000000
# 2 -0.003342 0.019245 -0.004614 0.000000 0.000000 0.000000
# 3 -0.005735 -0.004614 0.015870 0.000000 0.000000 0.000000
# 4 0.000000 0.000000 0.000000 0.080052 0.000000 0.000000
# 5 0.000000 0.000000 0.000000 0.000000 -0.402215 0.000000
# 6 0.000000 0.000000 0.000000 0.000000 0.000000 0.037375
#
#
# Mechanical properties :
#
#
# Convention : Reuss Voigt Hill
#
# Bulk Modulus (GPa) = 52.87794 60.13167 56.50481
# Shear Modulus (GPa) = -24.41302 18.21153 -3.10075
#
# Velocity S-wave (km/s) = -3.53948 3.05705 -1.26143
# Velocity P-wave (km/s) = 3.22974 6.58166 5.18409
#
# Compressibility (1/GPa) = 0.01891148
#
# Stress axis : x y z
#
# Youngs Moduli (GPa) = 89.45726 51.96199 63.01133
#
# Poissons Ratio (x) = 0.17365 0.36139
# Poissons Ratio (y) = 0.29895 0.29073
# Poissons Ratio (z) = 0.51306 0.23975
#
# Static dielectric constant tensor:
#      x y z
#    x 4.793400 0.000000 0.000000 
#    y 0.000000 3.435510 0.000000 
#    z 0.000000 0.000000 1.903840 
# 
# 
# High freq. dielectric constant tensor:
#      x y z
#    x 1.758860 0.000000 0.000000 
#    y 0.000000 1.737030 0.000000 
#    z 0.000000 0.000000 1.764160 
# 
# From -- ./inp_files/33639.got.cif
#   From: 2010.03.12/outbox.cif.g09.slc.cpg/sg47_17_cif.got.tgz:33639.got - 2010.04.14 03:12:58.
