data_PCOD8200538
_publ_section_title
;
Structure prediction by ZEFSAII (Michael W. Deem and Ramdas Pophale) SiO2 
 PCOD8200538
Probable space group: P M M M
;
_chemical_formula_sum "Si O2"
_cell_formula_units_Z 36
_cell_length_a 14.124863
_cell_length_b 8.852785
_cell_length_c 18.526748
_cell_angle_alpha 90.000000
_cell_angle_beta 90.000000
_cell_angle_gamma 90.000000
_cell_volume 2316.665630
_symmetry_space_group_name_H-M "P M M M"
_symmetry_group_IT_number 47
_symmetry_cell_setting 'orthorhombic'
loop_
_space_group_symop_operation_xyz
x,y,z
-x,-y,z
x,-y,-z
-x,y,-z
-x,-y,-z
x,y,-z
-x,y,z
x,-y,z
loop_
_atom_site_type_symbol
_atom_site_label
_atom_site_fract_x
_atom_site_fract_y
_atom_site_fract_z
Si Si1 0.387730 0.669084 0.576270
Si Si2 0.388772 0.675098 0.000000
Si Si3 0.390435 0.320321 0.267446
Si Si4 0.107170 0.325829 0.084066
Si Si5 0.287718 0.177479 0.135035
O O1 0.355855 0.751311 0.500000
O O2 0.500000 0.661579 0.578828
O O3 0.346900 0.500000 0.573566
O O4 0.356299 0.741262 0.652948
O O5 0.346817 0.747296 0.928529
O O6 0.361503 0.500000 0.000000
O O7 0.500000 0.701986 0.000000
O O8 0.500000 0.279952 0.252915
O O9 0.375498 0.500000 0.261276
O O10 0.326093 0.233379 0.211178
O O11 0.122755 0.500000 0.104882
O O12 0.177489 0.222470 0.130241
O O13 0.000000 0.276150 0.101876
O O14 0.129317 0.301117 0.000000
O O15 0.299007 0.000000 0.128759
#
# Coordination Sequence:
#
# PCOD8200538 Si02
#       5
#     8   4   8   8   8
#     4   7  10  19  38  63  86 109 145 191 228 255
#     4  11  23  37  50  61  80 117 161 196 222 255
#     4   9  17  29  45  64  89 124 159 188 221 261
#     4   9  18  34  55  72  85 107 142 184 228 273
#     4  12  23  32  45  67  93 119 147 184 226 267
#
# _framework density 15.539574
#
# number of rings (size 3 to 8) (size 9 to 14) (size 15 to 20)
#    0.000    2.556    1.111    5.667    0.000    4.444 
#    0.000    1.111    0.000    0.667    0.000    3.111 
#    0.000    0.889    0.000   10.222    0.000    3.333 
#
# Total GULP energy -445995.098630 kJ/mol
# GULP energy per Si atom -12388.752740 kJ/mol
# Density = 1.550421 g / cm^3
# Si number density = 15.539574 Si / 1000 Ang^3
#
#
#
# Elastic Constant Matrix: (Units=GPa)
#
#
# Indices 1 2 3 4 5 6 
#
# 1 71.0521 47.7810 59.1782 0.0000 0.0000 0.0000
# 2 47.7810 65.4129 46.6867 0.0000 0.0000 0.0000
# 3 59.1782 46.6867 143.9969 0.0000 0.0000 0.0000
# 4 0.0000 0.0000 0.0000 -7.6886 0.0000 0.0000
# 5 0.0000 0.0000 0.0000 0.0000 3.0995 0.0000
# 6 0.0000 0.0000 0.0000 0.0000 0.0000 0.0738
#
#
#
# Elastic Compliance Matrix: (Units=1/GPa)
#
#
# Indices 1 2 3 4 5 6 
#
# 1 0.032820 -0.018666 -0.007436 0.000000 0.000000 0.000000
# 2 -0.018666 0.030507 -0.002220 0.000000 0.000000 0.000000
# 3 -0.007436 -0.002220 0.010720 0.000000 0.000000 0.000000
# 4 0.000000 0.000000 0.000000 -0.130063 0.000000 0.000000
# 5 0.000000 0.000000 0.000000 0.000000 0.322636 0.000000
# 6 0.000000 0.000000 0.000000 0.000000 0.000000 13.545704
#
#
# Mechanical properties :
#
#
# Convention : Reuss Voigt Hill
#
# Bulk Modulus (GPa) = 57.46120 65.30596 61.38358
# Shear Modulus (GPa) = 0.36037 7.55135 3.95586
#
# Velocity S-wave (km/s) = 0.48208 2.20680 1.59725
# Velocity P-wave (km/s) = 6.11289 6.97210 6.55658
#
# Compressibility (1/GPa) = 0.01740305
#
# Stress axis : x y z
#
# Youngs Moduli (GPa) = 30.46898 32.77989 93.28172
#
# Poissons Ratio (x) = 0.61188 0.69365
# Poissons Ratio (y) = 0.56874 0.20704
# Poissons Ratio (z) = 0.22657 0.07276
#
# Static dielectric constant tensor:
#      x y z
#    x 2.813670 0.000000 0.000000 
#    y 0.000000 2.762010 0.000000 
#    z 0.000000 0.000000 3.257800 
# 
# 
# High freq. dielectric constant tensor:
#      x y z
#    x 1.564030 0.000000 0.000000 
#    y 0.000000 1.573840 0.000000 
#    z 0.000000 0.000000 1.602470 
# 
# From -- ./inp_files/5948.got.cif
#   From: 2010.03.12/outbox.cif.g09.slc.cpg/sg47_3_cif.got.tgz:5948.got - 2010.04.14 03:12:58.
