data_PCOD8200154
_publ_section_title
;
Structure prediction by ZEFSAII (Michael W. Deem and Ramdas Pophale) SiO2 
 PCOD8200154
Probable space group: P M M M
;
_chemical_formula_sum "Si O2"
_cell_formula_units_Z 56
_cell_length_a 21.530344
_cell_length_b 8.612045
_cell_length_c 14.523722
_cell_angle_alpha 90.000000
_cell_angle_beta 90.000000
_cell_angle_gamma 90.000000
_cell_volume 2692.992765
_symmetry_space_group_name_H-M "P M M M"
_symmetry_group_IT_number 47
_symmetry_cell_setting 'orthorhombic'
loop_
_space_group_symop_operation_xyz
x,y,z
-x,-y,z
x,-y,-z
-x,y,-z
-x,-y,-z
x,y,-z
-x,y,z
x,-y,z
loop_
_atom_site_type_symbol
_atom_site_label
_atom_site_fract_x
_atom_site_fract_y
_atom_site_fract_z
Si Si1 0.500000 0.682579 0.134256
Si Si2 0.926302 0.674613 0.599756
Si Si3 0.627602 0.680109 0.395847
Si Si4 0.815624 0.816465 0.896668
Si Si5 0.500000 0.817134 0.332347
Si Si6 0.069058 0.182425 0.213802
Si Si7 0.712533 0.676974 0.231810
Si Si8 0.625135 0.826028 0.900010
O O1 0.500000 0.500000 0.112766
O O2 0.500000 0.712020 0.242531
O O3 0.444020 0.769660 0.085568
O O4 0.902285 0.738904 0.500000
O O5 0.901436 0.500000 0.613202
O O6 0.902573 0.775525 0.685652
O O7 0.000000 0.676749 0.598667
O O8 0.651414 0.701436 0.500000
O O9 0.613349 0.500000 0.372745
O O10 0.563468 0.776071 0.386287
O O11 0.684945 0.737676 0.330128
O O12 0.883896 0.756963 0.864858
O O13 0.768222 0.772317 0.815021
O O14 0.814404 0.000000 0.902904
O O15 0.801809 0.747963 0.000000
O O16 0.500000 0.000000 0.310117
O O17 0.000000 0.255975 0.198471
O O18 0.063596 0.000000 0.208715
O O19 0.734305 0.500000 0.239656
O O20 0.655178 0.695249 0.163148
O O21 0.628766 0.000000 0.856158
O O22 0.658272 0.830551 0.000000
#
# Coordination Sequence:
#
# PCOD8200154 Si02
#       8
#     4   8   8   8   4   8   8   8
#     4  12  23  36  55  82 116 154 195 239 286 337
#     4   8  14  26  46  74 109 147 182 216 262 322
#     4  10  22  41  63  86 116 154 193 238 294 350
#     4  10  22  40  60  82 112 150 189 235 293 352
#     4  12  23  36  59  90 122 156 195 241 294 349
#     4   9  18  33  55  84 115 148 190 239 290 346
#     4  11  23  39  61  85 111 147 192 238 282 340
#     4  11  23  38  57  82 114 151 189 236 293 343
#
# _framework density 20.794709000000001
#
# number of rings (size 3 to 8) (size 9 to 14) (size 15 to 20)
#    0.000    1.857    1.429    3.429    0.000    6.857 
#    0.000    3.571    0.000    2.571    0.000    3.000 
#    0.000    0.000    0.000    0.000    0.000    0.000 
#
# Total GULP energy -693770.819821 kJ/mol
# GULP energy per Si atom -12388.764640 kJ/mol
# Density = 2.074738 g / cm^3
# Si number density = 20.794709 Si / 1000 Ang^3
#
#
#
# Elastic Constant Matrix: (Units=GPa)
#
#
# Indices 1 2 3 4 5 6 
#
# 1 100.9062 16.4359 62.7987 0.0000 0.0000 0.0000
# 2 16.4359 38.9398 23.2718 0.0000 0.0000 0.0000
# 3 62.7987 23.2718 147.9879 0.0000 0.0000 0.0000
# 4 0.0000 0.0000 0.0000 25.7599 0.0000 0.0000
# 5 0.0000 0.0000 0.0000 0.0000 14.2047 0.0000
# 6 0.0000 0.0000 0.0000 0.0000 0.0000 19.5477
#
#
#
# Elastic Compliance Matrix: (Units=1/GPa)
#
#
# Indices 1 2 3 4 5 6 
#
# 1 0.013692 -0.002546 -0.005410 0.000000 0.000000 0.000000
# 2 -0.002546 0.028818 -0.003451 0.000000 0.000000 0.000000
# 3 -0.005410 -0.003451 0.009596 0.000000 0.000000 0.000000
# 4 0.000000 0.000000 0.000000 0.038820 0.000000 0.000000
# 5 0.000000 0.000000 0.000000 0.000000 0.070399 0.000000
# 6 0.000000 0.000000 0.000000 0.000000 0.000000 0.051157
#
#
# Mechanical properties :
#
#
# Convention : Reuss Voigt Hill
#
# Bulk Modulus (GPa) = 34.14002 54.76074 44.45038
# Shear Modulus (GPa) = 20.40327 24.25764 22.33046
#
# Velocity S-wave (km/s) = 3.13577 3.41915 3.28052
# Velocity P-wave (km/s) = 5.43728 6.47909 5.98091
#
# Compressibility (1/GPa) = 0.02929113
#
# Stress axis : x y z
#
# Youngs Moduli (GPa) = 73.03759 34.70062 104.21397
#
# Poissons Ratio (x) = 0.08835 0.56376
# Poissons Ratio (y) = 0.18595 0.35968
# Poissons Ratio (z) = 0.39511 0.11976
#
# Static dielectric constant tensor:
#      x y z
#    x 3.864900 0.000000 0.000000 
#    y 0.000000 3.581400 0.000000 
#    z 0.000000 0.000000 4.184830 
# 
# 
# High freq. dielectric constant tensor:
#      x y z
#    x 1.794990 0.000000 0.000000 
#    y 0.000000 1.794660 0.000000 
#    z 0.000000 0.000000 1.825970 
# 
# From -- ./inp_files/25205.got.cif
#   From: 2010.03.12/outbox.cif.g09.slc.cpg/sg47_13_cif.got.tgz:25205.got - 2010.04.14 03:12:58.
