data_PCOD8200845
_publ_section_title
;
Structure prediction by ZEFSAII (Michael W. Deem and Ramdas Pophale) SiO2 
 PCOD8200845
Probable space group: P M M M
;
_chemical_formula_sum "Si O2"
_cell_formula_units_Z 44
_cell_length_a 9.692136
_cell_length_b 9.438683
_cell_length_c 28.598024
_cell_angle_alpha 90.000000
_cell_angle_beta 90.000000
_cell_angle_gamma 90.000000
_cell_volume 2616.175813
_symmetry_space_group_name_H-M "P M M M"
_symmetry_group_IT_number 47
_symmetry_cell_setting 'orthorhombic'
loop_
_space_group_symop_operation_xyz
x,y,z
-x,-y,z
x,-y,-z
-x,y,-z
-x,-y,-z
x,y,-z
-x,y,z
x,-y,z
loop_
_atom_site_type_symbol
_atom_site_label
_atom_site_fract_x
_atom_site_fract_y
_atom_site_fract_z
Si Si1 0.653476 0.331562 0.825888
Si Si2 0.664104 0.342029 0.276760
Si Si3 0.664048 0.341006 0.551742
Si Si4 0.839076 0.334909 0.089226
Si Si5 0.836106 0.839465 0.000000
Si Si6 0.664870 0.159291 0.362574
O O1 0.500000 0.271283 0.836429
O O2 0.647640 0.500000 0.825296
O O3 0.706171 0.281882 0.774551
O O4 0.758519 0.277613 0.865355
O O5 0.500000 0.349509 0.279409
O O6 0.724570 0.500000 0.284920
O O7 0.723160 0.238903 0.316723
O O8 0.713344 0.291719 0.500000
O O9 0.500000 0.340045 0.553717
O O10 0.717426 0.500000 0.562035
O O11 0.723889 0.235855 0.591015
O O12 0.808826 0.500000 0.079062
O O13 0.783216 0.244259 0.045558
O O14 0.000000 0.308940 0.098329
O O15 0.000000 0.840137 0.000000
O O16 0.777899 0.000000 0.000000
O O17 0.500000 0.161070 0.362567
O O18 0.722155 0.000000 0.362091
#
# Coordination Sequence:
#
# PCOD8200845 Si02
#       6
#     8   8   8   8   4   8
#     4   8  14  25  41  60  80 102 129 160 194 232
#     4   8  13  22  35  47  61  86 118 147 175 214
#     4   8  13  20  28  37  51  75 109 147 184 222
#     4   9  16  27  45  66  83 100 128 165 197 224
#     4   9  17  29  44  61  82 108 134 157 186 230
#     4   9  15  20  27  41  60  81 108 145 186 223
#
# _framework density 16.818442999999998
#
# number of rings (size 3 to 8) (size 9 to 14) (size 15 to 20)
#    0.000    3.545    0.000    2.455    0.000    3.636 
#    0.000    3.182    0.000    4.364    0.000    0.000 
#    0.000    0.000    0.000    0.000    0.000    0.909 
#
# Total GULP energy -545266.195098 kJ/mol
# GULP energy per Si atom -12392.413525 kJ/mol
# Density = 1.678016 g / cm^3
# Si number density = 16.818443 Si / 1000 Ang^3
#
#
#
# Elastic Constant Matrix: (Units=GPa)
#
#
# Indices 1 2 3 4 5 6 
#
# 1 19.9674 17.4873 32.9506 0.0000 0.0000 0.0000
# 2 17.4873 99.5221 86.9750 0.0000 0.0000 0.0000
# 3 32.9506 86.9750 192.5488 0.0000 0.0000 0.0000
# 4 0.0000 0.0000 0.0000 10.5603 0.0000 0.0000
# 5 0.0000 0.0000 0.0000 0.0000 2.0905 0.0000
# 6 0.0000 0.0000 0.0000 0.0000 0.0000 5.5491
#
#
#
# Elastic Compliance Matrix: (Units=1/GPa)
#
#
# Indices 1 2 3 4 5 6 
#
# 1 0.070343 -0.003040 -0.010664 0.000000 0.000000 0.000000
# 2 -0.003040 0.016733 -0.007038 0.000000 0.000000 0.000000
# 3 -0.010664 -0.007038 0.010198 0.000000 0.000000 0.000000
# 4 0.000000 0.000000 0.000000 0.094694 0.000000 0.000000
# 5 0.000000 0.000000 0.000000 0.000000 0.478360 0.000000
# 6 0.000000 0.000000 0.000000 0.000000 0.000000 0.180209
#
#
# Mechanical properties :
#
#
# Convention : Reuss Voigt Hill
#
# Bulk Modulus (GPa) = 17.92497 65.20712 41.56605
# Shear Modulus (GPa) = 5.49077 15.28166 10.38621
#
# Velocity S-wave (km/s) = 1.80882 3.01761 2.48775
# Velocity P-wave (km/s) = 3.87859 7.14120 5.74631
#
# Compressibility (1/GPa) = 0.05578810
#
# Stress axis : x y z
#
# Youngs Moduli (GPa) = 14.21605 59.76212 98.06230
#
# Poissons Ratio (x) = 0.18169 1.04577
# Poissons Ratio (y) = 0.04322 0.69017
# Poissons Ratio (z) = 0.15161 0.42061
#
# Static dielectric constant tensor:
#      x y z
#    x 2.543120 0.000000 0.000000 
#    y 0.000000 3.147270 0.000000 
#    z 0.000000 0.000000 3.615820 
# 
# 
# High freq. dielectric constant tensor:
#      x y z
#    x 1.566840 0.000000 0.000000 
#    y 0.000000 1.629920 0.000000 
#    z 0.000000 0.000000 1.669010 
# 
# From -- ./inp_files/34477.got.cif
#   From: 2010.03.12/outbox.cif.g09.slc.cpg/sg47_18_cif.got.tgz:34477.got - 2010.04.14 03:12:58.
