data_PCOD8200286
_publ_section_title
;
Structure prediction by ZEFSAII (Michael W. Deem and Ramdas Pophale) SiO2 
 PCOD8200286
Probable space group: P M M M
;
_chemical_formula_sum "Si O2"
_cell_formula_units_Z 52
_cell_length_a 26.340208
_cell_length_b 13.743888
_cell_length_c 9.016585
_cell_angle_alpha 90.000000
_cell_angle_beta 90.000000
_cell_angle_gamma 90.000000
_cell_volume 3264.155868
_symmetry_space_group_name_H-M "P M M M"
_symmetry_group_IT_number 47
_symmetry_cell_setting 'orthorhombic'
loop_
_space_group_symop_operation_xyz
x,y,z
-x,-y,z
x,-y,-z
-x,y,-z
-x,-y,-z
x,y,-z
-x,y,z
x,-y,z
loop_
_atom_site_type_symbol
_atom_site_label
_atom_site_fract_x
_atom_site_fract_y
_atom_site_fract_z
Si Si1 0.600556 0.886767 0.173821
Si Si2 0.238493 0.390272 0.172958
Si Si3 0.147216 0.713736 0.324860
Si Si4 0.702131 0.206148 0.826392
Si Si5 0.500000 0.884307 0.667161
Si Si6 0.058325 0.612456 0.170174
Si Si7 0.804805 0.889231 0.175006
O O1 0.648599 0.827953 0.242857
O O2 0.550320 0.844823 0.252127
O O3 0.609315 0.000000 0.209416
O O4 0.593514 0.869145 0.000000
O O5 0.254990 0.500000 0.212755
O O6 0.188588 0.362087 0.263570
O O7 0.285315 0.318623 0.213914
O O8 0.224715 0.379067 0.000000
O O9 0.151654 0.718424 0.500000
O O10 0.091616 0.678249 0.278654
O O11 0.154957 0.821342 0.258345
O O12 0.748217 0.138498 0.769270
O O13 0.696630 0.190078 0.000000
O O14 0.500000 0.845352 0.500000
O O15 0.500000 0.000000 0.675034
O O16 0.067462 0.500000 0.209360
O O17 0.000000 0.640907 0.197110
O O18 0.073702 0.632332 0.000000
O O19 0.816525 0.000000 0.217899
O O20 0.809643 0.870780 0.000000
#
# Coordination Sequence:
#
# PCOD8200286 Si02
#       7
#     8   8   8   8   4   8   8
#     4   9  15  24  40  60  82 108 138 173 213 257
#     4   9  17  30  47  65  88 119 152 183 215 256
#     4  11  21  30  44  68  97 124 147 177 219 264
#     4   8  14  25  43  67  88 108 141 182 220 256
#     4   9  17  27  37  53  80 111 140 170 207 253
#     4   9  18  33  52  71  90 115 149 187 224 263
#     4   9  17  31  50  68  88 118 154 186 216 256
#
# _framework density 15.930612
#
# number of rings (size 3 to 8) (size 9 to 14) (size 15 to 20)
#    0.000    2.846    0.000    3.923    0.000    5.846 
#    0.000    3.846    0.000    4.154    0.000    3.769 
#    0.000    4.308    0.000    0.000    0.000    0.000 
#
# Total GULP energy -644669.868450 kJ/mol
# GULP energy per Si atom -12397.497470 kJ/mol
# Density = 1.589435 g / cm^3
# Si number density = 15.930612 Si / 1000 Ang^3
#
#
#
# Elastic Constant Matrix: (Units=GPa)
#
#
# Indices 1 2 3 4 5 6 
#
# 1 114.8932 58.1544 43.8611 0.0000 0.0000 0.0000
# 2 58.1544 108.2405 42.8861 0.0000 0.0000 0.0000
# 3 43.8611 42.8861 63.4036 0.0000 0.0000 0.0000
# 4 0.0000 0.0000 0.0000 9.4463 0.0000 0.0000
# 5 0.0000 0.0000 0.0000 0.0000 6.1368 0.0000
# 6 0.0000 0.0000 0.0000 0.0000 0.0000 25.1695
#
#
#
# Elastic Compliance Matrix: (Units=1/GPa)
#
#
# Indices 1 2 3 4 5 6 
#
# 1 0.013457 -0.004838 -0.006037 0.000000 0.000000 0.000000
# 2 -0.004838 0.014361 -0.006366 0.000000 0.000000 0.000000
# 3 -0.006037 -0.006366 0.024254 0.000000 0.000000 0.000000
# 4 0.000000 0.000000 0.000000 0.105862 0.000000 0.000000
# 5 0.000000 0.000000 0.000000 0.000000 0.162952 0.000000
# 6 0.000000 0.000000 0.000000 0.000000 0.000000 0.039731
#
#
# Mechanical properties :
#
#
# Convention : Reuss Voigt Hill
#
# Bulk Modulus (GPa) = 56.85342 64.03783 60.44562
# Shear Modulus (GPa) = 12.46996 17.59288 15.03142
#
# Velocity S-wave (km/s) = 2.80083 3.32677 3.07507
# Velocity P-wave (km/s) = 6.79891 7.41902 7.11572
#
# Compressibility (1/GPa) = 0.01758909
#
# Stress axis : x y z
#
# Youngs Moduli (GPa) = 74.30916 69.63466 41.22970
#
# Poissons Ratio (x) = 0.33692 0.24889
# Poissons Ratio (y) = 0.35953 0.26249
# Poissons Ratio (z) = 0.44859 0.44333
#
# Static dielectric constant tensor:
#      x y z
#    x 3.092440 0.000000 0.000000 
#    y 0.000000 3.004890 0.000000 
#    z 0.000000 0.000000 2.836370 
# 
# 
# High freq. dielectric constant tensor:
#      x y z
#    x 1.606610 0.000000 0.000000 
#    y 0.000000 1.593940 0.000000 
#    z 0.000000 0.000000 1.593330 
# 
# From -- ./inp_files/12518.got.cif
#   From: 2010.03.12/outbox.cif.g09.slc.cpg/sg47_7_cif.got.tgz:12518.got - 2010.04.14 03:12:58.
