data_PCOD8200057
_publ_section_title
;
Structure prediction by ZEFSAII (Michael W. Deem and Ramdas Pophale) SiO2 
 PCOD8200057
Probable space group: P M M M
;
_chemical_formula_sum "Si O2"
_cell_formula_units_Z 44
_cell_length_a 8.698917
_cell_length_b 32.328816
_cell_length_c 7.570663
_cell_angle_alpha 90.000000
_cell_angle_beta 90.000000
_cell_angle_gamma 90.000000
_cell_volume 2129.064904
_symmetry_space_group_name_H-M "P M M M"
_symmetry_group_IT_number 47
_symmetry_cell_setting 'orthorhombic'
loop_
_space_group_symop_operation_xyz
x,y,z
-x,-y,z
x,-y,-z
-x,y,-z
-x,-y,-z
x,y,-z
-x,y,z
x,-y,z
loop_
_atom_site_type_symbol
_atom_site_label
_atom_site_fract_x
_atom_site_fract_y
_atom_site_fract_z
Si Si1 0.678241 0.714198 0.207843
Si Si2 0.680885 0.859627 0.500000
Si Si3 0.818657 0.915193 0.203375
Si Si4 0.174699 0.456029 0.707913
Si Si5 0.829983 0.368601 0.797683
Si Si6 0.819706 0.229720 0.500000
Si Si7 0.327627 0.000000 0.209355
O O1 0.500000 0.721054 0.249947
O O2 0.723167 0.668056 0.275756
O O3 0.778194 0.745956 0.321156
O O4 0.712754 0.721073 0.000000
O O5 0.500000 0.865696 0.500000
O O6 0.748035 0.879273 0.321779
O O7 0.722782 0.811884 0.500000
O O8 0.759262 0.959200 0.276954
O O9 0.000000 0.914489 0.222560
O O10 0.767921 0.907936 0.000000
O O11 0.181020 0.456246 0.500000
O O12 0.249113 0.500000 0.776327
O O13 0.254253 0.413499 0.773752
O O14 0.000000 0.454869 0.777426
O O15 0.000000 0.368218 0.705024
O O16 0.854077 0.359237 0.000000
O O17 0.000000 0.219933 0.500000
O O18 0.500000 0.000000 0.286234
O O19 0.328044 0.000000 0.000000
#
# Coordination Sequence:
#
# PCOD8200057 Si02
#       7
#     8   4   8   8   8   4   4
#     4  10  22  41  63  88 119 152 189 236 292 354
#     4  12  26  43  63  90 124 159 202 248 298 365
#     4  10  21  39  63  91 126 167 210 257 305 353
#     4   8  14  24  39  64 100 139 179 223 271 324
#     4   9  17  29  48  76 105 136 181 231 279 333
#     4  12  26  44  67  91 117 151 194 244 297 356
#     4   9  17  32  57  90 126 165 211 258 307 360
#
# _framework density 20.666352
#
# number of rings (size 3 to 8) (size 9 to 14) (size 15 to 20)
#    0.000    2.273    0.000    3.545    1.273    4.727 
#    0.000    3.636    0.000    0.545    0.000    3.818 
#    0.000    0.000    0.000    0.000    0.000    0.000 
#
# Total GULP energy -545260.977674 kJ/mol
# GULP energy per Si atom -12392.294947 kJ/mol
# Density = 2.061931 g / cm^3
# Si number density = 20.666352 Si / 1000 Ang^3
#
#
#
# Elastic Constant Matrix: (Units=GPa)
#
#
# Indices 1 2 3 4 5 6 
#
# 1 73.1980 20.8971 27.1417 0.0000 0.0000 0.0000
# 2 20.8971 145.6523 42.2360 0.0000 0.0000 0.0000
# 3 27.1417 42.2360 72.2646 0.0000 0.0000 0.0000
# 4 0.0000 0.0000 0.0000 46.3604 0.0000 0.0000
# 5 0.0000 0.0000 0.0000 0.0000 23.6071 0.0000
# 6 0.0000 0.0000 0.0000 0.0000 0.0000 15.9688
#
#
#
# Elastic Compliance Matrix: (Units=1/GPa)
#
#
# Indices 1 2 3 4 5 6 
#
# 1 0.015925 -0.000663 -0.005594 0.000000 0.000000 0.000000
# 2 -0.000663 0.008294 -0.004599 0.000000 0.000000 0.000000
# 3 -0.005594 -0.004599 0.018627 0.000000 0.000000 0.000000
# 4 0.000000 0.000000 0.000000 0.021570 0.000000 0.000000
# 5 0.000000 0.000000 0.000000 0.000000 0.042360 0.000000
# 6 0.000000 0.000000 0.000000 0.000000 0.000000 0.062622
#
#
# Mechanical properties :
#
#
# Convention : Reuss Voigt Hill
#
# Bulk Modulus (GPa) = 47.31413 52.40715 49.86064
# Shear Modulus (GPa) = 25.23286 30.57661 27.90473
#
# Velocity S-wave (km/s) = 3.49802 3.85065 3.67856
# Velocity P-wave (km/s) = 6.26569 6.72188 6.49779
#
# Compressibility (1/GPa) = 0.02113534
#
# Stress axis : x y z
#
# Youngs Moduli (GPa) = 62.79444 120.56482 53.68596
#
# Poissons Ratio (x) = 0.07990 0.30031
# Poissons Ratio (y) = 0.04161 0.24689
# Poissons Ratio (z) = 0.35127 0.55445
#
# Static dielectric constant tensor:
#      x y z
#    x 3.649570 0.000000 0.000000 
#    y 0.000000 4.003310 0.000000 
#    z 0.000000 0.000000 3.628450 
# 
# 
# High freq. dielectric constant tensor:
#      x y z
#    x 1.781320 0.000000 0.000000 
#    y 0.000000 1.822490 0.000000 
#    z 0.000000 0.000000 1.803300 
# 
# From -- ./inp_files/2352.got.cif
#   From: 2010.03.12/outbox.cif.g09.slc.cpg/sg47_2_cif.got.tgz:2352.got - 2010.04.14 03:12:58.
