data_PCOD8200334
_publ_section_title
;
Structure prediction by ZEFSAII (Michael W. Deem and Ramdas Pophale) SiO2 
 PCOD8200334
Probable space group: P M M M
;
_chemical_formula_sum "Si O2"
_cell_formula_units_Z 48
_cell_length_a 18.739265
_cell_length_b 10.177554
_cell_length_c 17.878865
_cell_angle_alpha 90.000000
_cell_angle_beta 90.000000
_cell_angle_gamma 90.000000
_cell_volume 3409.855013
_symmetry_space_group_name_H-M "P M M M"
_symmetry_group_IT_number 47
_symmetry_cell_setting 'orthorhombic'
loop_
_space_group_symop_operation_xyz
x,y,z
-x,-y,z
x,-y,-z
-x,y,-z
-x,-y,-z
x,y,-z
-x,y,z
x,-y,z
loop_
_atom_site_type_symbol
_atom_site_label
_atom_site_fract_x
_atom_site_fract_y
_atom_site_fract_z
Si Si1 0.582956 0.500000 0.678062
Si Si2 0.415262 0.000000 0.815488
Si Si3 0.648125 0.731637 0.413108
Si Si4 0.585072 0.765506 0.083687
Si Si5 0.585229 0.500000 0.844343
Si Si6 0.195023 0.648740 0.588492
Si Si7 0.080220 0.853097 0.588972
Si Si8 0.414473 0.000000 0.356091
O O1 0.500000 0.500000 0.690814
O O2 0.602266 0.369826 0.633840
O O3 0.617891 0.500000 0.760651
O O4 0.384841 0.873323 0.858697
O O5 0.389457 0.000000 0.730048
O O6 0.500000 0.000000 0.817545
O O7 0.638240 0.697864 0.500000
O O8 0.730350 0.715763 0.389154
O O9 0.619430 0.876021 0.397151
O O10 0.500000 0.767414 0.083805
O O11 0.614390 0.625877 0.111310
O O12 0.613458 0.794279 0.000000
O O13 0.500000 0.500000 0.842862
O O14 0.187172 0.641120 0.500000
O O15 0.189816 0.500000 0.621434
O O16 0.133118 0.742298 0.622607
O O17 0.084089 0.850632 0.500000
O O18 0.000000 0.819774 0.615852
O O19 0.102003 0.000000 0.616646
O O20 0.500000 0.000000 0.364558
#
# Coordination Sequence:
#
# PCOD8200334 Si02
#       8
#     4   4   8   8   4   8   8   4
#     4  11  21  33  47  57  72 101 133 173 223 261
#     4   9  17  29  41  55  75  96 119 149 194 250
#     4  11  22  34  45  58  73  96 135 181 225 262
#     4   9  15  24  40  60  79  96 113 137 177 236
#     4   9  17  27  39  57  77  96 119 149 192 242
#     4   9  17  29  42  57  77  98 123 158 200 246
#     4   8  14  24  40  62  83 101 119 141 181 239
#     4  11  23  35  45  57  74  97 131 179 229 267
#
# _framework density 14.076845
#
# number of rings (size 3 to 8) (size 9 to 14) (size 15 to 20)
#    0.000    2.500    0.833    3.000    1.167    7.000 
#    0.000    1.667    0.000    0.000    0.000    0.000 
#    0.000    0.000    0.000    0.000    0.000    0.000 
#
# Total GULP energy -595004.731508 kJ/mol
# GULP energy per Si atom -12395.931906 kJ/mol
# Density = 1.404481 g / cm^3
# Si number density = 14.076845 Si / 1000 Ang^3
#
#
#
# Elastic Constant Matrix: (Units=GPa)
#
#
# Indices 1 2 3 4 5 6 
#
# 1 59.2860 36.8932 9.4111 0.0000 0.0000 0.0000
# 2 36.8932 96.6035 6.1898 0.0000 0.0000 0.0000
# 3 9.4111 6.1898 47.0171 0.0000 0.0000 0.0000
# 4 0.0000 0.0000 0.0000 13.4438 0.0000 0.0000
# 5 0.0000 0.0000 0.0000 0.0000 -0.1751 0.0000
# 6 0.0000 0.0000 0.0000 0.0000 0.0000 20.9298
#
#
#
# Elastic Compliance Matrix: (Units=1/GPa)
#
#
# Indices 1 2 3 4 5 6 
#
# 1 0.022660 -0.008434 -0.003425 0.000000 0.000000 0.000000
# 2 -0.008434 0.013579 -0.000099 0.000000 0.000000 0.000000
# 3 -0.003425 -0.000099 0.021968 0.000000 0.000000 0.000000
# 4 0.000000 0.000000 0.000000 0.074384 0.000000 0.000000
# 5 0.000000 0.000000 0.000000 0.000000 -5.711955 0.000000
# 6 0.000000 0.000000 0.000000 0.000000 0.000000 0.047779
#
#
# Mechanical properties :
#
#
# Convention : Reuss Voigt Hill
#
# Bulk Modulus (GPa) = 29.16449 34.21051 31.68750
# Shear Modulus (GPa) = -0.90971 16.86722 7.97875
#
# Velocity S-wave (km/s) = -0.80477 3.46529 2.38334
# Velocity P-wave (km/s) = 4.46089 6.35346 5.48935
#
# Compressibility (1/GPa) = 0.03428828
#
# Stress axis : x y z
#
# Youngs Moduli (GPa) = 44.13115 73.64274 45.52171
#
# Poissons Ratio (x) = 0.62113 0.15592
# Poissons Ratio (y) = 0.37222 0.00453
# Poissons Ratio (z) = 0.15116 0.00732
#
# Static dielectric constant tensor:
#      x y z
#    x 2.567470 0.000000 0.000000 
#    y 0.000000 3.321510 0.000000 
#    z 0.000000 0.000000 2.633690 
# 
# 
# High freq. dielectric constant tensor:
#      x y z
#    x 1.491130 0.000000 0.000000 
#    y 0.000000 1.561010 0.000000 
#    z 0.000000 0.000000 1.504260 
# 
# From -- ./inp_files/28704.got.cif
#   From: 2010.03.12/outbox.cif.g09.slc.cpg/sg47_15_cif.got.tgz:28704.got - 2010.04.14 03:12:58.
