data_PCOD8200660
_publ_section_title
;
Structure prediction by ZEFSAII (Michael W. Deem and Ramdas Pophale) SiO2 
 PCOD8200660
Probable space group: P M M M
;
_chemical_formula_sum "Si O2"
_cell_formula_units_Z 28
_cell_length_a 7.669091
_cell_length_b 9.509221
_cell_length_c 19.618648
_cell_angle_alpha 90.000000
_cell_angle_beta 90.000000
_cell_angle_gamma 90.000000
_cell_volume 1430.730735
_symmetry_space_group_name_H-M "P M M M"
_symmetry_group_IT_number 47
_symmetry_cell_setting 'orthorhombic'
loop_
_space_group_symop_operation_xyz
x,y,z
-x,-y,z
x,-y,-z
-x,y,-z
-x,-y,-z
x,y,-z
-x,y,z
x,-y,z
loop_
_atom_site_type_symbol
_atom_site_label
_atom_site_fract_x
_atom_site_fract_y
_atom_site_fract_z
Si Si1 0.296752 0.833596 0.847288
Si Si2 0.000000 0.661682 0.919406
Si Si3 0.699479 0.150457 0.302232
Si Si4 0.794759 0.342039 0.574789
O O1 0.500000 0.792723 0.859628
O O2 0.229027 0.794375 0.770358
O O3 0.175345 0.741748 0.896166
O O4 0.269429 0.000000 0.860597
O O5 0.000000 0.500000 0.892481
O O6 0.000000 0.663391 0.000000
O O7 0.500000 0.121867 0.286926
O O8 0.713975 0.255252 0.364561
O O9 0.787908 0.000000 0.321657
O O10 0.740185 0.282139 0.500000
O O11 0.723993 0.500000 0.581501
O O12 0.000000 0.339063 0.582248
#
# Coordination Sequence:
#
# PCOD8200660 Si02
#       4
#     8   4   8   8
#     4   9  20  40  63  87 117 153 194 239 285 338
#     4  11  25  41  59  89 124 155 188 229 283 344
#     4   9  19  35  54  78 106 136 176 227 278 325
#     4   9  19  34  49  70 104 143 182 224 270 323
#
# _framework density 19.570419000000001
#
# number of rings (size 3 to 8) (size 9 to 14) (size 15 to 20)
#    0.000    2.714    0.000    3.000    2.000    5.714 
#    0.000   10.000    0.000    0.000    0.000    0.000 
#    0.000    0.000    0.000    0.000    0.000    0.000 
#
# Total GULP energy -346892.069865 kJ/mol
# GULP energy per Si atom -12389.002495 kJ/mol
# Density = 1.952588 g / cm^3
# Si number density = 19.570419 Si / 1000 Ang^3
#
#
#
# Elastic Constant Matrix: (Units=GPa)
#
#
# Indices 1 2 3 4 5 6 
#
# 1 75.8390 41.8956 35.4303 0.0000 0.0000 0.0000
# 2 41.8956 89.7960 56.6366 0.0000 0.0000 0.0000
# 3 35.4303 56.6366 110.8323 0.0000 0.0000 0.0000
# 4 0.0000 0.0000 0.0000 35.8279 0.0000 0.0000
# 5 0.0000 0.0000 0.0000 0.0000 33.5666 0.0000
# 6 0.0000 0.0000 0.0000 0.0000 0.0000 25.6446
#
#
#
# Elastic Compliance Matrix: (Units=1/GPa)
#
#
# Indices 1 2 3 4 5 6 
#
# 1 0.018112 -0.007081 -0.002172 0.000000 0.000000 0.000000
# 2 -0.007081 0.019201 -0.007548 0.000000 0.000000 0.000000
# 3 -0.002172 -0.007548 0.013574 0.000000 0.000000 0.000000
# 4 0.000000 0.000000 0.000000 0.027911 0.000000 0.000000
# 5 0.000000 0.000000 0.000000 0.000000 0.029791 0.000000
# 6 0.000000 0.000000 0.000000 0.000000 0.000000 0.038995
#
#
# Mechanical properties :
#
#
# Convention : Reuss Voigt Hill
#
# Bulk Modulus (GPa) = 57.85147 60.48804 59.16975
# Shear Modulus (GPa) = 26.74548 28.50814 27.62681
#
# Velocity S-wave (km/s) = 3.70080 3.82081 3.76128
# Velocity P-wave (km/s) = 6.91998 7.10210 7.01163
#
# Compressibility (1/GPa) = 0.01728565
#
# Stress axis : x y z
#
# Youngs Moduli (GPa) = 55.21219 52.08087 73.66943
#
# Poissons Ratio (x) = 0.36877 0.15998
# Poissons Ratio (y) = 0.39094 0.55608
# Poissons Ratio (z) = 0.11990 0.39313
#
# Static dielectric constant tensor:
#      x y z
#    x 3.483370 0.000000 0.000000 
#    y 0.000000 4.432120 0.000000 
#    z 0.000000 0.000000 10.025260 
# 
# 
# High freq. dielectric constant tensor:
#      x y z
#    x 1.759640 0.000000 0.000000 
#    y 0.000000 1.752620 0.000000 
#    z 0.000000 0.000000 1.767780 
# 
# From -- ./inp_files/830.got.cif
#   From: 2010.03.12/outbox.cif.g09.slc.cpg/sg47_1_cif.got.tgz:830.got - 2010.04.14 03:12:58.
