data_PCOD8200554
_publ_section_title
;
Structure prediction by ZEFSAII (Michael W. Deem and Ramdas Pophale) SiO2 
 PCOD8200554
Probable space group: P M M M
;
_chemical_formula_sum "Si O2"
_cell_formula_units_Z 52
_cell_length_a 31.379324
_cell_length_b 9.079234
_cell_length_c 11.414099
_cell_angle_alpha 90.000000
_cell_angle_beta 90.000000
_cell_angle_gamma 90.000000
_cell_volume 3251.879377
_symmetry_space_group_name_H-M "P M M M"
_symmetry_group_IT_number 47
_symmetry_cell_setting 'orthorhombic'
loop_
_space_group_symop_operation_xyz
x,y,z
-x,-y,z
x,-y,-z
-x,y,-z
-x,-y,-z
x,y,-z
-x,y,z
x,-y,z
loop_
_atom_site_type_symbol
_atom_site_label
_atom_site_fract_x
_atom_site_fract_y
_atom_site_fract_z
Si Si1 0.000000 0.175637 0.870903
Si Si2 0.500000 0.832930 0.861955
Si Si3 0.651479 0.172526 0.136590
Si Si4 0.550546 0.172482 0.500000
Si Si5 0.253178 0.837658 0.861079
Si Si6 0.423752 0.323809 0.737130
Si Si7 0.091147 0.834502 0.859741
Si Si8 0.172698 0.335822 0.139877
O O1 0.955078 0.223192 0.809399
O O2 0.000000 0.000000 0.881553
O O3 0.000000 0.246492 0.000000
O O4 0.541256 0.744020 0.823004
O O5 0.500000 0.000000 0.808396
O O6 0.500000 0.844101 0.000000
O O7 0.699628 0.218655 0.172135
O O8 0.622069 0.277789 0.213733
O O9 0.643096 0.000000 0.163616
O O10 0.642918 0.203434 0.000000
O O11 0.500000 0.194852 0.500000
O O12 0.570777 0.253703 0.389788
O O13 0.562663 0.000000 0.500000
O O14 0.215797 0.736341 0.808748
O O15 0.246150 0.000000 0.808664
O O16 0.249605 0.844303 0.000000
O O17 0.428103 0.500000 0.731601
O O18 0.130076 0.739428 0.809398
O O19 0.099694 0.000000 0.817220
O O20 0.089370 0.827859 0.000000
O O21 0.172279 0.500000 0.187353
O O22 0.172712 0.327376 0.000000
#
# Coordination Sequence:
#
# PCOD8200554 Si02
#       8
#     4   4   8   4   8   8   8   8
#     4   7  10  16  25  35  45  63  97 141 185 228
#     4  11  23  38  55  74  99 131 161 183 208 251
#     4   9  18  33  51  70  94 123 152 179 212 261
#     4  11  23  41  63  77  92 124 160 186 214 253
#     4   8  14  25  40  55  72  99 133 164 194 235
#     4  12  24  36  54  78 102 122 147 185 225 259
#     4   8  12  18  27  36  48  70 103 142 184 233
#     4   9  15  20  27  42  63  85 111 147 192 240
#
# _framework density 15.990753
#
# number of rings (size 3 to 8) (size 9 to 14) (size 15 to 20)
#    0.000    2.692    0.769    4.615    0.000    5.538 
#    0.000    1.923    0.000    2.308    0.000    0.000 
#    0.000    0.000    0.000    0.000    0.000    0.000 
#
# Total GULP energy -644333.332939 kJ/mol
# GULP energy per Si atom -12391.025633 kJ/mol
# Density = 1.595436 g / cm^3
# Si number density = 15.990753 Si / 1000 Ang^3
#
#
#
# Elastic Constant Matrix: (Units=GPa)
#
#
# Indices 1 2 3 4 5 6 
#
# 1 162.9118 80.1383 29.5494 0.0000 0.0000 0.0000
# 2 80.1383 120.8792 29.7055 0.0000 0.0000 0.0000
# 3 29.5494 29.7055 38.7640 0.0000 0.0000 0.0000
# 4 0.0000 0.0000 0.0000 13.7598 0.0000 0.0000
# 5 0.0000 0.0000 0.0000 0.0000 -1.7517 0.0000
# 6 0.0000 0.0000 0.0000 0.0000 0.0000 10.3748
#
#
#
# Elastic Compliance Matrix: (Units=1/GPa)
#
#
# Indices 1 2 3 4 5 6 
#
# 1 0.009372 -0.005492 -0.002936 0.000000 0.000000 0.000000
# 2 -0.005492 0.013410 -0.006090 0.000000 0.000000 0.000000
# 3 -0.002936 -0.006090 0.032702 0.000000 0.000000 0.000000
# 4 0.000000 0.000000 0.000000 0.072675 0.000000 0.000000
# 5 0.000000 0.000000 0.000000 0.000000 -0.570874 0.000000
# 6 0.000000 0.000000 0.000000 0.000000 0.000000 0.096388
#
#
# Mechanical properties :
#
#
# Convention : Reuss Voigt Hill
#
# Bulk Modulus (GPa) = 37.80879 66.81570 52.31225
# Shear Modulus (GPa) = -16.20882 16.68737 0.23928
#
# Velocity S-wave (km/s) = -3.18722 3.23393 0.38724
# Velocity P-wave (km/s) = 3.18606 7.47122 5.74326
#
# Compressibility (1/GPa) = 0.02644887
#
# Stress axis : x y z
#
# Youngs Moduli (GPa) = 106.69597 74.56920 30.57926
#
# Poissons Ratio (x) = 0.40954 0.08977
# Poissons Ratio (y) = 0.58599 0.18623
# Poissons Ratio (z) = 0.31324 0.45413
#
# Static dielectric constant tensor:
#      x y z
#    x 3.453370 0.000000 0.000000 
#    y 0.000000 3.112710 0.000000 
#    z 0.000000 0.000000 2.439520 
# 
# 
# High freq. dielectric constant tensor:
#      x y z
#    x 1.636990 0.000000 0.000000 
#    y 0.000000 1.613520 0.000000 
#    z 0.000000 0.000000 1.532190 
# 
# From -- ./inp_files/20075.got.cif
#   From: 2010.03.12/outbox.cif.g09.slc.cpg/sg47_11_cif.got.tgz:20075.got - 2010.04.14 03:12:58.
