data_PCOD8200198
_publ_section_title
;
Structure prediction by ZEFSAII (Michael W. Deem and Ramdas Pophale) SiO2 
 PCOD8200198
Probable space group: P M M M
;
_chemical_formula_sum "Si O2"
_cell_formula_units_Z 36
_cell_length_a 12.564651
_cell_length_b 12.995682
_cell_length_c 15.574530
_cell_angle_alpha 90.000000
_cell_angle_beta 90.000000
_cell_angle_gamma 90.000000
_cell_volume 2543.105958
_symmetry_space_group_name_H-M "P M M M"
_symmetry_group_IT_number 47
_symmetry_cell_setting 'orthorhombic'
loop_
_space_group_symop_operation_xyz
x,y,z
-x,-y,z
x,-y,-z
-x,y,-z
-x,-y,-z
x,y,-z
-x,y,z
x,-y,z
loop_
_atom_site_type_symbol
_atom_site_label
_atom_site_fract_x
_atom_site_fract_y
_atom_site_fract_z
Si Si1 0.624064 0.379268 0.000000
Si Si2 0.500000 0.120614 0.899866
Si Si3 0.372818 0.381878 0.314098
Si Si4 0.122346 0.882879 0.099398
Si Si5 0.384233 0.621318 0.500000
Si Si6 0.692910 0.749054 0.842716
O O1 0.681481 0.336458 0.084002
O O2 0.638720 0.500000 0.000000
O O3 0.500000 0.347821 0.000000
O O4 0.396342 0.164329 0.853583
O O5 0.500000 0.000000 0.886888
O O6 0.500000 0.151230 0.000000
O O7 0.500000 0.368644 0.308611
O O8 0.342663 0.500000 0.293019
O O9 0.328239 0.349311 0.409402
O O10 0.315104 0.306467 0.248468
O O11 0.192965 0.804432 0.154328
O O12 0.000000 0.851591 0.112649
O O13 0.141517 0.000000 0.130161
O O14 0.155513 0.873381 0.000000
O O15 0.401023 0.500000 0.500000
O O16 0.500000 0.674624 0.500000
#
# Coordination Sequence:
#
# PCOD8200198 Si02
#       6
#     4   4   8   8   4   8
#     4  11  20  28  37  58  93 123 144 160 198 260
#     4  11  20  28  38  59  88 115 139 176 217 253
#     4   9  16  26  42  64  91 118 147 173 205 253
#     4   9  18  32  48  62  79 110 151 190 220 248
#     4   7  12  24  40  60  85 114 145 181 206 234
#     4  12  17  28  42  64  87 115 142 174 215 255
#
# _framework density 14.155918
#
# number of rings (size 3 to 8) (size 9 to 14) (size 15 to 20)
#    0.000    2.111    4.444    3.333    0.000    3.556 
#    0.000    0.000    0.000    3.333    0.000    4.667 
#    0.000    4.444    0.000    0.000    0.000    0.000 
#
# Total GULP energy -446206.860445 kJ/mol
# GULP energy per Si atom -12394.635012 kJ/mol
# Density = 1.412370 g / cm^3
# Si number density = 14.155918 Si / 1000 Ang^3
#
#
#
# Elastic Constant Matrix: (Units=GPa)
#
#
# Indices 1 2 3 4 5 6 
#
# 1 64.5350 40.3853 35.1978 0.0000 0.0000 0.0000
# 2 40.3853 85.4172 53.4556 0.0000 0.0000 0.0000
# 3 35.1978 53.4556 118.7217 0.0000 0.0000 0.0000
# 4 0.0000 0.0000 0.0000 33.8771 0.0000 0.0000
# 5 0.0000 0.0000 0.0000 0.0000 10.5138 0.0000
# 6 0.0000 0.0000 0.0000 0.0000 0.0000 24.0226
#
#
#
# Elastic Compliance Matrix: (Units=1/GPa)
#
#
# Indices 1 2 3 4 5 6 
#
# 1 0.022581 -0.009031 -0.002628 0.000000 0.000000 0.000000
# 2 -0.009031 0.019913 -0.006288 0.000000 0.000000 0.000000
# 3 -0.002628 -0.006288 0.012034 0.000000 0.000000 0.000000
# 4 0.000000 0.000000 0.000000 0.029519 0.000000 0.000000
# 5 0.000000 0.000000 0.000000 0.000000 0.095113 0.000000
# 6 0.000000 0.000000 0.000000 0.000000 0.000000 0.041627
#
#
# Mechanical properties :
#
#
# Convention : Reuss Voigt Hill
#
# Bulk Modulus (GPa) = 53.67322 58.52791 56.10056
# Shear Modulus (GPa) = 19.01925 22.99172 21.00549
#
# Velocity S-wave (km/s) = 3.66943 4.03448 3.85628
# Velocity P-wave (km/s) = 7.48004 7.94592 7.71650
#
# Compressibility (1/GPa) = 0.01863126
#
# Stress axis : x y z
#
# Youngs Moduli (GPa) = 44.28583 50.21935 83.10097
#
# Poissons Ratio (x) = 0.45355 0.21839
# Poissons Ratio (y) = 0.39997 0.52256
# Poissons Ratio (z) = 0.11638 0.31579
#
# Static dielectric constant tensor:
#      x y z
#    x 2.527020 0.000000 0.000000 
#    y 0.000000 2.712560 0.000000 
#    z 0.000000 0.000000 2.895970 
# 
# 
# High freq. dielectric constant tensor:
#      x y z
#    x 1.507840 0.000000 0.000000 
#    y 0.000000 1.537950 0.000000 
#    z 0.000000 0.000000 1.527600 
# 
# From -- ./inp_files/27387.got.cif
#   From: 2010.03.12/outbox.cif.g09.slc.cpg/sg47_14_cif.got.tgz:27387.got - 2010.04.14 03:12:58.
