data_PCOD8200789
_publ_section_title
;
Structure prediction by ZEFSAII (Michael W. Deem and Ramdas Pophale) SiO2 
 PCOD8200789
Probable space group: P M M M
;
_chemical_formula_sum "Si O2"
_cell_formula_units_Z 52
_cell_length_a 9.576185
_cell_length_b 12.396395
_cell_length_c 30.751048
_cell_angle_alpha 90.000000
_cell_angle_beta 90.000000
_cell_angle_gamma 90.000000
_cell_volume 3650.462193
_symmetry_space_group_name_H-M "P M M M"
_symmetry_group_IT_number 47
_symmetry_cell_setting 'orthorhombic'
loop_
_space_group_symop_operation_xyz
x,y,z
-x,-y,z
x,-y,-z
-x,y,-z
-x,-y,-z
x,y,-z
-x,y,z
x,-y,z
loop_
_atom_site_type_symbol
_atom_site_label
_atom_site_fract_x
_atom_site_fract_y
_atom_site_fract_z
Si Si1 0.157138 0.128273 0.720647
Si Si2 0.160369 0.876282 0.879952
Si Si3 0.657741 0.871565 0.798862
Si Si4 0.839581 0.299861 0.949957
Si Si5 0.843925 0.128292 0.375603
Si Si6 0.343555 0.871714 0.452173
Si Si7 0.341568 0.500000 0.051686
O O1 0.263945 0.175873 0.756301
O O2 0.208032 0.164449 0.672434
O O3 0.000000 0.171321 0.729606
O O4 0.155002 0.000000 0.723557
O O5 0.258707 0.832867 0.841393
O O6 0.191933 0.807882 0.922975
O O7 0.000000 0.863821 0.864683
O O8 0.194630 0.000000 0.891527
O O9 0.500000 0.825888 0.800233
O O10 0.656561 0.000000 0.796903
O O11 0.740230 0.394364 0.931685
O O12 0.000000 0.337406 0.944594
O O13 0.805774 0.272808 0.000000
O O14 0.748924 0.179659 0.413596
O O15 0.000000 0.171136 0.383276
O O16 0.841040 0.000000 0.378482
O O17 0.286446 0.837212 0.500000
O O18 0.500000 0.827829 0.446077
O O19 0.342808 0.000000 0.448774
O O20 0.500000 0.500000 0.069860
O O21 0.340596 0.500000 0.000000
#
# Coordination Sequence:
#
# PCOD8200789 Si02
#       7
#     8   8   8   8   8   8   4
#     4   8  13  21  31  41  54  72  95 125 160 196
#     4   9  17  28  41  57  78 103 126 148 179 218
#     4   9  16  24  34  48  65  86 112 139 166 200
#     4   9  17  29  45  63  81 101 126 155 183 213
#     4   8  13  19  26  36  47  60  82 113 148 186
#     4   8  13  19  24  30  42  60  80 104 139 184
#     4   9  17  29  45  63  81 101 125 153 185 217
#
# _framework density 14.244771999999999
#
# number of rings (size 3 to 8) (size 9 to 14) (size 15 to 20)
#    0.000    3.462    0.000    2.077    0.000    4.615 
#    0.000    6.154    0.000    0.000    0.000    4.308 
#    0.000    0.000    0.000    0.000    0.000    0.000 
#
# Total GULP energy -644401.354035 kJ/mol
# GULP energy per Si atom -12392.333731 kJ/mol
# Density = 1.421235 g / cm^3
# Si number density = 14.244772 Si / 1000 Ang^3
#
#
#
# Elastic Constant Matrix: (Units=GPa)
#
#
# Indices 1 2 3 4 5 6 
#
# 1 95.6756 25.7021 68.6689 0.0000 0.0000 0.0000
# 2 25.7021 29.2987 28.1521 0.0000 0.0000 0.0000
# 3 68.6689 28.1521 115.5500 0.0000 0.0000 0.0000
# 4 0.0000 0.0000 0.0000 0.7787 0.0000 0.0000
# 5 0.0000 0.0000 0.0000 0.0000 22.8143 0.0000
# 6 0.0000 0.0000 0.0000 0.0000 0.0000 8.3863
#
#
#
# Elastic Compliance Matrix: (Units=1/GPa)
#
#
# Indices 1 2 3 4 5 6 
#
# 1 0.019501 -0.007797 -0.009689 0.000000 0.000000 0.000000
# 2 -0.007797 0.047681 -0.006983 0.000000 0.000000 0.000000
# 3 -0.009689 -0.006983 0.016114 0.000000 0.000000 0.000000
# 4 0.000000 0.000000 0.000000 1.284166 0.000000 0.000000
# 5 0.000000 0.000000 0.000000 0.000000 0.043832 0.000000
# 6 0.000000 0.000000 0.000000 0.000000 0.000000 0.119242
#
#
# Mechanical properties :
#
#
# Convention : Reuss Voigt Hill
#
# Bulk Modulus (GPa) = 29.10647 53.95228 41.52938
# Shear Modulus (GPa) = 3.14282 14.26260 8.70271
#
# Velocity S-wave (km/s) = 1.48697 3.16769 2.47440
# Velocity P-wave (km/s) = 4.84000 7.16494 6.11400
#
# Compressibility (1/GPa) = 0.03435662
#
# Stress axis : x y z
#
# Youngs Moduli (GPa) = 51.27987 20.97278 62.05854
#
# Poissons Ratio (x) = 0.16352 0.60131
# Poissons Ratio (y) = 0.39982 0.43337
# Poissons Ratio (z) = 0.49687 0.14646
#
# Static dielectric constant tensor:
#      x y z
#    x 3.038540 0.000000 0.000000 
#    y 0.000000 2.172890 0.000000 
#    z 0.000000 0.000000 2.996890 
# 
# 
# High freq. dielectric constant tensor:
#      x y z
#    x 1.551440 0.000000 0.000000 
#    y 0.000000 1.457730 0.000000 
#    z 0.000000 0.000000 1.549930 
# 
# From -- ./inp_files/34288.got.cif
#   From: 2010.03.12/outbox.cif.g09.slc.cpg/sg47_18_cif.got.tgz:34288.got - 2010.04.14 03:12:58.
