data_PCOD8200938
_publ_section_title
;
Structure prediction by ZEFSAII (Michael W. Deem and Ramdas Pophale) SiO2 
 PCOD8200938
Probable space group: P M M M
;
_chemical_formula_sum "Si O2"
_cell_formula_units_Z 36
_cell_length_a 25.142205
_cell_length_b 7.817009
_cell_length_c 9.458243
_cell_angle_alpha 90.000000
_cell_angle_beta 90.000000
_cell_angle_gamma 90.000000
_cell_volume 1858.893217
_symmetry_space_group_name_H-M "P M M M"
_symmetry_group_IT_number 47
_symmetry_cell_setting 'orthorhombic'
loop_
_space_group_symop_operation_xyz
x,y,z
-x,-y,z
x,-y,-z
-x,y,-z
-x,-y,-z
x,y,-z
-x,y,z
x,-y,z
loop_
_atom_site_type_symbol
_atom_site_label
_atom_site_fract_x
_atom_site_fract_y
_atom_site_fract_z
Si Si1 0.630218 0.689577 0.667722
Si Si2 0.255268 0.797178 0.339510
Si Si3 0.058914 0.796558 0.341407
Si Si4 0.559960 0.000000 0.331032
Si Si5 0.844069 0.795888 0.159263
O O1 0.631366 0.707441 0.500000
O O2 0.611175 0.500000 0.714517
O O3 0.689983 0.721455 0.723220
O O4 0.589601 0.830982 0.728844
O O5 0.245096 0.734787 0.500000
O O6 0.207440 0.727755 0.242823
O O7 0.259493 0.000000 0.334660
O O8 0.071106 0.730549 0.500000
O O9 0.103008 0.721980 0.234772
O O10 0.000000 0.734777 0.293737
O O11 0.061151 0.000000 0.340485
O O12 0.500000 0.000000 0.272155
O O13 0.560048 0.000000 0.500000
O O14 0.844793 0.000000 0.160570
O O15 0.842395 0.724628 0.000000
#
# Coordination Sequence:
#
# PCOD8200938 Si02
#       5
#     8   8   8   4   8
#     4   9  16  26  41  62  88 120 159 197 233 278
#     4   9  15  25  41  57  79 114 152 189 231 280
#     4   8  13  21  32  47  72 109 151 191 232 282
#     4   9  16  26  40  62  95 129 158 191 234 281
#     4   9  16  23  33  53  79 108 146 192 240 286
#
# _framework density 19.366363
#
# number of rings (size 3 to 8) (size 9 to 14) (size 15 to 20)
#    0.000    3.222    1.111    1.333    0.000    3.556 
#    0.000    4.444    0.000    0.667    0.000    0.000 
#    0.000    2.667    0.000   12.222    0.000   15.333 
#
# Total GULP energy -446200.082618 kJ/mol
# GULP energy per Si atom -12394.446739 kJ/mol
# Density = 1.932228 g / cm^3
# Si number density = 19.366363 Si / 1000 Ang^3
#
#
#
# Elastic Constant Matrix: (Units=GPa)
#
#
# Indices 1 2 3 4 5 6 
#
# 1 194.4434 56.1515 68.8624 0.0000 0.0000 0.0000
# 2 56.1515 66.7941 19.3230 0.0000 0.0000 0.0000
# 3 68.8624 19.3230 82.3020 0.0000 0.0000 0.0000
# 4 0.0000 0.0000 0.0000 1.3085 0.0000 0.0000
# 5 0.0000 0.0000 0.0000 0.0000 5.8541 0.0000
# 6 0.0000 0.0000 0.0000 0.0000 0.0000 2.2081
#
#
#
# Elastic Compliance Matrix: (Units=1/GPa)
#
#
# Indices 1 2 3 4 5 6 
#
# 1 0.008997 -0.005778 -0.006171 0.000000 0.000000 0.000000
# 2 -0.005778 0.019773 0.000192 0.000000 0.000000 0.000000
# 3 -0.006171 0.000192 0.017269 0.000000 0.000000 0.000000
# 4 0.000000 0.000000 0.000000 0.764257 0.000000 0.000000
# 5 0.000000 0.000000 0.000000 0.000000 0.170822 0.000000
# 6 0.000000 0.000000 0.000000 0.000000 0.000000 0.452878
#
#
# Mechanical properties :
#
#
# Convention : Reuss Voigt Hill
#
# Bulk Modulus (GPa) = 44.39575 70.24592 57.32084
# Shear Modulus (GPa) = 3.41293 15.15430 9.28361
#
# Velocity S-wave (km/s) = 1.32896 2.80037 2.19182
# Velocity P-wave (km/s) = 5.03277 6.84156 6.00565
#
# Compressibility (1/GPa) = 0.02252468
#
# Stress axis : x y z
#
# Youngs Moduli (GPa) = 111.14693 50.57312 57.90808
#
# Poissons Ratio (x) = 0.29222 0.35737
# Poissons Ratio (y) = 0.64224 -0.01113
# Poissons Ratio (z) = 0.68592 -0.00972
#
# Static dielectric constant tensor:
#      x y z
#    x 3.809260 0.000000 0.000000 
#    y 0.000000 3.198470 0.000000 
#    z 0.000000 0.000000 3.240490 
# 
# 
# High freq. dielectric constant tensor:
#      x y z
#    x 1.762190 0.000000 0.000000 
#    y 0.000000 1.725140 0.000000 
#    z 0.000000 0.000000 1.699480 
# 
# From -- ./inp_files/12069.got.cif
#   From: 2010.03.12/outbox.cif.g09.slc.cpg/sg47_7_cif.got.tgz:12069.got - 2010.04.14 03:12:58.
