data_PCOD8200379
_publ_section_title
;
Structure prediction by ZEFSAII (Michael W. Deem and Ramdas Pophale) SiO2 
 PCOD8200379
Probable space group: P M M M
;
_chemical_formula_sum "Si O2"
_cell_formula_units_Z 40
_cell_length_a 11.574137
_cell_length_b 23.597249
_cell_length_c 9.098807
_cell_angle_alpha 90.000000
_cell_angle_beta 90.000000
_cell_angle_gamma 90.000000
_cell_volume 2485.046084
_symmetry_space_group_name_H-M "P M M M"
_symmetry_group_IT_number 47
_symmetry_cell_setting 'orthorhombic'
loop_
_space_group_symop_operation_xyz
x,y,z
-x,-y,z
x,-y,-z
-x,y,-z
-x,-y,-z
x,y,-z
-x,y,z
x,-y,z
loop_
_atom_site_type_symbol
_atom_site_label
_atom_site_fract_x
_atom_site_fract_y
_atom_site_fract_z
Si Si1 0.628214 0.790848 0.674470
Si Si2 0.362762 0.561599 0.164576
Si Si3 0.637549 0.332309 0.337559
Si Si4 0.000000 0.067112 0.172006
Si Si5 0.636728 0.000000 0.831552
Si Si6 0.766430 0.900240 0.324368
O O1 0.619940 0.786499 0.500000
O O2 0.500000 0.805777 0.736277
O O3 0.669866 0.729013 0.734126
O O4 0.718888 0.838648 0.721704
O O5 0.500000 0.567077 0.164911
O O6 0.327863 0.500000 0.233402
O O7 0.307479 0.614788 0.250055
O O8 0.314816 0.564757 0.000000
O O9 0.690312 0.336576 0.500000
O O10 0.500000 0.336963 0.342960
O O11 0.890972 0.094065 0.252354
O O12 0.000000 0.000000 0.195746
O O13 0.000000 0.082720 0.000000
O O14 0.679969 0.945411 0.744955
O O15 0.500000 0.000000 0.830841
O O16 0.684326 0.000000 0.000000
O O17 0.772810 0.908650 0.500000
#
# Coordination Sequence:
#
# PCOD8200379 Si02
#       6
#     8   8   8   4   4   8
#     4   8  15  28  45  67  93 116 141 181 228 265
#     4   8  13  20  29  44  70 104 142 182 216 243
#     4   8  13  22  36  53  76 107 140 173 212 257
#     4  11  23  39  55  69  94 122 143 180 235 280
#     4  11  23  36  49  70 101 127 145 175 224 271
#     4  11  21  34  55  75  90 114 154 192 222 266
#
# _framework density 16.09628
#
# number of rings (size 3 to 8) (size 9 to 14) (size 15 to 20)
#    0.000    2.800    1.000    3.600    0.000    2.400 
#    0.000    4.000    0.000    4.800    0.000    0.000 
#    0.000    0.000    0.000    0.900    0.000   19.200 
#
# Total GULP energy -495627.938636 kJ/mol
# GULP energy per Si atom -12390.698466 kJ/mol
# Density = 1.605964 g / cm^3
# Si number density = 16.096280 Si / 1000 Ang^3
#
#
#
# Elastic Constant Matrix: (Units=GPa)
#
#
# Indices 1 2 3 4 5 6 
#
# 1 61.5624 48.5863 31.4003 0.0000 0.0000 0.0000
# 2 48.5863 172.6745 61.7145 0.0000 0.0000 0.0000
# 3 31.4003 61.7145 78.0995 0.0000 0.0000 0.0000
# 4 0.0000 0.0000 0.0000 7.7969 0.0000 0.0000
# 5 0.0000 0.0000 0.0000 0.0000 22.7487 0.0000
# 6 0.0000 0.0000 0.0000 0.0000 0.0000 0.8934
#
#
#
# Elastic Compliance Matrix: (Units=1/GPa)
#
#
# Indices 1 2 3 4 5 6 
#
# 1 0.022535 -0.004324 -0.005644 0.000000 0.000000 0.000000
# 2 -0.004324 0.008900 -0.005295 0.000000 0.000000 0.000000
# 3 -0.005644 -0.005295 0.019257 0.000000 0.000000 0.000000
# 4 0.000000 0.000000 0.000000 0.128257 0.000000 0.000000
# 5 0.000000 0.000000 0.000000 0.000000 0.043959 0.000000
# 6 0.000000 0.000000 0.000000 0.000000 0.000000 1.119347
#
#
# Mechanical properties :
#
#
# Convention : Reuss Voigt Hill
#
# Bulk Modulus (GPa) = 49.58329 66.19320 57.88824
# Shear Modulus (GPa) = 3.62450 17.66347 10.64398
#
# Velocity S-wave (km/s) = 1.50222 3.31624 2.57431
# Velocity P-wave (km/s) = 5.82065 7.47501 6.69910
#
# Compressibility (1/GPa) = 0.02016809
#
# Stress axis : x y z
#
# Youngs Moduli (GPa) = 44.37635 112.35833 51.92916
#
# Poissons Ratio (x) = 0.48579 0.29307
# Poissons Ratio (y) = 0.19187 0.27494
# Poissons Ratio (z) = 0.25044 0.59489
#
# Static dielectric constant tensor:
#      x y z
#    x 2.642710 0.000000 0.000000 
#    y 0.000000 3.569990 0.000000 
#    z 0.000000 0.000000 3.115750 
# 
# 
# High freq. dielectric constant tensor:
#      x y z
#    x 1.559660 0.000000 0.000000 
#    y 0.000000 1.637220 0.000000 
#    z 0.000000 0.000000 1.608630 
# 
# From -- ./inp_files/4417.got.cif
#   From: 2010.03.12/outbox.cif.g09.slc.cpg/sg47_3_cif.got.tgz:4417.got - 2010.04.14 03:12:58.
