data_PCOD8200134
_publ_section_title
;
Structure prediction by ZEFSAII (Michael W. Deem and Ramdas Pophale) SiO2 
 PCOD8200134
Probable space group: P M M M
;
_chemical_formula_sum "Si O2"
_cell_formula_units_Z 48
_cell_length_a 29.310950
_cell_length_b 8.784686
_cell_length_c 9.662820
_cell_angle_alpha 90.000000
_cell_angle_beta 90.000000
_cell_angle_gamma 90.000000
_cell_volume 2488.055289
_symmetry_space_group_name_H-M "P M M M"
_symmetry_group_IT_number 47
_symmetry_cell_setting 'orthorhombic'
loop_
_space_group_symop_operation_xyz
x,y,z
-x,-y,z
x,-y,-z
-x,y,-z
-x,-y,-z
x,y,-z
-x,y,z
x,-y,z
loop_
_atom_site_type_symbol
_atom_site_label
_atom_site_fract_x
_atom_site_fract_y
_atom_site_fract_z
Si Si1 0.052693 0.331352 0.500000
Si Si2 0.100302 0.820838 0.743373
Si Si3 0.195100 0.678010 0.340196
Si Si4 0.640676 0.821045 0.343891
Si Si5 0.549536 0.671681 0.664275
Si Si6 0.274505 0.179699 0.162051
Si Si7 0.051940 0.679751 0.000000
O O1 0.077144 0.500000 0.500000
O O2 0.064945 0.227878 0.371845
O O3 0.000000 0.363904 0.500000
O O4 0.150631 0.771373 0.700632
O O5 0.082514 0.733825 0.875088
O O6 0.099475 0.000000 0.768987
O O7 0.208255 0.714136 0.500000
O O8 0.185859 0.500000 0.319366
O O9 0.234246 0.730540 0.236334
O O10 0.648992 0.754534 0.500000
O O11 0.591918 0.770216 0.280547
O O12 0.679369 0.764733 0.237970
O O13 0.640699 0.000000 0.352480
O O14 0.549463 0.677390 0.500000
O O15 0.500000 0.733715 0.717571
O O16 0.556267 0.500000 0.717099
O O17 0.266685 0.000000 0.180749
O O18 0.276745 0.223705 0.000000
O O19 0.048329 0.500000 0.000000
O O20 0.000000 0.747359 0.000000
#
# Coordination Sequence:
#
# PCOD8200134 Si02
#       7
#     4   8   8   8   8   8   4
#     4  11  23  41  65  93 127 163 199 241 292 347
#     4  12  25  41  65  94 124 159 200 246 293 346
#     4  11  24  42  64  88 117 152 193 240 293 352
#     4   9  17  30  50  77 108 143 183 232 286 340
#     4   8  14  25  43  70 104 140 179 227 281 335
#     4  10  22  39  59  83 114 150 190 237 291 350
#     4  11  25  45  67  91 125 167 203 241 292 347
#
# _framework density 19.292176999999999
#
# number of rings (size 3 to 8) (size 9 to 14) (size 15 to 20)
#    0.000    1.833    0.833    4.000    1.167    6.333 
#    0.000    3.333    0.000    0.500    0.000    3.500 
#    0.000    0.000    0.000    0.000    0.000    0.000 
#
# Total GULP energy -594989.923838 kJ/mol
# GULP energy per Si atom -12395.623413 kJ/mol
# Density = 1.924827 g / cm^3
# Si number density = 19.292177 Si / 1000 Ang^3
#
#
#
# Elastic Constant Matrix: (Units=GPa)
#
#
# Indices 1 2 3 4 5 6 
#
# 1 119.4419 33.4021 48.0577 0.0000 0.0000 0.0000
# 2 33.4021 59.4131 27.2194 0.0000 0.0000 0.0000
# 3 48.0577 27.2194 117.5266 0.0000 0.0000 0.0000
# 4 0.0000 0.0000 0.0000 34.7768 0.0000 0.0000
# 5 0.0000 0.0000 0.0000 0.0000 35.8387 0.0000
# 6 0.0000 0.0000 0.0000 0.0000 0.0000 43.9688
#
#
#
# Elastic Compliance Matrix: (Units=1/GPa)
#
#
# Indices 1 2 3 4 5 6 
#
# 1 0.011056 -0.004636 -0.003447 0.000000 0.000000 0.000000
# 2 -0.004636 0.020774 -0.002915 0.000000 0.000000 0.000000
# 3 -0.003447 -0.002915 0.010593 0.000000 0.000000 0.000000
# 4 0.000000 0.000000 0.000000 0.028755 0.000000 0.000000
# 5 0.000000 0.000000 0.000000 0.000000 0.027903 0.000000
# 6 0.000000 0.000000 0.000000 0.000000 0.000000 0.022743
#
#
# Mechanical properties :
#
#
# Convention : Reuss Voigt Hill
#
# Bulk Modulus (GPa) = 48.95891 57.08219 53.02055
# Shear Modulus (GPa) = 33.19403 35.43035 34.31219
#
# Velocity S-wave (km/s) = 4.15251 4.29011 4.22187
# Velocity P-wave (km/s) = 6.95872 7.36156 7.16297
#
# Compressibility (1/GPa) = 0.02042529
#
# Stress axis : x y z
#
# Youngs Moduli (GPa) = 90.45075 48.13825 94.39818
#
# Poissons Ratio (x) = 0.22319 0.32539
# Poissons Ratio (y) = 0.41936 0.27520
# Poissons Ratio (z) = 0.31178 0.14034
#
# Static dielectric constant tensor:
#      x y z
#    x 3.597220 0.000000 0.000000 
#    y 0.000000 3.550710 0.000000 
#    z 0.000000 0.000000 3.424230 
# 
# 
# High freq. dielectric constant tensor:
#      x y z
#    x 1.767050 0.000000 0.000000 
#    y 0.000000 1.748540 0.000000 
#    z 0.000000 0.000000 1.736430 
# 
# From -- ./inp_files/2804.got.cif
#   From: 2010.03.12/outbox.cif.g09.slc.cpg/sg47_2_cif.got.tgz:2804.got - 2010.04.14 03:12:58.
