data_PCOD8200050
_publ_section_title
;
Structure prediction by ZEFSAII (Michael W. Deem and Ramdas Pophale) SiO2 
 PCOD8200050
Probable space group: P M M M
;
_chemical_formula_sum "Si O2"
_cell_formula_units_Z 44
_cell_length_a 31.155337
_cell_length_b 9.388606
_cell_length_c 7.729941
_cell_angle_alpha 90.000000
_cell_angle_beta 90.000000
_cell_angle_gamma 90.000000
_cell_volume 2261.047814
_symmetry_space_group_name_H-M "P M M M"
_symmetry_group_IT_number 47
_symmetry_cell_setting 'orthorhombic'
loop_
_space_group_symop_operation_xyz
x,y,z
-x,-y,z
x,-y,-z
-x,y,-z
-x,-y,-z
x,y,-z
-x,y,z
x,-y,z
loop_
_atom_site_type_symbol
_atom_site_label
_atom_site_fract_x
_atom_site_fract_y
_atom_site_fract_z
Si Si1 0.704660 0.837584 0.307818
Si Si2 0.000000 0.840183 0.704700
Si Si3 0.373068 0.660203 0.196172
Si Si4 0.852585 0.664567 0.000000
Si Si5 0.548494 0.161293 0.703492
Si Si6 0.917794 0.664963 0.699266
Si Si7 0.765040 0.168096 0.000000
O O1 0.724849 0.825840 0.500000
O O2 0.661188 0.747057 0.307551
O O3 0.692140 0.000000 0.262657
O O4 0.739325 0.780916 0.170362
O O5 0.957802 0.757209 0.767380
O O6 0.000000 0.844937 0.500000
O O7 0.000000 0.000000 0.782451
O O8 0.376233 0.500000 0.269664
O O9 0.419752 0.731213 0.202159
O O10 0.356751 0.659689 0.000000
O O11 0.878515 0.702029 0.174634
O O12 0.839250 0.500000 0.000000
O O13 0.810629 0.758719 0.000000
O O14 0.554881 0.175473 0.500000
O O15 0.500000 0.202300 0.756309
O O16 0.558527 0.000000 0.762798
O O17 0.905284 0.701773 0.500000
O O18 0.930919 0.500000 0.715741
O O19 0.772452 0.000000 0.000000
#
# Coordination Sequence:
#
# PCOD8200050 Si02
#       7
#     8   4   8   4   8   8   4
#     4  10  21  39  63  86 108 141 184 226 274 335
#     4   9  17  30  51  80 111 143 184 233 277 318
#     4  11  23  36  53  81 115 146 179 224 276 328
#     4  10  22  37  55  80 109 143 185 228 268 327
#     4   9  19  36  56  78 106 143 187 229 269 321
#     4   9  18  34  54  76 107 148 188 225 270 322
#     4  10  22  40  59  83 113 141 175 226 282 332
#
# _framework density 19.460004000000001
#
# number of rings (size 3 to 8) (size 9 to 14) (size 15 to 20)
#    0.000    2.273    0.909    1.909    0.000    8.364 
#    0.000    4.545    0.000    0.000    0.000    0.000 
#    0.000    0.000    0.000    0.000    0.000    0.000 
#
# Total GULP energy -545651.016540 kJ/mol
# GULP energy per Si atom -12401.159467 kJ/mol
# Density = 1.941571 g / cm^3
# Si number density = 19.460004 Si / 1000 Ang^3
#
#
#
# Elastic Constant Matrix: (Units=GPa)
#
#
# Indices 1 2 3 4 5 6 
#
# 1 141.1978 73.6657 52.9780 0.0000 0.0000 0.0000
# 2 73.6657 101.8006 36.5622 0.0000 0.0000 0.0000
# 3 52.9780 36.5622 98.1252 0.0000 0.0000 0.0000
# 4 0.0000 0.0000 0.0000 16.6124 0.0000 0.0000
# 5 0.0000 0.0000 0.0000 0.0000 24.3984 0.0000
# 6 0.0000 0.0000 0.0000 0.0000 0.0000 23.6771
#
#
#
# Elastic Compliance Matrix: (Units=1/GPa)
#
#
# Indices 1 2 3 4 5 6 
#
# 1 0.012560 -0.007681 -0.003919 0.000000 0.000000 0.000000
# 2 -0.007681 0.016038 -0.001829 0.000000 0.000000 0.000000
# 3 -0.003919 -0.001829 0.012988 0.000000 0.000000 0.000000
# 4 0.000000 0.000000 0.000000 0.060196 0.000000 0.000000
# 5 0.000000 0.000000 0.000000 0.000000 0.040986 0.000000
# 6 0.000000 0.000000 0.000000 0.000000 0.000000 0.042235
#
#
# Mechanical properties :
#
#
# Convention : Reuss Voigt Hill
#
# Bulk Modulus (GPa) = 67.89614 74.17059 71.03336
# Shear Modulus (GPa) = 23.06562 24.79875 23.93219
#
# Velocity S-wave (km/s) = 3.44653 3.57367 3.51067
# Velocity P-wave (km/s) = 7.12769 7.43137 7.28111
#
# Compressibility (1/GPa) = 0.01472838
#
# Stress axis : x y z
#
# Youngs Moduli (GPa) = 79.61609 62.35034 76.99126
#
# Poissons Ratio (x) = 0.47894 0.30174
# Poissons Ratio (y) = 0.61156 0.14080
# Poissons Ratio (z) = 0.31203 0.11403
#
# Static dielectric constant tensor:
#      x y z
#    x 3.377860 0.000000 0.000000 
#    y 0.000000 3.600200 0.000000 
#    z 0.000000 0.000000 3.599840 
# 
# 
# High freq. dielectric constant tensor:
#      x y z
#    x 1.746010 0.000000 0.000000 
#    y 0.000000 1.753270 0.000000 
#    z 0.000000 0.000000 1.762990 
# 
# From -- ./inp_files/13713.got.cif
#   From: 2010.03.12/outbox.cif.g09.slc.cpg/sg47_7_cif.got.tgz:13713.got - 2010.04.14 03:12:58.
