data_PCOD8200071
_publ_section_title
;
Structure prediction by ZEFSAII (Michael W. Deem and Ramdas Pophale) SiO2 
 PCOD8200071
Probable space group: P M M M
;
_chemical_formula_sum "Si O2"
_cell_formula_units_Z 48
_cell_length_a 15.415041
_cell_length_b 17.624896
_cell_length_c 8.637636
_cell_angle_alpha 90.000000
_cell_angle_beta 90.000000
_cell_angle_gamma 90.000000
_cell_volume 2346.746321
_symmetry_space_group_name_H-M "P M M M"
_symmetry_group_IT_number 47
_symmetry_cell_setting 'orthorhombic'
loop_
_space_group_symop_operation_xyz
x,y,z
-x,-y,z
x,-y,-z
-x,y,-z
-x,-y,-z
x,y,-z
-x,y,z
x,-y,z
loop_
_atom_site_type_symbol
_atom_site_label
_atom_site_fract_x
_atom_site_fract_y
_atom_site_fract_z
Si Si1 0.852604 0.817509 0.180842
Si Si2 0.903067 0.663349 0.677740
Si Si3 0.000000 0.089378 0.674756
Si Si4 0.597136 0.000000 0.817565
Si Si5 0.743464 0.413926 0.180452
Si Si6 0.669265 0.848030 0.680315
Si Si7 0.597164 0.702452 0.179274
O O1 0.896914 0.737301 0.215222
O O2 0.764877 0.821463 0.276655
O O3 0.914974 0.884836 0.233986
O O4 0.832556 0.825251 0.000000
O O5 0.886480 0.686352 0.500000
O O6 0.832448 0.601567 0.728787
O O7 0.000000 0.629007 0.698511
O O8 0.000000 0.123046 0.500000
O O9 0.000000 0.000000 0.669533
O O10 0.647962 0.925788 0.765438
O O11 0.500000 0.000000 0.746923
O O12 0.592948 0.000000 0.000000
O O13 0.714496 0.500000 0.213224
O O14 0.666146 0.359525 0.240850
O O15 0.760855 0.399848 0.000000
O O16 0.661222 0.863238 0.500000
O O17 0.604146 0.781076 0.728470
O O18 0.500000 0.670043 0.203909
O O19 0.615180 0.720185 0.000000
#
# Coordination Sequence:
#
# PCOD8200071 Si02
#       7
#     8   8   4   4   8   8   8
#     4  12  24  40  64  91 123 164 212 260 309 371
#     4  11  23  40  64  92 125 164 209 260 317 379
#     4  11  25  43  63  91 130 167 208 259 314 374
#     4  11  25  45  67  92 125 164 209 261 315 375
#     4  10  22  40  63  93 129 169 215 265 318 381
#     4  12  25  41  64  93 128 166 210 262 318 378
#     4  10  21  39  64  93 127 168 215 263 315 381
#
# _framework density 20.453849999999999
#
# number of rings (size 3 to 8) (size 9 to 14) (size 15 to 20)
#    0.000    1.000    2.500    4.500    1.167    5.667 
#    0.000    3.333    0.000    0.000    0.000    2.333 
#    0.000    0.000    0.000    0.000    0.000    0.000 
#
# Total GULP energy -595461.770716 kJ/mol
# GULP energy per Si atom -12405.453557 kJ/mol
# Density = 2.040730 g / cm^3
# Si number density = 20.453850 Si / 1000 Ang^3
#
#
#
# Elastic Constant Matrix: (Units=GPa)
#
#
# Indices 1 2 3 4 5 6 
#
# 1 128.1735 41.3703 27.3916 0.0000 0.0000 0.0000
# 2 41.3703 114.4336 29.8966 0.0000 0.0000 0.0000
# 3 27.3916 29.8966 76.4265 0.0000 0.0000 0.0000
# 4 0.0000 0.0000 0.0000 19.1653 0.0000 0.0000
# 5 0.0000 0.0000 0.0000 0.0000 20.0570 0.0000
# 6 0.0000 0.0000 0.0000 0.0000 0.0000 31.3897
#
#
#
# Elastic Compliance Matrix: (Units=1/GPa)
#
#
# Indices 1 2 3 4 5 6 
#
# 1 0.009157 -0.002732 -0.002213 0.000000 0.000000 0.000000
# 2 -0.002732 0.010549 -0.003147 0.000000 0.000000 0.000000
# 3 -0.002213 -0.003147 0.015109 0.000000 0.000000 0.000000
# 4 0.000000 0.000000 0.000000 0.052178 0.000000 0.000000
# 5 0.000000 0.000000 0.000000 0.000000 0.049858 0.000000
# 6 0.000000 0.000000 0.000000 0.000000 0.000000 0.031858
#
#
# Mechanical properties :
#
#
# Convention : Reuss Voigt Hill
#
# Bulk Modulus (GPa) = 53.67893 57.37231 55.52562
# Shear Modulus (GPa) = 26.16407 28.81408 27.48908
#
# Velocity S-wave (km/s) = 3.58044 3.75739 3.66998
# Velocity P-wave (km/s) = 6.58738 6.85087 6.72042
#
# Compressibility (1/GPa) = 0.01862928
#
# Stress axis : x y z
#
# Youngs Moduli (GPa) = 109.20931 94.79872 66.18680
#
# Poissons Ratio (x) = 0.25901 0.14647
# Poissons Ratio (y) = 0.29838 0.20830
# Poissons Ratio (z) = 0.24168 0.29835
#
# Static dielectric constant tensor:
#      x y z
#    x 3.936000 0.000000 0.000000 
#    y 0.000000 3.614110 0.000000 
#    z 0.000000 0.000000 3.782530 
# 
# 
# High freq. dielectric constant tensor:
#      x y z
#    x 1.813410 0.000000 0.000000 
#    y 0.000000 1.795860 0.000000 
#    z 0.000000 0.000000 1.801460 
# 
# From -- ./inp_files/6539.got.cif
#   From: 2010.03.12/outbox.cif.g09.slc.cpg/sg47_4_cif.got.tgz:6539.got - 2010.04.14 03:12:58.
