data_PCOD8200914
_publ_section_title
;
Structure prediction by ZEFSAII (Michael W. Deem and Ramdas Pophale) SiO2 
 PCOD8200914
Probable space group: P M M M
;
_chemical_formula_sum "Si O2"
_cell_formula_units_Z 52
_cell_length_a 10.184473
_cell_length_b 13.372118
_cell_length_c 24.249605
_cell_angle_alpha 90.000000
_cell_angle_beta 90.000000
_cell_angle_gamma 90.000000
_cell_volume 3302.504593
_symmetry_space_group_name_H-M "P M M M"
_symmetry_group_IT_number 47
_symmetry_cell_setting 'orthorhombic'
loop_
_space_group_symop_operation_xyz
x,y,z
-x,-y,z
x,-y,-z
-x,y,-z
-x,-y,-z
x,y,-z
-x,y,z
x,-y,z
loop_
_atom_site_type_symbol
_atom_site_label
_atom_site_fract_x
_atom_site_fract_y
_atom_site_fract_z
Si Si1 0.156042 0.611022 0.062643
Si Si2 0.154983 0.194778 0.875603
Si Si3 0.150688 0.117550 0.242283
Si Si4 0.355438 0.883113 0.331410
Si Si5 0.144425 0.610230 0.434692
Si Si6 0.649849 0.769767 0.437641
Si Si7 0.156462 0.000000 0.937370
O O1 0.205858 0.500000 0.081587
O O2 0.213523 0.699686 0.101668
O O3 0.000000 0.612146 0.065322
O O4 0.202295 0.631856 0.000000
O O5 0.189965 0.181405 0.811418
O O6 0.000000 0.194910 0.884378
O O7 0.214114 0.100051 0.908787
O O8 0.243294 0.159837 0.291113
O O9 0.000000 0.137000 0.259490
O O10 0.172109 0.000000 0.229799
O O11 0.500000 0.840247 0.315111
O O12 0.326668 0.860810 0.395747
O O13 0.354761 0.000000 0.324623
O O14 0.151235 0.603843 0.500000
O O15 0.168060 0.500000 0.409536
O O16 0.259148 0.681867 0.413559
O O17 0.000000 0.649833 0.416493
O O18 0.689421 0.802877 0.500000
O O19 0.500000 0.731738 0.436880
O O20 0.000000 0.000000 0.932410
O O21 0.204541 0.000000 0.000000
#
# Coordination Sequence:
#
# PCOD8200914 Si02
#       7
#     8   8   8   8   8   8   4
#     4   8  13  20  30  47  75 111 143 166 197 247
#     4   9  14  21  33  51  76 105 135 169 206 243
#     4   9  16  27  42  59  79 104 138 177 212 247
#     4   9  18  31  45  61  83 111 142 174 209 255
#     4   8  14  25  41  61  85 111 135 160 196 246
#     4   9  17  28  43  64  86 107 135 173 215 257
#     4   9  14  18  28  50  79 105 126 157 206 252
#
# _framework density 15.745625
#
# number of rings (size 3 to 8) (size 9 to 14) (size 15 to 20)
#    0.000    3.308    0.769    1.385    0.000    3.077 
#    0.000    3.077    0.000    0.923    0.000    6.462 
#    0.000    3.077    0.000    1.692    0.000    1.538 
#
# Total GULP energy -644245.455937 kJ/mol
# GULP energy per Si atom -12389.335691 kJ/mol
# Density = 1.570979 g / cm^3
# Si number density = 15.745625 Si / 1000 Ang^3
#
#
#
# Elastic Constant Matrix: (Units=GPa)
#
#
# Indices 1 2 3 4 5 6 
#
# 1 50.3694 23.0309 43.1262 0.0000 0.0000 0.0000
# 2 23.0309 71.9244 50.0703 0.0000 0.0000 0.0000
# 3 43.1262 50.0703 99.4866 0.0000 0.0000 0.0000
# 4 0.0000 0.0000 0.0000 19.4257 0.0000 0.0000
# 5 0.0000 0.0000 0.0000 0.0000 9.9842 0.0000
# 6 0.0000 0.0000 0.0000 0.0000 0.0000 13.1601
#
#
#
# Elastic Compliance Matrix: (Units=1/GPa)
#
#
# Indices 1 2 3 4 5 6 
#
# 1 0.031608 -0.000897 -0.013250 0.000000 0.000000 0.000000
# 2 -0.000897 0.021427 -0.010395 0.000000 0.000000 0.000000
# 3 -0.013250 -0.010395 0.021027 0.000000 0.000000 0.000000
# 4 0.000000 0.000000 0.000000 0.051478 0.000000 0.000000
# 5 0.000000 0.000000 0.000000 0.000000 0.100158 0.000000
# 6 0.000000 0.000000 0.000000 0.000000 0.000000 0.075987
#
#
# Mechanical properties :
#
#
# Convention : Reuss Voigt Hill
#
# Bulk Modulus (GPa) = 40.03567 50.47059 45.25313
# Shear Modulus (GPa) = 13.92377 15.55087 14.73732
#
# Velocity S-wave (km/s) = 2.97693 3.14607 3.06267
# Velocity P-wave (km/s) = 6.10720 6.73204 6.42722
#
# Compressibility (1/GPa) = 0.02497773
#
# Stress axis : x y z
#
# Youngs Moduli (GPa) = 31.63713 46.66914 47.55722
#
# Poissons Ratio (x) = 0.04186 0.63015
# Poissons Ratio (y) = 0.02838 0.49437
# Poissons Ratio (z) = 0.41920 0.48514
#
# Static dielectric constant tensor:
#      x y z
#    x 2.879680 0.000000 0.000000 
#    y 0.000000 3.211070 0.000000 
#    z 0.000000 0.000000 2.944850 
# 
# 
# High freq. dielectric constant tensor:
#      x y z
#    x 1.564170 0.000000 0.000000 
#    y 0.000000 1.593590 0.000000 
#    z 0.000000 0.000000 1.590180 
# 
# From -- ./inp_files/30616.got.cif
#   From: 2010.03.12/outbox.cif.g09.slc.cpg/sg47_16_cif.got.tgz:30616.got - 2010.04.14 03:12:58.
