data_PCOD8200553
_publ_section_title
;
Structure prediction by ZEFSAII (Michael W. Deem and Ramdas Pophale) SiO2 
 PCOD8200553
Probable space group: P M M M
;
_chemical_formula_sum "Si O2"
_cell_formula_units_Z 52
_cell_length_a 32.478730
_cell_length_b 8.323817
_cell_length_c 11.834960
_cell_angle_alpha 90.000000
_cell_angle_beta 90.000000
_cell_angle_gamma 90.000000
_cell_volume 3199.545989
_symmetry_space_group_name_H-M "P M M M"
_symmetry_group_IT_number 47
_symmetry_cell_setting 'orthorhombic'
loop_
_space_group_symop_operation_xyz
x,y,z
-x,-y,z
x,-y,-z
-x,y,-z
-x,-y,-z
x,y,-z
-x,y,z
x,-y,z
loop_
_atom_site_type_symbol
_atom_site_label
_atom_site_fract_x
_atom_site_fract_y
_atom_site_fract_z
Si Si1 0.500000 0.187339 0.123677
Si Si2 0.093027 0.820731 0.865794
Si Si3 0.047165 0.500000 0.865896
Si Si4 0.425372 0.313766 0.266220
Si Si5 0.259696 0.177142 0.133879
Si Si6 0.546738 0.189390 0.500000
Si Si7 0.823213 0.677038 0.134125
Si Si8 0.649441 0.191055 0.129182
O O1 0.459292 0.231355 0.189757
O O2 0.500000 0.000000 0.107043
O O3 0.500000 0.270940 0.000000
O O4 0.067040 0.667377 0.818034
O O5 0.140600 0.797744 0.827542
O O6 0.078655 0.000000 0.822201
O O7 0.089174 0.818887 0.000000
O O8 0.000000 0.500000 0.827513
O O9 0.052419 0.500000 0.000000
O O10 0.434629 0.500000 0.268432
O O11 0.427721 0.247094 0.392350
O O12 0.380744 0.278828 0.215144
O O13 0.221477 0.276912 0.185410
O O14 0.304524 0.251409 0.162612
O O15 0.256664 0.000000 0.186672
O O16 0.255645 0.166095 0.000000
O O17 0.500000 0.259947 0.500000
O O18 0.544345 0.000000 0.500000
O O19 0.834856 0.500000 0.178043
O O20 0.820122 0.677792 0.000000
O O21 0.646113 0.000000 0.142180
O O22 0.638914 0.240196 0.000000
#
# Coordination Sequence:
#
# PCOD8200553 Si02
#       8
#     4   8   4   8   8   4   8   8
#     4  11  23  38  55  74  97 127 157 177 206 257
#     4   9  15  22  31  41  55  77 107 145 191 242
#     4   9  16  24  30  38  54  74 104 148 196 246
#     4  12  24  36  54  77 100 119 144 186 226 257
#     4   8  14  24  38  56  77 104 136 164 192 235
#     4  11  23  41  63  77  90 118 154 184 218 260
#     4   9  14  20  31  47  67  89 116 153 194 237
#     4   9  18  33  50  68  95 128 155 176 207 261
#
# _framework density 16.252303999999999
#
# number of rings (size 3 to 8) (size 9 to 14) (size 15 to 20)
#    0.000    2.385    1.538    3.692    0.000    5.846 
#    0.000    3.077    0.000    0.000    0.000    0.000 
#    0.000    0.000    0.000    0.000    0.000    0.000 
#
# Total GULP energy -644345.263576 kJ/mol
# GULP energy per Si atom -12391.255069 kJ/mol
# Density = 1.621531 g / cm^3
# Si number density = 16.252304 Si / 1000 Ang^3
#
#
#
# Elastic Constant Matrix: (Units=GPa)
#
#
# Indices 1 2 3 4 5 6 
#
# 1 112.8500 44.9049 25.3566 0.0000 0.0000 0.0000
# 2 44.9049 96.7761 17.7780 0.0000 0.0000 0.0000
# 3 25.3566 17.7780 54.8054 0.0000 0.0000 0.0000
# 4 0.0000 0.0000 0.0000 14.1749 0.0000 0.0000
# 5 0.0000 0.0000 0.0000 0.0000 -5.0138 0.0000
# 6 0.0000 0.0000 0.0000 0.0000 0.0000 25.5308
#
#
#
# Elastic Compliance Matrix: (Units=1/GPa)
#
#
# Indices 1 2 3 4 5 6 
#
# 1 0.011583 -0.004668 -0.003845 0.000000 0.000000 0.000000
# 2 -0.004668 0.012869 -0.002015 0.000000 0.000000 0.000000
# 3 -0.003845 -0.002015 0.020679 0.000000 0.000000 0.000000
# 4 0.000000 0.000000 0.000000 0.070547 0.000000 0.000000
# 5 0.000000 0.000000 0.000000 0.000000 -0.199451 0.000000
# 6 0.000000 0.000000 0.000000 0.000000 0.000000 0.039168
#
#
# Mechanical properties :
#
#
# Convention : Reuss Voigt Hill
#
# Bulk Modulus (GPa) = 41.53593 48.94559 45.24076
# Shear Modulus (GPa) = -322.07035 18.69788 -151.68624
#
# Velocity S-wave (km/s) = -14.09252 3.39555 -9.67134
# Velocity P-wave (km/s) = 15.46566 6.74940 9.83952
#
# Compressibility (1/GPa) = 0.02407554
#
# Stress axis : x y z
#
# Youngs Moduli (GPa) = 86.33536 77.70408 48.35885
#
# Poissons Ratio (x) = 0.36274 0.18592
# Poissons Ratio (y) = 0.40303 0.09743
# Poissons Ratio (z) = 0.33193 0.15656
#
# Static dielectric constant tensor:
#      x y z
#    x 3.376390 0.000000 0.000000 
#    y 0.000000 3.309830 0.000000 
#    z 0.000000 0.000000 2.506960 
# 
# 
# High freq. dielectric constant tensor:
#      x y z
#    x 1.635090 0.000000 0.000000 
#    y 0.000000 1.638690 0.000000 
#    z 0.000000 0.000000 1.537340 
# 
# From -- ./inp_files/20089.got.cif
#   From: 2010.03.12/outbox.cif.g09.slc.cpg/sg47_11_cif.got.tgz:20089.got - 2010.04.14 03:12:58.
