data_PCOD8200168
_publ_section_title
;
Structure prediction by ZEFSAII (Michael W. Deem and Ramdas Pophale) SiO2 
 PCOD8200168
Probable space group: P M M M
;
_chemical_formula_sum "Si O2"
_cell_formula_units_Z 32
_cell_length_a 15.268185
_cell_length_b 8.760546
_cell_length_c 12.200044
_cell_angle_alpha 90.000000
_cell_angle_beta 90.000000
_cell_angle_gamma 90.000000
_cell_volume 1631.849057
_symmetry_space_group_name_H-M "P M M M"
_symmetry_group_IT_number 47
_symmetry_cell_setting 'orthorhombic'
loop_
_space_group_symop_operation_xyz
x,y,z
-x,-y,z
x,-y,-z
-x,y,-z
-x,-y,-z
x,y,-z
-x,y,z
x,-y,z
loop_
_atom_site_type_symbol
_atom_site_label
_atom_site_fract_x
_atom_site_fract_y
_atom_site_fract_z
Si Si1 0.648005 0.179019 0.725098
Si Si2 0.897130 0.169633 0.000000
Si Si3 0.000000 0.679881 0.373330
Si Si4 0.500000 0.680325 0.126945
Si Si5 0.847561 0.819379 0.231892
Si Si6 0.398321 0.668185 0.500000
O O1 0.587570 0.257695 0.816025
O O2 0.748373 0.223691 0.742719
O O3 0.626476 0.234461 0.604684
O O4 0.631351 0.000000 0.733594
O O5 0.865875 0.252076 0.111224
O O6 0.000000 0.162225 0.000000
O O7 0.855814 0.000000 0.000000
O O8 0.088090 0.744823 0.319669
O O9 0.000000 0.500000 0.358808
O O10 0.000000 0.729118 0.500000
O O11 0.500000 0.500000 0.139532
O O12 0.500000 0.731388 0.000000
O O13 0.865458 0.000000 0.233631
O O14 0.352534 0.500000 0.500000
O O15 0.500000 0.639781 0.500000
#
# Coordination Sequence:
#
# PCOD8200168 Si02
#       6
#     8   4   4   4   8   4
#     4  11  24  40  65  96 123 157 210 263 306 359
#     4   9  16  34  64  89 116 151 193 244 300 356
#     4  11  25  42  59  86 124 165 206 249 302 365
#     4  11  25  44  63  88 129 173 207 245 308 379
#     4  10  22  40  64  92 121 157 201 252 306 361
#     4  11  23  41  65  88 122 165 202 250 317 377
#
# _framework density 19.609658
#
# number of rings (size 3 to 8) (size 9 to 14) (size 15 to 20)
#    0.000    1.500    2.500    1.875    3.500    4.500 
#    0.000    1.250    0.000    0.000    0.000    0.000 
#    0.000    0.000    0.000    0.000    0.000    0.000 
#
# Total GULP energy -396792.954246 kJ/mol
# GULP energy per Si atom -12399.779820 kJ/mol
# Density = 1.956503 g / cm^3
# Si number density = 19.609658 Si / 1000 Ang^3
#
#
#
# Elastic Constant Matrix: (Units=GPa)
#
#
# Indices 1 2 3 4 5 6 
#
# 1 151.9727 56.3286 93.9538 0.0000 0.0000 0.0000
# 2 56.3286 71.5859 58.2280 0.0000 0.0000 0.0000
# 3 93.9538 58.2280 203.5601 0.0000 0.0000 0.0000
# 4 0.0000 0.0000 0.0000 39.5938 0.0000 0.0000
# 5 0.0000 0.0000 0.0000 0.0000 50.1180 0.0000
# 6 0.0000 0.0000 0.0000 0.0000 0.0000 12.3663
#
#
#
# Elastic Compliance Matrix: (Units=1/GPa)
#
#
# Indices 1 2 3 4 5 6 
#
# 1 0.010774 -0.005777 -0.003320 0.000000 0.000000 0.000000
# 2 -0.005777 0.021303 -0.003427 0.000000 0.000000 0.000000
# 3 -0.003320 -0.003427 0.007425 0.000000 0.000000 0.000000
# 4 0.000000 0.000000 0.000000 0.025256 0.000000 0.000000
# 5 0.000000 0.000000 0.000000 0.000000 0.019953 0.000000
# 6 0.000000 0.000000 0.000000 0.000000 0.000000 0.080865
#
#
# Mechanical properties :
#
#
# Convention : Reuss Voigt Hill
#
# Bulk Modulus (GPa) = 69.18929 93.79326 81.49128
# Shear Modulus (GPa) = 25.58289 34.98951 30.28620
#
# Velocity S-wave (km/s) = 3.61585 4.22868 3.93422
# Velocity P-wave (km/s) = 7.26584 8.47209 7.89204
#
# Compressibility (1/GPa) = 0.01445310
#
# Stress axis : x y z
#
# Youngs Moduli (GPa) = 92.81524 46.94245 134.67317
#
# Poissons Ratio (x) = 0.27119 0.44716
# Poissons Ratio (y) = 0.53620 0.46155
# Poissons Ratio (z) = 0.30817 0.16088
#
# Static dielectric constant tensor:
#      x y z
#    x 2.814950 0.000000 0.000000 
#    y 0.000000 3.583660 0.000000 
#    z 0.000000 0.000000 3.824190 
# 
# 
# High freq. dielectric constant tensor:
#      x y z
#    x 1.774050 0.000000 0.000000 
#    y 0.000000 1.755430 0.000000 
#    z 0.000000 0.000000 1.785210 
# 
# From -- ./inp_files/17096.got.cif
#   From: 2010.03.12/outbox.cif.g09.slc.cpg/sg47_9_cif.got.tgz:17096.got - 2010.04.14 03:12:58.
