data_PCOD8200205
_publ_section_title
;
Structure prediction by ZEFSAII (Michael W. Deem and Ramdas Pophale) SiO2 
 PCOD8200205
Probable space group: P M M M
;
_chemical_formula_sum "Si O2"
_cell_formula_units_Z 52
_cell_length_a 20.966132
_cell_length_b 14.320322
_cell_length_c 12.884631
_cell_angle_alpha 90.000000
_cell_angle_beta 90.000000
_cell_angle_gamma 90.000000
_cell_volume 3868.504306
_symmetry_space_group_name_H-M "P M M M"
_symmetry_group_IT_number 47
_symmetry_cell_setting 'orthorhombic'
loop_
_space_group_symop_operation_xyz
x,y,z
-x,-y,z
x,-y,-z
-x,y,-z
-x,-y,-z
x,y,-z
-x,y,z
x,-y,z
loop_
_atom_site_type_symbol
_atom_site_label
_atom_site_fract_x
_atom_site_fract_y
_atom_site_fract_z
Si Si1 0.716991 0.388956 0.500000
Si Si2 0.144651 0.391537 0.880375
Si Si3 0.861723 0.610856 0.500000
Si Si4 0.289046 0.611018 0.113777
Si Si5 0.365085 0.388571 0.692240
Si Si6 0.075571 0.704851 0.302630
Si Si7 0.500000 0.388782 0.382600
Si Si8 0.075628 0.101553 0.383433
O O1 0.715872 0.500000 0.500000
O O2 0.789093 0.351653 0.500000
O O3 0.680209 0.350448 0.399080
O O4 0.136233 0.500000 0.852440
O O5 0.217053 0.358835 0.858536
O O6 0.098307 0.331966 0.808274
O O7 0.126178 0.373229 0.000000
O O8 0.863413 0.500000 0.500000
O O9 0.896063 0.645452 0.603363
O O10 0.291395 0.500000 0.111672
O O11 0.338069 0.651176 0.198964
O O12 0.308517 0.649898 0.000000
O O13 0.364332 0.500000 0.691915
O O14 0.437158 0.351472 0.676613
O O15 0.098733 0.812889 0.311610
O O16 0.000000 0.695866 0.308969
O O17 0.500000 0.500000 0.385344
O O18 0.500000 0.350338 0.500000
O O19 0.101794 0.118082 0.500000
O O20 0.000000 0.100752 0.387109
O O21 0.100015 0.000000 0.341585
#
# Coordination Sequence:
#
# PCOD8200205 Si02
#       8
#     4   8   4   8   8   8   4   8
#     4   9  16  24  34  45  62  91 123 147 173 218
#     4   9  18  31  43  54  72 103 139 165 186 224
#     4  11  21  28  35  54  81 103 122 154 200 238
#     4   8  14  25  38  48  61  87 124 159 184 210
#     4   9  14  21  33  47  62  84 114 149 188 222
#     4  11  20  29  41  58  78  97 121 159 203 241
#     4   9  14  20  29  45  67  85 108 145 189 232
#     4   8  14  27  45  60  74  94 120 148 185 239
#
# _framework density 13.441886999999999
#
# number of rings (size 3 to 8) (size 9 to 14) (size 15 to 20)
#    0.000    2.846    1.538    3.000    0.000    4.308 
#    0.000    1.154    0.000    2.769    0.000    2.154 
#    0.000    0.000    0.000    0.000    0.000    0.000 
#
# Total GULP energy -644428.275958 kJ/mol
# GULP energy per Si atom -12392.851461 kJ/mol
# Density = 1.341129 g / cm^3
# Si number density = 13.441887 Si / 1000 Ang^3
#
#
#
# Elastic Constant Matrix: (Units=GPa)
#
#
# Indices 1 2 3 4 5 6 
#
# 1 92.3781 25.4991 55.0481 0.0000 0.0000 0.0000
# 2 25.4991 53.0710 33.5584 0.0000 0.0000 0.0000
# 3 55.0481 33.5584 97.8805 0.0000 0.0000 0.0000
# 4 0.0000 0.0000 0.0000 10.4634 0.0000 0.0000
# 5 0.0000 0.0000 0.0000 0.0000 24.6722 0.0000
# 6 0.0000 0.0000 0.0000 0.0000 0.0000 -0.0784
#
#
#
# Elastic Compliance Matrix: (Units=1/GPa)
#
#
# Indices 1 2 3 4 5 6 
#
# 1 0.016566 -0.002641 -0.008412 0.000000 0.000000 0.000000
# 2 -0.002641 0.024479 -0.006908 0.000000 0.000000 0.000000
# 3 -0.008412 -0.006908 0.017315 0.000000 0.000000 0.000000
# 4 0.000000 0.000000 0.000000 0.095571 0.000000 0.000000
# 5 0.000000 0.000000 0.000000 0.000000 0.040531 0.000000
# 6 0.000000 0.000000 0.000000 0.000000 0.000000-12.759196
#
#
# Mechanical properties :
#
#
# Convention : Reuss Voigt Hill
#
# Bulk Modulus (GPa) = 44.56051 52.39342 48.47697
# Shear Modulus (GPa) = -0.39932 15.62639 7.61353
#
# Velocity S-wave (km/s) = -0.54563 3.41327 2.38251
# Velocity P-wave (km/s) = 5.72935 7.38892 6.61142
#
# Compressibility (1/GPa) = 0.02244139
#
# Stress axis : x y z
#
# Youngs Moduli (GPa) = 60.36283 40.85066 57.75176
#
# Poissons Ratio (x) = 0.10788 0.48578
# Poissons Ratio (y) = 0.15941 0.39892
# Poissons Ratio (z) = 0.50775 0.28218
#
# Static dielectric constant tensor:
#      x y z
#    x 2.724820 0.000000 0.000000 
#    y 0.000000 2.434670 0.000000 
#    z 0.000000 0.000000 2.845560 
# 
# 
# High freq. dielectric constant tensor:
#      x y z
#    x 1.504300 0.000000 0.000000 
#    y 0.000000 1.450680 0.000000 
#    z 0.000000 0.000000 1.517500 
# 
# From -- ./inp_files/19296.got.cif
#   From: 2010.03.12/outbox.cif.g09.slc.cpg/sg47_10_cif.got.tgz:19296.got - 2010.04.14 03:12:58.
