data_PCOD8200176
_publ_section_title
;
Structure prediction by ZEFSAII (Michael W. Deem and Ramdas Pophale) SiO2 
 PCOD8200176
Probable space group: P M M M
;
_chemical_formula_sum "Si O2"
_cell_formula_units_Z 56
_cell_length_a 15.821458
_cell_length_b 19.139098
_cell_length_c 8.986923
_cell_angle_alpha 90.000000
_cell_angle_beta 90.000000
_cell_angle_gamma 90.000000
_cell_volume 2721.316091
_symmetry_space_group_name_H-M "P M M M"
_symmetry_group_IT_number 47
_symmetry_cell_setting 'orthorhombic'
loop_
_space_group_symop_operation_xyz
x,y,z
-x,-y,z
x,-y,-z
-x,y,-z
-x,-y,-z
x,y,-z
-x,y,z
x,-y,z
loop_
_atom_site_type_symbol
_atom_site_label
_atom_site_fract_x
_atom_site_fract_y
_atom_site_fract_z
Si Si1 0.905464 0.350850 0.170672
Si Si2 0.401252 0.921559 0.170146
Si Si3 0.340278 0.210719 0.674328
Si Si4 0.253170 0.417885 0.328310
Si Si5 0.594679 0.660941 0.827351
Si Si6 0.827800 0.792242 0.169458
Si Si7 0.099787 0.921539 0.332180
O O1 0.835471 0.389299 0.267914
O O2 0.899527 0.266684 0.185635
O O3 0.000000 0.372208 0.223809
O O4 0.891295 0.373323 0.000000
O O5 0.500000 0.915405 0.201291
O O6 0.352709 0.869532 0.278883
O O7 0.370088 0.000000 0.205710
O O8 0.380663 0.902132 0.000000
O O9 0.351518 0.218620 0.500000
O O10 0.406173 0.261898 0.755056
O O11 0.247339 0.234317 0.724710
O O12 0.260394 0.396608 0.500000
O O13 0.253624 0.500000 0.303803
O O14 0.335482 0.388090 0.246643
O O15 0.500000 0.629607 0.805433
O O16 0.617455 0.668073 0.000000
O O17 0.860191 0.868039 0.216804
O O18 0.795511 0.798035 0.000000
O O19 0.128929 0.902720 0.500000
O O20 0.000000 0.916689 0.320234
O O21 0.129718 0.000000 0.291082
#
# Coordination Sequence:
#
# PCOD8200176 Si02
#       7
#     8   8   8   8   8   8   8
#     4  10  22  41  66  95 127 167 214 261 311 369
#     4   9  19  37  59  82 112 154 204 256 310 369
#     4  12  24  37  58  88 122 160 204 256 315 372
#     4  11  25  44  67  98 134 169 207 253 307 370
#     4  11  24  43  68  96 127 167 213 258 309 371
#     4  11  22  37  59  86 118 158 207 259 310 366
#     4   9  19  36  56  80 114 156 202 254 313 374
#
# _framework density 20.578278999999998
#
# number of rings (size 3 to 8) (size 9 to 14) (size 15 to 20)
#    0.000    1.571    1.429    4.286    0.000    7.714 
#    0.000    4.286    0.000    0.000    0.000    0.000 
#    0.000    0.000    0.000    0.000    0.000    0.000 
#
# Total GULP energy -694479.156874 kJ/mol
# GULP energy per Si atom -12401.413516 kJ/mol
# Density = 2.053144 g / cm^3
# Si number density = 20.578279 Si / 1000 Ang^3
#
#
#
# Elastic Constant Matrix: (Units=GPa)
#
#
# Indices 1 2 3 4 5 6 
#
# 1 118.2413 48.6626 68.1282 0.0000 0.0000 0.0000
# 2 48.6626 90.9396 66.4976 0.0000 0.0000 0.0000
# 3 68.1282 66.4976 145.4606 0.0000 0.0000 0.0000
# 4 0.0000 0.0000 0.0000 36.2358 0.0000 0.0000
# 5 0.0000 0.0000 0.0000 0.0000 26.2683 0.0000
# 6 0.0000 0.0000 0.0000 0.0000 0.0000 26.7672
#
#
#
# Elastic Compliance Matrix: (Units=1/GPa)
#
#
# Indices 1 2 3 4 5 6 
#
# 1 0.012306 -0.003561 -0.004136 0.000000 0.000000 0.000000
# 2 -0.003561 0.017548 -0.006355 0.000000 0.000000 0.000000
# 3 -0.004136 -0.006355 0.011717 0.000000 0.000000 0.000000
# 4 0.000000 0.000000 0.000000 0.027597 0.000000 0.000000
# 5 0.000000 0.000000 0.000000 0.000000 0.038069 0.000000
# 6 0.000000 0.000000 0.000000 0.000000 0.000000 0.037359
#
#
# Mechanical properties :
#
#
# Convention : Reuss Voigt Hill
#
# Bulk Modulus (GPa) = 74.24603 80.13535 77.19069
# Shear Modulus (GPa) = 28.21879 29.27780 28.74829
#
# Velocity S-wave (km/s) = 3.70711 3.77603 3.74173
# Velocity P-wave (km/s) = 7.38117 7.61823 7.50064
#
# Compressibility (1/GPa) = 0.01346873
#
# Stress axis : x y z
#
# Youngs Moduli (GPa) = 81.26381 56.98557 85.34823
#
# Poissons Ratio (x) = 0.20291 0.35297
# Poissons Ratio (y) = 0.28936 0.54235
# Poissons Ratio (z) = 0.33608 0.36212
#
# Static dielectric constant tensor:
#      x y z
#    x 3.708670 0.000000 0.000000 
#    y 0.000000 3.866150 0.000000 
#    z 0.000000 0.000000 3.729660 
# 
# 
# High freq. dielectric constant tensor:
#      x y z
#    x 1.807590 0.000000 0.000000 
#    y 0.000000 1.807660 0.000000 
#    z 0.000000 0.000000 1.804770 
# 
# From -- ./inp_files/7190.got.cif
#   From: 2010.03.12/outbox.cif.g09.slc.cpg/sg47_4_cif.got.tgz:7190.got - 2010.04.14 03:12:58.
