data_PCOD8200412
_publ_section_title
;
Structure prediction by ZEFSAII (Michael W. Deem and Ramdas Pophale) SiO2 
 PCOD8200412
Probable space group: P M M M
;
_chemical_formula_sum "Si O2"
_cell_formula_units_Z 48
_cell_length_a 8.718817
_cell_length_b 20.701690
_cell_length_c 14.065745
_cell_angle_alpha 90.000000
_cell_angle_beta 90.000000
_cell_angle_gamma 90.000000
_cell_volume 2538.786048
_symmetry_space_group_name_H-M "P M M M"
_symmetry_group_IT_number 47
_symmetry_cell_setting 'orthorhombic'
loop_
_space_group_symop_operation_xyz
x,y,z
-x,-y,z
x,-y,-z
-x,y,-z
-x,-y,-z
x,y,-z
-x,y,z
x,-y,z
loop_
_atom_site_type_symbol
_atom_site_label
_atom_site_fract_x
_atom_site_fract_y
_atom_site_fract_z
Si Si1 0.318743 0.251765 0.392078
Si Si2 0.818122 0.072404 0.896133
Si Si3 0.818330 0.125416 0.700594
Si Si4 0.817643 0.500000 0.393398
Si Si5 0.673706 0.000000 0.387761
Si Si6 0.321336 0.574081 0.107791
Si Si7 0.819592 0.627073 0.286947
O O1 0.255866 0.256534 0.500000
O O2 0.500000 0.251489 0.391686
O O3 0.261422 0.186801 0.344199
O O4 0.260177 0.311425 0.331463
O O5 0.764238 0.119405 0.811155
O O6 0.000000 0.068721 0.895678
O O7 0.753464 0.000000 0.878026
O O8 0.760748 0.097744 0.000000
O O9 0.000000 0.132970 0.691756
O O10 0.766048 0.062390 0.644999
O O11 0.751717 0.500000 0.500000
O O12 0.756145 0.563620 0.340652
O O13 0.000000 0.500000 0.393396
O O14 0.500000 0.000000 0.346824
O O15 0.668180 0.000000 0.500000
O O16 0.500000 0.581604 0.131173
O O17 0.269439 0.500000 0.122565
O O18 0.223997 0.620603 0.176164
O O19 0.286779 0.595697 0.000000
O O20 0.000000 0.635294 0.298235
#
# Coordination Sequence:
#
# PCOD8200412 Si02
#       7
#     8   8   8   4   4   8   8
#     4  11  25  43  59  78 112 158 198 235 289 353
#     4   8  14  28  53  85 117 144 174 220 278 334
#     4  11  21  36  60  88 112 144 192 241 287 335
#     4   9  18  32  52  81 114 142 177 233 294 343
#     4  11  23  37  54  79 114 152 187 231 288 347
#     4   9  18  34  57  85 119 157 192 231 284 344
#     4  11  21  36  59  87 116 149 190 241 294 342
#
# _framework density 18.906673999999999
#
# number of rings (size 3 to 8) (size 9 to 14) (size 15 to 20)
#    0.000    2.000    1.667    3.750    0.000    5.000 
#    0.000    1.667    0.000    7.500    0.000    0.000 
#    0.000    0.000    0.000    0.000    0.000    0.000 
#
# Total GULP energy -595155.919032 kJ/mol
# GULP energy per Si atom -12399.081647 kJ/mol
# Density = 1.886364 g / cm^3
# Si number density = 18.906674 Si / 1000 Ang^3
#
#
#
# Elastic Constant Matrix: (Units=GPa)
#
#
# Indices 1 2 3 4 5 6 
#
# 1 46.4722 28.0334 34.4726 0.0000 0.0000 0.0000
# 2 28.0334 132.7277 66.0678 0.0000 0.0000 0.0000
# 3 34.4726 66.0678 147.6037 0.0000 0.0000 0.0000
# 4 0.0000 0.0000 0.0000 29.1741 0.0000 0.0000
# 5 0.0000 0.0000 0.0000 0.0000 27.0845 0.0000
# 6 0.0000 0.0000 0.0000 0.0000 0.0000 25.7287
#
#
#
# Elastic Compliance Matrix: (Units=1/GPa)
#
#
# Indices 1 2 3 4 5 6 
#
# 1 0.027114 -0.003313 -0.004850 0.000000 0.000000 0.000000
# 2 -0.003313 0.010099 -0.003747 0.000000 0.000000 0.000000
# 3 -0.004850 -0.003747 0.009584 0.000000 0.000000 0.000000
# 4 0.000000 0.000000 0.000000 0.034277 0.000000 0.000000
# 5 0.000000 0.000000 0.000000 0.000000 0.036921 0.000000
# 6 0.000000 0.000000 0.000000 0.000000 0.000000 0.038867
#
#
# Mechanical properties :
#
#
# Convention : Reuss Voigt Hill
#
# Bulk Modulus (GPa) = 43.51721 64.88348 54.20034
# Shear Modulus (GPa) = 26.54764 29.61278 28.08021
#
# Velocity S-wave (km/s) = 3.75125 3.96189 3.85801
# Velocity P-wave (km/s) = 6.46756 7.43781 6.96959
#
# Compressibility (1/GPa) = 0.02297941
#
# Stress axis : x y z
#
# Youngs Moduli (GPa) = 36.88133 99.02126 104.33515
#
# Poissons Ratio (x) = 0.32803 0.50599
# Poissons Ratio (y) = 0.12218 0.39090
# Poissons Ratio (z) = 0.17886 0.37099
#
# Static dielectric constant tensor:
#      x y z
#    x 3.315160 0.000000 0.000000 
#    y 0.000000 3.415690 0.000000 
#    z 0.000000 0.000000 3.898290 
# 
# 
# High freq. dielectric constant tensor:
#      x y z
#    x 1.718980 0.000000 0.000000 
#    y 0.000000 1.721220 0.000000 
#    z 0.000000 0.000000 1.754890 
# 
# From -- ./inp_files/21067.got.cif
#   From: 2010.03.12/outbox.cif.g09.slc.cpg/sg47_11_cif.got.tgz:21067.got - 2010.04.14 03:12:58.
