data_PCOD8200927
_publ_section_title
;
Structure prediction by ZEFSAII (Michael W. Deem and Ramdas Pophale) SiO2 
 PCOD8200927
Probable space group: P M M M
;
_chemical_formula_sum "Si O2"
_cell_formula_units_Z 44
_cell_length_a 9.777930
_cell_length_b 9.239602
_cell_length_c 28.345771
_cell_angle_alpha 90.000000
_cell_angle_beta 90.000000
_cell_angle_gamma 90.000000
_cell_volume 2560.875482
_symmetry_space_group_name_H-M "P M M M"
_symmetry_group_IT_number 47
_symmetry_cell_setting 'orthorhombic'
loop_
_space_group_symop_operation_xyz
x,y,z
-x,-y,z
x,-y,-z
-x,y,-z
-x,-y,-z
x,y,-z
-x,y,z
x,-y,z
loop_
_atom_site_type_symbol
_atom_site_label
_atom_site_fract_x
_atom_site_fract_y
_atom_site_fract_z
Si Si1 0.655247 0.827131 0.500000
Si Si2 0.342413 0.330442 0.135426
Si Si3 0.342414 0.830468 0.770821
Si Si4 0.846557 0.328020 0.947804
Si Si5 0.153648 0.827805 0.417012
Si Si6 0.153019 0.828139 0.687791
O O1 0.500000 0.767014 0.500000
O O2 0.735504 0.766965 0.545925
O O3 0.653853 0.000000 0.500000
O O4 0.500000 0.295682 0.124858
O O5 0.316830 0.500000 0.142730
O O6 0.291633 0.250044 0.182314
O O7 0.256871 0.266727 0.091416
O O8 0.500000 0.795905 0.760290
O O9 0.257305 0.766661 0.726716
O O10 0.316545 0.000000 0.778135
O O11 0.840453 0.500000 0.947766
O O12 0.000000 0.275461 0.935719
O O13 0.803979 0.271388 0.000000
O O14 0.193753 0.772191 0.364546
O O15 0.000000 0.774498 0.430136
O O16 0.155147 0.000000 0.418190
O O17 0.000000 0.775615 0.700445
O O18 0.159599 0.000000 0.687825
#
# Coordination Sequence:
#
# PCOD8200927 Si02
#       6
#     4   8   8   8   8   8
#     4   9  15  19  25  41  63  87 118 155 192 229
#     4   9  17  28  42  61  83 105 130 160 193 230
#     4   9  17  28  41  57  78 104 132 162 196 231
#     4   8  14  25  41  61  83 104 127 158 195 231
#     4   8  13  21  31  42  60  88 120 153 189 228
#     4   8  14  24  37  52  69  93 128 164 194 229
#
# _framework density 17.181625
#
# number of rings (size 3 to 8) (size 9 to 14) (size 15 to 20)
#    0.000    3.545    0.000    1.909    0.000    2.909 
#    0.000    5.455    0.000    0.545    0.000    3.818 
#    0.000    0.000    0.000    0.818    0.000   17.455 
#
# Total GULP energy -545296.678679 kJ/mol
# GULP energy per Si atom -12393.106334 kJ/mol
# Density = 1.714252 g / cm^3
# Si number density = 17.181625 Si / 1000 Ang^3
#
#
#
# Elastic Constant Matrix: (Units=GPa)
#
#
# Indices 1 2 3 4 5 6 
#
# 1 118.3398 14.3866 110.9034 0.0000 0.0000 0.0000
# 2 14.3866 8.9356 20.0445 0.0000 0.0000 0.0000
# 3 110.9034 20.0445 185.5939 0.0000 0.0000 0.0000
# 4 0.0000 0.0000 0.0000 -1.2705 0.0000 0.0000
# 5 0.0000 0.0000 0.0000 0.0000 40.9237 0.0000
# 6 0.0000 0.0000 0.0000 0.0000 0.0000 8.2712
#
#
#
# Elastic Compliance Matrix: (Units=1/GPa)
#
#
# Indices 1 2 3 4 5 6 
#
# 1 0.019527 -0.006947 -0.010918 0.000000 0.000000 0.000000
# 2 -0.006947 0.150164 -0.012067 0.000000 0.000000 0.000000
# 3 -0.010918 -0.012067 0.013216 0.000000 0.000000 0.000000
# 4 0.000000 0.000000 0.000000 -0.787091 0.000000 0.000000
# 5 0.000000 0.000000 0.000000 0.000000 0.024436 0.000000
# 6 0.000000 0.000000 0.000000 0.000000 0.000000 0.120901
#
#
# Mechanical properties :
#
#
# Convention : Reuss Voigt Hill
#
# Bulk Modulus (GPa) = 8.12724 67.05982 37.59353
# Shear Modulus (GPa) = -13.96767 20.75388 3.39310
#
# Velocity S-wave (km/s) = -2.85431 3.47927 1.40682
# Velocity P-wave (km/s) = 2.47433 7.43338 4.95645
#
# Compressibility (1/GPa) = 0.12304307
#
# Stress axis : x y z
#
# Youngs Moduli (GPa) = 51.21146 6.65937 75.66790
#
# Poissons Ratio (x) = 0.04626 0.82616
# Poissons Ratio (y) = 0.35576 0.91308
# Poissons Ratio (z) = 0.55914 0.08036
#
# Static dielectric constant tensor:
#      x y z
#    x 3.384230 0.000000 0.000000 
#    y 0.000000 2.529170 0.000000 
#    z 0.000000 0.000000 3.658460 
# 
# 
# High freq. dielectric constant tensor:
#      x y z
#    x 1.664560 0.000000 0.000000 
#    y 0.000000 1.585640 0.000000 
#    z 0.000000 0.000000 1.678010 
# 
# From -- ./inp_files/2169.got.cif
#   From: 2010.03.12/outbox.cif.g09.slc.cpg/sg47_2_cif.got.tgz:2169.got - 2010.04.14 03:12:58.
