data_PCOD8200463
_publ_section_title
;
Structure prediction by ZEFSAII (Michael W. Deem and Ramdas Pophale) SiO2 
 PCOD8200463
Probable space group: P M M M
;
_chemical_formula_sum "Si O2"
_cell_formula_units_Z 40
_cell_length_a 8.830113
_cell_length_b 14.650554
_cell_length_c 15.695734
_cell_angle_alpha 90.000000
_cell_angle_beta 90.000000
_cell_angle_gamma 90.000000
_cell_volume 2030.495068
_symmetry_space_group_name_H-M "P M M M"
_symmetry_group_IT_number 47
_symmetry_cell_setting 'orthorhombic'
loop_
_space_group_symop_operation_xyz
x,y,z
-x,-y,z
x,-y,-z
-x,y,-z
-x,-y,-z
x,y,-z
-x,y,z
x,-y,z
loop_
_atom_site_type_symbol
_atom_site_label
_atom_site_fract_x
_atom_site_fract_y
_atom_site_fract_z
Si Si1 0.826248 0.102626 0.100314
Si Si2 0.677070 0.716441 0.150636
Si Si3 0.680920 0.602446 0.500000
Si Si4 0.320921 0.714700 0.660457
Si Si5 0.821070 0.396047 0.000000
Si Si6 0.679947 0.098176 0.403344
O O1 0.721217 0.176913 0.146127
O O2 0.000000 0.119031 0.126682
O O3 0.775071 0.000000 0.126599
O O4 0.807434 0.115818 0.000000
O O5 0.500000 0.707515 0.131838
O O6 0.719774 0.678967 0.245017
O O7 0.765490 0.654731 0.084097
O O8 0.743541 0.500000 0.500000
O O9 0.500000 0.604245 0.500000
O O10 0.745429 0.650480 0.414273
O O11 0.500000 0.718568 0.649055
O O12 0.254191 0.817533 0.651087
O O13 0.760555 0.500000 0.000000
O O14 0.000000 0.393045 0.000000
O O15 0.734462 0.111915 0.500000
O O16 0.500000 0.098020 0.400080
O O17 0.740558 0.000000 0.368359
#
# Coordination Sequence:
#
# PCOD8200463 Si02
#       6
#     8   8   4   8   4   8
#     4   9  18  34  56  79 108 151 195 226 258 316
#     4  11  22  34  55  88 119 142 172 228 290 331
#     4   9  16  28  45  63  94 143 183 207 248 322
#     4   9  17  28  43  70 107 140 173 211 259 322
#     4  11  25  45  64  77  98 141 191 232 274 335
#     4   8  12  20  37  59  90 137 180 207 237 289
#
# _framework density 19.699629000000002
#
# number of rings (size 3 to 8) (size 9 to 14) (size 15 to 20)
#    0.000    2.600    2.000    2.100    0.000    2.800 
#    0.000    5.000    0.000    0.000    0.000    2.800 
#    0.000    6.400    0.000    0.000    0.000    0.000 
#
# Total GULP energy -495709.414215 kJ/mol
# GULP energy per Si atom -12392.735355 kJ/mol
# Density = 1.965479 g / cm^3
# Si number density = 19.699629 Si / 1000 Ang^3
#
#
#
# Elastic Constant Matrix: (Units=GPa)
#
#
# Indices 1 2 3 4 5 6 
#
# 1 31.3455 21.6345 22.7980 0.0000 0.0000 0.0000
# 2 21.6345 155.5531 75.8216 0.0000 0.0000 0.0000
# 3 22.7980 75.8216 128.9915 0.0000 0.0000 0.0000
# 4 0.0000 0.0000 0.0000 12.0581 0.0000 0.0000
# 5 0.0000 0.0000 0.0000 0.0000 -1.8230 0.0000
# 6 0.0000 0.0000 0.0000 0.0000 0.0000 18.5661
#
#
#
# Elastic Compliance Matrix: (Units=1/GPa)
#
#
# Indices 1 2 3 4 5 6 
#
# 1 0.037446 -0.002778 -0.004985 0.000000 0.000000 0.000000
# 2 -0.002778 0.009216 -0.004926 0.000000 0.000000 0.000000
# 3 -0.004985 -0.004926 0.011529 0.000000 0.000000 0.000000
# 4 0.000000 0.000000 0.000000 0.082932 0.000000 0.000000
# 5 0.000000 0.000000 0.000000 0.000000 -0.548532 0.000000
# 6 0.000000 0.000000 0.000000 0.000000 0.000000 0.053862
#
#
# Mechanical properties :
#
#
# Convention : Reuss Voigt Hill
#
# Bulk Modulus (GPa) = 30.47667 61.82203 46.14935
# Shear Modulus (GPa) = -15.76137 18.80264 1.52063
#
# Velocity S-wave (km/s) = -2.83165 3.09280 0.87954
# Velocity P-wave (km/s) = 2.19393 6.64863 4.95064
#
# Compressibility (1/GPa) = 0.03281198
#
# Stress axis : x y z
#
# Youngs Moduli (GPa) = 26.70538 108.50306 86.73565
#
# Poissons Ratio (x) = 0.30142 0.43240
# Poissons Ratio (y) = 0.07419 0.42729
# Poissons Ratio (z) = 0.13313 0.53453
#
# Static dielectric constant tensor:
#      x y z
#    x 3.016520 0.000000 0.000000 
#    y 0.000000 3.981780 0.000000 
#    z 0.000000 0.000000 3.647570 
# 
# 
# High freq. dielectric constant tensor:
#      x y z
#    x 1.708400 0.000000 0.000000 
#    y 0.000000 1.776410 0.000000 
#    z 0.000000 0.000000 1.769450 
# 
# From -- ./inp_files/20730.got.cif
#   From: 2010.03.12/outbox.cif.g09.slc.cpg/sg47_11_cif.got.tgz:20730.got - 2010.04.14 03:12:58.
