data_PCOD8200720
_publ_section_title
;
Structure prediction by ZEFSAII (Michael W. Deem and Ramdas Pophale) SiO2 
 PCOD8200720
Probable space group: P M M M
;
_chemical_formula_sum "Si O2"
_cell_formula_units_Z 36
_cell_length_a 9.900104
_cell_length_b 9.269393
_cell_length_c 23.336401
_cell_angle_alpha 90.000000
_cell_angle_beta 90.000000
_cell_angle_gamma 90.000000
_cell_volume 2141.533790
_symmetry_space_group_name_H-M "P M M M"
_symmetry_group_IT_number 47
_symmetry_cell_setting 'orthorhombic'
loop_
_space_group_symop_operation_xyz
x,y,z
-x,-y,z
x,-y,-z
-x,y,-z
-x,-y,-z
x,y,-z
-x,y,z
x,-y,z
loop_
_atom_site_type_symbol
_atom_site_label
_atom_site_fract_x
_atom_site_fract_y
_atom_site_fract_z
Si Si1 0.340121 0.842543 0.500000
Si Si2 0.155324 0.168770 0.276857
Si Si3 0.651846 0.172557 0.622975
Si Si4 0.651396 0.328612 0.936459
Si Si5 0.844743 0.331024 0.837455
O O1 0.500000 0.862507 0.500000
O O2 0.301219 0.763930 0.560275
O O3 0.270329 0.000000 0.500000
O O4 0.245716 0.229661 0.328869
O O5 0.201719 0.250432 0.219816
O O6 0.000000 0.202565 0.291693
O O7 0.179797 0.000000 0.266942
O O8 0.500000 0.224838 0.638237
O O9 0.655244 0.000000 0.619297
O O10 0.500000 0.277124 0.920559
O O11 0.657927 0.500000 0.936775
O O12 0.756180 0.267754 0.889774
O O13 0.690635 0.271241 0.000000
O O14 0.819845 0.500000 0.828066
O O15 0.000000 0.297375 0.852100
#
# Coordination Sequence:
#
# PCOD8200720 Si02
#       5
#     4   8   8   8   8
#     4   7  10  18  33  53  76  99 124 158 196 229
#     4   9  17  28  40  56  81 108 130 157 195 232
#     4   8  13  22  37  56  77 102 131 160 192 232
#     4   8  14  25  41  61  83 103 124 157 200 235
#     4   9  17  28  42  60  80 103 132 162 190 225
#
# _framework density 16.810382000000001
#
# number of rings (size 3 to 8) (size 9 to 14) (size 15 to 20)
#    0.000    3.667    0.000    2.000    0.000    1.333 
#    0.000    2.778    0.000    4.000    0.000    5.444 
#    0.000    6.222    0.000    0.000    0.000    0.000 
#
# Total GULP energy -446025.364828 kJ/mol
# GULP energy per Si atom -12389.593467 kJ/mol
# Density = 1.677212 g / cm^3
# Si number density = 16.810382 Si / 1000 Ang^3
#
#
#
# Elastic Constant Matrix: (Units=GPa)
#
#
# Indices 1 2 3 4 5 6 
#
# 1 90.7379 16.3609 101.4280 0.0000 0.0000 0.0000
# 2 16.3609 12.7122 26.6898 0.0000 0.0000 0.0000
# 3 101.4280 26.6898 195.6231 0.0000 0.0000 0.0000
# 4 0.0000 0.0000 0.0000 -32.1864 0.0000 0.0000
# 5 0.0000 0.0000 0.0000 0.0000 31.2294 0.0000
# 6 0.0000 0.0000 0.0000 0.0000 0.0000 10.2898
#
#
#
# Elastic Compliance Matrix: (Units=1/GPa)
#
#
# Indices 1 2 3 4 5 6 
#
# 1 0.026704 -0.007426 -0.012833 0.000000 0.000000 0.000000
# 2 -0.007426 0.112309 -0.011472 0.000000 0.000000 0.000000
# 3 -0.012833 -0.011472 0.013331 0.000000 0.000000 0.000000
# 4 0.000000 0.000000 0.000000 -0.031069 0.000000 0.000000
# 5 0.000000 0.000000 0.000000 0.000000 0.032021 0.000000
# 6 0.000000 0.000000 0.000000 0.000000 0.000000 0.097184
#
#
# Mechanical properties :
#
#
# Convention : Reuss Voigt Hill
#
# Bulk Modulus (GPa) = 11.25099 65.33673 38.29386
# Shear Modulus (GPa) = 14.55311 12.17286 13.36299
#
# Velocity S-wave (km/s) = 2.94551 2.69388 2.82250
# Velocity P-wave (km/s) = 4.27498 6.97332 5.78371
#
# Compressibility (1/GPa) = 0.08888110
#
# Stress axis : x y z
#
# Youngs Moduli (GPa) = 37.44727 8.90401 75.01534
#
# Poissons Ratio (x) = 0.06613 0.96264
# Poissons Ratio (y) = 0.27810 0.86060
# Poissons Ratio (z) = 0.48054 0.10215
#
# Static dielectric constant tensor:
#      x y z
#    x 3.175440 0.000000 0.000000 
#    y 0.000000 2.577270 0.000000 
#    z 0.000000 0.000000 3.660830 
# 
# 
# High freq. dielectric constant tensor:
#      x y z
#    x 1.637060 0.000000 0.000000 
#    y 0.000000 1.580920 0.000000 
#    z 0.000000 0.000000 1.665750 
# 
# From -- ./inp_files/3743.got.cif
#   From: 2010.03.12/outbox.cif.g09.slc.cpg/sg47_2_cif.got.tgz:3743.got - 2010.04.14 03:12:58.
