data_PCOD8200047
_publ_section_title
;
Structure prediction by ZEFSAII (Michael W. Deem and Ramdas Pophale) SiO2 
 PCOD8200047
Probable space group: P M M M
;
_chemical_formula_sum "Si O2"
_cell_formula_units_Z 48
_cell_length_a 34.763342
_cell_length_b 7.804727
_cell_length_c 8.904762
_cell_angle_alpha 90.000000
_cell_angle_beta 90.000000
_cell_angle_gamma 90.000000
_cell_volume 2416.025724
_symmetry_space_group_name_H-M "P M M M"
_symmetry_group_IT_number 47
_symmetry_cell_setting 'orthorhombic'
loop_
_space_group_symop_operation_xyz
x,y,z
-x,-y,z
x,-y,-z
-x,y,-z
-x,-y,-z
x,y,-z
-x,y,z
x,-y,z
loop_
_atom_site_type_symbol
_atom_site_label
_atom_site_fract_x
_atom_site_fract_y
_atom_site_fract_z
Si Si1 0.232865 0.698483 0.322993
Si Si2 0.000000 0.200865 0.330347
Si Si3 0.154605 0.702535 0.833489
Si Si4 0.719735 0.000000 0.821427
Si Si5 0.418333 0.688301 0.178589
Si Si6 0.919064 0.300736 0.332777
Si Si7 0.500000 0.806720 0.821315
Si Si8 0.368019 0.000000 0.178590
O O1 0.235735 0.724892 0.500000
O O2 0.241771 0.500000 0.278596
O O3 0.190289 0.753206 0.271245
O O4 0.262373 0.824958 0.241971
O O5 0.039417 0.267812 0.252868
O O6 0.000000 0.273984 0.500000
O O7 0.000000 0.000000 0.324166
O O8 0.150733 0.500000 0.844363
O O9 0.115431 0.782341 0.764002
O O10 0.160726 0.780175 0.000000
O O11 0.675734 0.000000 0.766867
O O12 0.724009 0.000000 0.000000
O O13 0.403956 0.500000 0.229623
O O14 0.461607 0.715433 0.240885
O O15 0.389349 0.831290 0.243785
O O16 0.419093 0.702933 0.000000
O O17 0.918944 0.217404 0.500000
O O18 0.910993 0.500000 0.346139
O O19 0.500000 0.000000 0.762253
O O20 0.500000 0.801283 0.000000
O O21 0.370079 0.000000 0.000000
#
# Coordination Sequence:
#
# PCOD8200047 Si02
#       8
#     8   4   8   4   8   8   4   4
#     4  10  21  39  62  85 110 142 182 229 279 334
#     4   9  17  29  44  65  94 128 168 211 250 292
#     4   9  17  31  53  80 107 133 165 211 268 326
#     4  11  23  37  56  83 114 147 185 228 282 344
#     4   9  15  23  36  55  83 125 176 223 266 313
#     4   9  16  28  48  71  95 128 170 211 252 304
#     4   9  13  19  33  52  81 121 170 227 270 304
#     4   9  18  30  41  60  93 132 173 219 266 322
#
# _framework density 19.867338
#
# number of rings (size 3 to 8) (size 9 to 14) (size 15 to 20)
#    0.000    2.667    0.833    1.750    0.000    5.667 
#    1.500    2.083    0.000    2.500    0.000    0.000 
#    0.000    0.000    0.000    6.000    0.000   29.333 
#
# Total GULP energy -594916.997848 kJ/mol
# GULP energy per Si atom -12394.104122 kJ/mol
# Density = 1.982212 g / cm^3
# Si number density = 19.867338 Si / 1000 Ang^3
#
#
#
# Elastic Constant Matrix: (Units=GPa)
#
#
# Indices 1 2 3 4 5 6 
#
# 1 188.4045 73.4299 43.3476 0.0000 0.0000 0.0000
# 2 73.4299 109.3800 27.5209 0.0000 0.0000 0.0000
# 3 43.3476 27.5209 63.0970 0.0000 0.0000 0.0000
# 4 0.0000 0.0000 0.0000 15.1532 0.0000 0.0000
# 5 0.0000 0.0000 0.0000 0.0000 1.0155 0.0000
# 6 0.0000 0.0000 0.0000 0.0000 0.0000 7.5184
#
#
#
# Elastic Compliance Matrix: (Units=1/GPa)
#
#
# Indices 1 2 3 4 5 6 
#
# 1 0.007807 -0.004371 -0.003457 0.000000 0.000000 0.000000
# 2 -0.004371 0.012717 -0.002544 0.000000 0.000000 0.000000
# 3 -0.003457 -0.002544 0.019333 0.000000 0.000000 0.000000
# 4 0.000000 0.000000 0.000000 0.065993 0.000000 0.000000
# 5 0.000000 0.000000 0.000000 0.000000 0.984702 0.000000
# 6 0.000000 0.000000 0.000000 0.000000 0.000000 0.133008
#
#
# Mechanical properties :
#
#
# Convention : Reuss Voigt Hill
#
# Bulk Modulus (GPa) = 52.31933 72.16424 62.24179
# Shear Modulus (GPa) = 3.99785 19.17629 11.58707
#
# Velocity S-wave (km/s) = 1.42008 3.11016 2.41762
# Velocity P-wave (km/s) = 5.39262 7.02135 6.26018
#
# Compressibility (1/GPa) = 0.01911339
#
# Stress axis : x y z
#
# Youngs Moduli (GPa) = 128.09610 78.63541 51.72552
#
# Poissons Ratio (x) = 0.34372 0.17880
# Poissons Ratio (y) = 0.55992 0.13158
# Poissons Ratio (z) = 0.44278 0.20003
#
# Static dielectric constant tensor:
#      x y z
#    x 3.858560 0.000000 0.000000 
#    y 0.000000 3.559440 0.000000 
#    z 0.000000 0.000000 3.287240 
# 
# 
# High freq. dielectric constant tensor:
#      x y z
#    x 1.783570 0.000000 0.000000 
#    y 0.000000 1.770290 0.000000 
#    z 0.000000 0.000000 1.720190 
# 
# From -- ./inp_files/14009.got.cif
#   From: 2010.03.12/outbox.cif.g09.slc.cpg/sg47_8_cif.got.tgz:14009.got - 2010.04.14 03:12:58.
