data_PCOD8200357
_publ_section_title
;
Structure prediction by ZEFSAII (Michael W. Deem and Ramdas Pophale) SiO2 
 PCOD8200357
Probable space group: P M M M
;
_chemical_formula_sum "Si O2"
_cell_formula_units_Z 32
_cell_length_a 9.231717
_cell_length_b 12.461835
_cell_length_c 14.625830
_cell_angle_alpha 90.000000
_cell_angle_beta 90.000000
_cell_angle_gamma 90.000000
_cell_volume 1682.615947
_symmetry_space_group_name_H-M "P M M M"
_symmetry_group_IT_number 47
_symmetry_cell_setting 'orthorhombic'
loop_
_space_group_symop_operation_xyz
x,y,z
-x,-y,z
x,-y,-z
-x,y,-z
-x,-y,-z
x,y,-z
-x,y,z
x,-y,z
loop_
_atom_site_type_symbol
_atom_site_label
_atom_site_fract_x
_atom_site_fract_y
_atom_site_fract_z
Si Si1 0.831200 0.618918 0.000000
Si Si2 0.840063 0.875053 0.100287
Si Si3 0.329720 0.190790 0.730387
Si Si4 0.672348 0.000000 0.397222
Si Si5 0.169206 0.621559 0.202616
O O1 0.793103 0.672409 0.100271
O O2 0.758313 0.500000 0.000000
O O3 0.000000 0.598255 0.000000
O O4 0.711475 0.855329 0.170971
O O5 0.000000 0.836433 0.136932
O O6 0.846517 0.000000 0.081575
O O7 0.811608 0.818776 0.000000
O O8 0.500000 0.207680 0.722909
O O9 0.272440 0.107724 0.653489
O O10 0.250840 0.306478 0.721176
O O11 0.500000 0.000000 0.396351
O O12 0.734471 0.000000 0.500000
O O13 0.227292 0.500000 0.208600
O O14 0.000000 0.623760 0.223589
#
# Coordination Sequence:
#
# PCOD8200357 Si02
#       5
#     4   8   8   4   8
#     4   7  12  26  47  68  93 136 188 218 233 277
#     4   9  18  32  49  70 102 145 183 210 246 310
#     4  11  21  33  53  80 107 135 174 226 273 310
#     4   9  20  40  60  77 102 138 175 213 270 337
#     4   9  18  33  52  74 105 146 187 219 252 306
#
# _framework density 19.018004999999999
#
# number of rings (size 3 to 8) (size 9 to 14) (size 15 to 20)
#    0.000    2.750    1.250    3.000    1.750    1.000 
#    0.000    1.250    0.000    9.000    0.000    5.250 
#    0.000    0.000    0.000    0.000    0.000    0.000 
#
# Total GULP energy -396427.524695 kJ/mol
# GULP energy per Si atom -12388.360147 kJ/mol
# Density = 1.897472 g / cm^3
# Si number density = 19.018005 Si / 1000 Ang^3
#
#
#
# Elastic Constant Matrix: (Units=GPa)
#
#
# Indices 1 2 3 4 5 6 
#
# 1 46.2876 36.0194 30.0105 0.0000 0.0000 0.0000
# 2 36.0194 114.0010 64.7757 0.0000 0.0000 0.0000
# 3 30.0105 64.7757 102.4664 0.0000 0.0000 0.0000
# 4 0.0000 0.0000 0.0000 22.7703 0.0000 0.0000
# 5 0.0000 0.0000 0.0000 0.0000 12.5397 0.0000
# 6 0.0000 0.0000 0.0000 0.0000 0.0000 30.4752
#
#
#
# Elastic Compliance Matrix: (Units=1/GPa)
#
#
# Indices 1 2 3 4 5 6 
#
# 1 0.029833 -0.006962 -0.004336 0.000000 0.000000 0.000000
# 2 -0.006962 0.015314 -0.007642 0.000000 0.000000 0.000000
# 3 -0.004336 -0.007642 0.015860 0.000000 0.000000 0.000000
# 4 0.000000 0.000000 0.000000 0.043917 0.000000 0.000000
# 5 0.000000 0.000000 0.000000 0.000000 0.079747 0.000000
# 6 0.000000 0.000000 0.000000 0.000000 0.000000 0.032814
#
#
# Mechanical properties :
#
#
# Convention : Reuss Voigt Hill
#
# Bulk Modulus (GPa) = 43.24010 58.26291 50.75151
# Shear Modulus (GPa) = 19.00613 21.95367 20.47990
#
# Velocity S-wave (km/s) = 3.16472 3.40128 3.28513
# Velocity P-wave (km/s) = 6.01163 6.79169 6.41353
#
# Compressibility (1/GPa) = 0.02312668
#
# Stress axis : x y z
#
# Youngs Moduli (GPa) = 33.51969 65.30148 63.05110
#
# Poissons Ratio (x) = 0.45463 0.27342
# Poissons Ratio (y) = 0.23337 0.48182
# Poissons Ratio (z) = 0.14536 0.49901
#
# Static dielectric constant tensor:
#      x y z
#    x 3.060520 0.000000 0.000000 
#    y 0.000000 4.045540 0.000000 
#    z 0.000000 0.000000 3.354850 
# 
# 
# High freq. dielectric constant tensor:
#      x y z
#    x 1.695700 0.000000 0.000000 
#    y 0.000000 1.781990 0.000000 
#    z 0.000000 0.000000 1.695790 
# 
# From -- ./inp_files/20489.got.cif
#   From: 2010.03.12/outbox.cif.g09.slc.cpg/sg47_11_cif.got.tgz:20489.got - 2010.04.14 03:12:58.
