data_PCOD8200141
_publ_section_title
;
Structure prediction by ZEFSAII (Michael W. Deem and Ramdas Pophale) SiO2 
 PCOD8200141
Probable space group: P M M M
;
_chemical_formula_sum "Si O2"
_cell_formula_units_Z 48
_cell_length_a 15.168167
_cell_length_b 8.784043
_cell_length_c 19.678466
_cell_angle_alpha 90.000000
_cell_angle_beta 90.000000
_cell_angle_gamma 90.000000
_cell_volume 2621.916130
_symmetry_space_group_name_H-M "P M M M"
_symmetry_group_IT_number 47
_symmetry_cell_setting 'orthorhombic'
loop_
_space_group_symop_operation_xyz
x,y,z
-x,-y,z
x,-y,-z
-x,y,-z
-x,-y,-z
x,y,-z
-x,y,z
x,-y,z
loop_
_atom_site_type_symbol
_atom_site_label
_atom_site_fract_x
_atom_site_fract_y
_atom_site_fract_z
Si Si1 0.097701 0.324210 0.740313
Si Si2 0.402018 0.179851 0.423844
Si Si3 0.714880 0.322972 0.689160
Si Si4 0.900446 0.333658 0.000000
Si Si5 0.343233 0.322048 0.837555
Si Si6 0.835441 0.822123 0.130196
Si Si7 0.500000 0.179762 0.921831
O O1 0.109013 0.500000 0.762949
O O2 0.180137 0.281708 0.691312
O O3 0.102462 0.218570 0.806330
O O4 0.000000 0.299156 0.706495
O O5 0.380785 0.238344 0.500000
O O6 0.500000 0.237649 0.402191
O O7 0.326929 0.237679 0.373960
O O8 0.400703 0.000000 0.422369
O O9 0.701596 0.500000 0.677069
O O10 0.663861 0.272948 0.758111
O O11 0.884601 0.223961 0.937098
O O12 0.849680 0.500000 0.000000
O O13 0.000000 0.381384 0.000000
O O14 0.363078 0.500000 0.844118
O O15 0.251358 0.280679 0.871193
O O16 0.416325 0.232233 0.879007
O O17 0.811667 0.000000 0.131508
O O18 0.500000 0.000000 0.925382
O O19 0.500000 0.244069 0.000000
#
# Coordination Sequence:
#
# PCOD8200141 Si02
#       7
#     8   8   8   4   8   8   4
#     4   9  18  35  56  77 106 143 180 219 268 327
#     4   9  19  35  54  79 112 149 183 216 266 329
#     4   9  19  34  55  84 111 139 181 228 267 313
#     4  11  23  37  53  72  97 134 173 211 269 337
#     4  10  22  40  58  78 106 143 184 222 269 329
#     4  11  22  35  53  77 105 132 170 224 275 321
#     4  11  25  41  57  79 108 139 182 235 282 323
#
# _framework density 18.307223
#
# number of rings (size 3 to 8) (size 9 to 14) (size 15 to 20)
#    0.000    2.167    0.000    4.500    2.333    7.667 
#    0.000    0.833    0.000    0.500    0.000    3.500 
#    0.000    0.000    0.000    0.000    0.000    0.000 
#
# Total GULP energy -594885.860597 kJ/mol
# GULP energy per Si atom -12393.455429 kJ/mol
# Density = 1.826555 g / cm^3
# Si number density = 18.307223 Si / 1000 Ang^3
#
#
#
# Elastic Constant Matrix: (Units=GPa)
#
#
# Indices 1 2 3 4 5 6 
#
# 1 126.6314 23.6843 72.3940 0.0000 0.0000 0.0000
# 2 23.6843 49.6658 38.6301 0.0000 0.0000 0.0000
# 3 72.3940 38.6301 108.7294 0.0000 0.0000 0.0000
# 4 0.0000 0.0000 0.0000 31.9594 0.0000 0.0000
# 5 0.0000 0.0000 0.0000 0.0000 98.0726 0.0000
# 6 0.0000 0.0000 0.0000 0.0000 0.0000 59.2328
#
#
#
# Elastic Compliance Matrix: (Units=1/GPa)
#
#
# Indices 1 2 3 4 5 6 
#
# 1 0.012769 0.000723 -0.008759 0.000000 0.000000 0.000000
# 2 0.000723 0.027864 -0.010382 0.000000 0.000000 0.000000
# 3 -0.008759 -0.010382 0.018717 0.000000 0.000000 0.000000
# 4 0.000000 0.000000 0.000000 0.031290 0.000000 0.000000
# 5 0.000000 0.000000 0.000000 0.000000 0.010197 0.000000
# 6 0.000000 0.000000 0.000000 0.000000 0.000000 0.016883
#
#
# Mechanical properties :
#
#
# Convention : Reuss Voigt Hill
#
# Bulk Modulus (GPa) = 44.41119 61.60484 53.00801
# Shear Modulus (GPa) = 30.85297 47.87417 39.36357
#
# Velocity S-wave (km/s) = 4.10968 5.11930 4.64202
# Velocity P-wave (km/s) = 6.84330 8.28653 7.59926
#
# Compressibility (1/GPa) = 0.02251685
#
# Stress axis : x y z
#
# Youngs Moduli (GPa) = 78.31484 35.88814 53.42634
#
# Poissons Ratio (x) = -0.02596 0.46795
# Poissons Ratio (y) = -0.05666 0.55465
# Poissons Ratio (z) = 0.68595 0.37257
#
# Static dielectric constant tensor:
#      x y z
#    x 3.756530 0.000000 0.000000 
#    y 0.000000 3.315190 0.000000 
#    z 0.000000 0.000000 3.353230 
# 
# 
# High freq. dielectric constant tensor:
#      x y z
#    x 1.716400 0.000000 0.000000 
#    y 0.000000 1.711730 0.000000 
#    z 0.000000 0.000000 1.689780 
# 
# From -- ./inp_files/21092.got.cif
#   From: 2010.03.12/outbox.cif.g09.slc.cpg/sg47_11_cif.got.tgz:21092.got - 2010.04.14 03:12:58.
