data_PCOD8200433
_publ_section_title
;
Structure prediction by ZEFSAII (Michael W. Deem and Ramdas Pophale) SiO2 
 PCOD8200433
Probable space group: P M M M
;
_chemical_formula_sum "Si O2"
_cell_formula_units_Z 48
_cell_length_a 34.020346
_cell_length_b 7.822792
_cell_length_c 9.376276
_cell_angle_alpha 90.000000
_cell_angle_beta 90.000000
_cell_angle_gamma 90.000000
_cell_volume 2495.346686
_symmetry_space_group_name_H-M "P M M M"
_symmetry_group_IT_number 47
_symmetry_cell_setting 'orthorhombic'
loop_
_space_group_symop_operation_xyz
x,y,z
-x,-y,z
x,-y,-z
-x,y,-z
-x,-y,-z
x,y,-z
-x,y,z
x,-y,z
loop_
_atom_site_type_symbol
_atom_site_label
_atom_site_fract_x
_atom_site_fract_y
_atom_site_fract_z
Si Si1 0.546221 0.195020 0.663681
Si Si2 0.115830 0.694079 0.657764
Si Si3 0.955608 0.799713 0.161830
Si Si4 0.413835 0.500000 0.169986
Si Si5 0.813746 0.196110 0.845803
Si Si6 0.271537 0.808204 0.830021
Si Si7 0.323624 0.500000 0.169121
O O1 0.557767 0.234621 0.500000
O O2 0.500000 0.218248 0.684477
O O3 0.567344 0.327651 0.767857
O O4 0.558474 0.000000 0.703106
O O5 0.111400 0.774176 0.500000
O O6 0.129156 0.500000 0.648072
O O7 0.074067 0.703153 0.735614
O O8 0.150163 0.790197 0.739142
O O9 0.000000 0.755072 0.209263
O O10 0.947696 0.000000 0.173540
O O11 0.948577 0.738375 0.000000
O O12 0.368577 0.500000 0.217129
O O13 0.419391 0.500000 0.000000
O O14 0.771966 0.263152 0.784104
O O15 0.805643 0.000000 0.875012
O O16 0.824091 0.282899 0.000000
O O17 0.303076 0.672162 0.769153
O O18 0.280409 0.000000 0.769102
O O19 0.273205 0.814449 0.000000
O O20 0.319628 0.500000 0.000000
#
# Coordination Sequence:
#
# PCOD8200433 Si02
#       7
#     8   8   8   4   8   8   4
#     4   9  19  37  59  79 103 145 199 245 283 331
#     4  11  24  36  47  72 108 139 165 196 242 302
#     4   9  19  37  59  79  98 124 163 208 247 288
#     4  11  22  32  49  84 122 150 180 227 291 352
#     4   9  18  33  55  80  99 121 164 218 260 295
#     4   8  15  29  49  73 100 132 174 220 261 310
#     4   9  18  30  46  73 110 148 177 209 268 334
#
# _framework density 19.235803000000001
#
# number of rings (size 3 to 8) (size 9 to 14) (size 15 to 20)
#    0.000    2.667    0.000    3.500    1.167    7.000 
#    0.000    5.000    0.000    2.000    0.000    0.000 
#    0.000    0.000    0.000    0.000    0.000    0.000 
#
# Total GULP energy -594890.899007 kJ/mol
# GULP energy per Si atom -12393.560396 kJ/mol
# Density = 1.919202 g / cm^3
# Si number density = 19.235803 Si / 1000 Ang^3
#
#
#
# Elastic Constant Matrix: (Units=GPa)
#
#
# Indices 1 2 3 4 5 6 
#
# 1 126.9874 56.1974 55.8041 0.0000 0.0000 0.0000
# 2 56.1974 93.8744 36.8720 0.0000 0.0000 0.0000
# 3 55.8041 36.8720 84.5537 0.0000 0.0000 0.0000
# 4 0.0000 0.0000 0.0000 23.3828 0.0000 0.0000
# 5 0.0000 0.0000 0.0000 0.0000 -2.9577 0.0000
# 6 0.0000 0.0000 0.0000 0.0000 0.0000 23.5195
#
#
#
# Elastic Compliance Matrix: (Units=1/GPa)
#
#
# Indices 1 2 3 4 5 6 
#
# 1 0.012969 -0.005312 -0.006243 0.000000 0.000000 0.000000
# 2 -0.005312 0.015030 -0.003049 0.000000 0.000000 0.000000
# 3 -0.006243 -0.003049 0.017276 0.000000 0.000000 0.000000
# 4 0.000000 0.000000 0.000000 0.042767 0.000000 0.000000
# 5 0.000000 0.000000 0.000000 0.000000 -0.338103 0.000000
# 6 0.000000 0.000000 0.000000 0.000000 0.000000 0.042518
#
#
# Mechanical properties :
#
#
# Convention : Reuss Voigt Hill
#
# Bulk Modulus (GPa) = 62.23246 67.01807 64.62527
# Shear Modulus (GPa) = -28.90494 19.22504 -4.83995
#
# Velocity S-wave (km/s) = -3.88063 3.16482 -1.58795
# Velocity P-wave (km/s) = 3.51335 6.94771 5.50520
#
# Compressibility (1/GPa) = 0.01606878
#
# Stress axis : x y z
#
# Youngs Moduli (GPa) = 77.10766 66.53490 57.88227
#
# Poissons Ratio (x) = 0.35341 0.36136
# Poissons Ratio (y) = 0.40957 0.17645
# Poissons Ratio (z) = 0.48138 0.20283
#
# Static dielectric constant tensor:
#      x y z
#    x 3.572290 0.000000 0.000000 
#    y 0.000000 3.584100 0.000000 
#    z 0.000000 0.000000 3.302840 
# 
# 
# High freq. dielectric constant tensor:
#      x y z
#    x 1.750460 0.000000 0.000000 
#    y 0.000000 1.752070 0.000000 
#    z 0.000000 0.000000 1.713510 
# 
# From -- ./inp_files/13996.got.cif
#   From: 2010.03.12/outbox.cif.g09.slc.cpg/sg47_7_cif.got.tgz:13996.got - 2010.04.14 03:12:58.
