data_PCOD8200315
_publ_section_title
;
Structure prediction by ZEFSAII (Michael W. Deem and Ramdas Pophale) SiO2 
 PCOD8200315
Probable space group: P M M M
;
_chemical_formula_sum "Si O2"
_cell_formula_units_Z 52
_cell_length_a 9.230656
_cell_length_b 10.502588
_cell_length_c 30.266930
_cell_angle_alpha 90.000000
_cell_angle_beta 90.000000
_cell_angle_gamma 90.000000
_cell_volume 2934.251044
_symmetry_space_group_name_H-M "P M M M"
_symmetry_group_IT_number 47
_symmetry_cell_setting 'orthorhombic'
loop_
_space_group_symop_operation_xyz
x,y,z
-x,-y,z
x,-y,-z
-x,y,-z
-x,-y,-z
x,y,-z
-x,y,z
x,-y,z
loop_
_atom_site_type_symbol
_atom_site_label
_atom_site_fract_x
_atom_site_fract_y
_atom_site_fract_z
Si Si1 0.156062 0.359094 0.000000
Si Si2 0.330590 0.146647 0.339647
Si Si3 0.333080 0.146656 0.832061
Si Si4 0.161552 0.349756 0.500000
Si Si5 0.156602 0.000000 0.950047
Si Si6 0.330853 0.241696 0.925555
Si Si7 0.837929 0.849258 0.747311
Si Si8 0.669376 0.353035 0.586753
O O1 0.248203 0.345765 0.045268
O O2 0.102706 0.500000 0.000000
O O3 0.000000 0.280045 0.000000
O O4 0.500000 0.153710 0.329567
O O5 0.248150 0.193702 0.296034
O O6 0.285466 0.250193 0.376326
O O7 0.288455 0.000000 0.353065
O O8 0.500000 0.148387 0.817660
O O9 0.305604 0.244816 0.872540
O O10 0.240317 0.201395 0.791386
O O11 0.289603 0.000000 0.844887
O O12 0.152109 0.500000 0.500000
O O13 0.246520 0.305429 0.456538
O O14 0.000000 0.290107 0.500000
O O15 0.262106 0.113671 0.941428
O O16 0.000000 0.000000 0.923697
O O17 0.111051 0.000000 0.000000
O O18 0.500000 0.248168 0.936765
O O19 0.000000 0.792792 0.745353
O O20 0.840326 0.000000 0.749468
O O21 0.500000 0.344840 0.576298
O O22 0.709970 0.500000 0.600097
#
# Coordination Sequence:
#
# PCOD8200315 Si02
#       8
#     4   8   8   4   4   8   8   8
#     4  11  25  42  55  70  95 129 167 203 244 295
#     4   9  17  30  48  69  95 129 164 200 244 291
#     4   9  17  30  47  72 103 129 154 190 239 288
#     4   9  17  29  46  69  96 126 160 199 246 294
#     4  11  21  31  47  75 108 134 152 180 240 297
#     4  11  21  34  54  77 100 126 161 201 240 284
#     4   9  17  28  44  69  98 129 161 192 231 283
#     4   9  17  30  49  71  94 123 162 204 243 287
#
# _framework density 17.721727999999999
#
# number of rings (size 3 to 8) (size 9 to 14) (size 15 to 20)
#    0.000    2.385    1.538    1.615    0.000    5.538 
#    0.000    0.385    0.000    3.231    0.000    2.154 
#    0.000    0.000    0.000    0.000    0.000    0.000 
#
# Total GULP energy -644187.038663 kJ/mol
# GULP energy per Si atom -12388.212282 kJ/mol
# Density = 1.768139 g / cm^3
# Si number density = 17.721728 Si / 1000 Ang^3
#
#
#
# Elastic Constant Matrix: (Units=GPa)
#
#
# Indices 1 2 3 4 5 6 
#
# 1 108.2248 30.1906 81.8750 0.0000 0.0000 0.0000
# 2 30.1906 55.3074 44.3885 0.0000 0.0000 0.0000
# 3 81.8750 44.3885 151.3511 0.0000 0.0000 0.0000
# 4 0.0000 0.0000 0.0000 27.1026 0.0000 0.0000
# 5 0.0000 0.0000 0.0000 0.0000 12.9153 0.0000
# 6 0.0000 0.0000 0.0000 0.0000 0.0000 13.4498
#
#
#
# Elastic Compliance Matrix: (Units=1/GPa)
#
#
# Indices 1 2 3 4 5 6 
#
# 1 0.015865 -0.002318 -0.007903 0.000000 0.000000 0.000000
# 2 -0.002318 0.023985 -0.005781 0.000000 0.000000 0.000000
# 3 -0.007903 -0.005781 0.012578 0.000000 0.000000 0.000000
# 4 0.000000 0.000000 0.000000 0.036897 0.000000 0.000000
# 5 0.000000 0.000000 0.000000 0.000000 0.077427 0.000000
# 6 0.000000 0.000000 0.000000 0.000000 0.000000 0.074351
#
#
# Mechanical properties :
#
#
# Convention : Reuss Voigt Hill
#
# Bulk Modulus (GPa) = 48.95743 69.75460 59.35602
# Shear Modulus (GPa) = 17.86264 21.25549 19.55906
#
# Velocity S-wave (km/s) = 3.17827 3.46700 3.32577
# Velocity P-wave (km/s) = 6.41515 7.44804 6.95081
#
# Compressibility (1/GPa) = 0.02042591
#
# Stress axis : x y z
#
# Youngs Moduli (GPa) = 63.03106 41.69202 79.50668
#
# Poissons Ratio (x) = 0.09663 0.62832
# Poissons Ratio (y) = 0.14609 0.45960
# Poissons Ratio (z) = 0.49811 0.24101
#
# Static dielectric constant tensor:
#      x y z
#    x 3.520280 0.000000 0.000000 
#    y 0.000000 2.941710 0.000000 
#    z 0.000000 0.000000 3.572620 
# 
# 
# High freq. dielectric constant tensor:
#      x y z
#    x 1.700420 0.000000 0.000000 
#    y 0.000000 1.639720 0.000000 
#    z 0.000000 0.000000 1.687200 
# 
# From -- ./inp_files/33261.got.cif
#   From: 2010.03.12/outbox.cif.g09.slc.cpg/sg47_17_cif.got.tgz:33261.got - 2010.04.14 03:12:58.
