data_PCOD8200192
_publ_section_title
;
Structure prediction by ZEFSAII (Michael W. Deem and Ramdas Pophale) SiO2 
 PCOD8200192
Probable space group: P M M M
;
_chemical_formula_sum "Si O2"
_cell_formula_units_Z 44
_cell_length_a 12.789880
_cell_length_b 19.544635
_cell_length_c 13.887352
_cell_angle_alpha 90.000000
_cell_angle_beta 90.000000
_cell_angle_gamma 90.000000
_cell_volume 3471.470489
_symmetry_space_group_name_H-M "P M M M"
_symmetry_group_IT_number 47
_symmetry_cell_setting 'orthorhombic'
loop_
_space_group_symop_operation_xyz
x,y,z
-x,-y,z
x,-y,-z
-x,y,-z
-x,-y,-z
x,y,-z
-x,y,z
x,-y,z
loop_
_atom_site_type_symbol
_atom_site_label
_atom_site_fract_x
_atom_site_fract_y
_atom_site_fract_z
Si Si1 0.806678 0.147361 0.209427
Si Si2 0.883230 0.572342 0.885868
Si Si3 0.000000 0.919598 0.893484
Si Si4 0.877266 0.921699 0.609682
Si Si5 0.619417 0.078600 0.111166
Si Si6 0.125064 0.720227 0.110728
O O1 0.895235 0.102774 0.158557
O O2 0.814964 0.131966 0.323351
O O3 0.691922 0.126342 0.175496
O O4 0.822587 0.226849 0.184411
O O5 0.826329 0.500000 0.853754
O O6 0.832002 0.644927 0.854676
O O7 0.000000 0.570040 0.843341
O O8 0.889845 0.574764 0.000000
O O9 0.000000 0.000000 0.899045
O O10 0.000000 0.886654 0.000000
O O11 0.847027 0.904675 0.500000
O O12 0.000000 0.911828 0.626731
O O13 0.846128 0.000000 0.634593
O O14 0.500000 0.100209 0.130273
O O15 0.637079 0.000000 0.140359
O O16 0.648900 0.089351 0.000000
O O17 0.000000 0.724020 0.119558
O O18 0.158215 0.735749 0.000000
#
# Coordination Sequence:
#
# PCOD8200192 Si02
#       6
#     8   8   4   8   8   8
#     4  12  18  25  39  54  73  94 117 152 191 222
#     4   7  10  17  28  41  63  98 127 137 151 195
#     4  11  20  24  31  53  78  96 111 132 173 227
#     4   9  17  28  39  51  69  94 124 153 183 224
#     4   9  18  30  40  50  68  98 131 154 174 211
#     4   9  15  21  30  50  78  98 112 138 179 219
#
# _framework density 12.674744
#
# number of rings (size 3 to 8) (size 9 to 14) (size 15 to 20)
#    0.000    2.636    1.818    6.000    0.000    1.455 
#    0.000    0.000    0.000    0.545    0.000    2.545 
#    0.000    1.455    0.000   13.455    0.000    0.727 
#
# Total GULP energy -545090.855093 kJ/mol
# GULP energy per Si atom -12388.428525 kJ/mol
# Density = 1.264590 g / cm^3
# Si number density = 12.674744 Si / 1000 Ang^3
#
#
#
# Elastic Constant Matrix: (Units=GPa)
#
#
# Indices 1 2 3 4 5 6 
#
# 1 39.8842 24.5979 19.7816 0.0000 0.0000 0.0000
# 2 24.5979 112.7281 43.6048 0.0000 0.0000 0.0000
# 3 19.7816 43.6048 61.5371 0.0000 0.0000 0.0000
# 4 0.0000 0.0000 0.0000 9.4198 0.0000 0.0000
# 5 0.0000 0.0000 0.0000 0.0000 12.1839 0.0000
# 6 0.0000 0.0000 0.0000 0.0000 0.0000 8.7186
#
#
#
# Elastic Compliance Matrix: (Units=1/GPa)
#
#
# Indices 1 2 3 4 5 6 
#
# 1 0.031097 -0.004021 -0.007147 0.000000 0.000000 0.000000
# 2 -0.004021 0.012740 -0.007735 0.000000 0.000000 0.000000
# 3 -0.007147 -0.007735 0.024029 0.000000 0.000000 0.000000
# 4 0.000000 0.000000 0.000000 0.106159 0.000000 0.000000
# 5 0.000000 0.000000 0.000000 0.000000 0.082075 0.000000
# 6 0.000000 0.000000 0.000000 0.000000 0.000000 0.114697
#
#
# Mechanical properties :
#
#
# Convention : Reuss Voigt Hill
#
# Bulk Modulus (GPa) = 33.26691 43.34643 38.30667
# Shear Modulus (GPa) = 11.94386 14.47548 13.20967
#
# Velocity S-wave (km/s) = 3.07308 3.38312 3.23182
# Velocity P-wave (km/s) = 6.23661 7.03804 6.64941
#
# Compressibility (1/GPa) = 0.03005990
#
# Stress axis : x y z
#
# Youngs Moduli (GPa) = 32.15715 78.49064 41.61642
#
# Poissons Ratio (x) = 0.31561 0.29744
# Poissons Ratio (y) = 0.12930 0.32191
# Poissons Ratio (z) = 0.22983 0.60714
#
# Static dielectric constant tensor:
#      x y z
#    x 2.283500 0.000000 0.000000 
#    y 0.000000 2.922340 0.000000 
#    z 0.000000 0.000000 2.441550 
# 
# 
# High freq. dielectric constant tensor:
#      x y z
#    x 1.440790 0.000000 0.000000 
#    y 0.000000 1.480380 0.000000 
#    z 0.000000 0.000000 1.451180 
# 
# From -- ./inp_files/22973.got.cif
#   From: 2010.03.12/outbox.cif.g09.slc.cpg/sg47_12_cif.got.tgz:22973.got - 2010.04.14 03:12:58.
