data_PCOD8200343
_publ_section_title
;
Structure prediction by ZEFSAII (Michael W. Deem and Ramdas Pophale) SiO2 
 PCOD8200343
Probable space group: P M M M
;
_chemical_formula_sum "Si O2"
_cell_formula_units_Z 52
_cell_length_a 9.398701
_cell_length_b 10.705798
_cell_length_c 29.252311
_cell_angle_alpha 90.000000
_cell_angle_beta 90.000000
_cell_angle_gamma 90.000000
_cell_volume 2943.384919
_symmetry_space_group_name_H-M "P M M M"
_symmetry_group_IT_number 47
_symmetry_cell_setting 'orthorhombic'
loop_
_space_group_symop_operation_xyz
x,y,z
-x,-y,z
x,-y,-z
-x,y,-z
-x,-y,-z
x,y,-z
-x,y,z
x,-y,z
loop_
_atom_site_type_symbol
_atom_site_label
_atom_site_fract_x
_atom_site_fract_y
_atom_site_fract_z
Si Si1 0.656071 0.355399 0.449940
Si Si2 0.163376 0.641207 0.053929
Si Si3 0.656123 0.146862 0.208309
Si Si4 0.669394 0.143233 0.894070
Si Si5 0.158449 0.148540 0.290367
Si Si6 0.334546 0.000000 0.553773
Si Si7 0.168361 0.794015 0.608756
O O1 0.698372 0.298918 0.500000
O O2 0.500000 0.299093 0.435768
O O3 0.638105 0.500000 0.455516
O O4 0.779878 0.337473 0.411598
O O5 0.210164 0.500000 0.069461
O O6 0.258299 0.751468 0.074985
O O7 0.000000 0.663503 0.068284
O O8 0.181152 0.651534 0.000000
O O9 0.500000 0.207762 0.212495
O O10 0.719070 0.172182 0.157861
O O11 0.752618 0.206144 0.248213
O O12 0.644424 0.000000 0.216019
O O13 0.500000 0.155123 0.898509
O O14 0.714212 0.000000 0.907661
O O15 0.219768 0.193756 0.338904
O O16 0.000000 0.200592 0.283978
O O17 0.160115 0.000000 0.289714
O O18 0.257629 0.882268 0.575669
O O19 0.500000 0.000000 0.566747
O O20 0.309448 0.000000 0.500000
O O21 0.000000 0.818570 0.604866
#
# Coordination Sequence:
#
# PCOD8200343 Si02
#       7
#     8   8   8   8   8   4   8
#     4   9  19  36  54  70  90 118 155 197 237 283
#     4   9  19  35  52  72 102 140 181 221 258 304
#     4   8  15  28  46  69  96 126 160 199 242 289
#     4   9  18  32  50  76 108 135 167 216 266 310
#     4   9  17  30  45  66  98 129 157 192 237 290
#     4  11  23  35  47  67  97 131 163 191 228 285
#     4  11  21  33  49  72 100 125 153 195 242 286
#
# _framework density 17.666734999999999
#
# number of rings (size 3 to 8) (size 9 to 14) (size 15 to 20)
#    0.000    2.692    0.769    3.000    0.000    6.154 
#    0.000    4.615    0.000    0.923    0.000    0.000 
#    0.000    0.000    0.000    0.000    0.000    0.000 
#
# Total GULP energy -644194.502793 kJ/mol
# GULP energy per Si atom -12388.355823 kJ/mol
# Density = 1.762652 g / cm^3
# Si number density = 17.666735 Si / 1000 Ang^3
#
#
#
# Elastic Constant Matrix: (Units=GPa)
#
#
# Indices 1 2 3 4 5 6 
#
# 1 74.8463 36.7265 52.3905 0.0000 0.0000 0.0000
# 2 36.7265 71.1272 43.5804 0.0000 0.0000 0.0000
# 3 52.3905 43.5804 99.3579 0.0000 0.0000 0.0000
# 4 0.0000 0.0000 0.0000 23.9906 0.0000 0.0000
# 5 0.0000 0.0000 0.0000 0.0000 34.7905 0.0000
# 6 0.0000 0.0000 0.0000 0.0000 0.0000 36.8670
#
#
#
# Elastic Compliance Matrix: (Units=1/GPa)
#
#
# Indices 1 2 3 4 5 6 
#
# 1 0.022942 -0.006064 -0.009438 0.000000 0.000000 0.000000
# 2 -0.006064 0.020829 -0.005939 0.000000 0.000000 0.000000
# 3 -0.009438 -0.005939 0.017646 0.000000 0.000000 0.000000
# 4 0.000000 0.000000 0.000000 0.041683 0.000000 0.000000
# 5 0.000000 0.000000 0.000000 0.000000 0.028743 0.000000
# 6 0.000000 0.000000 0.000000 0.000000 0.000000 0.027125
#
#
# Mechanical properties :
#
#
# Convention : Reuss Voigt Hill
#
# Bulk Modulus (GPa) = 53.94588 56.74737 55.34662
# Shear Modulus (GPa) = 24.03534 26.63854 25.33694
#
# Velocity S-wave (km/s) = 3.69248 3.88730 3.79114
# Velocity P-wave (km/s) = 6.98432 7.23456 7.11054
#
# Compressibility (1/GPa) = 0.01853710
#
# Stress axis : x y z
#
# Youngs Moduli (GPa) = 43.58782 48.00993 56.67072
#
# Poissons Ratio (x) = 0.29112 0.53483
# Poissons Ratio (y) = 0.26430 0.33655
# Poissons Ratio (z) = 0.41136 0.28512
#
# Static dielectric constant tensor:
#      x y z
#    x 3.406120 0.000000 0.000000 
#    y 0.000000 -16.937230 0.000000 
#    z 0.000000 0.000000 3.407650 
# 
# 
# High freq. dielectric constant tensor:
#      x y z
#    x 1.681770 0.000000 0.000000 
#    y 0.000000 1.656240 0.000000 
#    z 0.000000 0.000000 1.684610 
# 
# From -- ./inp_files/34282.got.cif
#   From: 2010.03.12/outbox.cif.g09.slc.cpg/sg47_18_cif.got.tgz:34282.got - 2010.04.14 03:12:58.
