data_PCOD8200070
_publ_section_title
;
Structure prediction by ZEFSAII (Michael W. Deem and Ramdas Pophale) SiO2 
 PCOD8200070
Probable space group: P M M M
;
_chemical_formula_sum "Si O2"
_cell_formula_units_Z 56
_cell_length_a 15.852505
_cell_length_b 19.258944
_cell_length_c 8.917538
_cell_angle_alpha 90.000000
_cell_angle_beta 90.000000
_cell_angle_gamma 90.000000
_cell_volume 2722.546699
_symmetry_space_group_name_H-M "P M M M"
_symmetry_group_IT_number 47
_symmetry_cell_setting 'orthorhombic'
loop_
_space_group_symop_operation_xyz
x,y,z
-x,-y,z
x,-y,-z
-x,y,-z
-x,-y,-z
x,y,-z
-x,y,z
x,-y,z
loop_
_atom_site_type_symbol
_atom_site_label
_atom_site_fract_x
_atom_site_fract_y
_atom_site_fract_z
Si Si1 0.666648 0.791041 0.324266
Si Si2 0.593451 0.667262 0.826483
Si Si3 0.400810 0.921721 0.170597
Si Si4 0.900903 0.077997 0.670871
Si Si5 0.245823 0.579520 0.823283
Si Si6 0.839257 0.210547 0.176174
Si Si7 0.905560 0.338452 0.673835
O O1 0.682335 0.785638 0.500000
O O2 0.594361 0.738200 0.270420
O O3 0.645120 0.870322 0.284420
O O4 0.748571 0.765315 0.234835
O O5 0.500000 0.633865 0.803234
O O6 0.666451 0.614925 0.770353
O O7 0.607271 0.686643 0.000000
O O8 0.500000 0.915104 0.193131
O O9 0.371371 0.000000 0.208091
O O10 0.376009 0.902484 0.000000
O O11 0.876019 0.095696 0.500000
O O12 0.854435 0.130584 0.781128
O O13 0.000000 0.085047 0.693747
O O14 0.871686 0.000000 0.711768
O O15 0.251405 0.500000 0.772544
O O16 0.163418 0.612143 0.748253
O O17 0.234463 0.587280 0.000000
O O18 0.906345 0.261795 0.252660
O O19 0.844599 0.219547 0.000000
O O20 0.883381 0.330809 0.500000
O O21 0.000000 0.369447 0.696435
#
# Coordination Sequence:
#
# PCOD8200070 Si02
#       7
#     8   8   8   8   8   8   8
#     4  12  24  37  57  85 119 159 204 255 309 365
#     4  10  21  39  64  93 127 167 208 252 304 363
#     4   9  19  37  59  82 112 153 201 253 309 368
#     4   9  19  37  59  83 115 155 198 247 305 368
#     4  10  22  41  66  97 131 167 208 252 298 357
#     4  12  24  38  59  86 118 157 204 258 312 364
#     4  11  24  42  65  93 126 166 209 254 310 371
#
# _framework density 20.568977
#
# number of rings (size 3 to 8) (size 9 to 14) (size 15 to 20)
#    0.000    1.571    1.429    4.714    0.000    7.429 
#    0.000    4.286    0.000    0.000    0.000    2.000 
#    0.000    0.000    0.000    0.000    0.000    0.000 
#
# Total GULP energy -694508.692764 kJ/mol
# GULP energy per Si atom -12401.940942 kJ/mol
# Density = 2.052216 g / cm^3
# Si number density = 20.568977 Si / 1000 Ang^3
#
#
#
# Elastic Constant Matrix: (Units=GPa)
#
#
# Indices 1 2 3 4 5 6 
#
# 1 110.4586 52.7772 36.8802 0.0000 0.0000 0.0000
# 2 52.7772 124.3719 48.6616 0.0000 0.0000 0.0000
# 3 36.8802 48.6616 73.3124 0.0000 0.0000 0.0000
# 4 0.0000 0.0000 0.0000 26.3782 0.0000 0.0000
# 5 0.0000 0.0000 0.0000 0.0000 21.7695 0.0000
# 6 0.0000 0.0000 0.0000 0.0000 0.0000 28.3399
#
#
#
# Elastic Compliance Matrix: (Units=1/GPa)
#
#
# Indices 1 2 3 4 5 6 
#
# 1 0.012018 -0.003694 -0.003594 0.000000 0.000000 0.000000
# 2 -0.003694 0.011996 -0.006104 0.000000 0.000000 0.000000
# 3 -0.003594 -0.006104 0.019500 0.000000 0.000000 0.000000
# 4 0.000000 0.000000 0.000000 0.037910 0.000000 0.000000
# 5 0.000000 0.000000 0.000000 0.000000 0.045936 0.000000
# 6 0.000000 0.000000 0.000000 0.000000 0.000000 0.035286
#
#
# Mechanical properties :
#
#
# Convention : Reuss Voigt Hill
#
# Bulk Modulus (GPa) = 59.77264 64.97565 62.37415
# Shear Modulus (GPa) = 25.64009 26.61912 26.12961
#
# Velocity S-wave (km/s) = 3.53447 3.60132 3.56805
# Velocity P-wave (km/s) = 6.76604 6.99645 6.88221
#
# Compressibility (1/GPa) = 0.01673006
#
# Stress axis : x y z
#
# Youngs Moduli (GPa) = 83.20876 83.35970 51.28168
#
# Poissons Ratio (x) = 0.30790 0.18431
# Poissons Ratio (y) = 0.30734 0.31305
# Poissons Ratio (z) = 0.29906 0.50887
#
# Static dielectric constant tensor:
#      x y z
#    x 3.759890 0.000000 0.000000 
#    y 0.000000 3.831390 0.000000 
#    z 0.000000 0.000000 3.569380 
# 
# 
# High freq. dielectric constant tensor:
#      x y z
#    x 1.810180 0.000000 0.000000 
#    y 0.000000 1.803590 0.000000 
#    z 0.000000 0.000000 1.795960 
# 
# From -- ./inp_files/7206.got.cif
#   From: 2010.03.12/outbox.cif.g09.slc.cpg/sg47_4_cif.got.tgz:7206.got - 2010.04.14 03:12:58.
