data_PCOD8200865
_publ_section_title
;
Structure prediction by ZEFSAII (Michael W. Deem and Ramdas Pophale) SiO2 
 PCOD8200865
Probable space group: P M M M
;
_chemical_formula_sum "Si O2"
_cell_formula_units_Z 36
_cell_length_a 7.714486
_cell_length_b 9.532023
_cell_length_c 25.234921
_cell_angle_alpha 90.000000
_cell_angle_beta 90.000000
_cell_angle_gamma 90.000000
_cell_volume 1855.641285
_symmetry_space_group_name_H-M "P M M M"
_symmetry_group_IT_number 47
_symmetry_cell_setting 'orthorhombic'
loop_
_space_group_symop_operation_xyz
x,y,z
-x,-y,z
x,-y,-z
-x,y,-z
-x,-y,-z
x,y,-z
-x,y,z
x,-y,z
loop_
_atom_site_type_symbol
_atom_site_label
_atom_site_fract_x
_atom_site_fract_y
_atom_site_fract_z
Si Si1 0.706049 0.342748 0.441255
Si Si2 0.000000 0.667546 0.059727
Si Si3 0.707108 0.157920 0.654593
Si Si4 0.692560 0.667060 0.867683
Si Si5 0.705410 0.344045 0.249720
O O1 0.770044 0.297309 0.500000
O O2 0.500000 0.341360 0.439488
O O3 0.772236 0.500000 0.428308
O O4 0.780617 0.235385 0.397756
O O5 0.828646 0.725445 0.089330
O O6 0.000000 0.500000 0.060178
O O7 0.000000 0.726074 0.000000
O O8 0.500000 0.158151 0.654696
O O9 0.780404 0.238211 0.706304
O O10 0.779811 0.000000 0.655078
O O11 0.500000 0.726575 0.880774
O O12 0.685948 0.500000 0.868971
O O13 0.754267 0.713254 0.808831
O O14 0.500000 0.353601 0.254439
O O15 0.783668 0.500000 0.259016
#
# Coordination Sequence:
#
# PCOD8200865 Si02
#       5
#     8   4   8   8   8
#     4   8  13  20  28  38  57  91 133 170 206 255
#     4   9  16  24  36  58  87 115 142 175 216 259
#     4   9  15  20  28  45  67  90 123 171 220 260
#     4   8  14  24  37  54  78 110 145 177 213 260
#     4   8  13  22  35  48  66  97 134 168 205 254
#
# _framework density 19.400302
#
# number of rings (size 3 to 8) (size 9 to 14) (size 15 to 20)
#    0.000    3.667    0.000    2.667    0.000    3.556 
#    0.000    4.444    0.000    0.000    0.000    0.778 
#    0.000    1.778    0.000    9.667    0.000   34.222 
#
# Total GULP energy -446098.296077 kJ/mol
# GULP energy per Si atom -12391.619335 kJ/mol
# Density = 1.935615 g / cm^3
# Si number density = 19.400302 Si / 1000 Ang^3
#
#
#
# Elastic Constant Matrix: (Units=GPa)
#
#
# Indices 1 2 3 4 5 6 
#
# 1 52.1214 18.3617 49.3905 0.0000 0.0000 0.0000
# 2 18.3617 91.4646 78.4020 0.0000 0.0000 0.0000
# 3 49.3905 78.4020 203.6335 0.0000 0.0000 0.0000
# 4 0.0000 0.0000 0.0000 6.6183 0.0000 0.0000
# 5 0.0000 0.0000 0.0000 0.0000 -5.4595 0.0000
# 6 0.0000 0.0000 0.0000 0.0000 0.0000 -0.5337
#
#
#
# Elastic Compliance Matrix: (Units=1/GPa)
#
#
# Indices 1 2 3 4 5 6 
#
# 1 0.024916 0.000266 -0.006146 0.000000 0.000000 0.000000
# 2 0.000266 0.016322 -0.006349 0.000000 0.000000 0.000000
# 3 -0.006146 -0.006349 0.008846 0.000000 0.000000 0.000000
# 4 0.000000 0.000000 0.000000 0.151097 0.000000 0.000000
# 5 0.000000 0.000000 0.000000 0.000000 -0.183167 0.000000
# 6 0.000000 0.000000 0.000000 0.000000 0.000000 -1.873695
#
#
# Mechanical properties :
#
#
# Convention : Reuss Voigt Hill
#
# Bulk Modulus (GPa) = 39.02159 71.05864 55.04011
# Shear Modulus (GPa) = -2.74321 13.52936 5.39308
#
# Velocity S-wave (km/s) = -1.19041 2.64366 1.66911
# Velocity P-wave (km/s) = 4.27412 6.78422 5.66982
#
# Compressibility (1/GPa) = 0.02562684
#
# Stress axis : x y z
#
# Youngs Moduli (GPa) = 40.13494 61.26796 113.04896
#
# Poissons Ratio (x) = -0.01630 0.69477
# Poissons Ratio (y) = -0.01068 0.71771
# Poissons Ratio (z) = 0.24666 0.38897
#
# Static dielectric constant tensor:
#      x y z
#    x 3.176290 0.000000 0.000000 
#    y 0.000000 3.317270 0.000000 
#    z 0.000000 0.000000 3.910110 
# 
# 
# High freq. dielectric constant tensor:
#      x y z
#    x 1.717220 0.000000 0.000000 
#    y 0.000000 1.701240 0.000000 
#    z 0.000000 0.000000 1.763420 
# 
# From -- ./inp_files/31649.got.cif
#   From: 2010.03.12/outbox.cif.g09.slc.cpg/sg47_16_cif.got.tgz:31649.got - 2010.04.14 03:12:58.
