data_PCOD8200484
_publ_section_title
;
Structure prediction by ZEFSAII (Michael W. Deem and Ramdas Pophale) SiO2 
 PCOD8200484
Probable space group: P M M M
;
_chemical_formula_sum "Si O2"
_cell_formula_units_Z 40
_cell_length_a 11.462372
_cell_length_b 9.120145
_cell_length_c 23.286548
_cell_angle_alpha 90.000000
_cell_angle_beta 90.000000
_cell_angle_gamma 90.000000
_cell_volume 2434.340674
_symmetry_space_group_name_H-M "P M M M"
_symmetry_group_IT_number 47
_symmetry_cell_setting 'orthorhombic'
loop_
_space_group_symop_operation_xyz
x,y,z
-x,-y,z
x,-y,-z
-x,y,-z
-x,-y,-z
x,y,-z
-x,y,z
x,-y,z
loop_
_atom_site_type_symbol
_atom_site_label
_atom_site_fract_x
_atom_site_fract_y
_atom_site_fract_z
Si Si1 0.265368 0.826579 0.399505
Si Si2 0.138718 0.835179 0.063015
Si Si3 0.862383 0.666501 0.500000
Si Si4 0.139050 0.664179 0.171773
Si Si5 0.867591 0.170096 0.283714
Si Si6 0.500000 0.327862 0.567968
O O1 0.178166 0.754004 0.444456
O O2 0.214682 0.792635 0.336970
O O3 0.389848 0.750100 0.403700
O O4 0.275409 0.000000 0.411569
O O5 0.191754 0.736491 0.113959
O O6 0.000000 0.834212 0.066582
O O7 0.185238 0.000000 0.071464
O O8 0.177842 0.775618 0.000000
O O9 0.810480 0.500000 0.500000
O O10 0.000000 0.660214 0.500000
O O11 0.186901 0.500000 0.174538
O O12 0.183891 0.747069 0.228401
O O13 0.000000 0.669988 0.169878
O O14 0.000000 0.220692 0.297973
O O15 0.865687 0.000000 0.268560
O O16 0.500000 0.500000 0.582457
O O17 0.500000 0.300284 0.500000
#
# Coordination Sequence:
#
# PCOD8200484 Si02
#       6
#     8   8   4   8   8   4
#     4  11  22  36  56  76  94 120 158 198 233 274
#     4   8  13  21  33  49  72 107 150 191 228 265
#     4  11  23  36  51  74 103 129 151 183 232 283
#     4   9  16  24  36  56  82 114 150 187 227 271
#     4   9  18  32  48  67  92 121 153 190 232 277
#     4  11  23  39  57  75  98 124 151 186 237 292
#
# _framework density 16.431553999999998
#
# number of rings (size 3 to 8) (size 9 to 14) (size 15 to 20)
#    0.000    2.400    1.000    3.000    0.000    6.400 
#    0.000    4.000    0.000    0.000    0.000    0.000 
#    0.000    0.000    0.000    0.900    0.000   17.800 
#
# Total GULP energy -495906.929563 kJ/mol
# GULP energy per Si atom -12397.673239 kJ/mol
# Density = 1.639416 g / cm^3
# Si number density = 16.431554 Si / 1000 Ang^3
#
#
#
# Elastic Constant Matrix: (Units=GPa)
#
#
# Indices 1 2 3 4 5 6 
#
# 1 56.3603 36.9738 41.3832 0.0000 0.0000 0.0000
# 2 36.9738 115.3464 89.9563 0.0000 0.0000 0.0000
# 3 41.3832 89.9563 161.2207 0.0000 0.0000 0.0000
# 4 0.0000 0.0000 0.0000 14.7322 0.0000 0.0000
# 5 0.0000 0.0000 0.0000 0.0000 -10.5944 0.0000
# 6 0.0000 0.0000 0.0000 0.0000 0.0000 22.6995
#
#
#
# Elastic Compliance Matrix: (Units=1/GPa)
#
#
# Indices 1 2 3 4 5 6 
#
# 1 0.023376 -0.004981 -0.003221 0.000000 0.000000 0.000000
# 2 -0.004981 0.016410 -0.007878 0.000000 0.000000 0.000000
# 3 -0.003221 -0.007878 0.011425 0.000000 0.000000 0.000000
# 4 0.000000 0.000000 0.000000 0.067878 0.000000 0.000000
# 5 0.000000 0.000000 0.000000 0.000000 -0.094390 0.000000
# 6 0.000000 0.000000 0.000000 0.000000 0.000000 0.044054
#
#
# Mechanical properties :
#
#
# Convention : Reuss Voigt Hill
#
# Bulk Modulus (GPa) = 52.49010 74.39489 63.44249
# Shear Modulus (GPa) = 46.61469 16.34176 31.47822
#
# Velocity S-wave (km/s) = 5.33203 3.15705 4.38164
# Velocity P-wave (km/s) = 8.36191 7.65919 8.01825
#
# Compressibility (1/GPa) = 0.01905121
#
# Stress axis : x y z
#
# Youngs Moduli (GPa) = 42.77954 60.93944 87.52801
#
# Poissons Ratio (x) = 0.30354 0.28193
# Poissons Ratio (y) = 0.21308 0.68951
# Poissons Ratio (z) = 0.13779 0.48006
#
# Static dielectric constant tensor:
#      x y z
#    x 2.658100 0.000000 0.000000 
#    y 0.000000 3.307550 0.000000 
#    z 0.000000 0.000000 3.330860 
# 
# 
# High freq. dielectric constant tensor:
#      x y z
#    x 1.571400 0.000000 0.000000 
#    y 0.000000 1.644920 0.000000 
#    z 0.000000 0.000000 1.645530 
# 
# From -- ./inp_files/18929.got.cif
#   From: 2010.03.12/outbox.cif.g09.slc.cpg/sg47_10_cif.got.tgz:18929.got - 2010.04.14 03:12:58.
