data_PCOD8200420
_publ_section_title
;
Structure prediction by ZEFSAII (Michael W. Deem and Ramdas Pophale) SiO2 
 PCOD8200420
Probable space group: P M M M
;
_chemical_formula_sum "Si O2"
_cell_formula_units_Z 60
_cell_length_a 19.375208
_cell_length_b 13.231374
_cell_length_c 12.769342
_cell_angle_alpha 90.000000
_cell_angle_beta 90.000000
_cell_angle_gamma 90.000000
_cell_volume 3273.556475
_symmetry_space_group_name_H-M "P M M M"
_symmetry_group_IT_number 47
_symmetry_cell_setting 'orthorhombic'
loop_
_space_group_symop_operation_xyz
x,y,z
-x,-y,z
x,-y,-z
-x,y,-z
-x,-y,-z
x,y,-z
-x,y,z
x,-y,z
loop_
_atom_site_type_symbol
_atom_site_label
_atom_site_fract_x
_atom_site_fract_y
_atom_site_fract_z
Si Si1 0.577422 0.380625 0.616939
Si Si2 0.576760 0.888119 0.123388
Si Si3 0.918565 0.111308 0.000000
Si Si4 0.800995 0.382002 0.123044
Si Si5 0.099261 0.887687 0.383530
Si Si6 0.324044 0.732387 0.771493
Si Si7 0.077707 0.248881 0.189715
Si Si8 0.261790 0.889081 0.615913
O O1 0.599396 0.344302 0.500000
O O2 0.500000 0.341031 0.641179
O O3 0.578563 0.500000 0.621395
O O4 0.629475 0.342576 0.704423
O O5 0.500000 0.864851 0.167972
O O6 0.628719 0.800819 0.155626
O O7 0.600297 0.000000 0.163183
O O8 0.574002 0.888855 0.000000
O O9 0.894150 0.169095 0.104070
O O10 0.000000 0.100508 0.000000
O O11 0.883989 0.000000 0.000000
O O12 0.795058 0.500000 0.148822
O O13 0.730131 0.329483 0.158855
O O14 0.867653 0.340696 0.187129
O O15 0.812038 0.362446 0.000000
O O16 0.071850 0.859391 0.500000
O O17 0.072653 0.804308 0.302387
O O18 0.180486 0.889915 0.385426
O O19 0.071923 0.000000 0.352178
O O20 0.283472 0.803981 0.694501
O O21 0.000000 0.287726 0.161556
O O22 0.290492 0.864180 0.500000
O O23 0.289181 0.000000 0.650524
#
# Coordination Sequence:
#
# PCOD8200420 Si02
#       8
#     8   8   4   8   8   8   8   8
#     4   9  19  35  54  80 112 142 178 225 273 323
#     4   9  19  35  53  77 111 147 181 216 259 322
#     4   9  18  32  53  83 113 137 169 222 278 327
#     4  11  25  42  57  78 108 140 185 245 296 338
#     4   9  18  34  55  82 117 152 181 213 266 339
#     4  12  19  33  58  82 105 140 185 225 276 321
#     4  11  21  37  59  82 109 146 190 231 282 342
#     4   9  18  31  49  77 112 144 172 208 256 317
#
# _framework density 18.328689000000001
#
# number of rings (size 3 to 8) (size 9 to 14) (size 15 to 20)
#    0.000    2.067    2.000    4.000    0.000    1.333 
#    0.000    1.333    0.000    1.200    0.000   12.133 
#    0.000    0.000    0.000    0.000    0.000    0.000 
#
# Total GULP energy -743690.494695 kJ/mol
# GULP energy per Si atom -12394.841578 kJ/mol
# Density = 1.828697 g / cm^3
# Si number density = 18.328689 Si / 1000 Ang^3
#
#
#
# Elastic Constant Matrix: (Units=GPa)
#
#
# Indices 1 2 3 4 5 6 
#
# 1 99.7098 54.0002 35.2102 0.0000 0.0000 0.0000
# 2 54.0002 105.2705 44.6021 0.0000 0.0000 0.0000
# 3 35.2102 44.6021 81.3273 0.0000 0.0000 0.0000
# 4 0.0000 0.0000 0.0000 33.3532 0.0000 0.0000
# 5 0.0000 0.0000 0.0000 0.0000 16.7500 0.0000
# 6 0.0000 0.0000 0.0000 0.0000 0.0000 14.1928
#
#
#
# Elastic Compliance Matrix: (Units=1/GPa)
#
#
# Indices 1 2 3 4 5 6 
#
# 1 0.014373 -0.006170 -0.002839 0.000000 0.000000 0.000000
# 2 -0.006170 0.015024 -0.005568 0.000000 0.000000 0.000000
# 3 -0.002839 -0.005568 0.016579 0.000000 0.000000 0.000000
# 4 0.000000 0.000000 0.000000 0.029982 0.000000 0.000000
# 5 0.000000 0.000000 0.000000 0.000000 0.059702 0.000000
# 6 0.000000 0.000000 0.000000 0.000000 0.000000 0.070458
#
#
# Mechanical properties :
#
#
# Convention : Reuss Voigt Hill
#
# Bulk Modulus (GPa) = 59.44828 61.54809 60.49818
# Shear Modulus (GPa) = 20.75733 23.02552 21.89143
#
# Velocity S-wave (km/s) = 3.36892 3.54821 3.45973
# Velocity P-wave (km/s) = 6.90202 7.10208 7.00276
#
# Compressibility (1/GPa) = 0.01682134
#
# Stress axis : x y z
#
# Youngs Moduli (GPa) = 69.57394 66.56235 60.31830
#
# Poissons Ratio (x) = 0.41070 0.17124
# Poissons Ratio (y) = 0.42928 0.33585
# Poissons Ratio (z) = 0.19752 0.37062
#
# Static dielectric constant tensor:
#      x y z
#    x 3.446270 0.000000 0.000000 
#    y 0.000000 3.426320 0.000000 
#    z 0.000000 0.000000 3.559420 
# 
# 
# High freq. dielectric constant tensor:
#      x y z
#    x 1.712360 0.000000 0.000000 
#    y 0.000000 1.701690 0.000000 
#    z 0.000000 0.000000 1.711990 
# 
# From -- ./inp_files/16599.got.cif
#   From: 2010.03.12/outbox.cif.g09.slc.cpg/sg47_9_cif.got.tgz:16599.got - 2010.04.14 03:12:58.
