data_PCOD8200549
_publ_section_title
;
Structure prediction by ZEFSAII (Michael W. Deem and Ramdas Pophale) SiO2 
 PCOD8200549
Probable space group: P M M M
;
_chemical_formula_sum "Si O2"
_cell_formula_units_Z 52
_cell_length_a 20.043079
_cell_length_b 9.236419
_cell_length_c 14.235120
_cell_angle_alpha 90.000000
_cell_angle_beta 90.000000
_cell_angle_gamma 90.000000
_cell_volume 2635.294750
_symmetry_space_group_name_H-M "P M M M"
_symmetry_group_IT_number 47
_symmetry_cell_setting 'orthorhombic'
loop_
_space_group_symop_operation_xyz
x,y,z
-x,-y,z
x,-y,-z
-x,y,-z
-x,-y,-z
x,y,-z
-x,y,z
x,-y,z
loop_
_atom_site_type_symbol
_atom_site_label
_atom_site_fract_x
_atom_site_fract_y
_atom_site_fract_z
Si Si1 0.578464 0.830982 0.697387
Si Si2 0.308689 0.667089 0.607616
Si Si3 0.075772 0.334935 0.389679
Si Si4 0.000000 0.660968 0.888543
Si Si5 0.574916 0.828297 0.900997
Si Si6 0.807778 0.167075 0.292560
Si Si7 0.872461 0.834676 0.105365
O O1 0.500000 0.798558 0.686679
O O2 0.618665 0.738540 0.621270
O O3 0.606087 0.779479 0.801154
O O4 0.592865 0.000000 0.680577
O O5 0.286526 0.686513 0.500000
O O6 0.312695 0.500000 0.635733
O O7 0.255549 0.744186 0.673712
O O8 0.080035 0.305152 0.500000
O O9 0.097791 0.500000 0.368148
O O10 0.124298 0.224182 0.338264
O O11 0.000000 0.308826 0.353960
O O12 0.066439 0.740842 0.854316
O O13 0.000000 0.500000 0.845436
O O14 0.000000 0.658668 0.000000
O O15 0.500000 0.767519 0.904123
O O16 0.572472 0.000000 0.898241
O O17 0.610999 0.777918 0.000000
O O18 0.811910 0.184420 0.178996
O O19 0.798522 0.000000 0.321108
O O20 0.897034 0.000000 0.103063
O O21 0.849816 0.786293 0.000000
#
# Coordination Sequence:
#
# PCOD8200549 Si02
#       7
#     8   8   8   4   8   8   8
#     4   9  18  34  59  90 118 144 181 230 278 324
#     4  11  25  43  60  78 106 147 188 226 281 350
#     4   9  19  36  56  79 110 147 182 219 272 333
#     4   9  17  29  49  79 110 143 186 229 267 312
#     4   7  10  20  43  77 114 146 174 207 251 306
#     4  11  23  37  58  84 108 140 186 234 278 324
#     4   9  19  36  55  77 111 150 184 224 276 332
#
# _framework density 19.732137999999999
#
# number of rings (size 3 to 8) (size 9 to 14) (size 15 to 20)
#    0.000    2.692    0.000    3.462    1.077    6.462 
#    0.000    3.077    0.000    5.077    0.000    2.154 
#    0.000    0.000    0.000    0.000    0.000    0.000 
#
# Total GULP energy -644358.914239 kJ/mol
# GULP energy per Si atom -12391.517582 kJ/mol
# Density = 1.968723 g / cm^3
# Si number density = 19.732138 Si / 1000 Ang^3
#
#
#
# Elastic Constant Matrix: (Units=GPa)
#
#
# Indices 1 2 3 4 5 6 
#
# 1 88.0247 56.9677 46.2586 0.0000 0.0000 0.0000
# 2 56.9677 105.9254 50.8177 0.0000 0.0000 0.0000
# 3 46.2586 50.8177 77.4215 0.0000 0.0000 0.0000
# 4 0.0000 0.0000 0.0000 17.5204 0.0000 0.0000
# 5 0.0000 0.0000 0.0000 0.0000 27.6436 0.0000
# 6 0.0000 0.0000 0.0000 0.0000 0.0000 24.6259
#
#
#
# Elastic Compliance Matrix: (Units=1/GPa)
#
#
# Indices 1 2 3 4 5 6 
#
# 1 0.019750 -0.007241 -0.007048 0.000000 0.000000 0.000000
# 2 -0.007241 0.016434 -0.006461 0.000000 0.000000 0.000000
# 3 -0.007048 -0.006461 0.021368 0.000000 0.000000 0.000000
# 4 0.000000 0.000000 0.000000 0.057076 0.000000 0.000000
# 5 0.000000 0.000000 0.000000 0.000000 0.036175 0.000000
# 6 0.000000 0.000000 0.000000 0.000000 0.000000 0.040608
#
#
# Mechanical properties :
#
#
# Convention : Reuss Voigt Hill
#
# Bulk Modulus (GPa) = 62.29085 64.38440 63.33762
# Shear Modulus (GPa) = 20.98530 21.77981 21.38255
#
# Velocity S-wave (km/s) = 3.26469 3.32591 3.29544
# Velocity P-wave (km/s) = 6.77109 6.88832 6.82996
#
# Compressibility (1/GPa) = 0.01605372
#
# Stress axis : x y z
#
# Youngs Moduli (GPa) = 50.63222 60.84833 46.79838
#
# Poissons Ratio (x) = 0.44058 0.32984
# Poissons Ratio (y) = 0.36661 0.30236
# Poissons Ratio (z) = 0.35686 0.39314
#
# Static dielectric constant tensor:
#      x y z
#    x 3.311410 0.000000 0.000000 
#    y 0.000000 3.454010 0.000000 
#    z 0.000000 0.000000 3.973980 
# 
# 
# High freq. dielectric constant tensor:
#      x y z
#    x 1.741320 0.000000 0.000000 
#    y 0.000000 1.748250 0.000000 
#    z 0.000000 0.000000 1.787130 
# 
# From -- ./inp_files/24978.got.cif
#   From: 2010.03.12/outbox.cif.g09.slc.cpg/sg47_13_cif.got.tgz:24978.got - 2010.04.14 03:12:58.
