data_PCOD8200767
_publ_section_title
;
Structure prediction by ZEFSAII (Michael W. Deem and Ramdas Pophale) SiO2 
 PCOD8200767
Probable space group: P M M M
;
_chemical_formula_sum "Si O2"
_cell_formula_units_Z 44
_cell_length_a 17.888702
_cell_length_b 9.892276
_cell_length_c 14.551127
_cell_angle_alpha 90.000000
_cell_angle_beta 90.000000
_cell_angle_gamma 90.000000
_cell_volume 2574.967106
_symmetry_space_group_name_H-M "P M M M"
_symmetry_group_IT_number 47
_symmetry_cell_setting 'orthorhombic'
loop_
_space_group_symop_operation_xyz
x,y,z
-x,-y,z
x,-y,-z
-x,y,-z
-x,-y,-z
x,y,-z
-x,y,z
x,-y,z
loop_
_atom_site_type_symbol
_atom_site_label
_atom_site_fract_x
_atom_site_fract_y
_atom_site_fract_z
Si Si1 0.855410 0.661227 0.788940
Si Si2 0.413911 0.656596 0.238518
Si Si3 0.084551 0.660694 0.600471
Si Si4 0.000000 0.660971 0.103295
Si Si5 0.286961 0.659626 0.102583
Si Si6 0.411257 0.848842 0.398332
O O1 0.853709 0.500000 0.790428
O O2 0.862500 0.714002 0.683246
O O3 0.926371 0.715685 0.845741
O O4 0.780356 0.720188 0.835634
O O5 0.500000 0.691331 0.216245
O O6 0.403666 0.500000 0.264689
O O7 0.366185 0.696055 0.148905
O O8 0.381448 0.741497 0.324264
O O9 0.113668 0.711343 0.500000
O O10 0.083583 0.500000 0.602103
O O11 0.000000 0.712953 0.616851
O O12 0.000000 0.500000 0.103376
O O13 0.000000 0.717903 0.000000
O O14 0.276937 0.500000 0.095448
O O15 0.285131 0.722741 0.000000
O O16 0.380609 0.810852 0.500000
O O17 0.500000 0.842914 0.400232
O O18 0.384765 0.000000 0.371226
#
# Coordination Sequence:
#
# PCOD8200767 Si02
#       6
#     8   8   8   4   8   8
#     4   9  14  21  31  45  65  91 127 169 209 250
#     4   9  17  28  42  61  84 113 149 182 212 251
#     4   8  12  18  28  41  58  83 116 153 194 242
#     4   9  14  18  27  43  61  85 121 164 204 244
#     4   9  17  27  37  50  72 104 141 182 222 255
#     4   8  14  26  45  67  88 110 137 171 214 261
#
# _framework density 17.087598
#
# number of rings (size 3 to 8) (size 9 to 14) (size 15 to 20)
#    0.000    3.364    0.909    1.636    0.000    2.909 
#    0.000    4.545    0.000    3.818    0.000    2.545 
#    0.000    0.000    0.000    0.818    0.000    7.727 
#
# Total GULP energy -545189.421086 kJ/mol
# GULP energy per Si atom -12390.668661 kJ/mol
# Density = 1.704871 g / cm^3
# Si number density = 17.087598 Si / 1000 Ang^3
#
#
#
# Elastic Constant Matrix: (Units=GPa)
#
#
# Indices 1 2 3 4 5 6 
#
# 1 89.3922 17.6027 71.8897 0.0000 0.0000 0.0000
# 2 17.6027 22.1102 30.8192 0.0000 0.0000 0.0000
# 3 71.8897 30.8192 186.9777 0.0000 0.0000 0.0000
# 4 0.0000 0.0000 0.0000 7.4790 0.0000 0.0000
# 5 0.0000 0.0000 0.0000 0.0000 28.8211 0.0000
# 6 0.0000 0.0000 0.0000 0.0000 0.0000 3.0902
#
#
#
# Elastic Compliance Matrix: (Units=1/GPa)
#
#
# Indices 1 2 3 4 5 6 
#
# 1 0.016720 -0.005648 -0.005498 0.000000 0.000000 0.000000
# 2 -0.005648 0.060627 -0.007821 0.000000 0.000000 0.000000
# 3 -0.005498 -0.007821 0.008751 0.000000 0.000000 0.000000
# 4 0.000000 0.000000 0.000000 0.133708 0.000000 0.000000
# 5 0.000000 0.000000 0.000000 0.000000 0.034697 0.000000
# 6 0.000000 0.000000 0.000000 0.000000 0.000000 0.323600
#
#
# Mechanical properties :
#
#
# Convention : Reuss Voigt Hill
#
# Bulk Modulus (GPa) = 20.76255 59.90035 40.33145
# Shear Modulus (GPa) = 7.91023 19.75596 13.83310
#
# Velocity S-wave (km/s) = 2.15390 3.40392 2.84833
# Velocity P-wave (km/s) = 4.28518 7.11195 5.87123
#
# Compressibility (1/GPa) = 0.04816364
#
# Stress axis : x y z
#
# Youngs Moduli (GPa) = 59.80828 16.49429 114.27096
#
# Poissons Ratio (x) = 0.09317 0.62821
# Poissons Ratio (y) = 0.33782 0.89375
# Poissons Ratio (z) = 0.32880 0.12901
#
# Static dielectric constant tensor:
#      x y z
#    x 3.095910 0.000000 0.000000 
#    y 0.000000 2.568960 0.000000 
#    z 0.000000 0.000000 3.704890 
# 
# 
# High freq. dielectric constant tensor:
#      x y z
#    x 1.642550 0.000000 0.000000 
#    y 0.000000 1.574440 0.000000 
#    z 0.000000 0.000000 1.677760 
# 
# From -- ./inp_files/23483.got.cif
#   From: 2010.03.12/outbox.cif.g09.slc.cpg/sg47_12_cif.got.tgz:23483.got - 2010.04.14 03:12:58.
