data_PCOD8200477
_publ_section_title
;
Structure prediction by ZEFSAII (Michael W. Deem and Ramdas Pophale) SiO2 
 PCOD8200477
Probable space group: P M M M
;
_chemical_formula_sum "Si O2"
_cell_formula_units_Z 32
_cell_length_a 8.797113
_cell_length_b 10.583122
_cell_length_c 17.605585
_cell_angle_alpha 90.000000
_cell_angle_beta 90.000000
_cell_angle_gamma 90.000000
_cell_volume 1639.096163
_symmetry_space_group_name_H-M "P M M M"
_symmetry_group_IT_number 47
_symmetry_cell_setting 'orthorhombic'
loop_
_space_group_symop_operation_xyz
x,y,z
-x,-y,z
x,-y,-z
-x,y,-z
-x,-y,-z
x,y,-z
-x,y,z
x,-y,z
loop_
_atom_site_type_symbol
_atom_site_label
_atom_site_fract_x
_atom_site_fract_y
_atom_site_fract_z
Si Si1 0.819286 0.357836 0.803209
Si Si2 0.335192 0.357928 0.500000
Si Si3 0.320910 0.000000 0.588032
Si Si4 0.180759 0.858968 0.914238
Si Si5 0.820500 0.250555 0.357546
O O1 0.758441 0.500000 0.821798
O O2 0.751559 0.253082 0.861496
O O3 0.766013 0.318805 0.719204
O O4 0.000000 0.358068 0.808160
O O5 0.383938 0.500000 0.500000
O O6 0.500000 0.281774 0.500000
O O7 0.233219 0.334201 0.572810
O O8 0.257950 0.883797 0.635395
O O9 0.500000 0.000000 0.590184
O O10 0.262685 0.000000 0.500000
O O11 0.000000 0.854965 0.910948
O O12 0.234755 0.000000 0.887637
O O13 0.237407 0.834029 0.000000
O O14 0.000000 0.232896 0.359343
#
# Coordination Sequence:
#
# PCOD8200477 Si02
#       5
#     8   4   4   8   8
#     4   9  18  30  45  71 106 139 175 221 267 314
#     4  11  23  38  55  74 103 145 185 223 272 325
#     4  11  23  39  57  77 105 136 175 225 276 330
#     4   8  14  25  42  65  98 142 182 213 255 316
#     4  11  22  35  55  79 105 137 179 226 275 324
#
# _framework density 19.522953000000001
#
# number of rings (size 3 to 8) (size 9 to 14) (size 15 to 20)
#    0.000    2.250    1.250    3.000    1.750    3.000 
#    0.000    2.500    0.000    0.000    0.000    0.000 
#    0.000    5.000    0.000   12.250    0.000   13.000 
#
# Total GULP energy -396584.015343 kJ/mol
# GULP energy per Si atom -12393.250479 kJ/mol
# Density = 1.947852 g / cm^3
# Si number density = 19.522953 Si / 1000 Ang^3
#
#
#
# Elastic Constant Matrix: (Units=GPa)
#
#
# Indices 1 2 3 4 5 6 
#
# 1 35.8285 21.1071 17.2547 0.0000 0.0000 0.0000
# 2 21.1071 183.9167 92.8767 0.0000 0.0000 0.0000
# 3 17.2547 92.8767 146.1958 0.0000 0.0000 0.0000
# 4 0.0000 0.0000 0.0000 27.9785 0.0000 0.0000
# 5 0.0000 0.0000 0.0000 0.0000 11.7681 0.0000
# 6 0.0000 0.0000 0.0000 0.0000 0.0000 14.6035
#
#
#
# Elastic Compliance Matrix: (Units=1/GPa)
#
#
# Indices 1 2 3 4 5 6 
#
# 1 0.030332 -0.002464 -0.002015 0.000000 0.000000 0.000000
# 2 -0.002464 0.008206 -0.004922 0.000000 0.000000 0.000000
# 3 -0.002015 -0.004922 0.010205 0.000000 0.000000 0.000000
# 4 0.000000 0.000000 0.000000 0.035742 0.000000 0.000000
# 5 0.000000 0.000000 0.000000 0.000000 0.084975 0.000000
# 6 0.000000 0.000000 0.000000 0.000000 0.000000 0.068477
#
#
# Mechanical properties :
#
#
# Convention : Reuss Voigt Hill
#
# Bulk Modulus (GPa) = 33.39823 69.82422 51.61122
# Shear Modulus (GPa) = 18.74633 26.51686 22.63159
#
# Velocity S-wave (km/s) = 3.10210 3.68943 3.40844
# Velocity P-wave (km/s) = 5.47495 7.34793 6.47947
#
# Compressibility (1/GPa) = 0.02994171
#
# Stress axis : x y z
#
# Youngs Moduli (GPa) = 32.96803 121.86715 97.99149
#
# Poissons Ratio (x) = 0.30023 0.19744
# Poissons Ratio (y) = 0.08122 0.48233
# Poissons Ratio (z) = 0.06643 0.59985
#
# Static dielectric constant tensor:
#      x y z
#    x 3.076360 0.000000 0.000000 
#    y 0.000000 3.990540 0.000000 
#    z 0.000000 0.000000 3.773410 
# 
# 
# High freq. dielectric constant tensor:
#      x y z
#    x 1.711620 0.000000 0.000000 
#    y 0.000000 1.780330 0.000000 
#    z 0.000000 0.000000 1.760030 
# 
# From -- ./inp_files/20410.got.cif
#   From: 2010.03.12/outbox.cif.g09.slc.cpg/sg47_11_cif.got.tgz:20410.got - 2010.04.14 03:12:58.
