data_PCOD8200102
_publ_section_title
;
Structure prediction by ZEFSAII (Michael W. Deem and Ramdas Pophale) SiO2 
 PCOD8200102
Probable space group: P M M M
;
_chemical_formula_sum "Si O2"
_cell_formula_units_Z 56
_cell_length_a 14.417977
_cell_length_b 20.911983
_cell_length_c 9.538483
_cell_angle_alpha 90.000000
_cell_angle_beta 90.000000
_cell_angle_gamma 90.000000
_cell_volume 2875.933605
_symmetry_space_group_name_H-M "P M M M"
_symmetry_group_IT_number 47
_symmetry_cell_setting 'orthorhombic'
loop_
_space_group_symop_operation_xyz
x,y,z
-x,-y,z
x,-y,-z
-x,y,-z
-x,-y,-z
x,y,-z
-x,y,z
x,-y,z
loop_
_atom_site_type_symbol
_atom_site_label
_atom_site_fract_x
_atom_site_fract_y
_atom_site_fract_z
Si Si1 0.392006 0.677958 0.162409
Si Si2 0.289524 0.570926 0.660815
Si Si3 0.109802 0.750000 0.156275
Si Si4 0.710476 0.929074 0.660815
Si Si5 0.607994 0.822042 0.837590
Si Si6 0.104205 0.132478 0.658962
Si Si7 0.104205 0.632478 0.341038
O O1 0.500000 0.672672 0.198286
O O2 0.338711 0.625264 0.250610
O O3 0.356851 0.750000 0.199354
O O4 0.374010 0.663614 0.000000
O O5 0.319611 0.580496 0.500000
O O6 0.318405 0.500000 0.713123
O O7 0.177423 0.575074 0.674802
O O8 0.142534 0.812432 0.239014
O O9 0.142535 0.687569 0.239014
O O10 0.000000 0.750000 0.148384
O O11 0.153653 0.750000 0.000000
O O12 0.680389 0.919503 0.500000
O O13 0.661290 0.874736 0.749392
O O14 0.822577 0.924927 0.674802
O O15 0.681594 0.000000 0.713122
O O16 0.500000 0.827329 0.801705
O O17 0.625984 0.836386 0.000000
O O18 0.103623 0.159140 0.500000
O O19 0.000000 0.109375 0.700257
O O20 0.103622 0.659141 0.500000
O O21 0.000000 0.609376 0.299742
#
# Coordination Sequence:
#
# PCOD8200102 Si02
#       7
#     8   8   8   8   8   8   8
#     4   9  20  40  63  85 109 140 181 227 276 333
#     4  10  22  37  54  82 116 148 185 228 274 324
#     4   9  17  29  47  73 102 133 176 229 277 316
#     4  10  22  37  54  82 116 148 185 228 274 324
#     4   9  20  40  63  85 109 140 181 227 276 333
#     4   9  18  33  52  74 106 148 188 224 266 319
#     4   9  18  33  52  74 106 148 188 224 266 319
#
# _framework density 19.471937
#
# number of rings (size 3 to 8) (size 9 to 14) (size 15 to 20)
#    0.000    2.714    0.000    1.286    2.000    5.714 
#    0.000    7.143    0.000    0.000    0.000    6.000 
#    0.000    0.000    0.000    0.000    0.000    0.000 
#
# Total GULP energy -694110.203410 kJ/mol
# GULP energy per Si atom -12394.825061 kJ/mol
# Density = 1.942762 g / cm^3
# Si number density = 19.471937 Si / 1000 Ang^3
#
#
#
# Elastic Constant Matrix: (Units=GPa)
#
#
# Indices 1 2 3 4 5 6 
#
# 1 67.6176 68.8784 45.6333 0.0000 0.0000 0.0000
# 2 68.8784 152.0467 72.1036 0.0000 0.0000 0.0000
# 3 45.6333 72.1036 92.7279 0.0000 0.0000 0.0000
# 4 0.0000 0.0000 0.0000 25.2323 0.0000 0.0000
# 5 0.0000 0.0000 0.0000 0.0000 22.6650 0.0000
# 6 0.0000 0.0000 0.0000 0.0000 0.0000 22.8044
#
#
#
# Elastic Compliance Matrix: (Units=1/GPa)
#
#
# Indices 1 2 3 4 5 6 
#
# 1 0.029814 -0.010373 -0.006606 0.000000 0.000000 0.000000
# 2 -0.010373 0.014028 -0.005803 0.000000 0.000000 0.000000
# 3 -0.006606 -0.005803 0.018548 0.000000 0.000000 0.000000
# 4 0.000000 0.000000 0.000000 0.039632 0.000000 0.000000
# 5 0.000000 0.000000 0.000000 0.000000 0.044121 0.000000
# 6 0.000000 0.000000 0.000000 0.000000 0.000000 0.043851
#
#
# Mechanical properties :
#
#
# Convention : Reuss Voigt Hill
#
# Bulk Modulus (GPa) = 59.43570 76.18032 67.80801
# Shear Modulus (GPa) = 20.73261 22.52549 21.62905
#
# Velocity S-wave (km/s) = 3.26658 3.40489 3.33645
# Velocity P-wave (km/s) = 6.69458 7.39363 7.05277
#
# Compressibility (1/GPa) = 0.01682491
#
# Stress axis : x y z
#
# Youngs Moduli (GPa) = 33.54135 71.28586 53.91555
#
# Poissons Ratio (x) = 0.73947 0.35616
# Poissons Ratio (y) = 0.34793 0.31287
# Poissons Ratio (z) = 0.22157 0.41368
#
# Static dielectric constant tensor:
#      x y z
#    x 3.553480 0.000000 0.000000 
#    y 0.000000 3.434620 0.000000 
#    z 0.000000 0.000000 3.612370 
# 
# 
# High freq. dielectric constant tensor:
#      x y z
#    x 1.762210 0.000000 0.000000 
#    y 0.000000 1.745900 0.000000 
#    z 0.000000 0.000000 1.751690 
# 
# From -- ./inp_files/7271.got.cif
#   From: 2010.03.12/outbox.cif.g09.slc.cpg/sg47_4_cif.got.tgz:7271.got - 2010.04.14 03:12:58.
