data_PCOD8200843
_publ_section_title
;
Structure prediction by ZEFSAII (Michael W. Deem and Ramdas Pophale) SiO2 
 PCOD8200843
Probable space group: P M M M
;
_chemical_formula_sum "Si O2"
_cell_formula_units_Z 48
_cell_length_a 31.141457
_cell_length_b 9.694926
_cell_length_c 9.596199
_cell_angle_alpha 90.000000
_cell_angle_beta 90.000000
_cell_angle_gamma 90.000000
_cell_volume 2897.227987
_symmetry_space_group_name_H-M "P M M M"
_symmetry_group_IT_number 47
_symmetry_cell_setting 'orthorhombic'
loop_
_space_group_symop_operation_xyz
x,y,z
-x,-y,z
x,-y,-z
-x,y,-z
-x,-y,-z
x,y,-z
-x,y,z
x,-y,z
loop_
_atom_site_type_symbol
_atom_site_label
_atom_site_fract_x
_atom_site_fract_y
_atom_site_fract_z
Si Si1 0.875114 0.335225 0.157346
Si Si2 0.452645 0.836162 0.843554
Si Si3 0.374197 0.839853 0.337098
Si Si4 0.202312 0.335932 0.655685
Si Si5 0.296893 0.346497 0.665682
Si Si6 0.952287 0.664002 0.343749
O O1 0.875066 0.500000 0.157375
O O2 0.833329 0.277675 0.238284
O O3 0.917497 0.277097 0.235045
O O4 0.874679 0.277778 0.000000
O O5 0.500000 0.781899 0.798041
O O6 0.416378 0.779533 0.739242
O O7 0.452845 0.000000 0.838367
O O8 0.442218 0.785333 0.000000
O O9 0.381152 0.814437 0.500000
O O10 0.333005 0.757895 0.278278
O O11 0.366576 0.000000 0.303000
O O12 0.193741 0.276548 0.500000
O O13 0.200059 0.500000 0.648392
O O14 0.249636 0.292692 0.711530
O O15 0.297654 0.352234 0.500000
O O16 0.305860 0.500000 0.725734
O O17 0.941258 0.716085 0.500000
O O18 0.950865 0.500000 0.342339
O O19 0.000000 0.714859 0.300033
#
# Coordination Sequence:
#
# PCOD8200843 Si02
#       6
#     8   8   8   8   8   8
#     4   9  15  20  27  41  60  79 102 140 186 220
#     4   8  14  25  40  57  78 104 130 153 181 222
#     4   9  16  25  40  63  84  98 120 159 197 222
#     4   8  13  22  35  46  57  81 117 147 169 204
#     4   8  14  25  40  56  75 101 129 154 185 228
#     4   8  13  20  28  37  51  75 108 142 174 213
#
# _framework density 16.567561000000001
#
# number of rings (size 3 to 8) (size 9 to 14) (size 15 to 20)
#    0.000    3.667    0.000    2.500    0.000    2.667 
#    0.000    4.167    0.000    2.000    0.000    3.500 
#    0.000    0.000    0.000    0.000    0.000    0.833 
#
# Total GULP energy -594768.865640 kJ/mol
# GULP energy per Si atom -12391.018034 kJ/mol
# Density = 1.652985 g / cm^3
# Si number density = 16.567561 Si / 1000 Ang^3
#
#
#
# Elastic Constant Matrix: (Units=GPa)
#
#
# Indices 1 2 3 4 5 6 
#
# 1 184.0844 30.2682 86.4189 0.0000 0.0000 0.0000
# 2 30.2682 18.1585 16.7477 0.0000 0.0000 0.0000
# 3 86.4189 16.7477 92.6281 0.0000 0.0000 0.0000
# 4 0.0000 0.0000 0.0000 5.2821 0.0000 0.0000
# 5 0.0000 0.0000 0.0000 0.0000 15.0439 0.0000
# 6 0.0000 0.0000 0.0000 0.0000 0.0000 3.8098
#
#
#
# Elastic Compliance Matrix: (Units=1/GPa)
#
#
# Indices 1 2 3 4 5 6 
#
# 1 0.011200 -0.010839 -0.008489 0.000000 0.000000 0.000000
# 2 -0.010839 0.076582 -0.003734 0.000000 0.000000 0.000000
# 3 -0.008489 -0.003734 0.019391 0.000000 0.000000 0.000000
# 4 0.000000 0.000000 0.000000 0.189317 0.000000 0.000000
# 5 0.000000 0.000000 0.000000 0.000000 0.066472 0.000000
# 6 0.000000 0.000000 0.000000 0.000000 0.000000 0.262480
#
#
# Mechanical properties :
#
#
# Convention : Reuss Voigt Hill
#
# Bulk Modulus (GPa) = 16.38048 62.41562 39.39805
# Shear Modulus (GPa) = 7.22631 15.58959 11.40795
#
# Velocity S-wave (km/s) = 2.09074 3.07085 2.62691
# Velocity P-wave (km/s) = 3.96696 7.09427 5.74741
#
# Compressibility (1/GPa) = 0.06104827
#
# Stress axis : x y z
#
# Youngs Moduli (GPa) = 89.28702 13.05791 51.56982
#
# Poissons Ratio (x) = 0.14154 0.43779
# Poissons Ratio (y) = 0.96779 0.19256
# Poissons Ratio (z) = 0.75798 0.04876
#
# Static dielectric constant tensor:
#      x y z
#    x 3.659120 0.000000 0.000000 
#    y 0.000000 2.508660 0.000000 
#    z 0.000000 0.000000 3.128240 
# 
# 
# High freq. dielectric constant tensor:
#      x y z
#    x 1.657870 0.000000 0.000000 
#    y 0.000000 1.554740 0.000000 
#    z 0.000000 0.000000 1.621460 
# 
# From -- ./inp_files/4720.got.cif
#   From: 2010.03.12/outbox.cif.g09.slc.cpg/sg47_3_cif.got.tgz:4720.got - 2010.04.14 03:12:58.
