data_PCOD8200411
_publ_section_title
;
Structure prediction by ZEFSAII (Michael W. Deem and Ramdas Pophale) SiO2 
 PCOD8200411
Probable space group: P M M M
;
_chemical_formula_sum "Si O2"
_cell_formula_units_Z 48
_cell_length_a 8.976098
_cell_length_b 28.909150
_cell_length_c 9.819467
_cell_angle_alpha 90.000000
_cell_angle_beta 90.000000
_cell_angle_gamma 90.000000
_cell_volume 2548.066881
_symmetry_space_group_name_H-M "P M M M"
_symmetry_group_IT_number 47
_symmetry_cell_setting 'orthorhombic'
loop_
_space_group_symop_operation_xyz
x,y,z
-x,-y,z
x,-y,-z
-x,y,-z
-x,-y,-z
x,y,-z
-x,y,z
x,-y,z
loop_
_atom_site_type_symbol
_atom_site_label
_atom_site_fract_x
_atom_site_fract_y
_atom_site_fract_z
Si Si1 0.323652 0.873237 0.342689
Si Si2 0.324292 0.551213 0.000000
Si Si3 0.324555 0.393126 0.739211
Si Si4 0.176177 0.447384 0.500000
Si Si5 0.172975 0.946217 0.154548
Si Si6 0.827947 0.692542 0.843350
Si Si7 0.173775 0.201451 0.844068
O O1 0.267947 0.873084 0.500000
O O2 0.500000 0.872633 0.337443
O O3 0.267335 0.918965 0.266155
O O4 0.264120 0.828556 0.263630
O O5 0.270509 0.580229 0.872314
O O6 0.251130 0.500000 0.000000
O O7 0.500000 0.546009 0.000000
O O8 0.500000 0.395078 0.712103
O O9 0.237032 0.419960 0.626246
O O10 0.274013 0.339727 0.748292
O O11 0.236722 0.500000 0.500000
O O12 0.000000 0.446777 0.500000
O O13 0.000000 0.934882 0.177171
O O14 0.205666 0.000000 0.177346
O O15 0.218285 0.931878 0.000000
O O16 0.794436 0.745490 0.805360
O O17 0.000000 0.680744 0.816887
O O18 0.785549 0.683823 0.000000
O O19 0.000000 0.189758 0.830165
O O20 0.224548 0.191326 0.000000
#
# Coordination Sequence:
#
# PCOD8200411 Si02
#       7
#     8   4   8   4   8   8   8
#     4  11  24  38  52  79 119 156 190 234 285 335
#     4   9  18  32  53  83 115 143 177 223 272 327
#     4  11  21  36  59  86 115 148 185 228 280 337
#     4  11  25  43  59  79 111 151 193 233 276 331
#     4   9  19  37  61  87 113 145 190 240 285 336
#     4   9  18  35  59  86 116 146 181 230 284 338
#     4   9  19  37  61  85 108 143 190 235 280 334
#
# _framework density 18.837810999999999
#
# number of rings (size 3 to 8) (size 9 to 14) (size 15 to 20)
#    0.000    2.167    0.833    3.750    0.000    6.667 
#    1.500    4.167    0.000    2.000    0.000    0.000 
#    0.000    0.000    0.000    0.000    0.000    0.000 
#
# Total GULP energy -595157.798725 kJ/mol
# GULP energy per Si atom -12399.120807 kJ/mol
# Density = 1.879494 g / cm^3
# Si number density = 18.837811 Si / 1000 Ang^3
#
#
#
# Elastic Constant Matrix: (Units=GPa)
#
#
# Indices 1 2 3 4 5 6 
#
# 1 65.6000 47.4176 51.4423 0.0000 0.0000 0.0000
# 2 47.4176 129.0869 70.9144 0.0000 0.0000 0.0000
# 3 51.4423 70.9144 142.3550 0.0000 0.0000 0.0000
# 4 0.0000 0.0000 0.0000 35.0256 0.0000 0.0000
# 5 0.0000 0.0000 0.0000 0.0000 31.3401 0.0000
# 6 0.0000 0.0000 0.0000 0.0000 0.0000 21.3068
#
#
#
# Elastic Compliance Matrix: (Units=1/GPa)
#
#
# Indices 1 2 3 4 5 6 
#
# 1 0.023840 -0.005541 -0.005855 0.000000 0.000000 0.000000
# 2 -0.005541 0.011953 -0.003952 0.000000 0.000000 0.000000
# 3 -0.005855 -0.003952 0.011109 0.000000 0.000000 0.000000
# 4 0.000000 0.000000 0.000000 0.028551 0.000000 0.000000
# 5 0.000000 0.000000 0.000000 0.000000 0.031908 0.000000
# 6 0.000000 0.000000 0.000000 0.000000 0.000000 0.046933
#
#
# Mechanical properties :
#
#
# Convention : Reuss Voigt Hill
#
# Bulk Modulus (GPa) = 61.70251 75.17675 68.43963
# Shear Modulus (GPa) = 26.26146 28.68566 27.47356
#
# Velocity S-wave (km/s) = 3.73779 3.90650 3.82308
# Velocity P-wave (km/s) = 7.17313 7.76799 7.47648
#
# Compressibility (1/GPa) = 0.01620680
#
# Stress axis : x y z
#
# Youngs Moduli (GPa) = 41.94577 83.65930 90.01497
#
# Poissons Ratio (x) = 0.46355 0.52703
# Poissons Ratio (y) = 0.23242 0.35576
# Poissons Ratio (z) = 0.24559 0.33064
#
# Static dielectric constant tensor:
#      x y z
#    x 3.289370 0.000000 0.000000 
#    y 0.000000 3.615040 0.000000 
#    z 0.000000 0.000000 3.402250 
# 
# 
# High freq. dielectric constant tensor:
#      x y z
#    x 1.721160 0.000000 0.000000 
#    y 0.000000 1.748520 0.000000 
#    z 0.000000 0.000000 1.728170 
# 
# From -- ./inp_files/2643.got.cif
#   From: 2010.03.12/outbox.cif.g09.slc.cpg/sg47_2_cif.got.tgz:2643.got - 2010.04.14 03:12:58.
