data_PCOD8200563
_publ_section_title
;
Structure prediction by ZEFSAII (Michael W. Deem and Ramdas Pophale) SiO2 
 PCOD8200563
Probable space group: P M M M
;
_chemical_formula_sum "Si O2"
_cell_formula_units_Z 32
_cell_length_a 7.842460
_cell_length_b 14.258694
_cell_length_c 14.122925
_cell_angle_alpha 90.000000
_cell_angle_beta 90.000000
_cell_angle_gamma 90.000000
_cell_volume 1579.271194
_symmetry_space_group_name_H-M "P M M M"
_symmetry_group_IT_number 47
_symmetry_cell_setting 'orthorhombic'
loop_
_space_group_symop_operation_xyz
x,y,z
-x,-y,z
x,-y,-z
-x,y,-z
-x,-y,-z
x,y,-z
-x,y,z
x,-y,z
loop_
_atom_site_type_symbol
_atom_site_label
_atom_site_fract_x
_atom_site_fract_y
_atom_site_fract_z
Si Si1 0.803439 0.699895 0.603580
Si Si2 0.500000 0.889358 0.891198
Si Si3 0.311811 0.500000 0.387761
Si Si4 0.194643 0.215221 0.792263
Si Si5 0.302937 0.395308 0.109890
O O1 0.711946 0.714220 0.500000
O O2 0.778608 0.595219 0.645659
O O3 0.740480 0.773752 0.682963
O O4 0.000000 0.717001 0.588041
O O5 0.673888 0.853002 0.843977
O O6 0.500000 0.000000 0.881650
O O7 0.500000 0.856109 0.000000
O O8 0.500000 0.500000 0.343678
O O9 0.314285 0.500000 0.500000
O O10 0.188805 0.318432 0.838191
O O11 0.000000 0.175354 0.797622
O O12 0.500000 0.367352 0.124131
O O13 0.267854 0.500000 0.151435
O O14 0.254836 0.394872 0.000000
#
# Coordination Sequence:
#
# PCOD8200563 Si02
#       5
#     8   4   4   8   8
#     4   9  19  35  53  78 119 166 206 248 292 338
#     4  11  26  48  70  92 119 148 186 248 321 379
#     4   9  17  27  45  77 115 162 213 250 282 326
#     4  11  23  38  63  93 119 157 205 247 294 360
#     4   9  18  33  53  79 117 162 200 237 286 346
#
# _framework density 20.262511
#
# number of rings (size 3 to 8) (size 9 to 14) (size 15 to 20)
#    0.000    2.250    1.250    1.875    3.500    4.500 
#    0.000    2.500    0.000    1.500    0.000    3.500 
#    0.000    0.000    0.000    0.000    0.000    0.000 
#
# Total GULP energy -396550.493606 kJ/mol
# GULP energy per Si atom -12392.202925 kJ/mol
# Density = 2.021639 g / cm^3
# Si number density = 20.262511 Si / 1000 Ang^3
#
#
#
# Elastic Constant Matrix: (Units=GPa)
#
#
# Indices 1 2 3 4 5 6 
#
# 1 78.6825 34.8586 50.9963 0.0000 0.0000 0.0000
# 2 34.8586 67.2831 48.8362 0.0000 0.0000 0.0000
# 3 50.9963 48.8362 103.4493 0.0000 0.0000 0.0000
# 4 0.0000 0.0000 0.0000 24.1615 0.0000 0.0000
# 5 0.0000 0.0000 0.0000 0.0000 21.1154 0.0000
# 6 0.0000 0.0000 0.0000 0.0000 0.0000 17.1216
#
#
#
# Elastic Compliance Matrix: (Units=1/GPa)
#
#
# Indices 1 2 3 4 5 6 
#
# 1 0.019641 -0.004789 -0.007421 0.000000 0.000000 0.000000
# 2 -0.004789 0.023778 -0.008864 0.000000 0.000000 0.000000
# 3 -0.007421 -0.008864 0.017510 0.000000 0.000000 0.000000
# 4 0.000000 0.000000 0.000000 0.041388 0.000000 0.000000
# 5 0.000000 0.000000 0.000000 0.000000 0.047359 0.000000
# 6 0.000000 0.000000 0.000000 0.000000 0.000000 0.058406
#
#
# Mechanical properties :
#
#
# Convention : Reuss Voigt Hill
#
# Bulk Modulus (GPa) = 53.25085 57.64412 55.44748
# Shear Modulus (GPa) = 19.49397 20.12796 19.81097
#
# Velocity S-wave (km/s) = 3.10509 3.15518 3.13024
# Velocity P-wave (km/s) = 6.26043 6.46405 6.36306
#
# Compressibility (1/GPa) = 0.01877904
#
# Stress axis : x y z
#
# Youngs Moduli (GPa) = 50.91386 42.05649 57.11175
#
# Poissons Ratio (x) = 0.20141 0.42385
# Poissons Ratio (y) = 0.24383 0.50624
# Poissons Ratio (z) = 0.37785 0.37279
#
# Static dielectric constant tensor:
#      x y z
#    x 3.535970 0.000000 0.000000 
#    y 0.000000 3.410740 0.000000 
#    z 0.000000 0.000000 4.457550 
# 
# 
# High freq. dielectric constant tensor:
#      x y z
#    x 1.782360 0.000000 0.000000 
#    y 0.000000 1.744300 0.000000 
#    z 0.000000 0.000000 1.809570 
# 
# From -- ./inp_files/20483.got.cif
#   From: 2010.03.12/outbox.cif.g09.slc.cpg/sg47_11_cif.got.tgz:20483.got - 2010.04.14 03:12:58.
