data_PCOD8200366
_publ_section_title
;
Structure prediction by ZEFSAII (Michael W. Deem and Ramdas Pophale) SiO2 
 PCOD8200366
Probable space group: P M M M
;
_chemical_formula_sum "Si O2"
_cell_formula_units_Z 36
_cell_length_a 23.119966
_cell_length_b 12.498782
_cell_length_c 7.677977
_cell_angle_alpha 90.000000
_cell_angle_beta 90.000000
_cell_angle_gamma 90.000000
_cell_volume 2218.715877
_symmetry_space_group_name_H-M "P M M M"
_symmetry_group_IT_number 47
_symmetry_cell_setting 'orthorhombic'
loop_
_space_group_symop_operation_xyz
x,y,z
-x,-y,z
x,-y,-z
-x,y,-z
-x,-y,-z
x,y,-z
-x,y,z
x,-y,z
loop_
_atom_site_type_symbol
_atom_site_label
_atom_site_fract_x
_atom_site_fract_y
_atom_site_fract_z
Si Si1 0.143333 0.809409 0.198145
Si Si2 0.435275 0.872727 0.193121
Si Si3 0.775760 0.871739 0.500000
Si Si4 0.063486 0.000000 0.794179
Si Si5 0.065151 0.622019 0.704954
Si Si6 0.356641 0.127178 0.500000
O O1 0.197821 0.818322 0.326275
O O2 0.112808 0.694106 0.200132
O O3 0.097051 0.895107 0.269054
O O4 0.163642 0.834191 0.000000
O O5 0.500000 0.834139 0.243336
O O6 0.389045 0.825818 0.329840
O O7 0.433700 0.000000 0.195952
O O8 0.418776 0.831137 0.000000
O O9 0.709342 0.835510 0.500000
O O10 0.783485 0.000000 0.500000
O O11 0.000000 0.000000 0.707469
O O12 0.057873 0.000000 0.000000
O O13 0.071252 0.637499 0.500000
O O14 0.077748 0.500000 0.758537
O O15 0.000000 0.653680 0.764399
O O16 0.360350 0.000000 0.500000
#
# Coordination Sequence:
#
# PCOD8200366 Si02
#       6
#     8   8   4   4   8   4
#     4  11  21  34  50  67  90 118 151 190 229 276
#     4   8  13  22  37  58  81 104 137 184 231 265
#     4  11  22  35  45  61  88 124 164 195 227 265
#     4   9  18  31  47  67  86 109 145 186 228 274
#     4   9  18  33  53  75  95 113 138 181 239 297
#     4   9  17  26  39  55  78 112 151 187 222 263
#
# _framework density 16.225601999999999
#
# number of rings (size 3 to 8) (size 9 to 14) (size 15 to 20)
#    0.000    2.556    2.222    2.333    0.000    4.000 
#    0.000    3.889    0.000    0.000    0.000    0.000 
#    0.000    0.000    0.000    0.000    0.000    8.889 
#
# Total GULP energy -446274.740135 kJ/mol
# GULP energy per Si atom -12396.520559 kJ/mol
# Density = 1.618867 g / cm^3
# Si number density = 16.225602 Si / 1000 Ang^3
#
#
#
# Elastic Constant Matrix: (Units=GPa)
#
#
# Indices 1 2 3 4 5 6 
#
# 1 133.8709 30.4523 72.2150 0.0000 0.0000 0.0000
# 2 30.4523 51.3585 18.8328 0.0000 0.0000 0.0000
# 3 72.2150 18.8328 105.7929 0.0000 0.0000 0.0000
# 4 0.0000 0.0000 0.0000 12.1526 0.0000 0.0000
# 5 0.0000 0.0000 0.0000 0.0000 13.7740 0.0000
# 6 0.0000 0.0000 0.0000 0.0000 0.0000 10.8401
#
#
#
# Elastic Compliance Matrix: (Units=1/GPa)
#
#
# Indices 1 2 3 4 5 6 
#
# 1 0.012800 -0.004692 -0.007902 0.000000 0.000000 0.000000
# 2 -0.004692 0.022551 -0.000812 0.000000 0.000000 0.000000
# 3 -0.007902 -0.000812 0.014991 0.000000 0.000000 0.000000
# 4 0.000000 0.000000 0.000000 0.082287 0.000000 0.000000
# 5 0.000000 0.000000 0.000000 0.000000 0.072600 0.000000
# 6 0.000000 0.000000 0.000000 0.000000 0.000000 0.092250
#
#
# Mechanical properties :
#
#
# Convention : Reuss Voigt Hill
#
# Bulk Modulus (GPa) = 42.49857 59.33585 50.91721
# Shear Modulus (GPa) = 15.05423 18.65484 16.85454
#
# Velocity S-wave (km/s) = 3.04930 3.39443 3.22648
# Velocity P-wave (km/s) = 6.21665 7.21190 6.73269
#
# Compressibility (1/GPa) = 0.02353020
#
# Stress axis : x y z
#
# Youngs Moduli (GPa) = 78.12614 44.34475 66.70719
#
# Poissons Ratio (x) = 0.20806 0.52712
# Poissons Ratio (y) = 0.36656 0.05414
# Poissons Ratio (z) = 0.61735 0.03599
#
# Static dielectric constant tensor:
#      x y z
#    x 3.086330 0.000000 0.000000 
#    y 0.000000 2.706720 0.000000 
#    z 0.000000 0.000000 3.180160 
# 
# 
# High freq. dielectric constant tensor:
#      x y z
#    x 1.608440 0.000000 0.000000 
#    y 0.000000 1.569650 0.000000 
#    z 0.000000 0.000000 1.636320 
# 
# From -- ./inp_files/10614.got.cif
#   From: 2010.03.12/outbox.cif.g09.slc.cpg/sg47_6_cif.got.tgz:10614.got - 2010.04.14 03:12:58.
