data_PCOD8200280
_publ_section_title
;
Structure prediction by ZEFSAII (Michael W. Deem and Ramdas Pophale) SiO2 
 PCOD8200280
Probable space group: P M M M
;
_chemical_formula_sum "Si O2"
_cell_formula_units_Z 52
_cell_length_a 9.158225
_cell_length_b 14.276115
_cell_length_c 26.741394
_cell_angle_alpha 90.000000
_cell_angle_beta 90.000000
_cell_angle_gamma 90.000000
_cell_volume 3496.273429
_symmetry_space_group_name_H-M "P M M M"
_symmetry_group_IT_number 47
_symmetry_cell_setting 'orthorhombic'
loop_
_space_group_symop_operation_xyz
x,y,z
-x,-y,z
x,-y,-z
-x,y,-z
-x,-y,-z
x,y,-z
-x,y,z
x,-y,z
loop_
_atom_site_type_symbol
_atom_site_label
_atom_site_fract_x
_atom_site_fract_y
_atom_site_fract_z
Si Si1 0.327977 0.391972 0.206321
Si Si2 0.835870 0.610941 0.693566
Si Si3 0.665343 0.388254 0.597338
Si Si4 0.669523 0.260454 0.115255
Si Si5 0.159069 0.601717 0.941730
Si Si6 0.828774 0.892156 0.943358
Si Si7 0.834637 0.388409 0.500000
O O1 0.500000 0.385244 0.215662
O O2 0.286776 0.500000 0.191807
O O3 0.246105 0.359029 0.256117
O O4 0.277128 0.316008 0.164868
O O5 0.841570 0.500000 0.689253
O O6 0.747356 0.651660 0.646256
O O7 0.000000 0.652276 0.693642
O O8 0.500000 0.349653 0.596540
O O9 0.664058 0.500000 0.597796
O O10 0.750613 0.350472 0.548766
O O11 0.500000 0.238376 0.117575
O O12 0.707842 0.330356 0.070416
O O13 0.750820 0.163791 0.101845
O O14 0.188077 0.500000 0.917121
O O15 0.000000 0.640268 0.922964
O O16 0.152980 0.589777 0.000000
O O17 0.000000 0.876244 0.937684
O O18 0.786534 0.000000 0.935668
O O19 0.781490 0.860704 0.000000
O O20 0.836254 0.500000 0.500000
O O21 0.000000 0.349599 0.500000
#
# Coordination Sequence:
#
# PCOD8200280 Si02
#       7
#     8   8   8   8   8   8   4
#     4   9  18  31  42  54  78 109 135 159 192 235
#     4   9  16  25  37  52  68  90 125 165 199 230
#     4   9  15  22  32  45  63  89 119 153 199 248
#     4  11  21  30  44  66  87 105 127 160 200 237
#     4   9  18  31  44  58  79 108 137 160 185 224
#     4   9  19  36  54  68  83 105 131 158 192 238
#     4   9  15  21  29  43  63  85 115 159 202 237
#
# _framework density 14.872978
#
# number of rings (size 3 to 8) (size 9 to 14) (size 15 to 20)
#    0.000    2.692    0.000    3.462    0.000    9.538 
#    0.000    3.077    0.000    0.000    0.000    0.000 
#    0.000    0.000    0.000    0.000    0.000    0.000 
#
# Total GULP energy -644335.508512 kJ/mol
# GULP energy per Si atom -12391.067471 kJ/mol
# Density = 1.483913 g / cm^3
# Si number density = 14.872978 Si / 1000 Ang^3
#
#
#
# Elastic Constant Matrix: (Units=GPa)
#
#
# Indices 1 2 3 4 5 6 
#
# 1 81.9700 26.3591 59.6728 0.0000 0.0000 0.0000
# 2 26.3591 48.1613 40.4237 0.0000 0.0000 0.0000
# 3 59.6728 40.4237 109.7338 0.0000 0.0000 0.0000
# 4 0.0000 0.0000 0.0000 1.8685 0.0000 0.0000
# 5 0.0000 0.0000 0.0000 0.0000 28.3196 0.0000
# 6 0.0000 0.0000 0.0000 0.0000 0.0000 13.7824
#
#
#
# Elastic Compliance Matrix: (Units=1/GPa)
#
#
# Indices 1 2 3 4 5 6 
#
# 1 0.020431 -0.002688 -0.010120 0.000000 0.000000 0.000000
# 2 -0.002688 0.030411 -0.009741 0.000000 0.000000 0.000000
# 3 -0.010120 -0.009741 0.018205 0.000000 0.000000 0.000000
# 4 0.000000 0.000000 0.000000 0.535188 0.000000 0.000000
# 5 0.000000 0.000000 0.000000 0.000000 0.035311 0.000000
# 6 0.000000 0.000000 0.000000 0.000000 0.000000 0.072556
#
#
# Mechanical properties :
#
#
# Convention : Reuss Voigt Hill
#
# Bulk Modulus (GPa) = 41.75657 54.75291 48.25474
# Shear Modulus (GPa) = 6.53438 16.35473 11.44455
#
# Velocity S-wave (km/s) = 2.09833 3.31966 2.77697
# Velocity P-wave (km/s) = 5.83156 7.18242 6.54195
#
# Compressibility (1/GPa) = 0.02394833
#
# Stress axis : x y z
#
# Youngs Moduli (GPa) = 48.94437 32.88320 54.93079
#
# Poissons Ratio (x) = 0.08839 0.55592
# Poissons Ratio (y) = 0.13156 0.53508
# Poissons Ratio (z) = 0.49533 0.32032
#
# Static dielectric constant tensor:
#      x y z
#    x 3.028600 0.000000 0.000000 
#    y 0.000000 2.507840 0.000000 
#    z 0.000000 0.000000 2.932590 
# 
# 
# High freq. dielectric constant tensor:
#      x y z
#    x 1.581300 0.000000 0.000000 
#    y 0.000000 1.503680 0.000000 
#    z 0.000000 0.000000 1.565620 
# 
# From -- ./inp_files/8013.got.cif
#   From: 2010.03.12/outbox.cif.g09.slc.cpg/sg47_5_cif.got.tgz:8013.got - 2010.04.14 03:12:58.
