data_PCOD8200619
_publ_section_title
;
Structure prediction by ZEFSAII (Michael W. Deem and Ramdas Pophale) SiO2 
 PCOD8200619
Probable space group: P M M M
;
_chemical_formula_sum "Si O2"
_cell_formula_units_Z 40
_cell_length_a 27.099647
_cell_length_b 9.490998
_cell_length_c 7.985396
_cell_angle_alpha 90.000000
_cell_angle_beta 90.000000
_cell_angle_gamma 90.000000
_cell_volume 2053.865376
_symmetry_space_group_name_H-M "P M M M"
_symmetry_group_IT_number 47
_symmetry_cell_setting 'orthorhombic'
loop_
_space_group_symop_operation_xyz
x,y,z
-x,-y,z
x,-y,-z
-x,y,-z
-x,-y,-z
x,y,-z
-x,y,z
x,-y,z
loop_
_atom_site_type_symbol
_atom_site_label
_atom_site_fract_x
_atom_site_fract_y
_atom_site_fract_z
Si Si1 0.441680 0.337015 0.000000
Si Si2 0.196796 0.652076 0.806629
Si Si3 0.000000 0.152383 0.309122
Si Si4 0.604862 0.167008 0.306323
Si Si5 0.282824 0.156135 0.306772
Si Si6 0.089327 0.661128 0.196648
O O1 0.425072 0.257369 0.170148
O O2 0.422646 0.500000 0.000000
O O3 0.500000 0.334591 0.000000
O O4 0.209164 0.500000 0.723465
O O5 0.243209 0.751825 0.787555
O O6 0.144112 0.709033 0.737106
O O7 0.187242 0.627741 0.000000
O O8 0.950902 0.238565 0.274159
O O9 0.000000 0.116041 0.500000
O O10 0.000000 0.000000 0.213356
O O11 0.589033 0.201637 0.500000
O O12 0.661711 0.211685 0.279700
O O13 0.597261 0.000000 0.274167
O O14 0.268915 0.156337 0.500000
O O15 0.279084 0.000000 0.231543
O O16 0.079738 0.500000 0.252333
O O17 0.084350 0.676257 0.000000
#
# Coordination Sequence:
#
# PCOD8200619 Si02
#       6
#     4   8   4   8   8   8
#     4  11  25  41  59  89 125 159 197 246 305 358
#     4   9  19  34  52  78 109 138 173 217 264 319
#     4  11  24  37  50  74 104 131 166 217 272 322
#     4   9  20  40  63  87 118 158 204 249 293 349
#     4   9  19  35  54  79 111 145 181 223 272 323
#     4   9  19  37  57  75  99 134 175 217 262 317
#
# _framework density 19.475473999999998
#
# number of rings (size 3 to 8) (size 9 to 14) (size 15 to 20)
#    0.000    2.600    0.000    3.300    1.400    7.200 
#    0.000   10.000    0.000    0.000    0.000    0.000 
#    0.000    0.000    0.000    0.000    0.000    0.000 
#
# Total GULP energy -495565.773341 kJ/mol
# GULP energy per Si atom -12389.144334 kJ/mol
# Density = 1.943115 g / cm^3
# Si number density = 19.475474 Si / 1000 Ang^3
#
#
#
# Elastic Constant Matrix: (Units=GPa)
#
#
# Indices 1 2 3 4 5 6 
#
# 1 111.9636 61.4961 43.2050 0.0000 0.0000 0.0000
# 2 61.4961 100.0797 49.0115 0.0000 0.0000 0.0000
# 3 43.2050 49.0115 76.8587 0.0000 0.0000 0.0000
# 4 0.0000 0.0000 0.0000 25.7064 0.0000 0.0000
# 5 0.0000 0.0000 0.0000 0.0000 55.2174 0.0000
# 6 0.0000 0.0000 0.0000 0.0000 0.0000 48.6734
#
#
#
# Elastic Compliance Matrix: (Units=1/GPa)
#
#
# Indices 1 2 3 4 5 6 
#
# 1 0.014097 -0.006953 -0.003491 0.000000 0.000000 0.000000
# 2 -0.006953 0.017959 -0.007543 0.000000 0.000000 0.000000
# 3 -0.003491 -0.007543 0.019784 0.000000 0.000000 0.000000
# 4 0.000000 0.000000 0.000000 0.038901 0.000000 0.000000
# 5 0.000000 0.000000 0.000000 0.000000 0.018110 0.000000
# 6 0.000000 0.000000 0.000000 0.000000 0.000000 0.020545
#
#
# Mechanical properties :
#
#
# Convention : Reuss Voigt Hill
#
# Bulk Modulus (GPa) = 63.03134 66.25857 64.64495
# Shear Modulus (GPa) = 29.29825 34.93207 32.11516
#
# Velocity S-wave (km/s) = 3.88282 4.23974 4.06520
# Velocity P-wave (km/s) = 7.24821 7.61988 7.43637
#
# Compressibility (1/GPa) = 0.01586512
#
# Stress axis : x y z
#
# Youngs Moduli (GPa) = 70.93480 55.68367 50.54696
#
# Poissons Ratio (x) = 0.38716 0.17646
# Poissons Ratio (y) = 0.49320 0.38130
# Poissons Ratio (z) = 0.24763 0.42005
#
# Static dielectric constant tensor:
#      x y z
#    x 3.357330 0.000000 0.000000 
#    y 0.000000 3.642570 0.000000 
#    z 0.000000 0.000000 3.445490 
# 
# 
# High freq. dielectric constant tensor:
#      x y z
#    x 1.765850 0.000000 0.000000 
#    y 0.000000 1.753550 0.000000 
#    z 0.000000 0.000000 1.751770 
# 
# From -- ./inp_files/12993.got.cif
#   From: 2010.03.12/outbox.cif.g09.slc.cpg/sg47_7_cif.got.tgz:12993.got - 2010.04.14 03:12:58.
