data_PCOD8200541
_publ_section_title
;
Structure prediction by ZEFSAII (Michael W. Deem and Ramdas Pophale) SiO2 
 PCOD8200541
Probable space group: P M M M
;
_chemical_formula_sum "Si O2"
_cell_formula_units_Z 40
_cell_length_a 9.088665
_cell_length_b 12.530255
_cell_length_c 22.107077
_cell_angle_alpha 90.000000
_cell_angle_beta 90.000000
_cell_angle_gamma 90.000000
_cell_volume 2517.626662
_symmetry_space_group_name_H-M "P M M M"
_symmetry_group_IT_number 47
_symmetry_cell_setting 'orthorhombic'
loop_
_space_group_symop_operation_xyz
x,y,z
-x,-y,z
x,-y,-z
-x,y,-z
-x,-y,-z
x,y,-z
-x,y,z
x,-y,z
loop_
_atom_site_type_symbol
_atom_site_label
_atom_site_fract_x
_atom_site_fract_y
_atom_site_fract_z
Si Si1 0.162895 0.626689 0.614544
Si Si2 0.167898 0.876878 0.070120
Si Si3 0.828403 0.375351 0.251134
Si Si4 0.336285 0.627531 0.500000
Si Si5 0.169835 0.500000 0.071617
Si Si6 0.674074 0.305009 0.135948
O O1 0.156123 0.500000 0.610009
O O2 0.223211 0.657489 0.681101
O O3 0.261870 0.673981 0.560738
O O4 0.000000 0.674010 0.605763
O O5 0.281650 0.809544 0.109664
O O6 0.000000 0.842491 0.084357
O O7 0.191919 0.000000 0.086873
O O8 0.202339 0.856618 0.000000
O O9 0.800906 0.500000 0.238993
O O10 0.728534 0.308993 0.205111
O O11 0.000000 0.347970 0.242222
O O12 0.330624 0.500000 0.500000
O O13 0.500000 0.671785 0.500000
O O14 0.247872 0.604636 0.096565
O O15 0.000000 0.500000 0.092800
O O16 0.183111 0.500000 0.000000
O O17 0.500000 0.320637 0.133100
#
# Coordination Sequence:
#
# PCOD8200541 Si02
#       6
#     8   8   8   4   4   8
#     4   8  14  24  38  54  73 105 149 190 220 253
#     4   9  19  37  58  74  88 114 153 190 226 275
#     4   9  17  30  46  61  83 120 159 190 222 267
#     4   9  15  21  31  51  77 107 140 181 228 265
#     4  11  23  37  51  65  87 122 159 190 221 267
#     4  12  23  32  47  72  98 121 146 186 238 282
#
# _framework density 15.887979
#
# number of rings (size 3 to 8) (size 9 to 14) (size 15 to 20)
#    0.000    2.400    1.000    4.800    0.000    6.000 
#    0.000    3.000    0.000    0.000    0.000    0.000 
#    0.000    0.000    0.000    0.900    0.000   17.500 
#
# Total GULP energy -495916.535886 kJ/mol
# GULP energy per Si atom -12397.913397 kJ/mol
# Density = 1.585182 g / cm^3
# Si number density = 15.887979 Si / 1000 Ang^3
#
#
#
# Elastic Constant Matrix: (Units=GPa)
#
#
# Indices 1 2 3 4 5 6 
#
# 1 115.4936 35.3353 71.7014 0.0000 0.0000 0.0000
# 2 35.3353 47.7719 37.6105 0.0000 0.0000 0.0000
# 3 71.7014 37.6105 126.6874 0.0000 0.0000 0.0000
# 4 0.0000 0.0000 0.0000 11.0934 0.0000 0.0000
# 5 0.0000 0.0000 0.0000 0.0000 10.9375 0.0000
# 6 0.0000 0.0000 0.0000 0.0000 0.0000 15.2218
#
#
#
# Elastic Compliance Matrix: (Units=1/GPa)
#
#
# Indices 1 2 3 4 5 6 
#
# 1 0.014384 -0.005520 -0.006502 0.000000 0.000000 0.000000
# 2 -0.005520 0.029436 -0.005615 0.000000 0.000000 0.000000
# 3 -0.006502 -0.005615 0.013240 0.000000 0.000000 0.000000
# 4 0.000000 0.000000 0.000000 0.090144 0.000000 0.000000
# 5 0.000000 0.000000 0.000000 0.000000 0.091429 0.000000
# 6 0.000000 0.000000 0.000000 0.000000 0.000000 0.065695
#
#
# Mechanical properties :
#
#
# Convention : Reuss Voigt Hill
#
# Bulk Modulus (GPa) = 45.89973 64.36082 55.13027
# Shear Modulus (GPa) = 14.41483 17.13758 15.77620
#
# Velocity S-wave (km/s) = 3.01537 3.28784 3.15455
# Velocity P-wave (km/s) = 6.40903 7.41689 6.93130
#
# Compressibility (1/GPa) = 0.02178662
#
# Stress axis : x y z
#
# Youngs Moduli (GPa) = 69.52094 33.97154 75.52699
#
# Poissons Ratio (x) = 0.18754 0.49109
# Poissons Ratio (y) = 0.38378 0.42405
# Poissons Ratio (z) = 0.45203 0.19074
#
# Static dielectric constant tensor:
#      x y z
#    x 3.072700 0.000000 0.000000 
#    y 0.000000 2.582000 0.000000 
#    z 0.000000 0.000000 3.249400 
# 
# 
# High freq. dielectric constant tensor:
#      x y z
#    x 1.611890 0.000000 0.000000 
#    y 0.000000 1.550420 0.000000 
#    z 0.000000 0.000000 1.622660 
# 
# From -- ./inp_files/4116.got.cif
#   From: 2010.03.12/outbox.cif.g09.slc.cpg/sg47_3_cif.got.tgz:4116.got - 2010.04.14 03:12:58.
