data_PCOD8200932
_publ_section_title
;
Structure prediction by ZEFSAII (Michael W. Deem and Ramdas Pophale) SiO2 
 PCOD8200932
Probable space group: P M M M
;
_chemical_formula_sum "Si O2"
_cell_formula_units_Z 56
_cell_length_a 13.595205
_cell_length_b 29.089227
_cell_length_c 9.547768
_cell_angle_alpha 90.000000
_cell_angle_beta 90.000000
_cell_angle_gamma 90.000000
_cell_volume 3775.894044
_symmetry_space_group_name_H-M "P M M M"
_symmetry_group_IT_number 47
_symmetry_cell_setting 'orthorhombic'
loop_
_space_group_symop_operation_xyz
x,y,z
-x,-y,z
x,-y,-z
-x,y,-z
-x,-y,-z
x,y,-z
-x,y,z
x,-y,z
loop_
_atom_site_type_symbol
_atom_site_label
_atom_site_fract_x
_atom_site_fract_y
_atom_site_fract_z
Si Si1 0.117084 0.633822 0.157942
Si Si2 0.114103 0.279801 0.338321
Si Si3 0.609950 0.129712 0.339086
Si Si4 0.701476 0.947831 0.163616
Si Si5 0.109475 0.893278 0.839946
Si Si6 0.116987 0.551086 0.342899
Si Si7 0.200139 0.816508 0.662466
O O1 0.152256 0.678652 0.242233
O O2 0.160297 0.588560 0.235002
O O3 0.000000 0.631815 0.156829
O O4 0.158834 0.635556 0.000000
O O5 0.129133 0.293876 0.500000
O O6 0.180707 0.236194 0.296441
O O7 0.000000 0.268084 0.309278
O O8 0.623598 0.114996 0.500000
O O9 0.500000 0.148550 0.310605
O O10 0.626422 0.084361 0.246820
O O11 0.687120 0.170027 0.299838
O O12 0.813609 0.933328 0.198503
O O13 0.686729 0.000000 0.213997
O O14 0.678265 0.942690 0.000000
O O15 0.125408 0.848360 0.746784
O O16 0.000000 0.912740 0.812919
O O17 0.123382 0.877693 0.000000
O O18 0.155094 0.561904 0.500000
O O19 0.151627 0.500000 0.296492
O O20 0.000000 0.553472 0.342536
O O21 0.176743 0.824258 0.500000
#
# Coordination Sequence:
#
# PCOD8200932 Si02
#       7
#     8   8   8   8   8   8   8
#     4   9  16  23  31  46  68  93 122 157 194 227
#     4   9  16  25  37  52  71  96 124 153 185 222
#     4   9  18  32  48  64  81 100 123 155 194 232
#     4   9  18  31  45  62  83 105 129 155 183 220
#     4   9  17  28  42  60  81 104 128 155 187 221
#     4   8  13  21  32  44  60  87 124 163 198 228
#     4   9  17  29  44  60  77  99 128 158 189 229
#
# _framework density 14.830925000000001
#
# number of rings (size 3 to 8) (size 9 to 14) (size 15 to 20)
#    0.000    3.143    0.000    1.286    0.000    4.571 
#    0.000    5.714    0.000    0.000    0.000    4.000 
#    0.000    0.000    0.000    0.000    0.000    0.714 
#
# Total GULP energy -694207.327337 kJ/mol
# GULP energy per Si atom -12396.559417 kJ/mol
# Density = 1.479717 g / cm^3
# Si number density = 14.830925 Si / 1000 Ang^3
#
#
#
# Elastic Constant Matrix: (Units=GPa)
#
#
# Indices 1 2 3 4 5 6 
#
# 1 53.5567 29.3210 20.6115 0.0000 0.0000 0.0000
# 2 29.3210 122.4463 58.8086 0.0000 0.0000 0.0000
# 3 20.6115 58.8086 67.5585 0.0000 0.0000 0.0000
# 4 0.0000 0.0000 0.0000 23.2162 0.0000 0.0000
# 5 0.0000 0.0000 0.0000 0.0000 13.5500 0.0000
# 6 0.0000 0.0000 0.0000 0.0000 0.0000 9.4839
#
#
#
# Elastic Compliance Matrix: (Units=1/GPa)
#
#
# Indices 1 2 3 4 5 6 
#
# 1 0.022002 -0.003514 -0.003654 0.000000 0.000000 0.000000
# 2 -0.003514 0.014595 -0.011633 0.000000 0.000000 0.000000
# 3 -0.003654 -0.011633 0.026043 0.000000 0.000000 0.000000
# 4 0.000000 0.000000 0.000000 0.043073 0.000000 0.000000
# 5 0.000000 0.000000 0.000000 0.000000 0.073801 0.000000
# 6 0.000000 0.000000 0.000000 0.000000 0.000000 0.105442
#
#
# Mechanical properties :
#
#
# Convention : Reuss Voigt Hill
#
# Bulk Modulus (GPa) = 39.93787 51.22710 45.58248
# Shear Modulus (GPa) = 15.11012 18.23804 16.67408
#
# Velocity S-wave (km/s) = 3.19537 3.51056 3.35666
# Velocity P-wave (km/s) = 6.37190 7.14477 6.76937
#
# Compressibility (1/GPa) = 0.02503889
#
# Stress axis : x y z
#
# Youngs Moduli (GPa) = 45.45117 68.51507 38.39777
#
# Poissons Ratio (x) = 0.24073 0.14031
# Poissons Ratio (y) = 0.15969 0.44668
# Poissons Ratio (z) = 0.16608 0.79704
#
# Static dielectric constant tensor:
#      x y z
#    x 2.603250 0.000000 0.000000 
#    y 0.000000 2.938120 0.000000 
#    z 0.000000 0.000000 2.994690 
# 
# 
# High freq. dielectric constant tensor:
#      x y z
#    x 1.518420 0.000000 0.000000 
#    y 0.000000 1.563580 0.000000 
#    z 0.000000 0.000000 1.573430 
# 
# From -- ./inp_files/8149.got.cif
#   From: 2010.03.12/outbox.cif.g09.slc.cpg/sg47_5_cif.got.tgz:8149.got - 2010.04.14 03:12:58.
