data_PCOD8200101
_publ_section_title
;
Structure prediction by ZEFSAII (Michael W. Deem and Ramdas Pophale) SiO2 
 PCOD8200101
Probable space group: P M M M
;
_chemical_formula_sum "Si O2"
_cell_formula_units_Z 48
_cell_length_a 8.266047
_cell_length_b 15.159782
_cell_length_c 18.263528
_cell_angle_alpha 90.000000
_cell_angle_beta 90.000000
_cell_angle_gamma 90.000000
_cell_volume 2288.629551
_symmetry_space_group_name_H-M "P M M M"
_symmetry_group_IT_number 47
_symmetry_cell_setting 'orthorhombic'
loop_
_space_group_symop_operation_xyz
x,y,z
-x,-y,z
x,-y,-z
-x,y,-z
-x,-y,-z
x,y,-z
-x,y,z
x,-y,z
loop_
_atom_site_type_symbol
_atom_site_label
_atom_site_fract_x
_atom_site_fract_y
_atom_site_fract_z
Si Si1 0.319148 0.894895 0.648196
Si Si2 0.000000 0.605010 0.583838
Si Si3 0.813138 0.902703 0.500000
Si Si4 0.320553 0.603192 0.662581
Si Si5 0.190685 0.758147 0.918380
Si Si6 0.308115 0.098699 0.193492
Si Si7 0.187874 0.400371 0.818705
O O1 0.500000 0.859471 0.643518
O O2 0.233727 0.853395 0.575978
O O3 0.242757 0.865331 0.726938
O O4 0.308892 0.000000 0.647056
O O5 0.166835 0.644560 0.618774
O O6 0.000000 0.500000 0.594741
O O7 0.000000 0.634235 0.500000
O O8 0.000000 0.914934 0.500000
O O9 0.729282 0.000000 0.500000
O O10 0.500000 0.641799 0.640623
O O11 0.322296 0.500000 0.646082
O O12 0.295269 0.621741 0.748253
O O13 0.254078 0.839656 0.871905
O O14 0.243474 0.665379 0.882810
O O15 0.000000 0.764659 0.922159
O O16 0.265296 0.763020 0.000000
O O17 0.500000 0.095332 0.198706
O O18 0.241246 0.000000 0.178046
O O19 0.219273 0.500000 0.846306
O O20 0.000000 0.387660 0.797342
#
# Coordination Sequence:
#
# PCOD8200101 Si02
#       7
#     8   4   4   8   8   8   8
#     4   8  14  26  44  66  94 131 175 216 256 307
#     4   9  16  26  42  70 109 147 184 231 283 333
#     4   9  15  21  35  67 105 133 162 207 260 311
#     4   9  16  27  46  73 104 141 187 231 276 336
#     4  10  22  37  54  82 113 140 177 223 275 336
#     4   9  19  36  56  77 104 144 190 229 269 321
#     4   9  17  33  56  78 106 144 182 225 280 340
#
# _framework density 20.973251000000001
#
# number of rings (size 3 to 8) (size 9 to 14) (size 15 to 20)
#    0.000    3.000    0.833    1.250    0.000    4.000 
#    0.000    6.667    0.000    0.000    2.167    3.500 
#    0.000    0.000    0.000    0.000    0.000    0.000 
#
# Total GULP energy -594650.420327 kJ/mol
# GULP energy per Si atom -12388.550423 kJ/mol
# Density = 2.092552 g / cm^3
# Si number density = 20.973251 Si / 1000 Ang^3
#
#
#
# Elastic Constant Matrix: (Units=GPa)
#
#
# Indices 1 2 3 4 5 6 
#
# 1 90.9033 21.5861 66.0707 0.0000 0.0000 0.0000
# 2 21.5861 70.5260 60.8754 0.0000 0.0000 0.0000
# 3 66.0707 60.8754 185.5008 0.0000 0.0000 0.0000
# 4 0.0000 0.0000 0.0000 12.7241 0.0000 0.0000
# 5 0.0000 0.0000 0.0000 0.0000 28.4032 0.0000
# 6 0.0000 0.0000 0.0000 0.0000 0.0000 8.5325
#
#
#
# Elastic Compliance Matrix: (Units=1/GPa)
#
#
# Indices 1 2 3 4 5 6 
#
# 1 0.014843 0.000028 -0.005296 0.000000 0.000000 0.000000
# 2 0.000028 0.019783 -0.006502 0.000000 0.000000 0.000000
# 3 -0.005296 -0.006502 0.009411 0.000000 0.000000 0.000000
# 4 0.000000 0.000000 0.000000 0.078591 0.000000 0.000000
# 5 0.000000 0.000000 0.000000 0.000000 0.035207 0.000000
# 6 0.000000 0.000000 0.000000 0.000000 0.000000 0.117199
#
#
# Mechanical properties :
#
#
# Convention : Reuss Voigt Hill
#
# Bulk Modulus (GPa) = 48.78721 71.55496 60.17108
# Shear Modulus (GPa) = 16.37163 23.15850 19.76506
#
# Velocity S-wave (km/s) = 2.79695 3.32654 3.07317
# Velocity P-wave (km/s) = 5.80884 6.99613 6.42995
#
# Compressibility (1/GPa) = 0.02049718
#
# Stress axis : x y z
#
# Youngs Moduli (GPa) = 67.37033 50.54853 106.25908
#
# Poissons Ratio (x) = -0.00143 0.56276
# Poissons Ratio (y) = -0.00190 0.69092
# Poissons Ratio (z) = 0.35680 0.32868
#
# Static dielectric constant tensor:
#      x y z
#    x 3.793530 0.000000 0.000000 
#    y 0.000000 2.159720 0.000000 
#    z 0.000000 0.000000 3.253440 
# 
# 
# High freq. dielectric constant tensor:
#      x y z
#    x 1.810130 0.000000 0.000000 
#    y 0.000000 1.785440 0.000000 
#    z 0.000000 0.000000 1.825410 
# 
# From -- ./inp_files/26539.got.cif
#   From: 2010.03.12/outbox.cif.g09.slc.cpg/sg47_14_cif.got.tgz:26539.got - 2010.04.14 03:12:58.
