data_PCOD8200844
_publ_section_title
;
Structure prediction by ZEFSAII (Michael W. Deem and Ramdas Pophale) SiO2 
 PCOD8200844
Probable space group: P M M M
;
_chemical_formula_sum "Si O2"
_cell_formula_units_Z 52
_cell_length_a 9.712708
_cell_length_b 33.877688
_cell_length_c 9.328215
_cell_angle_alpha 90.000000
_cell_angle_beta 90.000000
_cell_angle_gamma 90.000000
_cell_volume 3069.394028
_symmetry_space_group_name_H-M "P M M M"
_symmetry_group_IT_number 47
_symmetry_cell_setting 'orthorhombic'
loop_
_space_group_symop_operation_xyz
x,y,z
-x,-y,z
x,-y,-z
-x,y,-z
-x,-y,-z
x,y,-z
-x,y,z
x,-y,z
loop_
_atom_site_type_symbol
_atom_site_label
_atom_site_fract_x
_atom_site_fract_y
_atom_site_fract_z
Si Si1 0.163689 0.956464 0.160959
Si Si2 0.164536 0.116800 0.339246
Si Si3 0.846721 0.276616 0.829428
Si Si4 0.660188 0.347980 0.832913
Si Si5 0.663696 0.424676 0.662548
Si Si6 0.664268 0.500000 0.163169
Si Si7 0.163763 0.190101 0.840410
O O1 0.224088 0.922500 0.263333
O O2 0.000000 0.954504 0.161664
O O3 0.211685 0.000000 0.214282
O O4 0.217790 0.948880 0.000000
O O5 0.221484 0.117165 0.500000
O O6 0.223148 0.155737 0.260746
O O7 0.000000 0.116771 0.336130
O O8 0.742220 0.309981 0.774610
O O9 0.794793 0.233299 0.777844
O O10 0.000000 0.285714 0.769435
O O11 0.851377 0.275800 0.000000
O O12 0.500000 0.339753 0.806245
O O13 0.713757 0.385134 0.741877
O O14 0.689830 0.356525 0.000000
O O15 0.721616 0.425847 0.500000
O O16 0.500000 0.426288 0.660078
O O17 0.720979 0.461786 0.752499
O O18 0.500000 0.500000 0.160718
O O19 0.720745 0.500000 0.000000
O O20 0.000000 0.187822 0.847907
O O21 0.224674 0.183820 0.000000
#
# Coordination Sequence:
#
# PCOD8200844 Si02
#       7
#     8   8   8   8   8   4   8
#     4   8  13  20  28  37  51  75 108 142 174 213
#     4   9  15  20  27  41  60  80 104 140 185 224
#     4   8  14  25  41  59  77 100 132 166 197 231
#     4   9  16  26  41  61  83 105 131 164 198 230
#     4   9  16  25  37  55  81 110 135 159 192 235
#     4   9  15  23  37  57  80 105 134 167 198 226
#     4   8  13  22  35  47  60  83 116 150 181 216
#
# _framework density 16.941455000000001
#
# number of rings (size 3 to 8) (size 9 to 14) (size 15 to 20)
#    0.000    3.462    0.000    2.538    0.000    4.923 
#    0.000    2.308    0.000    1.385    0.000    0.538 
#    0.000    4.308    0.000    0.000    0.000    0.769 
#
# Total GULP energy -644428.801414 kJ/mol
# GULP energy per Si atom -12392.861566 kJ/mol
# Density = 1.690290 g / cm^3
# Si number density = 16.941455 Si / 1000 Ang^3
#
#
#
# Elastic Constant Matrix: (Units=GPa)
#
#
# Indices 1 2 3 4 5 6 
#
# 1 16.2842 29.2245 15.4695 0.0000 0.0000 0.0000
# 2 29.2245 196.7182 90.2497 0.0000 0.0000 0.0000
# 3 15.4695 90.2497 111.9427 0.0000 0.0000 0.0000
# 4 0.0000 0.0000 0.0000 13.5521 0.0000 0.0000
# 5 0.0000 0.0000 0.0000 0.0000 5.0103 0.0000
# 6 0.0000 0.0000 0.0000 0.0000 0.0000 4.8565
#
#
#
# Elastic Compliance Matrix: (Units=1/GPa)
#
#
# Indices 1 2 3 4 5 6 
#
# 1 0.084158 -0.011374 -0.002460 0.000000 0.000000 0.000000
# 2 -0.011374 0.009604 -0.006171 0.000000 0.000000 0.000000
# 3 -0.002460 -0.006171 0.014249 0.000000 0.000000 0.000000
# 4 0.000000 0.000000 0.000000 0.073789 0.000000 0.000000
# 5 0.000000 0.000000 0.000000 0.000000 0.199589 0.000000
# 6 0.000000 0.000000 0.000000 0.000000 0.000000 0.205911
#
#
# Mechanical properties :
#
#
# Convention : Reuss Voigt Hill
#
# Bulk Modulus (GPa) = 14.70582 66.09249 40.39916
# Shear Modulus (GPa) = 7.69257 17.35055 12.52156
#
# Velocity S-wave (km/s) = 2.13320 3.20370 2.72160
# Velocity P-wave (km/s) = 3.84273 7.26512 5.81156
#
# Compressibility (1/GPa) = 0.06800027
#
# Stress axis : x y z
#
# Youngs Moduli (GPa) = 11.88238 104.11859 70.18224
#
# Poissons Ratio (x) = 1.18423 0.17266
# Poissons Ratio (y) = 0.13515 0.43313
# Poissons Ratio (z) = 0.02923 0.64256
#
# Static dielectric constant tensor:
#      x y z
#    x 2.481920 0.000000 0.000000 
#    y 0.000000 3.605260 0.000000 
#    z 0.000000 0.000000 3.204430 
# 
# 
# High freq. dielectric constant tensor:
#      x y z
#    x 1.562930 0.000000 0.000000 
#    y 0.000000 1.675340 0.000000 
#    z 0.000000 0.000000 1.641750 
# 
# From -- ./inp_files/4829.got.cif
#   From: 2010.03.12/outbox.cif.g09.slc.cpg/sg47_3_cif.got.tgz:4829.got - 2010.04.14 03:12:58.
