data_PCOD8200104
_publ_section_title
;
Structure prediction by ZEFSAII (Michael W. Deem and Ramdas Pophale) SiO2 
 PCOD8200104
Probable space group: P M M M
;
_chemical_formula_sum "Si O2"
_cell_formula_units_Z 48
_cell_length_a 15.417619
_cell_length_b 7.809195
_cell_length_c 19.414176
_cell_angle_alpha 90.000000
_cell_angle_beta 90.000000
_cell_angle_gamma 90.000000
_cell_volume 2337.451127
_symmetry_space_group_name_H-M "P M M M"
_symmetry_group_IT_number 47
_symmetry_cell_setting 'orthorhombic'
loop_
_space_group_symop_operation_xyz
x,y,z
-x,-y,z
x,-y,-z
-x,y,-z
-x,-y,-z
x,y,-z
-x,y,z
x,-y,z
loop_
_atom_site_type_symbol
_atom_site_label
_atom_site_fract_x
_atom_site_fract_y
_atom_site_fract_z
Si Si1 0.598791 0.297623 0.844862
Si Si2 0.095213 0.000000 0.725197
Si Si3 0.766472 0.803630 0.922230
Si Si4 0.142280 0.000000 0.574557
Si Si5 0.100773 0.310023 0.187088
Si Si6 0.594993 0.702853 0.690621
Si Si7 0.274376 0.696109 0.576314
O O1 0.500000 0.238473 0.862528
O O2 0.605559 0.500000 0.852172
O O3 0.667887 0.212309 0.895290
O O4 0.623794 0.240042 0.767089
O O5 0.137485 0.173996 0.756110
O O6 0.084553 0.000000 0.642721
O O7 0.000000 0.000000 0.756477
O O8 0.837699 0.698502 0.879520
O O9 0.794787 0.000000 0.919203
O O10 0.768331 0.733172 0.000000
O O11 0.194319 0.823546 0.578259
O O12 0.092325 0.000000 0.500000
O O13 0.111204 0.500000 0.219309
O O14 0.000000 0.279061 0.166172
O O15 0.500000 0.779103 0.674786
O O16 0.590990 0.500000 0.686753
O O17 0.659556 0.772142 0.632526
O O18 0.317191 0.701527 0.500000
O O19 0.245328 0.500000 0.593309
#
# Coordination Sequence:
#
# PCOD8200104 Si02
#       7
#     8   4   8   4   8   8   8
#     4   9  19  36  56  79 110 150 200 254 299 346
#     4  10  22  41  63  89 119 149 191 240 286 343
#     4  11  24  39  58  86 119 158 201 244 297 360
#     4  10  22  37  55  83 117 152 190 231 281 342
#     4  10  22  41  65  93 123 155 194 243 300 359
#     4   8  15  29  49  73 101 138 185 234 287 340
#     4   9  18  32  51  77 109 146 187 232 283 338
#
# _framework density 20.535188999999999
#
# number of rings (size 3 to 8) (size 9 to 14) (size 15 to 20)
#    0.000    2.500    0.833    1.500    2.333    3.500 
#    0.000    5.417    0.000    1.500    0.000    4.667 
#    0.000    0.000    0.000    0.000    0.000    0.000 
#
# Total GULP energy -594743.663061 kJ/mol
# GULP energy per Si atom -12390.492980 kJ/mol
# Density = 2.048845 g / cm^3
# Si number density = 20.535189 Si / 1000 Ang^3
#
#
#
# Elastic Constant Matrix: (Units=GPa)
#
#
# Indices 1 2 3 4 5 6 
#
# 1 71.9295 26.1009 43.5475 0.0000 0.0000 0.0000
# 2 26.1009 94.5337 40.6567 0.0000 0.0000 0.0000
# 3 43.5475 40.6567 136.4095 0.0000 0.0000 0.0000
# 4 0.0000 0.0000 0.0000 21.5347 0.0000 0.0000
# 5 0.0000 0.0000 0.0000 0.0000 21.9332 0.0000
# 6 0.0000 0.0000 0.0000 0.0000 0.0000 14.9410
#
#
#
# Elastic Compliance Matrix: (Units=1/GPa)
#
#
# Indices 1 2 3 4 5 6 
#
# 1 0.017877 -0.002846 -0.004859 0.000000 0.000000 0.000000
# 2 -0.002846 0.012587 -0.002843 0.000000 0.000000 0.000000
# 3 -0.004859 -0.002843 0.009729 0.000000 0.000000 0.000000
# 4 0.000000 0.000000 0.000000 0.046437 0.000000 0.000000
# 5 0.000000 0.000000 0.000000 0.000000 0.045593 0.000000
# 6 0.000000 0.000000 0.000000 0.000000 0.000000 0.066930
#
#
# Mechanical properties :
#
#
# Convention : Reuss Voigt Hill
#
# Bulk Modulus (GPa) = 52.36333 58.16477 55.26405
# Shear Modulus (GPa) = 22.06397 24.51962 23.29179
#
# Velocity S-wave (km/s) = 3.28143 3.45922 3.37150
# Velocity P-wave (km/s) = 6.31757 6.65889 6.49048
#
# Compressibility (1/GPa) = 0.01909733
#
# Stress axis : x y z
#
# Youngs Moduli (GPa) = 55.93826 79.44880 102.78261
#
# Poissons Ratio (x) = 0.22613 0.49939
# Poissons Ratio (y) = 0.15921 0.29219
# Poissons Ratio (z) = 0.27179 0.22586
#
# Static dielectric constant tensor:
#      x y z
#    x 3.631770 0.000000 0.000000 
#    y 0.000000 3.699110 0.000000 
#    z 0.000000 0.000000 3.949660 
# 
# 
# High freq. dielectric constant tensor:
#      x y z
#    x 1.785070 0.000000 0.000000 
#    y 0.000000 1.802670 0.000000 
#    z 0.000000 0.000000 1.802690 
# 
# From -- ./inp_files/28055.got.cif
#   From: 2010.03.12/outbox.cif.g09.slc.cpg/sg47_15_cif.got.tgz:28055.got - 2010.04.14 03:12:58.
