data_PCOD8200862
_publ_section_title
;
Structure prediction by ZEFSAII (Michael W. Deem and Ramdas Pophale) SiO2 
 PCOD8200862
Probable space group: P M M M
;
_chemical_formula_sum "Si O2"
_cell_formula_units_Z 36
_cell_length_a 9.287176
_cell_length_b 23.446647
_cell_length_c 9.190959
_cell_angle_alpha 90.000000
_cell_angle_beta 90.000000
_cell_angle_gamma 90.000000
_cell_volume 2001.360157
_symmetry_space_group_name_H-M "P M M M"
_symmetry_group_IT_number 47
_symmetry_cell_setting 'orthorhombic'
loop_
_space_group_symop_operation_xyz
x,y,z
-x,-y,z
x,-y,-z
-x,y,-z
-x,-y,-z
x,y,-z
-x,y,z
x,-y,z
loop_
_atom_site_type_symbol
_atom_site_label
_atom_site_fract_x
_atom_site_fract_y
_atom_site_fract_z
Si Si1 0.832696 0.888675 0.830032
Si Si2 0.837762 0.669584 0.173764
Si Si3 0.828833 0.000000 0.335963
Si Si4 0.661689 0.563020 0.173018
Si Si5 0.662652 0.778060 0.173169
O O1 0.743624 0.834615 0.771929
O O2 0.000000 0.877076 0.796537
O O3 0.772294 0.943777 0.745860
O O4 0.807561 0.899556 0.000000
O O5 0.768050 0.611228 0.235687
O O6 0.746526 0.722937 0.234144
O O7 0.000000 0.674156 0.233427
O O8 0.836952 0.669630 0.000000
O O9 0.769182 0.000000 0.500000
O O10 0.000000 0.000000 0.332245
O O11 0.500000 0.575149 0.229606
O O12 0.712785 0.500000 0.224945
O O13 0.662130 0.565445 0.000000
O O14 0.500000 0.777626 0.233979
O O15 0.662664 0.776561 0.000000
#
# Coordination Sequence:
#
# PCOD8200862 Si02
#       5
#     8   8   4   8   8
#     4   9  16  27  44  64  84 106 135 170 204 239
#     4   9  15  21  30  45  65  89 120 161 205 244
#     4   9  17  29  46  67  88 110 136 165 200 244
#     4   8  13  20  28  38  56  86 123 160 198 241
#     4   9  16  25  37  53  73  97 126 162 204 246
#
# _framework density 17.987767000000002
#
# number of rings (size 3 to 8) (size 9 to 14) (size 15 to 20)
#    0.000    3.222    0.000    2.333    0.000    7.111 
#    0.000    2.778    0.000    4.000    0.000    0.000 
#    0.000    0.000    0.000    0.000    0.000    1.111 
#
# Total GULP energy -446251.049732 kJ/mol
# GULP energy per Si atom -12395.862493 kJ/mol
# Density = 1.794683 g / cm^3
# Si number density = 17.987767 Si / 1000 Ang^3
#
#
#
# Elastic Constant Matrix: (Units=GPa)
#
#
# Indices 1 2 3 4 5 6 
#
# 1 128.2373 100.1000 17.3366 0.0000 0.0000 0.0000
# 2 100.1000 205.1094 28.5466 0.0000 0.0000 0.0000
# 3 17.3366 28.5466 21.2756 0.0000 0.0000 0.0000
# 4 0.0000 0.0000 0.0000 0.6497 0.0000 0.0000
# 5 0.0000 0.0000 0.0000 0.0000 3.8651 0.0000
# 6 0.0000 0.0000 0.0000 0.0000 0.0000 32.0820
#
#
#
# Elastic Compliance Matrix: (Units=1/GPa)
#
#
# Indices 1 2 3 4 5 6 
#
# 1 0.012704 -0.005852 -0.002500 0.000000 0.000000 0.000000
# 2 -0.005852 0.008691 -0.006892 0.000000 0.000000 0.000000
# 3 -0.002500 -0.006892 0.058287 0.000000 0.000000 0.000000
# 4 0.000000 0.000000 0.000000 1.539263 0.000000 0.000000
# 5 0.000000 0.000000 0.000000 0.000000 0.258728 0.000000
# 6 0.000000 0.000000 0.000000 0.000000 0.000000 0.031170
#
#
# Mechanical properties :
#
#
# Convention : Reuss Voigt Hill
#
# Bulk Modulus (GPa) = 20.32796 71.84319 46.08558
# Shear Modulus (GPa) = 2.55659 21.22861 11.89260
#
# Velocity S-wave (km/s) = 1.19347 3.43909 2.57407
# Velocity P-wave (km/s) = 3.63658 7.46970 5.87457
#
# Compressibility (1/GPa) = 0.04919332
#
# Stress axis : x y z
#
# Youngs Moduli (GPa) = 78.71516 115.06605 17.15648
#
# Poissons Ratio (x) = 0.67337 0.04289
# Poissons Ratio (y) = 0.46064 0.11825
# Poissons Ratio (z) = 0.19679 0.79305
#
# Static dielectric constant tensor:
#      x y z
#    x 3.372840 0.000000 0.000000 
#    y 0.000000 3.677400 0.000000 
#    z 0.000000 0.000000 2.580700 
# 
# 
# High freq. dielectric constant tensor:
#      x y z
#    x 1.688590 0.000000 0.000000 
#    y 0.000000 1.718020 0.000000 
#    z 0.000000 0.000000 1.609840 
# 
# From -- ./inp_files/1366.got.cif
#   From: 2010.03.12/outbox.cif.g09.slc.cpg/sg47_1_cif.got.tgz:1366.got - 2010.04.14 03:12:58.
