data_PCOD8200856
_publ_section_title
;
Structure prediction by ZEFSAII (Michael W. Deem and Ramdas Pophale) SiO2 
 PCOD8200856
Probable space group: P M M M
;
_chemical_formula_sum "Si O2"
_cell_formula_units_Z 52
_cell_length_a 9.410299
_cell_length_b 9.256160
_cell_length_c 33.766908
_cell_angle_alpha 90.000000
_cell_angle_beta 90.000000
_cell_angle_gamma 90.000000
_cell_volume 2941.206862
_symmetry_space_group_name_H-M "P M M M"
_symmetry_group_IT_number 47
_symmetry_cell_setting 'orthorhombic'
loop_
_space_group_symop_operation_xyz
x,y,z
-x,-y,z
x,-y,-z
-x,y,-z
-x,-y,-z
x,y,-z
-x,y,z
x,-y,z
loop_
_atom_site_type_symbol
_atom_site_label
_atom_site_fract_x
_atom_site_fract_y
_atom_site_fract_z
Si Si1 0.330281 0.337370 0.117961
Si Si2 0.334979 0.667452 0.729861
Si Si3 0.830427 0.336148 0.500000
Si Si4 0.668980 0.837730 0.956285
Si Si5 0.330809 0.163048 0.806558
Si Si6 0.830845 0.836617 0.424087
Si Si7 0.834665 0.332778 0.347266
O O1 0.500000 0.335840 0.117923
O O2 0.272142 0.500000 0.121023
O O3 0.269497 0.267609 0.077460
O O4 0.271007 0.247132 0.155201
O O5 0.500000 0.698311 0.721964
O O6 0.307325 0.500000 0.739362
O O7 0.276451 0.758183 0.766967
O O8 0.249768 0.718690 0.691352
O O9 0.772173 0.500000 0.500000
O O10 0.771494 0.252978 0.538557
O O11 0.000000 0.337064 0.500000
O O12 0.500000 0.837282 0.954512
O O13 0.724452 0.000000 0.948211
O O14 0.719304 0.785354 0.000000
O O15 0.500000 0.164624 0.807515
O O16 0.271890 0.000000 0.807219
O O17 0.777191 0.760521 0.384026
O O18 0.000000 0.836408 0.425255
O O19 0.771862 0.000000 0.425826
O O20 0.805049 0.500000 0.357012
O O21 0.000000 0.304415 0.339370
#
# Coordination Sequence:
#
# PCOD8200856 Si02
#       7
#     8   8   4   8   8   8   8
#     4   9  15  21  30  44  62  85 115 153 195 236
#     4   9  17  29  44  61  81 105 135 171 206 239
#     4   9  15  23  37  57  82 111 140 169 202 240
#     4   8  13  20  28  38  55  81 113 149 189 233
#     4   9  16  25  37  52  70  93 123 160 200 240
#     4   9  16  25  38  58  84 111 138 169 203 238
#     4   9  17  29  44  62  85 112 139 166 200 243
#
# _framework density 17.679818000000001
#
# number of rings (size 3 to 8) (size 9 to 14) (size 15 to 20)
#    0.000    3.154    0.000    2.077    0.000    7.385 
#    0.000    1.538    0.000    0.000    0.000    0.538 
#    0.000    4.308    0.000    0.000    0.000    0.769 
#
# Total GULP energy -644649.431684 kJ/mol
# GULP energy per Si atom -12397.104455 kJ/mol
# Density = 1.763958 g / cm^3
# Si number density = 17.679818 Si / 1000 Ang^3
#
#
#
# Elastic Constant Matrix: (Units=GPa)
#
#
# Indices 1 2 3 4 5 6 
#
# 1 10.4475 14.6510 22.6020 0.0000 0.0000 0.0000
# 2 14.6510 148.1229 111.7898 0.0000 0.0000 0.0000
# 3 22.6020 111.7898 201.0440 0.0000 0.0000 0.0000
# 4 0.0000 0.0000 0.0000 40.1185 0.0000 0.0000
# 5 0.0000 0.0000 0.0000 0.0000 -2.8171 0.0000
# 6 0.0000 0.0000 0.0000 0.0000 0.0000 6.9529
#
#
#
# Elastic Compliance Matrix: (Units=1/GPa)
#
#
# Indices 1 2 3 4 5 6 
#
# 1 0.127291 -0.003085 -0.012595 0.000000 0.000000 0.000000
# 2 -0.003085 0.011708 -0.006163 0.000000 0.000000 0.000000
# 3 -0.012595 -0.006163 0.009817 0.000000 0.000000 0.000000
# 4 0.000000 0.000000 0.000000 0.024926 0.000000 0.000000
# 5 0.000000 0.000000 0.000000 0.000000 -0.354970 0.000000
# 6 0.000000 0.000000 0.000000 0.000000 0.000000 0.143825
#
#
# Mechanical properties :
#
#
# Convention : Reuss Voigt Hill
#
# Bulk Modulus (GPa) = 9.51206 73.07779 41.29492
# Shear Modulus (GPa) = 120.98702 22.88895 71.93798
#
# Velocity S-wave (km/s) = 8.28135 3.60201 6.38574
# Velocity P-wave (km/s) = 9.84037 7.66310 8.81918
#
# Compressibility (1/GPa) = 0.10512971
#
# Stress axis : x y z
#
# Youngs Moduli (GPa) = 7.85599 85.41369 101.86325
#
# Poissons Ratio (x) = 0.26348 1.28299
# Poissons Ratio (y) = 0.02423 0.62781
# Poissons Ratio (z) = 0.09895 0.52642
#
# Static dielectric constant tensor:
#      x y z
#    x 2.501740 0.000000 0.000000 
#    y 0.000000 3.458010 0.000000 
#    z 0.000000 0.000000 3.574060 
# 
# 
# High freq. dielectric constant tensor:
#      x y z
#    x 1.591820 0.000000 0.000000 
#    y 0.000000 1.692070 0.000000 
#    z 0.000000 0.000000 1.703430 
# 
# From -- ./inp_files/4823.got.cif
#   From: 2010.03.12/outbox.cif.g09.slc.cpg/sg47_3_cif.got.tgz:4823.got - 2010.04.14 03:12:58.
