data_PCOD8200089
_publ_section_title
;
Structure prediction by ZEFSAII (Michael W. Deem and Ramdas Pophale) SiO2 
 PCOD8200089
Probable space group: P M M M
;
_chemical_formula_sum "Si O2"
_cell_formula_units_Z 60
_cell_length_a 12.686564
_cell_length_b 20.659313
_cell_length_c 12.604488
_cell_angle_alpha 90.000000
_cell_angle_beta 90.000000
_cell_angle_gamma 90.000000
_cell_volume 3303.582062
_symmetry_space_group_name_H-M "P M M M"
_symmetry_group_IT_number 47
_symmetry_cell_setting 'orthorhombic'
loop_
_space_group_symop_operation_xyz
x,y,z
-x,-y,z
x,-y,-z
-x,y,-z
-x,-y,-z
x,y,-z
-x,y,z
x,-y,z
loop_
_atom_site_type_symbol
_atom_site_label
_atom_site_fract_x
_atom_site_fract_y
_atom_site_fract_z
Si Si1 0.379879 0.071766 0.617193
Si Si2 0.621887 0.772482 0.878163
Si Si3 0.383896 0.429084 0.375242
Si Si4 0.879601 0.572318 0.875131
Si Si5 0.877027 0.000000 0.874317
Si Si6 0.253039 0.327352 0.743977
Si Si7 0.121913 0.778288 0.622536
Si Si8 0.772148 0.871659 0.777940
O O1 0.368609 0.101770 0.500000
O O2 0.500000 0.068266 0.652584
O O3 0.322323 0.116836 0.697969
O O4 0.330240 0.000000 0.619251
O O5 0.500000 0.792834 0.848894
O O6 0.657288 0.712294 0.806288
O O7 0.711914 0.828327 0.865528
O O8 0.625398 0.750907 0.000000
O O9 0.390367 0.424578 0.500000
O O10 0.500000 0.417525 0.326620
O O11 0.342810 0.500000 0.340238
O O12 0.305624 0.375565 0.336494
O O13 0.838986 0.500000 0.842502
O O14 0.815597 0.631106 0.825045
O O15 0.000000 0.579637 0.838310
O O16 0.869571 0.580620 0.000000
O O17 0.821436 0.064259 0.829523
O O18 0.000000 0.000000 0.841875
O O19 0.863734 0.000000 0.000000
O O20 0.183742 0.282476 0.668458
O O21 0.156447 0.794530 0.500000
O O22 0.139233 0.837182 0.705839
O O23 0.000000 0.760625 0.623783
#
# Coordination Sequence:
#
# PCOD8200089 Si02
#       8
#     8   8   8   8   4   8   8   8
#     4   9  17  30  51  80 109 131 157 197 241 290
#     4  10  22  37  52  75 106 137 172 214 253 297
#     4   9  18  32  50  75 105 133 166 210 257 307
#     4   9  18  32  50  75 105 135 174 223 266 305
#     4  11  24  40  58  81 104 126 164 217 262 302
#     4  11  19  32  55  75 100 138 179 210 256 307
#     4  10  22  37  52  75 106 137 172 214 253 297
#     4  11  20  37  59  77 101 136 172 202 252 313
#
# _framework density 18.162102999999998
#
# number of rings (size 3 to 8) (size 9 to 14) (size 15 to 20)
#    0.000    2.067    0.667    4.800    0.000    0.000 
#    0.000    0.000    0.000   16.000    0.000   11.200 
#    0.000    0.000    0.000    0.000    0.000    0.000 
#
# Total GULP energy -743534.879574 kJ/mol
# GULP energy per Si atom -12392.247993 kJ/mol
# Density = 1.812077 g / cm^3
# Si number density = 18.162103 Si / 1000 Ang^3
#
#
#
# Elastic Constant Matrix: (Units=GPa)
#
#
# Indices 1 2 3 4 5 6 
#
# 1 78.1785 44.8400 50.4995 0.0000 0.0000 0.0000
# 2 44.8400 107.2864 38.3647 0.0000 0.0000 0.0000
# 3 50.4995 38.3647 63.3129 0.0000 0.0000 0.0000
# 4 0.0000 0.0000 0.0000 25.7844 0.0000 0.0000
# 5 0.0000 0.0000 0.0000 0.0000 31.3133 0.0000
# 6 0.0000 0.0000 0.0000 0.0000 0.0000 30.6840
#
#
#
# Elastic Compliance Matrix: (Units=1/GPa)
#
#
# Indices 1 2 3 4 5 6 
#
# 1 0.028180 -0.004775 -0.019583 0.000000 0.000000 0.000000
# 2 -0.004775 0.012708 -0.003892 0.000000 0.000000 0.000000
# 3 -0.019583 -0.003892 0.033773 0.000000 0.000000 0.000000
# 4 0.000000 0.000000 0.000000 0.038783 0.000000 0.000000
# 5 0.000000 0.000000 0.000000 0.000000 0.031935 0.000000
# 6 0.000000 0.000000 0.000000 0.000000 0.000000 0.032590
#
#
# Mechanical properties :
#
#
# Convention : Reuss Voigt Hill
#
# Bulk Modulus (GPa) = 55.06470 57.35402 56.20936
# Shear Modulus (GPa) = 20.78793 25.22791 23.00792
#
# Velocity S-wave (km/s) = 3.38683 3.73103 3.56309
# Velocity P-wave (km/s) = 6.75858 7.08578 6.92411
#
# Compressibility (1/GPa) = 0.01816046
#
# Stress axis : x y z
#
# Youngs Moduli (GPa) = 35.48637 78.68896 29.60935
#
# Poissons Ratio (x) = 0.37573 0.57985
# Poissons Ratio (y) = 0.16944 0.11524
# Poissons Ratio (z) = 0.69494 0.30627
#
# Static dielectric constant tensor:
#      x y z
#    x 3.621190 0.000000 0.000000 
#    y 0.000000 3.246110 0.000000 
#    z 0.000000 0.000000 3.355500 
# 
# 
# High freq. dielectric constant tensor:
#      x y z
#    x 1.706710 0.000000 0.000000 
#    y 0.000000 1.708260 0.000000 
#    z 0.000000 0.000000 1.705880 
# 
# From -- ./inp_files/16610.got.cif
#   From: 2010.03.12/outbox.cif.g09.slc.cpg/sg47_9_cif.got.tgz:16610.got - 2010.04.14 03:12:58.
