data_PCOD8200472
_publ_section_title
;
Structure prediction by ZEFSAII (Michael W. Deem and Ramdas Pophale) SiO2 
 PCOD8200472
Probable space group: P M M M
;
_chemical_formula_sum "Si O2"
_cell_formula_units_Z 32
_cell_length_a 16.703901
_cell_length_b 7.967415
_cell_length_c 13.827466
_cell_angle_alpha 90.000000
_cell_angle_beta 90.000000
_cell_angle_gamma 90.000000
_cell_volume 1840.254742
_symmetry_space_group_name_H-M "P M M M"
_symmetry_group_IT_number 47
_symmetry_cell_setting 'orthorhombic'
loop_
_space_group_symop_operation_xyz
x,y,z
-x,-y,z
x,-y,-z
-x,y,-z
-x,-y,-z
x,y,-z
-x,y,z
x,-y,z
loop_
_atom_site_type_symbol
_atom_site_label
_atom_site_fract_x
_atom_site_fract_y
_atom_site_fract_z
Si Si1 0.000000 0.696340 0.608756
Si Si2 0.327963 0.192909 0.707834
Si Si3 0.167690 0.195080 0.608103
Si Si4 0.593351 0.500000 0.605633
Si Si5 0.408572 0.302967 0.110157
O O1 0.917648 0.759303 0.658178
O O2 0.000000 0.500000 0.610684
O O3 0.000000 0.769944 0.500000
O O4 0.237993 0.253320 0.680682
O O5 0.386272 0.326240 0.658480
O O6 0.345555 0.203517 0.822541
O O7 0.343174 0.000000 0.673022
O O8 0.176010 0.278720 0.500000
O O9 0.173825 0.000000 0.594192
O O10 0.500000 0.500000 0.594638
O O11 0.634674 0.500000 0.500000
O O12 0.500000 0.247211 0.132467
O O13 0.399813 0.500000 0.129567
O O14 0.386626 0.258470 0.000000
#
# Coordination Sequence:
#
# PCOD8200472 Si02
#       5
#     4   8   8   4   8
#     4   9  17  27  45  73  98 127 168 209 251 300
#     4  11  22  35  54  78 103 136 178 217 259 312
#     4   9  18  32  48  69 101 137 169 207 253 302
#     4  11  24  38  51  70 102 142 178 216 259 301
#     4   9  18  34  55  77 102 132 169 218 273 320
#
# _framework density 17.388895999999999
#
# number of rings (size 3 to 8) (size 9 to 14) (size 15 to 20)
#    0.000    2.250    1.250    2.625    1.750    5.500 
#    0.000    2.500    0.000    0.000    0.000    0.875 
#    0.000    7.000    0.000    0.000    0.000    0.000 
#
# Total GULP energy -396519.455021 kJ/mol
# GULP energy per Si atom -12391.232969 kJ/mol
# Density = 1.734932 g / cm^3
# Si number density = 17.388896 Si / 1000 Ang^3
#
#
#
# Elastic Constant Matrix: (Units=GPa)
#
#
# Indices 1 2 3 4 5 6 
#
# 1 125.8428 26.6856 60.5065 0.0000 0.0000 0.0000
# 2 26.6856 64.7253 28.6341 0.0000 0.0000 0.0000
# 3 60.5065 28.6341 89.7032 0.0000 0.0000 0.0000
# 4 0.0000 0.0000 0.0000 19.8194 0.0000 0.0000
# 5 0.0000 0.0000 0.0000 0.0000 21.1172 0.0000
# 6 0.0000 0.0000 0.0000 0.0000 0.0000 26.1638
#
#
#
# Elastic Compliance Matrix: (Units=1/GPa)
#
#
# Indices 1 2 3 4 5 6 
#
# 1 0.011897 -0.001578 -0.007521 0.000000 0.000000 0.000000
# 2 -0.001578 0.018200 -0.004745 0.000000 0.000000 0.000000
# 3 -0.007521 -0.004745 0.017736 0.000000 0.000000 0.000000
# 4 0.000000 0.000000 0.000000 0.050456 0.000000 0.000000
# 5 0.000000 0.000000 0.000000 0.000000 0.047355 0.000000
# 6 0.000000 0.000000 0.000000 0.000000 0.000000 0.038221
#
#
# Mechanical properties :
#
#
# Convention : Reuss Voigt Hill
#
# Bulk Modulus (GPa) = 49.64221 56.88043 53.26132
# Shear Modulus (GPa) = 22.90767 24.38309 23.64538
#
# Velocity S-wave (km/s) = 3.63350 3.74869 3.69154
# Velocity P-wave (km/s) = 6.79804 7.17765 6.99042
#
# Compressibility (1/GPa) = 0.02014415
#
# Stress axis : x y z
#
# Youngs Moduli (GPa) = 84.05258 54.94601 56.38284
#
# Poissons Ratio (x) = 0.08669 0.42407
# Poissons Ratio (y) = 0.13261 0.26755
# Poissons Ratio (z) = 0.63219 0.26073
#
# Static dielectric constant tensor:
#      x y z
#    x 1.730110 0.000000 0.000000 
#    y 0.000000 3.204940 0.000000 
#    z 0.000000 0.000000 3.293510 
# 
# 
# High freq. dielectric constant tensor:
#      x y z
#    x 1.667310 0.000000 0.000000 
#    y 0.000000 1.676510 0.000000 
#    z 0.000000 0.000000 1.638250 
# 
# From -- ./inp_files/20494.got.cif
#   From: 2010.03.12/outbox.cif.g09.slc.cpg/sg47_11_cif.got.tgz:20494.got - 2010.04.14 03:12:58.
