data_PCOD8200284
_publ_section_title
;
Structure prediction by ZEFSAII (Michael W. Deem and Ramdas Pophale) SiO2 
 PCOD8200284
Probable space group: P M M M
;
_chemical_formula_sum "Si O2"
_cell_formula_units_Z 56
_cell_length_a 29.062243
_cell_length_b 9.104349
_cell_length_c 13.721121
_cell_angle_alpha 90.000000
_cell_angle_beta 90.000000
_cell_angle_gamma 90.000000
_cell_volume 3630.509866
_symmetry_space_group_name_H-M "P M M M"
_symmetry_group_IT_number 47
_symmetry_cell_setting 'orthorhombic'
loop_
_space_group_symop_operation_xyz
x,y,z
-x,-y,z
x,-y,-z
-x,y,-z
-x,-y,-z
x,y,-z
-x,y,z
x,-y,z
loop_
_atom_site_type_symbol
_atom_site_label
_atom_site_fract_x
_atom_site_fract_y
_atom_site_fract_z
Si Si1 0.947013 0.168234 0.887207
Si Si2 0.639158 0.827313 0.387333
Si Si3 0.730816 0.171824 0.706165
Si Si4 0.175823 0.827079 0.388674
Si Si5 0.867189 0.674104 0.786281
Si Si6 0.214944 0.171162 0.110072
Si Si7 0.449795 0.334144 0.615794
O O1 0.917452 0.278109 0.821671
O O2 0.000000 0.194760 0.860075
O O3 0.933029 0.000000 0.865495
O O4 0.938162 0.204591 0.000000
O O5 0.645773 0.783157 0.500000
O O6 0.682411 0.757874 0.327867
O O7 0.592082 0.762105 0.342198
O O8 0.635634 0.000000 0.374380
O O9 0.772579 0.226524 0.637720
O O10 0.742454 0.211771 0.818648
O O11 0.725311 0.000000 0.690887
O O12 0.165031 0.787793 0.500000
O O13 0.140063 0.739521 0.321624
O O14 0.170657 0.000000 0.367776
O O15 0.863604 0.500000 0.782627
O O16 0.829738 0.735996 0.861999
O O17 0.201986 0.000000 0.122354
O O18 0.229987 0.208468 0.000000
O O19 0.448897 0.326626 0.500000
O O20 0.500000 0.275860 0.652230
O O21 0.442764 0.500000 0.652075
#
# Coordination Sequence:
#
# PCOD8200284 Si02
#       7
#     8   8   8   8   8   8   8
#     4   9  18  33  52  71  90 114 145 179 212 250
#     4   9  15  22  35  55  78 103 130 163 203 245
#     4   8  14  25  41  62  84 105 135 174 212 246
#     4   9  17  31  50  66  83 114 153 184 207 240
#     4  11  21  30  44  68  96 120 140 170 214 257
#     4   9  17  30  47  63  82 113 150 180 204 241
#     4   8  14  24  35  47  68 100 134 164 195 235
#
# _framework density 15.42483
#
# number of rings (size 3 to 8) (size 9 to 14) (size 15 to 20)
#    0.000    3.000    0.000    3.857    0.000    4.857 
#    0.000    5.000    0.000    3.857    0.000    3.000 
#    0.000    0.571    0.000    7.143    0.000    1.429 
#
# Total GULP energy -694107.413093 kJ/mol
# GULP energy per Si atom -12394.775234 kJ/mol
# Density = 1.538972 g / cm^3
# Si number density = 15.424830 Si / 1000 Ang^3
#
#
#
# Elastic Constant Matrix: (Units=GPa)
#
#
# Indices 1 2 3 4 5 6 
#
# 1 119.4605 44.9418 54.8796 0.0000 0.0000 0.0000
# 2 44.9418 56.9776 39.3477 0.0000 0.0000 0.0000
# 3 54.8796 39.3477 94.8700 0.0000 0.0000 0.0000
# 4 0.0000 0.0000 0.0000 9.4437 0.0000 0.0000
# 5 0.0000 0.0000 0.0000 0.0000 20.2280 0.0000
# 6 0.0000 0.0000 0.0000 0.0000 0.0000 9.9259
#
#
#
# Elastic Compliance Matrix: (Units=1/GPa)
#
#
# Indices 1 2 3 4 5 6 
#
# 1 0.013225 -0.007215 -0.004658 0.000000 0.000000 0.000000
# 2 -0.007215 0.028531 -0.007660 0.000000 0.000000 0.000000
# 3 -0.004658 -0.007660 0.016412 0.000000 0.000000 0.000000
# 4 0.000000 0.000000 0.000000 0.105891 0.000000 0.000000
# 5 0.000000 0.000000 0.000000 0.000000 0.049436 0.000000
# 6 0.000000 0.000000 0.000000 0.000000 0.000000 0.100746
#
#
# Mechanical properties :
#
#
# Convention : Reuss Voigt Hill
#
# Bulk Modulus (GPa) = 52.34704 61.07181 56.70943
# Shear Modulus (GPa) = 13.90144 16.72879 15.31512
#
# Velocity S-wave (km/s) = 3.00532 3.29680 3.15443
# Velocity P-wave (km/s) = 6.78625 7.36010 7.07899
#
# Compressibility (1/GPa) = 0.01910328
#
# Stress axis : x y z
#
# Youngs Moduli (GPa) = 75.61416 35.04931 60.93016
#
# Poissons Ratio (x) = 0.25287 0.28381
# Poissons Ratio (y) = 0.54553 0.46672
# Poissons Ratio (z) = 0.35221 0.26848
#
# Static dielectric constant tensor:
#      x y z
#    x 3.163320 0.000000 0.000000 
#    y 0.000000 2.788270 0.000000 
#    z 0.000000 0.000000 2.860650 
# 
# 
# High freq. dielectric constant tensor:
#      x y z
#    x 1.589830 0.000000 0.000000 
#    y 0.000000 1.573130 0.000000 
#    z 0.000000 0.000000 1.563550 
# 
# From -- ./inp_files/25804.got.cif
#   From: 2010.03.12/outbox.cif.g09.slc.cpg/sg47_13_cif.got.tgz:25804.got - 2010.04.14 03:12:58.
