data_PCOD8200059
_publ_section_title
;
Structure prediction by ZEFSAII (Michael W. Deem and Ramdas Pophale) SiO2 
 PCOD8200059
Probable space group: P M M M
;
_chemical_formula_sum "Si O2"
_cell_formula_units_Z 48
_cell_length_a 9.104381
_cell_length_b 34.679242
_cell_length_c 7.578427
_cell_angle_alpha 90.000000
_cell_angle_beta 90.000000
_cell_angle_gamma 90.000000
_cell_volume 2392.759734
_symmetry_space_group_name_H-M "P M M M"
_symmetry_group_IT_number 47
_symmetry_cell_setting 'orthorhombic'
loop_
_space_group_symop_operation_xyz
x,y,z
-x,-y,z
x,-y,-z
-x,y,-z
-x,-y,-z
x,y,-z
-x,y,z
x,-y,z
loop_
_atom_site_type_symbol
_atom_site_label
_atom_site_fract_x
_atom_site_fract_y
_atom_site_fract_z
Si Si1 0.669264 0.454448 0.500000
Si Si2 0.836256 0.175126 0.707702
Si Si3 0.163197 0.741732 0.795304
Si Si4 0.663718 0.669493 0.790889
Si Si5 0.674513 0.042992 0.000000
Si Si6 0.173024 0.592326 0.205355
Si Si7 0.673158 0.900024 0.299141
O O1 0.681295 0.500000 0.500000
O O2 0.500000 0.440748 0.500000
O O3 0.749179 0.439954 0.323027
O O4 0.841485 0.172798 0.500000
O O5 0.765216 0.216055 0.764486
O O6 0.740089 0.139592 0.778219
O O7 0.000000 0.171889 0.789004
O O8 0.264666 0.708487 0.710106
O O9 0.000000 0.740714 0.708423
O O10 0.149053 0.732768 0.000000
O O11 0.500000 0.664658 0.711720
O O12 0.763866 0.633571 0.734201
O O13 0.654629 0.672351 0.000000
O O14 0.728739 0.065036 0.176039
O O15 0.500000 0.040715 0.000000
O O16 0.742510 0.000000 0.000000
O O17 0.000000 0.592169 0.241542
O O18 0.208082 0.583804 0.000000
O O19 0.724154 0.908651 0.500000
O O20 0.500000 0.895227 0.288418
#
# Coordination Sequence:
#
# PCOD8200059 Si02
#       7
#     4   8   8   8   4   8   8
#     4  11  25  43  63  91 125 157 195 245 299 357
#     4   9  18  32  48  68  97 134 173 212 259 314
#     4   9  17  29  46  69  98 134 176 221 265 314
#     4   9  17  31  52  78 109 145 185 229 280 335
#     4   9  18  32  51  77 103 127 163 209 257 313
#     4  10  21  39  64  90 118 157 200 243 293 350
#     4   9  18  32  50  72  98 129 164 206 255 306
#
# _framework density 20.060517999999998
#
# number of rings (size 3 to 8) (size 9 to 14) (size 15 to 20)
#    0.000    2.667    0.000    1.250    1.167    5.000 
#    1.500    3.333    0.000    1.000    0.000    2.333 
#    0.000    0.000    0.000    0.000    0.000    0.000 
#
# Total GULP energy -595058.287164 kJ/mol
# GULP energy per Si atom -12397.047649 kJ/mol
# Density = 2.001486 g / cm^3
# Si number density = 20.060518 Si / 1000 Ang^3
#
#
#
# Elastic Constant Matrix: (Units=GPa)
#
#
# Indices 1 2 3 4 5 6 
#
# 1 99.5732 67.0102 37.0266 0.0000 0.0000 0.0000
# 2 67.0102 163.6143 52.4316 0.0000 0.0000 0.0000
# 3 37.0266 52.4316 72.4282 0.0000 0.0000 0.0000
# 4 0.0000 0.0000 0.0000 0.8271 0.0000 0.0000
# 5 0.0000 0.0000 0.0000 0.0000 17.1578 0.0000
# 6 0.0000 0.0000 0.0000 0.0000 0.0000 21.0755
#
#
#
# Elastic Compliance Matrix: (Units=1/GPa)
#
#
# Indices 1 2 3 4 5 6 
#
# 1 0.014754 -0.004721 -0.004125 0.000000 0.000000 0.000000
# 2 -0.004721 0.009469 -0.004441 0.000000 0.000000 0.000000
# 3 -0.004125 -0.004441 0.019131 0.000000 0.000000 0.000000
# 4 0.000000 0.000000 0.000000 1.209031 0.000000 0.000000
# 5 0.000000 0.000000 0.000000 0.000000 0.058283 0.000000
# 6 0.000000 0.000000 0.000000 0.000000 0.000000 0.047448
#
#
# Mechanical properties :
#
#
# Convention : Reuss Voigt Hill
#
# Bulk Modulus (GPa) = 59.59761 72.06141 65.82951
# Shear Modulus (GPa) = 3.59639 19.75522 11.67581
#
# Velocity S-wave (km/s) = 1.34040 3.14153 2.41515
# Velocity P-wave (km/s) = 5.67177 7.01134 6.37683
#
# Compressibility (1/GPa) = 0.01677920
#
# Stress axis : x y z
#
# Youngs Moduli (GPa) = 67.77991 105.61313 52.27251
#
# Poissons Ratio (x) = 0.49856 0.21562
# Poissons Ratio (y) = 0.31996 0.23215
# Poissons Ratio (z) = 0.27959 0.46904
#
# Static dielectric constant tensor:
#      x y z
#    x 3.758490 0.000000 0.000000 
#    y 0.000000 3.802990 0.000000 
#    z 0.000000 0.000000 3.684310 
# 
# 
# High freq. dielectric constant tensor:
#      x y z
#    x 1.768110 0.000000 0.000000 
#    y 0.000000 1.784890 0.000000 
#    z 0.000000 0.000000 1.774180 
# 
# From -- ./inp_files/2674.got.cif
#   From: 2010.03.12/outbox.cif.g09.slc.cpg/sg47_2_cif.got.tgz:2674.got - 2010.04.14 03:12:58.
