data_PCOD8200898
_publ_section_title
;
Structure prediction by ZEFSAII (Michael W. Deem and Ramdas Pophale) SiO2 
 PCOD8200898
Probable space group: P M M M
;
_chemical_formula_sum "Si O2"
_cell_formula_units_Z 48
_cell_length_a 19.247381
_cell_length_b 10.324073
_cell_length_c 20.106462
_cell_angle_alpha 90.000000
_cell_angle_beta 90.000000
_cell_angle_gamma 90.000000
_cell_volume 3995.382540
_symmetry_space_group_name_H-M "P M M M"
_symmetry_group_IT_number 47
_symmetry_cell_setting 'orthorhombic'
loop_
_space_group_symop_operation_xyz
x,y,z
-x,-y,z
x,-y,-z
-x,y,-z
-x,-y,-z
x,y,-z
-x,y,z
x,-y,z
loop_
_atom_site_type_symbol
_atom_site_label
_atom_site_fract_x
_atom_site_fract_y
_atom_site_fract_z
Si Si1 0.305257 0.651927 0.076754
Si Si2 0.423180 0.653252 0.824981
Si Si3 0.417357 0.144623 0.425291
Si Si4 0.157227 0.747357 0.921185
Si Si5 0.079573 0.000000 0.079407
Si Si6 0.417373 0.644556 0.323260
Si Si7 0.077976 0.500000 0.920527
O O1 0.289931 0.500000 0.089217
O O2 0.369043 0.705805 0.120560
O O3 0.238067 0.735051 0.098599
O O4 0.324345 0.675947 0.000000
O O5 0.500000 0.713043 0.838686
O O6 0.428763 0.500000 0.830677
O O7 0.396528 0.689938 0.751085
O O8 0.392124 0.177555 0.500000
O O9 0.500000 0.148995 0.422268
O O10 0.385536 0.251836 0.375261
O O11 0.391943 0.000000 0.405055
O O12 0.115774 0.625939 0.891182
O O13 0.121566 0.876521 0.892378
O O14 0.150376 0.745699 0.000000
O O15 0.000000 0.000000 0.105652
O O16 0.079156 0.000000 0.000000
O O17 0.500000 0.640106 0.328333
O O18 0.388032 0.500000 0.338790
O O19 0.000000 0.500000 0.893737
O O20 0.080604 0.500000 0.000000
#
# Coordination Sequence:
#
# PCOD8200898 Si02
#       7
#     8   8   8   8   4   8   4
#     4   9  15  23  35  49  64  82 106 139 177 212
#     4   8  14  23  34  48  64  82 107 141 179 210
#     4   8  13  20  30  45  64  83  99 117 148 189
#     4   9  15  23  33  47  64  82 101 123 156 196
#     4   9  16  24  34  48  65  83 101 119 145 190
#     4   8  13  21  32  45  61  80 102 129 159 191
#     4   9  14  20  32  48  65  81  97 119 149 188
#
# _framework density 12.013868
#
# number of rings (size 3 to 8) (size 9 to 14) (size 15 to 20)
#    0.000    3.500    0.833    2.000    0.000    2.667 
#    0.000    3.333    1.833    0.000    0.000    0.000 
#    0.000    3.333    0.000    0.000    0.000    0.000 
#
# Total GULP energy -594775.544834 kJ/mol
# GULP energy per Si atom -12391.157184 kJ/mol
# Density = 1.198652 g / cm^3
# Si number density = 12.013868 Si / 1000 Ang^3
#
#
#
# Elastic Constant Matrix: (Units=GPa)
#
#
# Indices 1 2 3 4 5 6 
#
# 1 64.9241 38.5513 34.4882 0.0000 0.0000 0.0000
# 2 38.5513 76.6749 35.4058 0.0000 0.0000 0.0000
# 3 34.4882 35.4058 56.8458 0.0000 0.0000 0.0000
# 4 0.0000 0.0000 0.0000 8.2044 0.0000 0.0000
# 5 0.0000 0.0000 0.0000 0.0000 0.5069 0.0000
# 6 0.0000 0.0000 0.0000 0.0000 0.0000 12.5310
#
#
#
# Elastic Compliance Matrix: (Units=1/GPa)
#
#
# Indices 1 2 3 4 5 6 
#
# 1 0.025863 -0.008083 -0.010657 0.000000 0.000000 0.000000
# 2 -0.008083 0.020833 -0.008072 0.000000 0.000000 0.000000
# 3 -0.010657 -0.008072 0.029085 0.000000 0.000000 0.000000
# 4 0.000000 0.000000 0.000000 0.121887 0.000000 0.000000
# 5 0.000000 0.000000 0.000000 0.000000 1.972755 0.000000
# 6 0.000000 0.000000 0.000000 0.000000 0.000000 0.079802
#
#
# Mechanical properties :
#
#
# Convention : Reuss Voigt Hill
#
# Bulk Modulus (GPa) = 45.13098 46.14836 45.63967
# Shear Modulus (GPa) = 2.16335 10.24841 6.20588
#
# Velocity S-wave (km/s) = 1.34336 2.92387 2.27526
# Velocity P-wave (km/s) = 6.32878 7.06361 6.70627
#
# Compressibility (1/GPa) = 0.02215773
#
# Stress axis : x y z
#
# Youngs Moduli (GPa) = 38.66528 47.99989 34.38257
#
# Poissons Ratio (x) = 0.38797 0.36641
# Poissons Ratio (y) = 0.31252 0.27754
# Poissons Ratio (z) = 0.41205 0.38746
#
# Static dielectric constant tensor:
#      x y z
#    x 2.412630 0.000000 0.000000 
#    y 0.000000 2.615890 0.000000 
#    z 0.000000 0.000000 2.359030 
# 
# 
# High freq. dielectric constant tensor:
#      x y z
#    x 1.424060 0.000000 0.000000 
#    y 0.000000 1.449400 0.000000 
#    z 0.000000 0.000000 1.415580 
# 
# From -- ./inp_files/31232.got.cif
#   From: 2010.03.12/outbox.cif.g09.slc.cpg/sg47_16_cif.got.tgz:31232.got - 2010.04.14 03:12:58.
