data_PCOD8200835
_publ_section_title
;
Structure prediction by ZEFSAII (Michael W. Deem and Ramdas Pophale) SiO2 
 PCOD8200835
Probable space group: P M M M
;
_chemical_formula_sum "Si O2"
_cell_formula_units_Z 44
_cell_length_a 28.512305
_cell_length_b 9.800146
_cell_length_c 9.453345
_cell_angle_alpha 90.000000
_cell_angle_beta 90.000000
_cell_angle_gamma 90.000000
_cell_volume 2641.498580
_symmetry_space_group_name_H-M "P M M M"
_symmetry_group_IT_number 47
_symmetry_cell_setting 'orthorhombic'
loop_
_space_group_symop_operation_xyz
x,y,z
-x,-y,z
x,-y,-z
-x,y,-z
-x,-y,-z
x,y,-z
-x,y,z
x,-y,z
loop_
_atom_site_type_symbol
_atom_site_label
_atom_site_fract_x
_atom_site_fract_y
_atom_site_fract_z
Si Si1 0.914300 0.837792 0.341429
Si Si2 0.000000 0.836886 0.158991
Si Si3 0.448096 0.347184 0.667953
Si Si4 0.275152 0.837588 0.840661
Si Si5 0.364901 0.841498 0.334778
Si Si6 0.810373 0.837662 0.341103
O O1 0.924662 0.784701 0.500000
O O2 0.862367 0.789481 0.292441
O O3 0.953654 0.778444 0.236411
O O4 0.916372 0.000000 0.340614
O O5 0.000000 0.000000 0.161275
O O6 0.000000 0.780448 0.000000
O O7 0.448562 0.342544 0.500000
O O8 0.500000 0.306180 0.724397
O O9 0.435371 0.500000 0.719735
O O10 0.409643 0.240983 0.724972
O O11 0.320082 0.788630 0.751951
O O12 0.228404 0.777617 0.766010
O O13 0.273139 0.000000 0.842177
O O14 0.277989 0.779639 0.000000
O O15 0.355346 0.813134 0.500000
O O16 0.375053 0.000000 0.307007
O O17 0.799919 0.784715 0.500000
O O18 0.807961 0.000000 0.340871
#
# Coordination Sequence:
#
# PCOD8200835 Si02
#       6
#     8   4   8   8   8   8
#     4   8  13  20  28  36  48  70 100 135 177 222
#     4   9  15  19  23  33  49  69  97 137 180 219
#     4   8  14  25  41  61  83 104 127 158 194 227
#     4   9  16  24  34  49  70  94 117 145 184 227
#     4   9  16  25  39  59  80 101 126 157 191 227
#     4   8  13  21  32  44  58  79 109 144 182 225
#
# _framework density 16.657209999999999
#
# number of rings (size 3 to 8) (size 9 to 14) (size 15 to 20)
#    0.000    3.545    0.000    2.455    0.000    4.364 
#    0.000    5.455    0.000    1.091    0.000    3.818 
#    0.000    0.000    0.000    0.000    0.000    0.000 
#
# Total GULP energy -545246.307449 kJ/mol
# GULP energy per Si atom -12391.961533 kJ/mol
# Density = 1.661930 g / cm^3
# Si number density = 16.657210 Si / 1000 Ang^3
#
#
#
# Elastic Constant Matrix: (Units=GPa)
#
#
# Indices 1 2 3 4 5 6 
#
# 1 182.8989 36.5384 85.2708 0.0000 0.0000 0.0000
# 2 36.5384 21.3378 19.2362 0.0000 0.0000 0.0000
# 3 85.2708 19.2362 96.2575 0.0000 0.0000 0.0000
# 4 0.0000 0.0000 0.0000 3.6291 0.0000 0.0000
# 5 0.0000 0.0000 0.0000 0.0000 9.8366 0.0000
# 6 0.0000 0.0000 0.0000 0.0000 0.0000 1.2896
#
#
#
# Elastic Compliance Matrix: (Units=1/GPa)
#
#
# Indices 1 2 3 4 5 6 
#
# 1 0.011678 -0.013016 -0.007744 0.000000 0.000000 0.000000
# 2 -0.013016 0.071671 -0.002792 0.000000 0.000000 0.000000
# 3 -0.007744 -0.002792 0.017807 0.000000 0.000000 0.000000
# 4 0.000000 0.000000 0.000000 0.275552 0.000000 0.000000
# 5 0.000000 0.000000 0.000000 0.000000 0.101661 0.000000
# 6 0.000000 0.000000 0.000000 0.000000 0.000000 0.775413
#
#
# Mechanical properties :
#
#
# Convention : Reuss Voigt Hill
#
# Bulk Modulus (GPa) = 18.50095 64.73165 41.61630
# Shear Modulus (GPa) = 3.79102 13.58098 8.68600
#
# Velocity S-wave (km/s) = 1.51025 2.85848 2.28602
# Velocity P-wave (km/s) = 3.76459 7.05974 5.65739
#
# Compressibility (1/GPa) = 0.05405128
#
# Stress axis : x y z
#
# Youngs Moduli (GPa) = 85.62904 13.95260 56.15745
#
# Poissons Ratio (x) = 0.18161 0.43489
# Poissons Ratio (y) = 1.11457 0.15680
# Poissons Ratio (z) = 0.66313 0.03896
#
# Static dielectric constant tensor:
#      x y z
#    x 3.576020 0.000000 0.000000 
#    y 0.000000 2.494190 0.000000 
#    z 0.000000 0.000000 3.117950 
# 
# 
# High freq. dielectric constant tensor:
#      x y z
#    x 1.661530 0.000000 0.000000 
#    y 0.000000 1.558770 0.000000 
#    z 0.000000 0.000000 1.623590 
# 
# From -- ./inp_files/13176.got.cif
#   From: 2010.03.12/outbox.cif.g09.slc.cpg/sg47_7_cif.got.tgz:13176.got - 2010.04.14 03:12:58.
