data_PCOD8200500
_publ_section_title
;
Structure prediction by ZEFSAII (Michael W. Deem and Ramdas Pophale) SiO2 
 PCOD8200500
Probable space group: P M M M
;
_chemical_formula_sum "Si O2"
_cell_formula_units_Z 48
_cell_length_a 28.980714
_cell_length_b 10.065836
_cell_length_c 8.918662
_cell_angle_alpha 90.000000
_cell_angle_beta 90.000000
_cell_angle_gamma 90.000000
_cell_volume 2601.708505
_symmetry_space_group_name_H-M "P M M M"
_symmetry_group_IT_number 47
_symmetry_cell_setting 'orthorhombic'
loop_
_space_group_symop_operation_xyz
x,y,z
-x,-y,z
x,-y,-z
-x,y,-z
-x,-y,-z
x,y,-z
-x,y,z
x,-y,z
loop_
_atom_site_type_symbol
_atom_site_label
_atom_site_fract_x
_atom_site_fract_y
_atom_site_fract_z
Si Si1 0.053310 0.500000 0.678063
Si Si2 0.902087 0.754897 0.822375
Si Si3 0.801518 0.850144 0.177822
Si Si4 0.725704 0.352061 0.821463
Si Si5 0.448266 0.851309 0.677130
Si Si6 0.621974 0.347773 0.825274
Si Si7 0.946159 0.000000 0.667122
O O1 0.055946 0.500000 0.500000
O O2 0.080307 0.375333 0.741643
O O3 0.000000 0.500000 0.731698
O O4 0.849408 0.782455 0.775159
O O5 0.932923 0.873836 0.764120
O O6 0.907569 0.740074 0.000000
O O7 0.760558 0.758409 0.244773
O O8 0.798102 0.000000 0.244204
O O9 0.797831 0.857904 0.000000
O O10 0.739532 0.500000 0.763899
O O11 0.673905 0.317183 0.768563
O O12 0.727712 0.352378 0.000000
O O13 0.446323 0.843698 0.500000
O O14 0.500000 0.816922 0.733044
O O15 0.412972 0.746204 0.741056
O O16 0.434895 0.000000 0.730979
O O17 0.609130 0.500000 0.789858
O O18 0.617987 0.318008 0.000000
O O19 0.923226 0.000000 0.500000
O O20 0.000000 0.000000 0.644684
#
# Coordination Sequence:
#
# PCOD8200500 Si02
#       7
#     4   8   8   8   8   8   4
#     4  11  25  43  59  79 111 149 185 221 272 337
#     4  11  22  37  59  88 114 139 181 234 276 315
#     4   9  17  30  49  79 112 136 167 215 265 310
#     4   8  15  28  48  74 106 141 172 209 260 316
#     4   9  19  35  52  71  99 138 182 224 267 317
#     4   9  18  32  50  78 110 137 172 218 265 313
#     4  11  23  39  59  81 111 153 187 215 268 335
#
# _framework density 18.449414999999998
#
# number of rings (size 3 to 8) (size 9 to 14) (size 15 to 20)
#    0.000    2.500    0.833    3.000    1.167    5.333 
#    0.000    4.167    0.000    2.000    0.000    0.000 
#    0.000    0.000    0.000    0.000    0.000    0.000 
#
# Total GULP energy -595051.868092 kJ/mol
# GULP energy per Si atom -12396.913919 kJ/mol
# Density = 1.840742 g / cm^3
# Si number density = 18.449415 Si / 1000 Ang^3
#
#
#
# Elastic Constant Matrix: (Units=GPa)
#
#
# Indices 1 2 3 4 5 6 
#
# 1 135.0724 89.6158 31.9004 0.0000 0.0000 0.0000
# 2 89.6158 154.1527 32.7880 0.0000 0.0000 0.0000
# 3 31.9004 32.7880 37.3134 0.0000 0.0000 0.0000
# 4 0.0000 0.0000 0.0000 19.1752 0.0000 0.0000
# 5 0.0000 0.0000 0.0000 0.0000 -21.2102 0.0000
# 6 0.0000 0.0000 0.0000 0.0000 0.0000 43.0992
#
#
#
# Elastic Compliance Matrix: (Units=1/GPa)
#
#
# Indices 1 2 3 4 5 6 
#
# 1 0.012896 -0.006336 -0.005458 0.000000 0.000000 0.000000
# 2 -0.006336 0.011092 -0.004329 0.000000 0.000000 0.000000
# 3 -0.005458 -0.004329 0.035270 0.000000 0.000000 0.000000
# 4 0.000000 0.000000 0.000000 0.052151 0.000000 0.000000
# 5 0.000000 0.000000 0.000000 0.000000 -0.047147 0.000000
# 6 0.000000 0.000000 0.000000 0.000000 0.000000 0.023202
#
#
# Mechanical properties :
#
#
# Convention : Reuss Voigt Hill
#
# Bulk Modulus (GPa) = 37.02116 70.57189 53.79652
# Shear Modulus (GPa) = 38.84592 19.69513 29.27052
#
# Velocity S-wave (km/s) = 4.59359 3.27084 3.98745
# Velocity P-wave (km/s) = 6.94584 7.25252 7.10084
#
# Compressibility (1/GPa) = 0.02701158
#
# Stress axis : x y z
#
# Youngs Moduli (GPa) = 77.54135 90.15911 28.35278
#
# Poissons Ratio (x) = 0.57128 0.15474
# Poissons Ratio (y) = 0.49133 0.12274
# Poissons Ratio (z) = 0.42319 0.39031
#
# Static dielectric constant tensor:
#      x y z
#    x 3.883200 0.000000 0.000000 
#    y 0.000000 3.705140 0.000000 
#    z 0.000000 0.000000 3.117590 
# 
# 
# High freq. dielectric constant tensor:
#      x y z
#    x 1.724190 0.000000 0.000000 
#    y 0.000000 1.729190 0.000000 
#    z 0.000000 0.000000 1.682540 
# 
# From -- ./inp_files/13846.got.cif
#   From: 2010.03.12/outbox.cif.g09.slc.cpg/sg47_7_cif.got.tgz:13846.got - 2010.04.14 03:12:58.
