data_PCOD8200543
_publ_section_title
;
Structure prediction by ZEFSAII (Michael W. Deem and Ramdas Pophale) SiO2 
 PCOD8200543
Probable space group: P M M M
;
_chemical_formula_sum "Si O2"
_cell_formula_units_Z 64
_cell_length_a 27.801944
_cell_length_b 8.957865
_cell_length_c 14.145556
_cell_angle_alpha 90.000000
_cell_angle_beta 90.000000
_cell_angle_gamma 90.000000
_cell_volume 3522.895004
_symmetry_space_group_name_H-M "P M M M"
_symmetry_group_IT_number 47
_symmetry_cell_setting 'orthorhombic'
loop_
_space_group_symop_operation_xyz
x,y,z
-x,-y,z
x,-y,-z
-x,y,-z
-x,-y,-z
x,y,-z
-x,y,z
x,-y,z
loop_
_atom_site_type_symbol
_atom_site_label
_atom_site_fract_x
_atom_site_fract_y
_atom_site_fract_z
Si Si1 0.555933 0.334060 0.394252
Si Si2 0.054462 0.323887 0.105517
Si Si3 0.280044 0.676323 0.727908
Si Si4 0.554045 0.327570 0.109569
Si Si5 0.227525 0.829112 0.892164
Si Si6 0.199236 0.176194 0.391153
Si Si7 0.133226 0.830469 0.777261
Si Si8 0.380776 0.826522 0.254170
O O1 0.576310 0.329368 0.500000
O O2 0.500000 0.298754 0.393584
O O3 0.565629 0.500000 0.350956
O O4 0.581251 0.204050 0.336428
O O5 0.058510 0.500000 0.107634
O O6 0.087293 0.262438 0.189928
O O7 0.000000 0.272434 0.126407
O O8 0.069587 0.266706 0.000000
O O9 0.278802 0.500000 0.717831
O O10 0.261466 0.723127 0.831157
O O11 0.247772 0.744742 0.643896
O O12 0.333810 0.734287 0.718184
O O13 0.500000 0.292525 0.148441
O O14 0.566292 0.500000 0.128305
O O15 0.594873 0.226792 0.156997
O O16 0.555797 0.289183 0.000000
O O17 0.172926 0.812615 0.858501
O O18 0.244817 0.000000 0.879979
O O19 0.231006 0.775935 0.000000
O O20 0.188281 0.219958 0.500000
O O21 0.154666 0.226644 0.323768
O O22 0.207424 0.000000 0.379174
O O23 0.116281 0.000000 0.766444
O O24 0.367991 0.000000 0.246957
#
# Coordination Sequence:
#
# PCOD8200543 Si02
#       8
#     8   8   8   8   8   8   8   8
#     4   9  19  37  59  80 102 129 161 198 242 294
#     4   9  18  31  46  69 106 149 185 216 255 302
#     4  11  23  37  53  75 103 133 169 211 252 302
#     4   9  19  37  59  80 103 134 172 212 253 299
#     4   9  18  34  54  75 103 136 168 207 255 305
#     4   9  19  38  60  78 101 133 168 212 266 318
#     4   9  17  30  51  79 104 130 170 214 257 306
#     4  12  24  36  53  77 106 138 168 203 251 303
#
# _framework density 18.166876999999999
#
# number of rings (size 3 to 8) (size 9 to 14) (size 15 to 20)
#    0.000    2.375    0.000    4.875    0.000    7.000 
#    0.000    1.875    0.000    0.375    0.000    2.625 
#    0.000    0.000    0.000    0.000    0.000    0.000 
#
# Total GULP energy -793477.488384 kJ/mol
# GULP energy per Si atom -12398.085756 kJ/mol
# Density = 1.812553 g / cm^3
# Si number density = 18.166877 Si / 1000 Ang^3
#
#
#
# Elastic Constant Matrix: (Units=GPa)
#
#
# Indices 1 2 3 4 5 6 
#
# 1 88.5376 40.7573 50.6573 0.0000 0.0000 0.0000
# 2 40.7573 72.9980 39.3726 0.0000 0.0000 0.0000
# 3 50.6573 39.3726 125.4090 0.0000 0.0000 0.0000
# 4 0.0000 0.0000 0.0000 27.5218 0.0000 0.0000
# 5 0.0000 0.0000 0.0000 0.0000 52.1088 0.0000
# 6 0.0000 0.0000 0.0000 0.0000 0.0000 29.9927
#
#
#
# Elastic Compliance Matrix: (Units=1/GPa)
#
#
# Indices 1 2 3 4 5 6 
#
# 1 0.017275 -0.007080 -0.004755 0.000000 0.000000 0.000000
# 2 -0.007080 0.019394 -0.003229 0.000000 0.000000 0.000000
# 3 -0.004755 -0.003229 0.010908 0.000000 0.000000 0.000000
# 4 0.000000 0.000000 0.000000 0.036335 0.000000 0.000000
# 5 0.000000 0.000000 0.000000 0.000000 0.019191 0.000000
# 6 0.000000 0.000000 0.000000 0.000000 0.000000 0.033341
#
#
# Mechanical properties :
#
#
# Convention : Reuss Voigt Hill
#
# Bulk Modulus (GPa) = 57.31140 60.94655 59.12897
# Shear Modulus (GPa) = 29.00445 32.33517 30.66981
#
# Velocity S-wave (km/s) = 4.00003 4.22346 4.11326
# Velocity P-wave (km/s) = 7.27663 7.57657 7.42812
#
# Compressibility (1/GPa) = 0.01744854
#
# Stress axis : x y z
#
# Youngs Moduli (GPa) = 57.88859 51.56331 91.67366
#
# Poissons Ratio (x) = 0.36509 0.43590
# Poissons Ratio (y) = 0.40987 0.29599
# Poissons Ratio (z) = 0.27526 0.16648
#
# Static dielectric constant tensor:
#      x y z
#    x 3.284770 0.000000 0.000000 
#    y 0.000000 3.213710 0.000000 
#    z 0.000000 0.000000 3.457900 
# 
# 
# High freq. dielectric constant tensor:
#      x y z
#    x 1.694270 0.000000 0.000000 
#    y 0.000000 1.694360 0.000000 
#    z 0.000000 0.000000 1.706170 
# 
# From -- ./inp_files/25525.got.cif
#   From: 2010.03.12/outbox.cif.g09.slc.cpg/sg47_13_cif.got.tgz:25525.got - 2010.04.14 03:12:58.
