data_PCOD8200779
_publ_section_title
;
Structure prediction by ZEFSAII (Michael W. Deem and Ramdas Pophale) SiO2 
 PCOD8200779
Probable space group: P M M M
;
_chemical_formula_sum "Si O2"
_cell_formula_units_Z 52
_cell_length_a 21.830601
_cell_length_b 9.384222
_cell_length_c 14.168560
_cell_angle_alpha 90.000000
_cell_angle_beta 90.000000
_cell_angle_gamma 90.000000
_cell_volume 2902.616629
_symmetry_space_group_name_H-M "P M M M"
_symmetry_group_IT_number 47
_symmetry_cell_setting 'orthorhombic'
loop_
_space_group_symop_operation_xyz
x,y,z
-x,-y,z
x,-y,-z
-x,y,-z
-x,-y,-z
x,y,-z
-x,y,z
x,-y,z
loop_
_atom_site_type_symbol
_atom_site_label
_atom_site_fract_x
_atom_site_fract_y
_atom_site_fract_z
Si Si1 0.358244 0.335391 0.393500
Si Si2 0.000000 0.830406 0.393744
Si Si3 0.327737 0.833758 0.107742
Si Si4 0.931578 0.169433 0.898835
Si Si5 0.743782 0.167752 0.707232
Si Si6 0.879762 0.169466 0.710554
Si Si7 0.430329 0.333585 0.210492
O O1 0.380354 0.298076 0.500000
O O2 0.339518 0.500000 0.385844
O O3 0.298741 0.244077 0.368536
O O4 0.411724 0.298582 0.318903
O O5 0.936994 0.768256 0.349068
O O6 0.000000 0.777896 0.500000
O O7 0.000000 0.000000 0.383352
O O8 0.274542 0.794170 0.183839
O O9 0.389285 0.750186 0.135242
O O10 0.343152 0.000000 0.114010
O O11 0.307753 0.793348 0.000000
O O12 0.887179 0.225385 0.817606
O O13 0.000000 0.226703 0.879839
O O14 0.933337 0.000000 0.898308
O O15 0.907210 0.225170 0.000000
O O16 0.812342 0.222432 0.681234
O O17 0.738002 0.000000 0.691506
O O18 0.881883 0.000000 0.704716
O O19 0.500000 0.283751 0.196956
O O20 0.422394 0.500000 0.189355
#
# Coordination Sequence:
#
# PCOD8200779 Si02
#       7
#     8   4   8   8   8   8   8
#     4   9  18  33  51  69  91 120 151 185 229 278
#     4   9  16  24  33  49  78 112 141 174 222 276
#     4   9  18  32  47  65  94 130 161 187 221 267
#     4   8  12  18  30  49  75 107 138 169 212 265
#     4   9  18  30  46  68  92 120 155 195 231 267
#     4   9  15  24  37  55  82 113 144 181 225 269
#     4   9  18  32  50  73  97 119 149 190 230 268
#
# _framework density 17.914870000000001
#
# number of rings (size 3 to 8) (size 9 to 14) (size 15 to 20)
#    0.000    3.154    0.769    0.462    0.000    2.769 
#    0.000    7.692    0.000    0.000    0.000    4.846 
#    0.000    1.846    0.000    1.692    0.000    1.692 
#
# Total GULP energy -644273.125697 kJ/mol
# GULP energy per Si atom -12389.867802 kJ/mol
# Density = 1.787409 g / cm^3
# Si number density = 17.914870 Si / 1000 Ang^3
#
#
#
# Elastic Constant Matrix: (Units=GPa)
#
#
# Indices 1 2 3 4 5 6 
#
# 1 112.9125 21.4736 29.7674 0.0000 0.0000 0.0000
# 2 21.4736 19.1349 15.6546 0.0000 0.0000 0.0000
# 3 29.7674 15.6546 86.0555 0.0000 0.0000 0.0000
# 4 0.0000 0.0000 0.0000 17.5778 0.0000 0.0000
# 5 0.0000 0.0000 0.0000 0.0000 17.3117 0.0000
# 6 0.0000 0.0000 0.0000 0.0000 0.0000 7.1244
#
#
#
# Elastic Compliance Matrix: (Units=1/GPa)
#
#
# Indices 1 2 3 4 5 6 
#
# 1 0.011523 -0.011361 -0.001919 0.000000 0.000000 0.000000
# 2 -0.011361 0.072600 -0.009277 0.000000 0.000000 0.000000
# 3 -0.001919 -0.009277 0.013972 0.000000 0.000000 0.000000
# 4 0.000000 0.000000 0.000000 0.056890 0.000000 0.000000
# 5 0.000000 0.000000 0.000000 0.000000 0.057764 0.000000
# 6 0.000000 0.000000 0.000000 0.000000 0.000000 0.140362
#
#
# Mechanical properties :
#
#
# Convention : Reuss Voigt Hill
#
# Bulk Modulus (GPa) = 18.87502 39.09932 28.98717
# Shear Modulus (GPa) = 12.02254 18.48328 15.25291
#
# Velocity S-wave (km/s) = 2.59336 3.21554 2.92106
# Velocity P-wave (km/s) = 4.41884 5.97149 5.25285
#
# Compressibility (1/GPa) = 0.05298009
#
# Stress axis : x y z
#
# Youngs Moduli (GPa) = 86.78258 13.77415 71.57250
#
# Poissons Ratio (x) = 0.15649 0.13736
# Poissons Ratio (y) = 0.98596 0.66397
# Poissons Ratio (z) = 0.16655 0.12778
#
# Static dielectric constant tensor:
#      x y z
#    x 3.408990 0.000000 0.000000 
#    y 0.000000 2.850070 0.000000 
#    z 0.000000 0.000000 3.570480 
# 
# 
# High freq. dielectric constant tensor:
#      x y z
#    x 1.690460 0.000000 0.000000 
#    y 0.000000 1.636950 0.000000 
#    z 0.000000 0.000000 1.702240 
# 
# From -- ./inp_files/25448.got.cif
#   From: 2010.03.12/outbox.cif.g09.slc.cpg/sg47_13_cif.got.tgz:25448.got - 2010.04.14 03:12:58.
