data_PCOD8200715
_publ_section_title
;
Structure prediction by ZEFSAII (Michael W. Deem and Ramdas Pophale) SiO2 
 PCOD8200715
Probable space group: P M M M
;
_chemical_formula_sum "Si O2"
_cell_formula_units_Z 52
_cell_length_a 33.231296
_cell_length_b 9.508694
_cell_length_c 9.861893
_cell_angle_alpha 90.000000
_cell_angle_beta 90.000000
_cell_angle_gamma 90.000000
_cell_volume 3116.222339
_symmetry_space_group_name_H-M "P M M M"
_symmetry_group_IT_number 47
_symmetry_cell_setting 'orthorhombic'
loop_
_space_group_symop_operation_xyz
x,y,z
-x,-y,z
x,-y,-z
-x,y,-z
-x,-y,-z
x,y,-z
-x,y,z
x,-y,z
loop_
_atom_site_type_symbol
_atom_site_label
_atom_site_fract_x
_atom_site_fract_y
_atom_site_fract_z
Si Si1 0.694363 0.832886 0.150201
Si Si2 0.453782 0.336649 0.345567
Si Si3 0.157398 0.336247 0.343452
Si Si4 0.000000 0.653552 0.160558
Si Si5 0.395456 0.837597 0.842050
Si Si6 0.913690 0.668087 0.847709
Si Si7 0.764471 0.163838 0.343578
O O1 0.649645 0.782037 0.191144
O O2 0.726959 0.776751 0.257446
O O3 0.694072 0.000000 0.148099
O O4 0.705599 0.776414 0.000000
O O5 0.441990 0.300144 0.500000
O O6 0.500000 0.296217 0.318848
O O7 0.446677 0.500000 0.316466
O O8 0.426702 0.249306 0.244497
O O9 0.146806 0.308924 0.500000
O O10 0.165715 0.500000 0.314856
O O11 0.120275 0.277758 0.255115
O O12 0.196448 0.249928 0.298271
O O13 0.042331 0.730233 0.199734
O O14 0.000000 0.500000 0.230474
O O15 0.000000 0.634420 0.000000
O O16 0.399774 0.000000 0.801463
O O17 0.405016 0.815617 0.000000
O O18 0.916515 0.500000 0.845031
O O19 0.902965 0.719554 0.000000
O O20 0.754016 0.191044 0.500000
O O21 0.772647 0.000000 0.314586
#
# Coordination Sequence:
#
# PCOD8200715 Si02
#       7
#     8   8   8   4   8   8   8
#     4   8  15  29  47  66  89 114 140 176 219 256
#     4   9  19  35  51  68  94 127 160 192 225 263
#     4   9  17  28  40  57  84 111 132 164 211 250
#     4   7  10  18  33  53  76 101 130 164 200 239
#     4   9  18  32  50  73  98 121 148 186 231 275
#     4   8  13  22  37  56  78 105 135 165 200 245
#     4   9  17  29  45  63  82 109 145 176 203 246
#
# _framework density 16.686871
#
# number of rings (size 3 to 8) (size 9 to 14) (size 15 to 20)
#    0.000    3.462    0.000    2.308    0.000    2.462 
#    0.000    5.000    0.000    5.077    0.000    0.538 
#    0.000    4.308    0.000    0.000    0.000    0.000 
#
# Total GULP energy -644410.435162 kJ/mol
# GULP energy per Si atom -12392.508369 kJ/mol
# Density = 1.664889 g / cm^3
# Si number density = 16.686871 Si / 1000 Ang^3
#
#
#
# Elastic Constant Matrix: (Units=GPa)
#
#
# Indices 1 2 3 4 5 6 
#
# 1 158.2797 47.8719 89.2261 0.0000 0.0000 0.0000
# 2 47.8719 33.2234 33.8246 0.0000 0.0000 0.0000
# 3 89.2261 33.8246 85.4087 0.0000 0.0000 0.0000
# 4 0.0000 0.0000 0.0000 19.5987 0.0000 0.0000
# 5 0.0000 0.0000 0.0000 0.0000 26.4638 0.0000
# 6 0.0000 0.0000 0.0000 0.0000 0.0000 24.3900
#
#
#
# Elastic Compliance Matrix: (Units=1/GPa)
#
#
# Indices 1 2 3 4 5 6 
#
# 1 0.017501 -0.011064 -0.013901 0.000000 0.000000 0.000000
# 2 -0.011064 0.057429 -0.011185 0.000000 0.000000 0.000000
# 3 -0.013901 -0.011185 0.030661 0.000000 0.000000 0.000000
# 4 0.000000 0.000000 0.000000 0.051024 0.000000 0.000000
# 5 0.000000 0.000000 0.000000 0.000000 0.037788 0.000000
# 6 0.000000 0.000000 0.000000 0.000000 0.000000 0.041000
#
#
# Mechanical properties :
#
#
# Convention : Reuss Voigt Hill
#
# Bulk Modulus (GPa) = 30.03941 68.75079 49.39510
# Shear Modulus (GPa) = 15.68383 21.15644 18.42014
#
# Velocity S-wave (km/s) = 3.06909 3.56455 3.32606
# Velocity P-wave (km/s) = 5.53172 7.63095 6.66451
#
# Compressibility (1/GPa) = 0.03328960
#
# Stress axis : x y z
#
# Youngs Moduli (GPa) = 57.14047 17.41270 32.61525
#
# Poissons Ratio (x) = 0.19266 0.45339
# Poissons Ratio (y) = 0.63222 0.36480
# Poissons Ratio (z) = 0.79432 0.19476
#
# Static dielectric constant tensor:
#      x y z
#    x 3.445160 0.000000 0.000000 
#    y 0.000000 2.722170 0.000000 
#    z 0.000000 0.000000 3.146980 
# 
# 
# High freq. dielectric constant tensor:
#      x y z
#    x 1.656050 0.000000 0.000000 
#    y 0.000000 1.596480 0.000000 
#    z 0.000000 0.000000 1.636870 
# 
# From -- ./inp_files/14135.got.cif
#   From: 2010.03.12/outbox.cif.g09.slc.cpg/sg47_8_cif.got.tgz:14135.got - 2010.04.14 03:12:58.
