data_PCOD8200448
_publ_section_title
;
Structure prediction by ZEFSAII (Michael W. Deem and Ramdas Pophale) SiO2 
 PCOD8200448
Probable space group: P M M M
;
_chemical_formula_sum "Si O2"
_cell_formula_units_Z 44
_cell_length_a 15.007257
_cell_length_b 8.938883
_cell_length_c 17.324146
_cell_angle_alpha 90.000000
_cell_angle_beta 90.000000
_cell_angle_gamma 90.000000
_cell_volume 2324.001521
_symmetry_space_group_name_H-M "P M M M"
_symmetry_group_IT_number 47
_symmetry_cell_setting 'orthorhombic'
loop_
_space_group_symop_operation_xyz
x,y,z
-x,-y,z
x,-y,-z
-x,y,-z
-x,-y,-z
x,y,-z
-x,y,z
x,-y,z
loop_
_atom_site_type_symbol
_atom_site_label
_atom_site_fract_x
_atom_site_fract_y
_atom_site_fract_z
Si Si1 0.898366 0.679293 0.000000
Si Si2 0.787029 0.327558 0.857236
Si Si3 0.168636 0.326256 0.314105
Si Si4 0.402086 0.675624 0.195176
Si Si5 0.347714 0.175518 0.346943
Si Si6 0.600994 0.337840 0.500000
Si Si7 0.000000 0.676643 0.412420
O O1 0.845121 0.745560 0.074228
O O2 0.901208 0.500000 0.000000
O O3 0.000000 0.740513 0.000000
O O4 0.776989 0.500000 0.877870
O O5 0.842433 0.304256 0.778104
O O6 0.684532 0.262395 0.852346
O O7 0.191367 0.500000 0.331667
O O8 0.244798 0.216455 0.341515
O O9 0.083980 0.270202 0.362355
O O10 0.500000 0.706686 0.155705
O O11 0.387937 0.500000 0.208593
O O12 0.404469 0.751011 0.278615
O O13 0.379964 0.237006 0.427205
O O14 0.362114 0.000000 0.343150
O O15 0.653083 0.500000 0.500000
O O16 0.500000 0.382244 0.500000
O O17 0.000000 0.500000 0.418985
O O18 0.000000 0.744506 0.500000
#
# Coordination Sequence:
#
# PCOD8200448 Si02
#       7
#     4   8   8   8   8   4   4
#     4   9  16  24  41  71 108 139 165 209 266 314
#     4   8  15  27  43  69 102 135 169 205 253 314
#     4   9  18  33  52  72 100 135 173 216 260 311
#     4   9  17  32  52  71  96 133 172 210 257 312
#     4  11  22  34  50  74 103 132 168 213 261 308
#     4  11  23  37  53  72  97 132 171 211 258 309
#     4   9  18  30  49  76  96 124 176 226 258 298
#
# _framework density 18.932863000000001
#
# number of rings (size 3 to 8) (size 9 to 14) (size 15 to 20)
#    0.000    2.636    0.000    3.545    2.545    3.273 
#    0.000    0.909    0.000    3.273    0.000   10.182 
#    0.000   17.455    0.000    0.000    0.000    0.000 
#
# Total GULP energy -545126.006171 kJ/mol
# GULP energy per Si atom -12389.227413 kJ/mol
# Density = 1.888977 g / cm^3
# Si number density = 18.932863 Si / 1000 Ang^3
#
#
#
# Elastic Constant Matrix: (Units=GPa)
#
#
# Indices 1 2 3 4 5 6 
#
# 1 139.1971 19.1186 75.4121 0.0000 0.0000 0.0000
# 2 19.1186 43.9709 17.1785 0.0000 0.0000 0.0000
# 3 75.4121 17.1785 124.6968 0.0000 0.0000 0.0000
# 4 0.0000 0.0000 0.0000 -0.1019 0.0000 0.0000
# 5 0.0000 0.0000 0.0000 0.0000 21.4576 0.0000
# 6 0.0000 0.0000 0.0000 0.0000 0.0000 68.2624
#
#
#
# Elastic Compliance Matrix: (Units=1/GPa)
#
#
# Indices 1 2 3 4 5 6 
#
# 1 0.010898 -0.002287 -0.006276 0.000000 0.000000 0.000000
# 2 -0.002287 0.024516 -0.001994 0.000000 0.000000 0.000000
# 3 -0.006276 -0.001994 0.012090 0.000000 0.000000 0.000000
# 4 0.000000 0.000000 0.000000 -9.812932 0.000000 0.000000
# 5 0.000000 0.000000 0.000000 0.000000 0.046603 0.000000
# 6 0.000000 0.000000 0.000000 0.000000 0.000000 0.014649
#
#
# Mechanical properties :
#
#
# Convention : Reuss Voigt Hill
#
# Bulk Modulus (GPa) = 37.89363 59.03145 48.46254
# Shear Modulus (GPa) = -0.51684 31.00066 15.24191
#
# Velocity S-wave (km/s) = -0.52304 4.05087 2.84042
# Velocity P-wave (km/s) = 4.43773 7.28879 6.03406
#
# Compressibility (1/GPa) = 0.02638966
#
# Stress axis : x y z
#
# Youngs Moduli (GPa) = 91.75886 40.79009 82.71598
#
# Poissons Ratio (x) = 0.09327 0.51911
# Poissons Ratio (y) = 0.20983 0.16497
# Poissons Ratio (z) = 0.57586 0.08135
#
# Static dielectric constant tensor:
#      x y z
#    x 3.996540 0.000000 0.000000 
#    y 0.000000 3.001250 0.000000 
#    z 0.000000 0.000000 3.004710 
# 
# 
# High freq. dielectric constant tensor:
#      x y z
#    x 1.748330 0.000000 0.000000 
#    y 0.000000 1.686260 0.000000 
#    z 0.000000 0.000000 1.727540 
# 
# From -- ./inp_files/27901.got.cif
#   From: 2010.03.12/outbox.cif.g09.slc.cpg/sg47_14_cif.got.tgz:27901.got - 2010.04.14 03:12:58.
