data_PCOD8200075
_publ_section_title
;
Structure prediction by ZEFSAII (Michael W. Deem and Ramdas Pophale) SiO2 
 PCOD8200075
Probable space group: P M M M
;
_chemical_formula_sum "Si O2"
_cell_formula_units_Z 48
_cell_length_a 17.428517
_cell_length_b 17.160275
_cell_length_c 7.680300
_cell_angle_alpha 90.000000
_cell_angle_beta 90.000000
_cell_angle_gamma 90.000000
_cell_volume 2297.009874
_symmetry_space_group_name_H-M "P M M M"
_symmetry_group_IT_number 47
_symmetry_cell_setting 'orthorhombic'
loop_
_space_group_symop_operation_xyz
x,y,z
-x,-y,z
x,-y,-z
-x,y,-z
-x,-y,-z
x,y,-z
-x,y,z
x,-y,z
loop_
_atom_site_type_symbol
_atom_site_label
_atom_site_fract_x
_atom_site_fract_y
_atom_site_fract_z
Si Si1 0.288048 0.593548 0.500000
Si Si2 0.086767 0.199606 0.794670
Si Si3 0.408931 0.709336 0.500000
Si Si4 0.359584 0.182109 0.191514
Si Si5 0.500000 0.091058 0.693959
Si Si6 0.214947 0.912164 0.299820
Si Si7 0.179723 0.646709 0.206424
Si Si8 0.082873 0.500000 0.204959
O O1 0.281330 0.500000 0.500000
O O2 0.376925 0.620759 0.500000
O O3 0.254152 0.633863 0.325351
O O4 0.129794 0.123136 0.723265
O O5 0.135823 0.274902 0.738614
O O6 0.000000 0.203290 0.717380
O O7 0.081608 0.195351 0.000000
O O8 0.500000 0.706344 0.500000
O O9 0.375365 0.751449 0.669597
O O10 0.423860 0.115520 0.205182
O O11 0.276180 0.142824 0.205035
O O12 0.363758 0.220539 0.000000
O O13 0.500000 0.129754 0.500000
O O14 0.500000 0.000000 0.676064
O O15 0.238502 0.915168 0.500000
O O16 0.215718 0.000000 0.222207
O O17 0.125485 0.576811 0.265954
O O18 0.200889 0.644966 0.000000
O O19 0.000000 0.500000 0.295065
O O20 0.074293 0.500000 0.000000
#
# Coordination Sequence:
#
# PCOD8200075 Si02
#       8
#     4   8   4   8   4   8   8   4
#     4  12  26  43  68  98 127 165 215 253 311 390
#     4  10  22  40  62  89 123 169 223 273 323 377
#     4  12  26  47  68  96 133 165 207 261 317 382
#     4  12  23  41  68  97 128 166 213 262 320 383
#     4  11  21  37  63  98 141 174 202 254 320 385
#     4  11  24  41  60  87 127 172 219 271 323 376
#     4  10  21  40  64  95 131 164 207 262 318 379
#     4   9  16  31  59  91 130 170 196 242 316 381
#
# _framework density 20.896732
#
# number of rings (size 3 to 8) (size 9 to 14) (size 15 to 20)
#    0.000    1.167    3.333    2.750    1.167    8.833 
#    0.000    3.333    0.000    0.000    0.000    2.333 
#    0.000    0.000    0.000    0.000    0.000    0.000 
#
# Total GULP energy -595131.578227 kJ/mol
# GULP energy per Si atom -12398.574546 kJ/mol
# Density = 2.084917 g / cm^3
# Si number density = 20.896732 Si / 1000 Ang^3
#
#
#
# Elastic Constant Matrix: (Units=GPa)
#
#
# Indices 1 2 3 4 5 6 
#
# 1 133.8295 73.2735 36.8107 0.0000 0.0000 0.0000
# 2 73.2735 89.4992 32.5165 0.0000 0.0000 0.0000
# 3 36.8107 32.5165 107.8271 0.0000 0.0000 0.0000
# 4 0.0000 0.0000 0.0000 15.5654 0.0000 0.0000
# 5 0.0000 0.0000 0.0000 0.0000 26.2425 0.0000
# 6 0.0000 0.0000 0.0000 0.0000 0.0000 31.2992
#
#
#
# Elastic Compliance Matrix: (Units=1/GPa)
#
#
# Indices 1 2 3 4 5 6 
#
# 1 0.013744 -0.010722 -0.001459 0.000000 0.000000 0.000000
# 2 -0.010722 0.020913 -0.002646 0.000000 0.000000 0.000000
# 3 -0.001459 -0.002646 0.010570 0.000000 0.000000 0.000000
# 4 0.000000 0.000000 0.000000 0.064245 0.000000 0.000000
# 5 0.000000 0.000000 0.000000 0.000000 0.038106 0.000000
# 6 0.000000 0.000000 0.000000 0.000000 0.000000 0.031950
#
#
# Mechanical properties :
#
#
# Convention : Reuss Voigt Hill
#
# Bulk Modulus (GPa) = 64.21360 68.48415 66.34887
# Shear Modulus (GPa) = 23.32378 27.19175 25.25776
#
# Velocity S-wave (km/s) = 3.34450 3.61119 3.48040
# Velocity P-wave (km/s) = 6.76091 7.08741 6.92609
#
# Compressibility (1/GPa) = 0.01557303
#
# Stress axis : x y z
#
# Youngs Moduli (GPa) = 72.75870 47.81672 94.60729
#
# Poissons Ratio (x) = 0.51271 0.13799
# Poissons Ratio (y) = 0.78015 0.25034
# Poissons Ratio (z) = 0.10612 0.12653
#
# Static dielectric constant tensor:
#      x y z
#    x 4.164730 0.000000 0.000000 
#    y 0.000000 3.761460 0.000000 
#    z 0.000000 0.000000 3.719870 
# 
# 
# High freq. dielectric constant tensor:
#      x y z
#    x 1.820850 0.000000 0.000000 
#    y 0.000000 1.814840 0.000000 
#    z 0.000000 0.000000 1.819930 
# 
# From -- ./inp_files/6605.got.cif
#   From: 2010.03.12/outbox.cif.g09.slc.cpg/sg47_4_cif.got.tgz:6605.got - 2010.04.14 03:12:58.
