data_PCOD8200848
_publ_section_title
;
Structure prediction by ZEFSAII (Michael W. Deem and Ramdas Pophale) SiO2 
 PCOD8200848
Probable space group: P M M M
;
_chemical_formula_sum "Si O2"
_cell_formula_units_Z 40
_cell_length_a 9.758244
_cell_length_b 25.490022
_cell_length_c 9.601296
_cell_angle_alpha 90.000000
_cell_angle_beta 90.000000
_cell_angle_gamma 90.000000
_cell_volume 2388.205765
_symmetry_space_group_name_H-M "P M M M"
_symmetry_group_IT_number 47
_symmetry_cell_setting 'orthorhombic'
loop_
_space_group_symop_operation_xyz
x,y,z
-x,-y,z
x,-y,-z
-x,y,-z
-x,-y,-z
x,y,-z
-x,y,z
x,-y,z
loop_
_atom_site_type_symbol
_atom_site_label
_atom_site_fract_x
_atom_site_fract_y
_atom_site_fract_z
Si Si1 0.157761 0.060433 0.340221
Si Si2 0.656526 0.863602 0.163606
Si Si3 0.337064 0.441722 0.843835
Si Si4 0.337102 0.253630 0.154742
Si Si5 0.336271 0.652424 0.342951
O O1 0.187802 0.074913 0.500000
O O2 0.250636 0.095308 0.242415
O O3 0.000000 0.071366 0.303762
O O4 0.194109 0.000000 0.312041
O O5 0.500000 0.871472 0.211858
O O6 0.707542 0.804764 0.201061
O O7 0.670395 0.873479 0.000000
O O8 0.500000 0.439811 0.842559
O O9 0.286988 0.500000 0.799424
O O10 0.278256 0.399055 0.735821
O O11 0.285004 0.428554 0.000000
O O12 0.500000 0.256081 0.148974
O O13 0.279339 0.295968 0.264300
O O14 0.279883 0.266554 0.000000
O O15 0.278948 0.652448 0.500000
O O16 0.500000 0.652310 0.342883
#
# Coordination Sequence:
#
# PCOD8200848 Si02
#       5
#     8   8   8   8   8
#     4   9  19  35  51  67  90 120 151 180 213 259
#     4   9  18  31  47  69  93 115 144 184 225 262
#     4   8  13  20  28  37  52  80 119 159 199 244
#     4   8  14  25  38  51  72 101 129 160 202 251
#     4   9  15  20  28  44  64  87 119 160 203 244
#
# _framework density 16.748977
#
# number of rings (size 3 to 8) (size 9 to 14) (size 15 to 20)
#    0.000    3.400    0.000    3.000    0.000    5.200 
#    0.000    7.000    0.000    0.000    0.000    0.000 
#    0.000    0.000    0.000    0.000    0.000    1.000 
#
# Total GULP energy -495758.242137 kJ/mol
# GULP energy per Si atom -12393.956053 kJ/mol
# Density = 1.671086 g / cm^3
# Si number density = 16.748977 Si / 1000 Ang^3
#
#
#
# Elastic Constant Matrix: (Units=GPa)
#
#
# Indices 1 2 3 4 5 6 
#
# 1 25.9028 37.7905 29.5006 0.0000 0.0000 0.0000
# 2 37.7905 139.1376 87.4344 0.0000 0.0000 0.0000
# 3 29.5006 87.4344 112.0872 0.0000 0.0000 0.0000
# 4 0.0000 0.0000 0.0000 21.7421 0.0000 0.0000
# 5 0.0000 0.0000 0.0000 0.0000 16.5485 0.0000
# 6 0.0000 0.0000 0.0000 0.0000 0.0000 -3.0180
#
#
#
# Elastic Compliance Matrix: (Units=1/GPa)
#
#
# Indices 1 2 3 4 5 6 
#
# 1 0.066403 -0.013834 -0.006685 0.000000 0.000000 0.000000
# 2 -0.013834 0.016980 -0.009604 0.000000 0.000000 0.000000
# 3 -0.006685 -0.009604 0.018173 0.000000 0.000000 0.000000
# 4 0.000000 0.000000 0.000000 0.045994 0.000000 0.000000
# 5 0.000000 0.000000 0.000000 0.000000 0.060429 0.000000
# 6 0.000000 0.000000 0.000000 0.000000 0.000000 -0.331350
#
#
# Mechanical properties :
#
#
# Convention : Reuss Voigt Hill
#
# Bulk Modulus (GPa) = 24.20814 65.17540 44.69177
# Shear Modulus (GPa) = -101.30759 15.21467 -43.04646
#
# Velocity S-wave (km/s) = -7.78570 3.01723 -5.07511
# Velocity P-wave (km/s) = 8.14481 7.15093 2.75701
#
# Compressibility (1/GPa) = 0.04130842
#
# Stress axis : x y z
#
# Youngs Moduli (GPa) = 15.05950 58.89312 55.02689
#
# Poissons Ratio (x) = 0.81475 0.36787
# Poissons Ratio (y) = 0.20834 0.52849
# Poissons Ratio (z) = 0.10068 0.56562
#
# Static dielectric constant tensor:
#      x y z
#    x 2.485220 0.000000 0.000000 
#    y 0.000000 3.414550 0.000000 
#    z 0.000000 0.000000 3.272000 
# 
# 
# High freq. dielectric constant tensor:
#      x y z
#    x 1.568170 0.000000 0.000000 
#    y 0.000000 1.660900 0.000000 
#    z 0.000000 0.000000 1.648810 
# 
# From -- ./inp_files/1655.got.cif
#   From: 2010.03.12/outbox.cif.g09.slc.cpg/sg47_1_cif.got.tgz:1655.got - 2010.04.14 03:12:58.
