data_PCOD8200564
_publ_section_title
;
Structure prediction by ZEFSAII (Michael W. Deem and Ramdas Pophale) SiO2 
 PCOD8200564
Probable space group: P M M M
;
_chemical_formula_sum "Si O2"
_cell_formula_units_Z 36
_cell_length_a 10.712111
_cell_length_b 8.949509
_cell_length_c 18.665364
_cell_angle_alpha 90.000000
_cell_angle_beta 90.000000
_cell_angle_gamma 90.000000
_cell_volume 1789.413613
_symmetry_space_group_name_H-M "P M M M"
_symmetry_group_IT_number 47
_symmetry_cell_setting 'orthorhombic'
loop_
_space_group_symop_operation_xyz
x,y,z
-x,-y,z
x,-y,-z
-x,y,-z
-x,-y,-z
x,y,-z
-x,y,z
x,-y,z
loop_
_atom_site_type_symbol
_atom_site_label
_atom_site_fract_x
_atom_site_fract_y
_atom_site_fract_z
Si Si1 0.859003 0.328214 0.584436
Si Si2 0.500000 0.832059 0.084367
Si Si3 0.855056 0.835207 0.921532
Si Si4 0.642286 0.175409 0.326803
Si Si5 0.698459 0.674982 0.823461
O O1 0.846297 0.309054 0.500000
O O2 0.839889 0.500000 0.607281
O O3 0.748514 0.231947 0.618994
O O4 0.000000 0.277162 0.608086
O O5 0.381864 0.741991 0.112161
O O6 0.500000 0.000000 0.115428
O O7 0.500000 0.831807 0.000000
O O8 0.833164 0.721634 0.854384
O O9 0.000000 0.856648 0.925689
O O10 0.794032 0.000000 0.906928
O O11 0.807371 0.776898 0.000000
O O12 0.500000 0.211834 0.353627
O O13 0.663211 0.252303 0.251188
O O14 0.659885 0.000000 0.317864
O O15 0.681305 0.500000 0.814553
#
# Coordination Sequence:
#
# PCOD8200564 Si02
#       5
#     8   4   8   8   8
#     4   9  20  41  68  97 129 164 203 250 306 369
#     4  11  23  39  59  81 110 151 196 243 297 357
#     4   9  19  37  59  81 109 149 195 243 299 364
#     4  11  24  41  62  88 124 167 209 256 308 364
#     4  12  24  37  57  84 115 152 195 246 302 358
#
# _framework density 20.118323
#
# number of rings (size 3 to 8) (size 9 to 14) (size 15 to 20)
#    0.000    1.667    1.111    5.000    0.000    8.000 
#    0.000    4.444    0.000    0.000    0.000    0.000 
#    0.000    0.000    0.000    0.000    0.000    0.000 
#
# Total GULP energy -446061.997305 kJ/mol
# GULP energy per Si atom -12390.611036 kJ/mol
# Density = 2.007253 g / cm^3
# Si number density = 20.118323 Si / 1000 Ang^3
#
#
#
# Elastic Constant Matrix: (Units=GPa)
#
#
# Indices 1 2 3 4 5 6 
#
# 1 114.6022 70.2753 53.3582 0.0000 0.0000 0.0000
# 2 70.2753 136.2785 59.6815 0.0000 0.0000 0.0000
# 3 53.3582 59.6815 76.4672 0.0000 0.0000 0.0000
# 4 0.0000 0.0000 0.0000 33.8757 0.0000 0.0000
# 5 0.0000 0.0000 0.0000 0.0000 18.6480 0.0000
# 6 0.0000 0.0000 0.0000 0.0000 0.0000 41.3872
#
#
#
# Elastic Compliance Matrix: (Units=1/GPa)
#
#
# Indices 1 2 3 4 5 6 
#
# 1 0.014656 -0.004678 -0.006576 0.000000 0.000000 0.000000
# 2 -0.004678 0.012642 -0.006602 0.000000 0.000000 0.000000
# 3 -0.006576 -0.006602 0.022819 0.000000 0.000000 0.000000
# 4 0.000000 0.000000 0.000000 0.029520 0.000000 0.000000
# 5 0.000000 0.000000 0.000000 0.000000 0.053625 0.000000
# 6 0.000000 0.000000 0.000000 0.000000 0.000000 0.024162
#
#
# Mechanical properties :
#
#
# Convention : Reuss Voigt Hill
#
# Bulk Modulus (GPa) = 69.42258 77.10865 73.26562
# Shear Modulus (GPa) = 25.26052 28.38439 26.82246
#
# Velocity S-wave (km/s) = 3.54729 3.76023 3.65531
# Velocity P-wave (km/s) = 7.16657 7.56725 7.36963
#
# Compressibility (1/GPa) = 0.01440453
#
# Stress axis : x y z
#
# Youngs Moduli (GPa) = 68.23107 79.10366 43.82293
#
# Poissons Ratio (x) = 0.37004 0.28817
# Poissons Ratio (y) = 0.31918 0.28934
# Poissons Ratio (z) = 0.44868 0.52227
#
# Static dielectric constant tensor:
#      x y z
#    x 3.224680 0.000000 0.000000 
#    y 0.000000 3.758410 0.000000 
#    z 0.000000 0.000000 3.569270 
# 
# 
# High freq. dielectric constant tensor:
#      x y z
#    x 1.802610 0.000000 0.000000 
#    y 0.000000 1.782020 0.000000 
#    z 0.000000 0.000000 1.780100 
# 
# From -- ./inp_files/26147.got.cif
#   From: 2010.03.12/outbox.cif.g09.slc.cpg/sg47_14_cif.got.tgz:26147.got - 2010.04.14 03:12:58.
