data_PCOD8200957
_publ_section_title
;
Structure prediction by ZEFSAII (Michael W. Deem and Ramdas Pophale) SiO2 
 PCOD8200957
Probable space group: P M M M
;
_chemical_formula_sum "Si O2"
_cell_formula_units_Z 44
_cell_length_a 30.356602
_cell_length_b 8.010239
_cell_length_c 9.463430
_cell_angle_alpha 90.000000
_cell_angle_beta 90.000000
_cell_angle_gamma 90.000000
_cell_volume 2301.162060
_symmetry_space_group_name_H-M "P M M M"
_symmetry_group_IT_number 47
_symmetry_cell_setting 'orthorhombic'
loop_
_space_group_symop_operation_xyz
x,y,z
-x,-y,z
x,-y,-z
-x,y,-z
-x,-y,-z
x,y,-z
-x,y,z
x,-y,z
loop_
_atom_site_type_symbol
_atom_site_label
_atom_site_fract_x
_atom_site_fract_y
_atom_site_fract_z
Si Si1 0.789966 0.303747 0.158225
Si Si2 0.549851 0.000000 0.168616
Si Si3 0.696620 0.188762 0.167550
Si Si4 0.951207 0.301494 0.158482
Si Si5 0.395354 0.315543 0.831809
Si Si6 0.129254 0.300493 0.340910
O O1 0.795035 0.500000 0.148603
O O2 0.742630 0.259688 0.227485
O O3 0.828270 0.229746 0.257493
O O4 0.794496 0.226862 0.000000
O O5 0.573464 0.167809 0.227830
O O6 0.500000 0.000000 0.225017
O O7 0.551323 0.000000 0.000000
O O8 0.654586 0.291401 0.225087
O O9 0.690443 0.000000 0.218036
O O10 0.698126 0.203787 0.000000
O O11 0.949684 0.500000 0.159659
O O12 0.914726 0.229719 0.265520
O O13 0.000000 0.240281 0.205383
O O14 0.940782 0.237497 0.000000
O O15 0.411944 0.500000 0.782904
O O16 0.395488 0.304168 0.000000
O O17 0.130475 0.230664 0.500000
O O18 0.129352 0.500000 0.340722
#
# Coordination Sequence:
#
# PCOD8200957 Si02
#       6
#     8   4   8   8   8   8
#     4   9  16  25  38  56  76 100 133 171 212 261
#     4   9  16  24  32  46  72 106 145 187 228 273
#     4   9  15  24  38  55  74  95 126 173 223 264
#     4   8  13  21  33  49  71 102 139 177 217 260
#     4   9  15  23  35  50  71 101 138 182 230 275
#     4   9  16  24  34  50  75 106 137 171 213 262
#
# _framework density 19.120774999999998
#
# number of rings (size 3 to 8) (size 9 to 14) (size 15 to 20)
#    0.000    3.182    0.909    1.636    0.000    5.091 
#    0.000    3.636    0.000    0.545    0.000    0.000 
#    0.000    0.727    0.000    8.364    0.000   12.545 
#
# Total GULP energy -545248.350417 kJ/mol
# GULP energy per Si atom -12392.007964 kJ/mol
# Density = 1.907726 g / cm^3
# Si number density = 19.120775 Si / 1000 Ang^3
#
#
#
# Elastic Constant Matrix: (Units=GPa)
#
#
# Indices 1 2 3 4 5 6 
#
# 1 186.2081 50.6664 55.6897 0.0000 0.0000 0.0000
# 2 50.6664 72.2053 16.8207 0.0000 0.0000 0.0000
# 3 55.6897 16.8207 60.4856 0.0000 0.0000 0.0000
# 4 0.0000 0.0000 0.0000 1.5591 0.0000 0.0000
# 5 0.0000 0.0000 0.0000 0.0000 3.8333 0.0000
# 6 0.0000 0.0000 0.0000 0.0000 0.0000 10.7269
#
#
#
# Elastic Compliance Matrix: (Units=1/GPa)
#
#
# Indices 1 2 3 4 5 6 
#
# 1 0.008576 -0.004468 -0.006653 0.000000 0.000000 0.000000
# 2 -0.004468 0.017136 -0.000652 0.000000 0.000000 0.000000
# 3 -0.006653 -0.000652 0.022840 0.000000 0.000000 0.000000
# 4 0.000000 0.000000 0.000000 0.641412 0.000000 0.000000
# 5 0.000000 0.000000 0.000000 0.000000 0.260874 0.000000
# 6 0.000000 0.000000 0.000000 0.000000 0.000000 0.093223
#
#
# Mechanical properties :
#
#
# Convention : Reuss Voigt Hill
#
# Bulk Modulus (GPa) = 39.99066 62.80586 51.39826
# Shear Modulus (GPa) = 4.64709 16.27199 10.45954
#
# Velocity S-wave (km/s) = 1.56066 2.92037 2.34139
# Velocity P-wave (km/s) = 4.92013 6.65505 5.85224
#
# Compressibility (1/GPa) = 0.02500584
#
# Stress axis : x y z
#
# Youngs Moduli (GPa) = 116.60679 58.35569 43.78276
#
# Poissons Ratio (x) = 0.26072 0.29130
# Poissons Ratio (y) = 0.52096 0.02855
# Poissons Ratio (z) = 0.77583 0.03805
#
# Static dielectric constant tensor:
#      x y z
#    x 3.840640 0.000000 0.000000 
#    y 0.000000 3.220410 0.000000 
#    z 0.000000 0.000000 3.080740 
# 
# 
# High freq. dielectric constant tensor:
#      x y z
#    x 1.757360 0.000000 0.000000 
#    y 0.000000 1.717560 0.000000 
#    z 0.000000 0.000000 1.671550 
# 
# From -- ./inp_files/2063.got.cif
#   From: 2010.03.12/outbox.cif.g09.slc.cpg/sg47_2_cif.got.tgz:2063.got - 2010.04.14 03:12:58.
