data_PCOD8200003
_publ_section_title
;
Structure prediction by ZEFSAII (Michael W. Deem and Ramdas Pophale) SiO2 
 PCOD8200003
Probable space group: P M M M
;
_chemical_formula_sum "Si O2"
_cell_formula_units_Z 48
_cell_length_a 8.643966
_cell_length_b 9.013576
_cell_length_c 30.476864
_cell_angle_alpha 90.000000
_cell_angle_beta 90.000000
_cell_angle_gamma 90.000000
_cell_volume 2374.545261
_symmetry_space_group_name_H-M "P M M M"
_symmetry_group_IT_number 47
_symmetry_cell_setting 'orthorhombic'
loop_
_space_group_symop_operation_xyz
x,y,z
-x,-y,z
x,-y,-z
-x,y,-z
-x,-y,-z
x,y,-z
-x,y,z
x,-y,z
loop_
_atom_site_type_symbol
_atom_site_label
_atom_site_fract_x
_atom_site_fract_y
_atom_site_fract_z
Si Si1 0.319526 0.330538 0.082135
Si Si2 0.824920 0.324714 0.500000
Si Si3 0.820379 0.828257 0.325586
Si Si4 0.320927 0.829285 0.582238
Si Si5 0.679379 0.327553 0.754876
Si Si6 0.179253 0.827620 0.163744
Si Si7 0.181871 0.165454 0.000000
O O1 0.500000 0.319932 0.072452
O O2 0.263436 0.500000 0.084166
O O3 0.283287 0.254822 0.128205
O O4 0.231642 0.250133 0.043296
O O5 0.824325 0.500000 0.500000
O O6 0.735398 0.270840 0.542658
O O7 0.000000 0.262447 0.500000
O O8 0.776578 0.784821 0.375009
O O9 0.718613 0.727257 0.293735
O O10 0.000000 0.794660 0.317768
O O11 0.780802 0.000000 0.316489
O O12 0.500000 0.797899 0.591959
O O13 0.292649 0.000000 0.569457
O O14 0.500000 0.298197 0.765037
O O15 0.720356 0.500000 0.759104
O O16 0.784137 0.236503 0.788587
O O17 0.000000 0.801832 0.152663
O O18 0.222075 0.000000 0.163138
O O19 0.000000 0.154273 0.000000
O O20 0.254322 0.000000 0.000000
#
# Coordination Sequence:
#
# PCOD8200003 Si02
#       7
#     8   4   8   8   8   8   4
#     4  11  24  41  62  90 122 156 197 243 292 348
#     4  11  24  39  56  82 116 153 192 235 286 342
#     4  10  21  38  61  88 116 149 191 237 286 342
#     4  10  21  38  61  87 114 148 191 237 287 343
#     4  11  24  40  59  86 119 155 195 238 287 344
#     4  11  24  41  62  89 119 153 196 243 291 346
#     4  11  24  41  62  90 122 157 200 245 290 346
#
# _framework density 20.214397000000002
#
# number of rings (size 3 to 8) (size 9 to 14) (size 15 to 20)
#    0.000    1.333    0.000    5.000    0.000   16.000 
#    0.000    0.000    0.000    0.000    0.000    0.000 
#    0.000    0.000    0.000    0.000    0.000    0.000 
#
# Total GULP energy -595565.862972 kJ/mol
# GULP energy per Si atom -12407.622145 kJ/mol
# Density = 2.016839 g / cm^3
# Si number density = 20.214397 Si / 1000 Ang^3
#
#
#
# Elastic Constant Matrix: (Units=GPa)
#
#
# Indices 1 2 3 4 5 6 
#
# 1 61.8288 45.3584 20.6699 0.0000 0.0000 0.0000
# 2 45.3584 122.7185 52.4854 0.0000 0.0000 0.0000
# 3 20.6699 52.4854 110.1525 0.0000 0.0000 0.0000
# 4 0.0000 0.0000 0.0000 52.4930 0.0000 0.0000
# 5 0.0000 0.0000 0.0000 0.0000 47.1296 0.0000
# 6 0.0000 0.0000 0.0000 0.0000 0.0000 31.0205
#
#
#
# Elastic Compliance Matrix: (Units=1/GPa)
#
#
# Indices 1 2 3 4 5 6 
#
# 1 0.022200 -0.008068 -0.000322 0.000000 0.000000 0.000000
# 2 -0.008068 0.013166 -0.004760 0.000000 0.000000 0.000000
# 3 -0.000322 -0.004760 0.011407 0.000000 0.000000 0.000000
# 4 0.000000 0.000000 0.000000 0.019050 0.000000 0.000000
# 5 0.000000 0.000000 0.000000 0.000000 0.021218 0.000000
# 6 0.000000 0.000000 0.000000 0.000000 0.000000 0.032237
#
#
# Mechanical properties :
#
#
# Convention : Reuss Voigt Hill
#
# Bulk Modulus (GPa) = 48.84077 59.08079 53.96078
# Shear Modulus (GPa) = 32.80828 37.87436 35.34132
#
# Velocity S-wave (km/s) = 4.03304 4.33324 4.18583
# Velocity P-wave (km/s) = 6.77503 7.37065 7.07911
#
# Compressibility (1/GPa) = 0.02047470
#
# Stress axis : x y z
#
# Youngs Moduli (GPa) = 45.04537 75.95144 87.66921
#
# Poissons Ratio (x) = 0.61276 0.02820
# Poissons Ratio (y) = 0.36342 0.41727
# Poissons Ratio (z) = 0.01449 0.36150
#
# Static dielectric constant tensor:
#      x y z
#    x 3.771070 0.000000 0.000000 
#    y 0.000000 3.796090 0.000000 
#    z 0.000000 0.000000 3.150570 
# 
# 
# High freq. dielectric constant tensor:
#      x y z
#    x 1.801830 0.000000 0.000000 
#    y 0.000000 1.795830 0.000000 
#    z 0.000000 0.000000 1.803720 
# 
# From -- ./inp_files/34209.got.cif
#   From: 2010.03.12/outbox.cif.g09.slc.cpg/sg47_18_cif.got.tgz:34209.got - 2010.04.14 03:12:58.
