data_PCOD8200972
_publ_section_title
;
Structure prediction by ZEFSAII (Michael W. Deem and Ramdas Pophale) SiO2 
 PCOD8200972
Probable space group: P M M M
;
_chemical_formula_sum "Si O2"
_cell_formula_units_Z 60
_cell_length_a 18.309474
_cell_length_b 24.032534
_cell_length_c 9.643363
_cell_angle_alpha 90.000000
_cell_angle_beta 90.000000
_cell_angle_gamma 90.000000
_cell_volume 4243.302061
_symmetry_space_group_name_H-M "P M M M"
_symmetry_group_IT_number 47
_symmetry_cell_setting 'orthorhombic'
loop_
_space_group_symop_operation_xyz
x,y,z
-x,-y,z
x,-y,-z
-x,y,-z
-x,-y,-z
x,y,-z
-x,y,z
x,-y,z
loop_
_atom_site_type_symbol
_atom_site_label
_atom_site_fract_x
_atom_site_fract_y
_atom_site_fract_z
Si Si1 0.214654 0.735655 0.345741
Si Si2 0.585039 0.896629 0.839588
Si Si3 0.328167 0.213520 0.160066
Si Si4 0.694102 0.376866 0.346107
Si Si5 0.081425 0.666933 0.665475
Si Si6 0.416693 0.323614 0.839209
Si Si7 0.833263 0.438584 0.334809
Si Si8 0.413336 0.000000 0.657492
O O1 0.208094 0.761621 0.500000
O O2 0.252892 0.780771 0.246155
O O3 0.262705 0.680631 0.351656
O O4 0.134601 0.717580 0.287445
O O5 0.500000 0.883411 0.813462
O O6 0.631390 0.842866 0.797317
O O7 0.613926 0.945884 0.740928
O O8 0.597505 0.913405 0.000000
O O9 0.383594 0.263308 0.194294
O O10 0.305817 0.213553 0.000000
O O11 0.665329 0.391920 0.500000
O O12 0.625320 0.372024 0.243866
O O13 0.750217 0.423629 0.289956
O O14 0.082169 0.664397 0.500000
O O15 0.110041 0.607343 0.724169
O O16 0.000000 0.677828 0.723393
O O17 0.500000 0.322865 0.789499
O O18 0.409621 0.338193 0.000000
O O19 0.836934 0.437792 0.500000
O O20 0.853332 0.500000 0.276916
O O21 0.500000 0.000000 0.654882
O O22 0.382176 0.000000 0.500000
#
# Coordination Sequence:
#
# PCOD8200972 Si02
#       8
#     8   8   8   8   8   8   8   4
#     4   8  14  24  36  51  73  98 120 144 178 218
#     4   9  16  26  39  53  71  98 131 163 193 222
#     4   9  16  25  38  55  73  94 122 155 187 219
#     4   8  14  24  36  50  69  92 116 142 177 222
#     4   8  13  21  34  53  76 100 123 145 173 214
#     4   9  16  25  37  53  71  89 113 149 189 223
#     4   8  13  21  34  52  72  93 118 149 181 211
#     4   9  17  27  37  51  73 101 132 163 192 221
#
# _framework density 14.139932
#
# number of rings (size 3 to 8) (size 9 to 14) (size 15 to 20)
#    0.000    3.533    0.000    2.200    0.000    3.467 
#    0.000    1.333    0.000    3.600    0.000    2.800 
#    0.000    0.000    0.000   11.000    0.000   22.800 
#
# Total GULP energy -743545.497356 kJ/mol
# GULP energy per Si atom -12392.424956 kJ/mol
# Density = 1.410775 g / cm^3
# Si number density = 14.139932 Si / 1000 Ang^3
#
#
#
# Elastic Constant Matrix: (Units=GPa)
#
#
# Indices 1 2 3 4 5 6 
#
# 1 104.0766 45.3376 39.7859 0.0000 0.0000 0.0000
# 2 45.3376 62.2120 29.6174 0.0000 0.0000 0.0000
# 3 39.7859 29.6174 44.5346 0.0000 0.0000 0.0000
# 4 0.0000 0.0000 0.0000 15.3708 0.0000 0.0000
# 5 0.0000 0.0000 0.0000 0.0000 12.4274 0.0000
# 6 0.0000 0.0000 0.0000 0.0000 0.0000 15.6952
#
#
#
# Elastic Compliance Matrix: (Units=1/GPa)
#
#
# Indices 1 2 3 4 5 6 
#
# 1 0.016625 -0.007382 -0.009943 0.000000 0.000000 0.000000
# 2 -0.007382 0.026799 -0.011228 0.000000 0.000000 0.000000
# 3 -0.009943 -0.011228 0.038804 0.000000 0.000000 0.000000
# 4 0.000000 0.000000 0.000000 0.065058 0.000000 0.000000
# 5 0.000000 0.000000 0.000000 0.000000 0.080467 0.000000
# 6 0.000000 0.000000 0.000000 0.000000 0.000000 0.063714
#
#
# Mechanical properties :
#
#
# Convention : Reuss Voigt Hill
#
# Bulk Modulus (GPa) = 39.80431 48.92277 44.36354
# Shear Modulus (GPa) = 14.00771 15.10418 14.55594
#
# Velocity S-wave (km/s) = 3.15087 3.27187 3.21194
# Velocity P-wave (km/s) = 6.43807 6.99626 6.72296
#
# Compressibility (1/GPa) = 0.02512291
#
# Stress axis : x y z
#
# Youngs Moduli (GPa) = 60.15043 37.31490 25.77060
#
# Poissons Ratio (x) = 0.27546 0.25623
# Poissons Ratio (y) = 0.44404 0.28934
# Poissons Ratio (z) = 0.59807 0.41895
#
# Static dielectric constant tensor:
#      x y z
#    x 2.880270 0.000000 0.000000 
#    y 0.000000 2.712350 0.000000 
#    z 0.000000 0.000000 2.705930 
# 
# 
# High freq. dielectric constant tensor:
#      x y z
#    x 1.521140 0.000000 0.000000 
#    y 0.000000 1.514540 0.000000 
#    z 0.000000 0.000000 1.517920 
# 
# From -- ./inp_files/18008.got.cif
#   From: 2010.03.12/outbox.cif.g09.slc.cpg/sg47_10_cif.got.tgz:18008.got - 2010.04.14 03:12:58.
