data_PCOD8200642
_publ_section_title
;
Structure prediction by ZEFSAII (Michael W. Deem and Ramdas Pophale) SiO2 
 PCOD8200642
Probable space group: P M M M
;
_chemical_formula_sum "Si O2"
_cell_formula_units_Z 48
_cell_length_a 8.218404
_cell_length_b 32.361927
_cell_length_c 9.428915
_cell_angle_alpha 90.000000
_cell_angle_beta 90.000000
_cell_angle_gamma 90.000000
_cell_volume 2507.746200
_symmetry_space_group_name_H-M "P M M M"
_symmetry_group_IT_number 47
_symmetry_cell_setting 'orthorhombic'
loop_
_space_group_symop_operation_xyz
x,y,z
-x,-y,z
x,-y,-z
-x,y,-z
-x,-y,-z
x,y,-z
-x,y,z
x,-y,z
loop_
_atom_site_type_symbol
_atom_site_label
_atom_site_fract_x
_atom_site_fract_y
_atom_site_fract_z
Si Si1 0.811940 0.500000 0.656965
Si Si2 0.189026 0.740298 0.653117
Si Si3 0.687788 0.425033 0.839819
Si Si4 0.687485 0.812146 0.158668
Si Si5 0.682111 0.095486 0.169157
Si Si6 0.000000 0.953095 0.831128
Si Si7 0.810136 0.350591 0.334437
O O1 0.726134 0.500000 0.500000
O O2 0.772013 0.459443 0.745300
O O3 0.000000 0.500000 0.628024
O O4 0.268401 0.751230 0.500000
O O5 0.215490 0.777846 0.757929
O O6 0.253633 0.695690 0.706131
O O7 0.000000 0.733726 0.631040
O O8 0.500000 0.436139 0.847446
O O9 0.710361 0.380850 0.766191
O O10 0.760572 0.424518 0.000000
O O11 0.500000 0.799787 0.160869
O O12 0.712620 0.857878 0.224716
O O13 0.757328 0.812068 0.000000
O O14 0.500000 0.080258 0.220017
O O15 0.832506 0.067791 0.227336
O O16 0.681171 0.095400 0.000000
O O17 0.000000 0.000000 0.776598
O O18 0.000000 0.950714 0.000000
O O19 0.774260 0.359649 0.500000
O O20 0.000000 0.356558 0.301496
#
# Coordination Sequence:
#
# PCOD8200642 Si02
#       7
#     4   8   8   8   8   4   8
#     4  11  24  41  62  86 108 135 174 215 256 306
#     4   9  19  34  51  74 103 133 169 214 258 302
#     4  11  24  39  56  82 113 140 170 212 257 302
#     4   9  18  31  47  69  97 131 170 209 253 308
#     4   8  15  27  40  59  91 126 162 209 259 308
#     4   9  16  24  38  62  89 125 171 209 253 316
#     4   9  19  37  57  76 102 137 175 212 253 305
#
# _framework density 19.140692000000001
#
# number of rings (size 3 to 8) (size 9 to 14) (size 15 to 20)
#    0.000    2.667    0.000    3.500    1.167    7.667 
#    0.000    6.667    0.000    0.000    0.000    0.000 
#    0.000    1.333    0.000    3.667    0.000    3.667 
#
# Total GULP energy -594828.760711 kJ/mol
# GULP energy per Si atom -12392.265848 kJ/mol
# Density = 1.909713 g / cm^3
# Si number density = 19.140692 Si / 1000 Ang^3
#
#
#
# Elastic Constant Matrix: (Units=GPa)
#
#
# Indices 1 2 3 4 5 6 
#
# 1 76.7404 49.0252 25.9959 0.0000 0.0000 0.0000
# 2 49.0252 138.2674 50.3310 0.0000 0.0000 0.0000
# 3 25.9959 50.3310 77.4539 0.0000 0.0000 0.0000
# 4 0.0000 0.0000 0.0000 -167.8895 0.0000 0.0000
# 5 0.0000 0.0000 0.0000 0.0000 25.2997 0.0000
# 6 0.0000 0.0000 0.0000 0.0000 0.0000 92.9818
#
#
#
# Elastic Compliance Matrix: (Units=1/GPa)
#
#
# Indices 1 2 3 4 5 6 
#
# 1 0.017172 -0.005227 -0.002367 0.000000 0.000000 0.000000
# 2 -0.005227 0.011064 -0.005435 0.000000 0.000000 0.000000
# 3 -0.002367 -0.005435 0.017237 0.000000 0.000000 0.000000
# 4 0.000000 0.000000 0.000000 -0.005956 0.000000 0.000000
# 5 0.000000 0.000000 0.000000 0.000000 0.039526 0.000000
# 6 0.000000 0.000000 0.000000 0.000000 0.000000 0.010755
#
#
# Mechanical properties :
#
#
# Convention : Reuss Voigt Hill
#
# Bulk Modulus (GPa) = 51.50656 60.35178 55.92917
# Shear Modulus (GPa) = 40.87354 1.21904 21.04629
#
# Velocity S-wave (km/s) = 4.62608 0.79891 3.31955
# Velocity P-wave (km/s) = 7.44997 5.69650 6.63144
#
# Compressibility (1/GPa) = 0.01941500
#
# Stress axis : x y z
#
# Youngs Moduli (GPa) = 58.23431 90.38095 58.01371
#
# Poissons Ratio (x) = 0.47243 0.13731
# Poissons Ratio (y) = 0.30440 0.31533
# Poissons Ratio (z) = 0.13783 0.49126
#
# Static dielectric constant tensor:
#      x y z
#    x 3.508600 0.000000 0.000000 
#    y 0.000000 3.615100 0.000000 
#    z 0.000000 0.000000 3.324340 
# 
# 
# High freq. dielectric constant tensor:
#      x y z
#    x 1.741280 0.000000 0.000000 
#    y 0.000000 1.751000 0.000000 
#    z 0.000000 0.000000 1.710510 
# 
# From -- ./inp_files/2682.got.cif
#   From: 2010.03.12/outbox.cif.g09.slc.cpg/sg47_2_cif.got.tgz:2682.got - 2010.04.14 03:12:58.
