data_PCOD8200510
_publ_section_title
;
Structure prediction by ZEFSAII (Michael W. Deem and Ramdas Pophale) SiO2 
 PCOD8200510
Probable space group: P M M M
;
_chemical_formula_sum "Si O2"
_cell_formula_units_Z 40
_cell_length_a 8.787399
_cell_length_b 11.799904
_cell_length_c 20.049511
_cell_angle_alpha 90.000000
_cell_angle_beta 90.000000
_cell_angle_gamma 90.000000
_cell_volume 2078.943111
_symmetry_space_group_name_H-M "P M M M"
_symmetry_group_IT_number 47
_symmetry_cell_setting 'orthorhombic'
loop_
_space_group_symop_operation_xyz
x,y,z
-x,-y,z
x,-y,-z
-x,y,-z
-x,-y,-z
x,y,-z
-x,y,z
x,-y,z
loop_
_atom_site_type_symbol
_atom_site_label
_atom_site_fract_x
_atom_site_fract_y
_atom_site_fract_z
Si Si1 0.824988 0.270537 0.923463
Si Si2 0.679691 0.500000 0.122829
Si Si3 0.674298 0.130901 0.423325
Si Si4 0.677500 0.867821 0.810731
Si Si5 0.178338 0.267985 0.689779
Si Si6 0.320464 0.500000 0.722936
O O1 0.746071 0.390721 0.913043
O O2 0.744625 0.173094 0.880766
O O3 0.000000 0.281031 0.901760
O O4 0.808571 0.233700 0.000000
O O5 0.500000 0.500000 0.114459
O O6 0.728626 0.500000 0.199887
O O7 0.698373 0.165237 0.500000
O O8 0.500000 0.152561 0.401586
O O9 0.786508 0.205892 0.379432
O O10 0.715987 0.000000 0.412213
O O11 0.500000 0.838967 0.809040
O O12 0.755969 0.802829 0.750788
O O13 0.710189 0.000000 0.802327
O O14 0.253021 0.391030 0.686503
O O15 0.000000 0.280697 0.699464
O O16 0.500000 0.500000 0.714522
#
# Coordination Sequence:
#
# PCOD8200510 Si02
#       6
#     8   4   8   8   8   4
#     4  11  24  40  60  87 119 153 191 242 303 360
#     4  11  22  38  63  89 114 151 198 245 292 349
#     4   9  19  38  64  92 124 164 205 242 284 340
#     4  11  24  41  61  85 115 155 202 246 290 349
#     4  12  24  38  61  92 124 156 194 245 301 351
#     4  11  23  40  63  88 117 155 199 245 294 349
#
# _framework density 19.240546999999999
#
# number of rings (size 3 to 8) (size 9 to 14) (size 15 to 20)
#    0.000    1.200    2.000    5.100    0.000    8.800 
#    0.000    3.500    0.000    3.000    0.000    0.000 
#    0.000    0.000    0.000    0.000    0.000    0.000 
#
# Total GULP energy -496265.201026 kJ/mol
# GULP energy per Si atom -12406.630026 kJ/mol
# Density = 1.919675 g / cm^3
# Si number density = 19.240547 Si / 1000 Ang^3
#
#
#
# Elastic Constant Matrix: (Units=GPa)
#
#
# Indices 1 2 3 4 5 6 
#
# 1 106.4738 61.1962 45.0496 0.0000 0.0000 0.0000
# 2 61.1962 102.7005 55.2087 0.0000 0.0000 0.0000
# 3 45.0496 55.2087 99.1799 0.0000 0.0000 0.0000
# 4 0.0000 0.0000 0.0000 35.0012 0.0000 0.0000
# 5 0.0000 0.0000 0.0000 0.0000 33.4306 0.0000
# 6 0.0000 0.0000 0.0000 0.0000 0.0000 70.4863
#
#
#
# Elastic Compliance Matrix: (Units=1/GPa)
#
#
# Indices 1 2 3 4 5 6 
#
# 1 0.014731 -0.007393 -0.002576 0.000000 0.000000 0.000000
# 2 -0.007393 0.017605 -0.006442 0.000000 0.000000 0.000000
# 3 -0.002576 -0.006442 0.014839 0.000000 0.000000 0.000000
# 4 0.000000 0.000000 0.000000 0.028570 0.000000 0.000000
# 5 0.000000 0.000000 0.000000 0.000000 0.029913 0.000000
# 6 0.000000 0.000000 0.000000 0.000000 0.000000 0.014187
#
#
# Mechanical properties :
#
#
# Convention : Reuss Voigt Hill
#
# Bulk Modulus (GPa) = 69.67027 70.14035 69.90531
# Shear Modulus (GPa) = 31.75583 37.57694 34.66638
#
# Velocity S-wave (km/s) = 4.06700 4.42408 4.24929
# Velocity P-wave (km/s) = 7.63824 7.91393 7.77730
#
# Compressibility (1/GPa) = 0.01435332
#
# Stress axis : x y z
#
# Youngs Moduli (GPa) = 67.88395 56.80073 67.39199
#
# Poissons Ratio (x) = 0.41994 0.17358
# Poissons Ratio (y) = 0.50188 0.43414
# Poissons Ratio (z) = 0.17485 0.36591
#
# Static dielectric constant tensor:
#      x y z
#    x 3.650010 0.000000 0.000000 
#    y 0.000000 3.589840 0.000000 
#    z 0.000000 0.000000 3.575690 
# 
# 
# High freq. dielectric constant tensor:
#      x y z
#    x 1.760550 0.000000 0.000000 
#    y 0.000000 1.753810 0.000000 
#    z 0.000000 0.000000 1.752920 
# 
# From -- ./inp_files/29338.got.cif
#   From: 2010.03.12/outbox.cif.g09.slc.cpg/sg47_15_cif.got.tgz:29338.got - 2010.04.14 03:12:58.
