data_PCOD8200986
_publ_section_title
;
Structure prediction by ZEFSAII (Michael W. Deem and Ramdas Pophale) SiO2 
 PCOD8200986
Probable space group: P M M M
;
_chemical_formula_sum "Si O2"
_cell_formula_units_Z 60
_cell_length_a 18.137029
_cell_length_b 9.283037
_cell_length_c 23.808139
_cell_angle_alpha 90.000000
_cell_angle_beta 90.000000
_cell_angle_gamma 90.000000
_cell_volume 4008.498065
_symmetry_space_group_name_H-M "P M M M"
_symmetry_group_IT_number 47
_symmetry_cell_setting 'orthorhombic'
loop_
_space_group_symop_operation_xyz
x,y,z
-x,-y,z
x,-y,-z
-x,y,-z
-x,-y,-z
x,y,-z
-x,y,z
x,-y,z
loop_
_atom_site_type_symbol
_atom_site_label
_atom_site_fract_x
_atom_site_fract_y
_atom_site_fract_z
Si Si1 0.917690 0.670842 0.937954
Si Si2 0.828410 0.331343 0.832421
Si Si3 0.584505 0.666513 0.276724
Si Si4 0.705075 0.837549 0.778430
Si Si5 0.793369 0.163028 0.663003
Si Si6 0.915038 0.667399 0.719895
Si Si7 0.669068 0.332146 0.609548
Si Si8 0.416920 0.671210 0.500000
O O1 0.921296 0.500000 0.932789
O O2 0.863932 0.730472 0.889754
O O3 0.000000 0.733133 0.928734
O O4 0.888630 0.716096 0.000000
O O5 0.810236 0.500000 0.835863
O O6 0.751867 0.247195 0.825026
O O7 0.885063 0.298606 0.782054
O O8 0.500000 0.714176 0.275558
O O9 0.594962 0.500000 0.261056
O O10 0.626819 0.759639 0.229964
O O11 0.614933 0.697864 0.338658
O O12 0.748761 0.832942 0.720502
O O13 0.691509 0.000000 0.799061
O O14 0.871214 0.242717 0.672670
O O15 0.745617 0.245389 0.615849
O O16 0.808205 0.000000 0.642993
O O17 0.904635 0.500000 0.705624
O O18 0.000000 0.714387 0.717678
O O19 0.689230 0.500000 0.604664
O O20 0.626937 0.274316 0.554640
O O21 0.421855 0.500000 0.500000
O O22 0.500000 0.735307 0.500000
#
# Coordination Sequence:
#
# PCOD8200986 Si02
#       8
#     8   8   8   8   8   8   8   4
#     4   8  13  21  35  57  82 106 135 170 202 230
#     4   9  15  24  39  57  79 107 136 166 199 233
#     4   9  16  26  41  60  81 105 132 161 194 232
#     4   9  17  27  38  54  77 105 135 165 197 234
#     4   9  17  28  40  55  78 107 136 164 196 236
#     4   9  16  25  39  60  82 103 131 167 204 240
#     4   9  16  27  43  61  82 108 135 162 192 227
#     4   9  16  26  43  67  88 105 132 167 195 222
#
# _framework density 14.968201000000001
#
# number of rings (size 3 to 8) (size 9 to 14) (size 15 to 20)
#    0.000    3.133    0.000    2.000    0.000    6.933 
#    0.000    0.333    0.000    3.200    0.000    1.400 
#    0.000    4.267    0.000    6.133    0.000    1.733 
#
# Total GULP energy -743840.193616 kJ/mol
# GULP energy per Si atom -12397.336560 kJ/mol
# Density = 1.493413 g / cm^3
# Si number density = 14.968201 Si / 1000 Ang^3
#
#
#
# Elastic Constant Matrix: (Units=GPa)
#
#
# Indices 1 2 3 4 5 6 
#
# 1 120.3086 55.6889 59.0693 0.0000 0.0000 0.0000
# 2 55.6889 64.7813 36.1862 0.0000 0.0000 0.0000
# 3 59.0693 36.1862 81.7227 0.0000 0.0000 0.0000
# 4 0.0000 0.0000 0.0000 8.9379 0.0000 0.0000
# 5 0.0000 0.0000 0.0000 0.0000 26.2739 0.0000
# 6 0.0000 0.0000 0.0000 0.0000 0.0000 11.8627
#
#
#
# Elastic Compliance Matrix: (Units=1/GPa)
#
#
# Indices 1 2 3 4 5 6 
#
# 1 0.016744 -0.010142 -0.007612 0.000000 0.000000 0.000000
# 2 -0.010142 0.026652 -0.004471 0.000000 0.000000 0.000000
# 3 -0.007612 -0.004471 0.019718 0.000000 0.000000 0.000000
# 4 0.000000 0.000000 0.000000 0.111883 0.000000 0.000000
# 5 0.000000 0.000000 0.000000 0.000000 0.038061 0.000000
# 6 0.000000 0.000000 0.000000 0.000000 0.000000 0.084298
#
#
# Mechanical properties :
#
#
# Convention : Reuss Voigt Hill
#
# Bulk Modulus (GPa) = 53.57579 63.18904 58.38242
# Shear Modulus (GPa) = 14.36675 17.13945 15.75310
#
# Velocity S-wave (km/s) = 3.10145 3.38754 3.24765
# Velocity P-wave (km/s) = 6.97826 7.58998 7.29054
#
# Compressibility (1/GPa) = 0.01866515
#
# Stress axis : x y z
#
# Youngs Moduli (GPa) = 59.72447 37.52022 50.71547
#
# Poissons Ratio (x) = 0.38052 0.38602
# Poissons Ratio (y) = 0.60571 0.22675
# Poissons Ratio (z) = 0.45460 0.16775
#
# Static dielectric constant tensor:
#      x y z
#    x 2.934910 0.000000 0.000000 
#    y 0.000000 2.787630 0.000000 
#    z 0.000000 0.000000 2.774850 
# 
# 
# High freq. dielectric constant tensor:
#      x y z
#    x 1.567180 0.000000 0.000000 
#    y 0.000000 1.557400 0.000000 
#    z 0.000000 0.000000 1.540220 
# 
# From -- ./inp_files/32891.got.cif
#   From: 2010.03.12/outbox.cif.g09.slc.cpg/sg47_17_cif.got.tgz:32891.got - 2010.04.14 03:12:58.
