data_PCOD8200891
_publ_section_title
;
Structure prediction by ZEFSAII (Michael W. Deem and Ramdas Pophale) SiO2 
 PCOD8200891
Probable space group: P M M M
;
_chemical_formula_sum "Si O2"
_cell_formula_units_Z 52
_cell_length_a 9.817371
_cell_length_b 9.282725
_cell_length_c 33.706545
_cell_angle_alpha 90.000000
_cell_angle_beta 90.000000
_cell_angle_gamma 90.000000
_cell_volume 3071.743349
_symmetry_space_group_name_H-M "P M M M"
_symmetry_group_IT_number 47
_symmetry_cell_setting 'orthorhombic'
loop_
_space_group_symop_operation_xyz
x,y,z
-x,-y,z
x,-y,-z
-x,y,-z
-x,-y,-z
x,y,-z
-x,y,z
x,-y,z
loop_
_atom_site_type_symbol
_atom_site_label
_atom_site_fract_x
_atom_site_fract_y
_atom_site_fract_z
Si Si1 0.344032 0.331192 0.226136
Si Si2 0.662010 0.159742 0.698292
Si Si3 0.347961 0.827919 0.611574
Si Si4 0.847463 0.828646 0.455991
Si Si5 0.157746 0.667937 0.846545
Si Si6 0.161772 0.837204 0.924207
Si Si7 0.837414 0.336389 0.000000
O O1 0.500000 0.283955 0.217524
O O2 0.333072 0.500000 0.232288
O O3 0.285633 0.260974 0.266356
O O4 0.249305 0.279584 0.190115
O O5 0.500000 0.153922 0.697758
O O6 0.708719 0.219425 0.655055
O O7 0.721549 0.000000 0.705694
O O8 0.500000 0.767380 0.604346
O O9 0.251929 0.762091 0.577292
O O10 0.350683 0.000000 0.610181
O O11 0.799395 0.779694 0.500000
O O12 0.000000 0.771969 0.447823
O O13 0.845296 0.000000 0.453523
O O14 0.180354 0.500000 0.856092
O O15 0.209180 0.758472 0.884181
O O16 0.000000 0.699413 0.836588
O O17 0.219254 0.747288 0.961477
O O18 0.000000 0.840384 0.926396
O O19 0.220037 0.000000 0.925228
O O20 0.781502 0.500000 0.000000
O O21 0.000000 0.338140 0.000000
#
# Coordination Sequence:
#
# PCOD8200891 Si02
#       7
#     8   8   8   8   8   8   4
#     4   9  17  29  45  63  81 104 137 172 201 236
#     4   8  14  25  40  57  78 103 129 160 200 241
#     4   8  13  21  33  48  66  91 123 155 187 227
#     4   8  13  20  29  43  67  98 126 152 187 230
#     4   9  17  29  43  59  82 110 135 162 202 246
#     4   9  16  25  38  58  84 111 139 173 209 243
#     4   9  15  23  37  57  82 113 146 175 206 248
#
# _framework density 16.928498999999999
#
# number of rings (size 3 to 8) (size 9 to 14) (size 15 to 20)
#    0.000    3.462    0.000    2.077    0.000    3.692 
#    0.000    2.308    0.000    0.923    0.000    0.538 
#    0.000    4.923    0.000    7.692    0.000    8.923 
#
# Total GULP energy -644465.053702 kJ/mol
# GULP energy per Si atom -12393.558725 kJ/mol
# Density = 1.688997 g / cm^3
# Si number density = 16.928499 Si / 1000 Ang^3
#
#
#
# Elastic Constant Matrix: (Units=GPa)
#
#
# Indices 1 2 3 4 5 6 
#
# 1 49.1739 22.1667 63.6867 0.0000 0.0000 0.0000
# 2 22.1667 56.7088 59.9008 0.0000 0.0000 0.0000
# 3 63.6867 59.9008 193.9420 0.0000 0.0000 0.0000
# 4 0.0000 0.0000 0.0000 11.4006 0.0000 0.0000
# 5 0.0000 0.0000 0.0000 0.0000 23.0045 0.0000
# 6 0.0000 0.0000 0.0000 0.0000 0.0000 8.0884
#
#
#
# Elastic Compliance Matrix: (Units=1/GPa)
#
#
# Indices 1 2 3 4 5 6 
#
# 1 0.035591 -0.002325 -0.010969 0.000000 0.000000 0.000000
# 2 -0.002325 0.026325 -0.007367 0.000000 0.000000 0.000000
# 3 -0.010969 -0.007367 0.011034 0.000000 0.000000 0.000000
# 4 0.000000 0.000000 0.000000 0.087715 0.000000 0.000000
# 5 0.000000 0.000000 0.000000 0.000000 0.043470 0.000000
# 6 0.000000 0.000000 0.000000 0.000000 0.000000 0.123634
#
#
# Mechanical properties :
#
#
# Convention : Reuss Voigt Hill
#
# Bulk Modulus (GPa) = 31.61968 65.70367 48.66168
# Shear Modulus (GPa) = 13.17066 18.77006 15.97036
#
# Velocity S-wave (km/s) = 2.79232 3.33345 3.07481
# Velocity P-wave (km/s) = 5.39583 7.32889 6.43536
#
# Compressibility (1/GPa) = 0.03162587
#
# Stress axis : x y z
#
# Youngs Moduli (GPa) = 28.09733 37.98728 90.63275
#
# Poissons Ratio (x) = 0.08834 0.99415
# Poissons Ratio (y) = 0.06534 0.66769
# Poissons Ratio (z) = 0.30820 0.27985
#
# Static dielectric constant tensor:
#      x y z
#    x 2.921940 0.000000 0.000000 
#    y 0.000000 2.954270 0.000000 
#    z 0.000000 0.000000 3.537120 
# 
# 
# High freq. dielectric constant tensor:
#      x y z
#    x 1.605780 0.000000 0.000000 
#    y 0.000000 1.619390 0.000000 
#    z 0.000000 0.000000 1.670010 
# 
# From -- ./inp_files/33248.got.cif
#   From: 2010.03.12/outbox.cif.g09.slc.cpg/sg47_17_cif.got.tgz:33248.got - 2010.04.14 03:12:58.
