data_PCOD8200644
_publ_section_title
;
Structure prediction by ZEFSAII (Michael W. Deem and Ramdas Pophale) SiO2 
 PCOD8200644
Probable space group: P M M M
;
_chemical_formula_sum "Si O2"
_cell_formula_units_Z 48
_cell_length_a 14.430888
_cell_length_b 9.839723
_cell_length_c 16.851838
_cell_angle_alpha 90.000000
_cell_angle_beta 90.000000
_cell_angle_gamma 90.000000
_cell_volume 2392.892587
_symmetry_space_group_name_H-M "P M M M"
_symmetry_group_IT_number 47
_symmetry_cell_setting 'orthorhombic'
loop_
_space_group_symop_operation_xyz
x,y,z
-x,-y,z
x,-y,-z
-x,y,-z
-x,-y,-z
x,y,-z
-x,y,z
x,-y,z
loop_
_atom_site_type_symbol
_atom_site_label
_atom_site_fract_x
_atom_site_fract_y
_atom_site_fract_z
Si Si1 0.290311 0.757052 0.660942
Si Si2 0.104830 0.658805 0.592401
Si Si3 0.149030 0.853015 0.091804
Si Si4 0.398162 0.000000 0.590753
Si Si5 0.339751 0.157291 0.836227
Si Si6 0.000000 0.650239 0.905152
Si Si7 0.500000 0.338839 0.905961
Si Si8 0.610258 0.500000 0.407578
O O1 0.180752 0.742603 0.642406
O O2 0.336140 0.871376 0.608296
O O3 0.300879 0.797170 0.751935
O O4 0.348140 0.625151 0.639428
O O5 0.119723 0.691046 0.500000
O O6 0.120448 0.500000 0.608658
O O7 0.000000 0.700962 0.617850
O O8 0.257276 0.826687 0.101435
O O9 0.089335 0.730476 0.128821
O O10 0.122670 0.000000 0.130347
O O11 0.124300 0.859058 0.000000
O O12 0.500000 0.000000 0.635291
O O13 0.422688 0.000000 0.500000
O O14 0.413824 0.265015 0.865932
O O15 0.376350 0.000000 0.833354
O O16 0.000000 0.500000 0.867254
O O17 0.000000 0.638667 0.000000
O O18 0.500000 0.500000 0.886157
O O19 0.500000 0.314415 0.000000
O O20 0.500000 0.500000 0.400562
O O21 0.641495 0.500000 0.500000
#
# Coordination Sequence:
#
# PCOD8200644 Si02
#       8
#     8   8   8   4   8   4   4   4
#     4  12  23  39  63  93 129 169 216 272 326 386
#     4   9  18  36  63  91 121 165 221 276 331 397
#     4   9  18  36  61  85 112 157 211 249 293 371
#     4  11  24  40  61  89 129 173 211 260 319 381
#     4  11  25  42  64  92 130 174 209 257 319 377
#     4   9  17  31  55  89 121 149 188 251 316 367
#     4  11  27  47  71 101 130 167 216 265 314 377
#     4  11  24  40  63  93 125 167 219 266 317 387
#
# _framework density 20.059405999999999
#
# number of rings (size 3 to 8) (size 9 to 14) (size 15 to 20)
#    0.000    1.667    1.667    3.500    3.500    4.333 
#    1.500    2.083    0.000    1.500    0.000    0.000 
#    0.000    0.000    0.000    0.000    0.000    0.000 
#
# Total GULP energy -594952.262113 kJ/mol
# GULP energy per Si atom -12394.838794 kJ/mol
# Density = 2.001375 g / cm^3
# Si number density = 20.059406 Si / 1000 Ang^3
#
#
#
# Elastic Constant Matrix: (Units=GPa)
#
#
# Indices 1 2 3 4 5 6 
#
# 1 157.9950 85.5879 34.8023 0.0000 0.0000 0.0000
# 2 85.5879 169.5664 33.7138 0.0000 0.0000 0.0000
# 3 34.8023 33.7138 60.0970 0.0000 0.0000 0.0000
# 4 0.0000 0.0000 0.0000 46.3245 0.0000 0.0000
# 5 0.0000 0.0000 0.0000 0.0000 19.5856 0.0000
# 6 0.0000 0.0000 0.0000 0.0000 0.0000 -45.1722
#
#
#
# Elastic Compliance Matrix: (Units=1/GPa)
#
#
# Indices 1 2 3 4 5 6 
#
# 1 0.009185 -0.004028 -0.003060 0.000000 0.000000 0.000000
# 2 -0.004028 0.008404 -0.002382 0.000000 0.000000 0.000000
# 3 -0.003060 -0.002382 0.019748 0.000000 0.000000 0.000000
# 4 0.000000 0.000000 0.000000 0.021587 0.000000 0.000000
# 5 0.000000 0.000000 0.000000 0.000000 0.051058 0.000000
# 6 0.000000 0.000000 0.000000 0.000000 0.000000 -0.022138
#
#
# Mechanical properties :
#
#
# Convention : Reuss Voigt Hill
#
# Bulk Modulus (GPa) = 54.35326 77.31850 65.83588
# Shear Modulus (GPa) = 44.28063 19.71786 31.99924
#
# Velocity S-wave (km/s) = 4.70347 3.13864 3.99836
# Velocity P-wave (km/s) = 7.52674 7.19466 7.36258
#
# Compressibility (1/GPa) = 0.01839816
#
# Stress axis : x y z
#
# Youngs Moduli (GPa) = 108.87059 118.99018 50.63834
#
# Poissons Ratio (x) = 0.47928 0.15493
# Poissons Ratio (y) = 0.43852 0.12062
# Poissons Ratio (z) = 0.33310 0.28344
#
# Static dielectric constant tensor:
#      x y z
#    x 3.838750 0.000000 0.000000 
#    y 0.000000 3.636290 0.000000 
#    z 0.000000 0.000000 3.478250 
# 
# 
# High freq. dielectric constant tensor:
#      x y z
#    x 1.797870 0.000000 0.000000 
#    y 0.000000 1.790160 0.000000 
#    z 0.000000 0.000000 1.764690 
# 
# From -- ./inp_files/28086.got.cif
#   From: 2010.03.12/outbox.cif.g09.slc.cpg/sg47_15_cif.got.tgz:28086.got - 2010.04.14 03:12:58.
