data_PCOD8200640
_publ_section_title
;
Structure prediction by ZEFSAII (Michael W. Deem and Ramdas Pophale) SiO2 
 PCOD8200640
Probable space group: P M M M
;
_chemical_formula_sum "Si O2"
_cell_formula_units_Z 48
_cell_length_a 8.986226
_cell_length_b 20.213318
_cell_length_c 14.256859
_cell_angle_alpha 90.000000
_cell_angle_beta 90.000000
_cell_angle_gamma 90.000000
_cell_volume 2589.636452
_symmetry_space_group_name_H-M "P M M M"
_symmetry_group_IT_number 47
_symmetry_cell_setting 'orthorhombic'
loop_
_space_group_symop_operation_xyz
x,y,z
-x,-y,z
x,-y,-z
-x,y,-z
-x,-y,-z
x,y,-z
-x,y,z
x,-y,z
loop_
_atom_site_type_symbol
_atom_site_label
_atom_site_fract_x
_atom_site_fract_y
_atom_site_fract_z
Si Si1 0.329772 0.076175 0.391410
Si Si2 0.670388 0.772414 0.105892
Si Si3 0.174562 0.810926 0.714966
Si Si4 0.670409 0.382473 0.105876
Si Si5 0.170202 0.575053 0.284141
Si Si6 0.325168 0.309862 0.391272
O O1 0.294677 0.089190 0.500000
O O2 0.500000 0.096121 0.369629
O O3 0.218460 0.119379 0.330013
O O4 0.301883 0.000000 0.365612
O O5 0.500000 0.793962 0.121538
O O6 0.775369 0.812358 0.176624
O O7 0.688122 0.694965 0.126052
O O8 0.720550 0.789252 0.000000
O O9 0.253064 0.751518 0.661021
O O10 0.000000 0.800643 0.708362
O O11 0.500000 0.404094 0.121258
O O12 0.774511 0.421981 0.176901
O O13 0.720550 0.399489 0.000000
O O14 0.185980 0.500000 0.320311
O O15 0.267112 0.620854 0.351583
O O16 0.000000 0.598970 0.287696
O O17 0.283210 0.305288 0.500000
O O18 0.500000 0.306630 0.373888
#
# Coordination Sequence:
#
# PCOD8200640 Si02
#       6
#     8   8   8   8   8   8
#     4   9  19  37  60  85 115 154 197 234 269 317
#     4   9  18  34  57  83 111 145 186 230 273 322
#     4  12  23  34  56  89 121 150 180 223 281 335
#     4   9  18  34  57  82 107 140 183 228 273 325
#     4  11  24  39  55  79 111 144 178 224 285 344
#     4  11  24  41  60  80 104 140 189 237 275 322
#
# _framework density 18.535420999999999
#
# number of rings (size 3 to 8) (size 9 to 14) (size 15 to 20)
#    0.000    1.833    1.667    4.500    0.000    6.667 
#    0.000    5.833    0.000    0.500    0.000    3.500 
#    0.000    0.000    0.000    0.000    0.000    0.000 
#
# Total GULP energy -595358.808416 kJ/mol
# GULP energy per Si atom -12403.308509 kJ/mol
# Density = 1.849323 g / cm^3
# Si number density = 18.535421 Si / 1000 Ang^3
#
#
#
# Elastic Constant Matrix: (Units=GPa)
#
#
# Indices 1 2 3 4 5 6 
#
# 1 91.5554 39.3778 64.9102 0.0000 0.0000 0.0000
# 2 39.3778 78.7441 49.9193 0.0000 0.0000 0.0000
# 3 64.9102 49.9193 115.2365 0.0000 0.0000 0.0000
# 4 0.0000 0.0000 0.0000 27.9918 0.0000 0.0000
# 5 0.0000 0.0000 0.0000 0.0000 6.7793 0.0000
# 6 0.0000 0.0000 0.0000 0.0000 0.0000 28.1974
#
#
#
# Elastic Compliance Matrix: (Units=1/GPa)
#
#
# Indices 1 2 3 4 5 6 
#
# 1 0.018949 -0.003735 -0.009055 0.000000 0.000000 0.000000
# 2 -0.003735 0.018243 -0.005799 0.000000 0.000000 0.000000
# 3 -0.009055 -0.005799 0.016291 0.000000 0.000000 0.000000
# 4 0.000000 0.000000 0.000000 0.035725 0.000000 0.000000
# 5 0.000000 0.000000 0.000000 0.000000 0.147508 0.000000
# 6 0.000000 0.000000 0.000000 0.000000 0.000000 0.035464
#
#
# Mechanical properties :
#
#
# Convention : Reuss Voigt Hill
#
# Bulk Modulus (GPa) = 61.33549 65.99453 63.66501
# Shear Modulus (GPa) = 15.88343 21.34894 18.61619
#
# Velocity S-wave (km/s) = 2.93050 3.39749 3.17260
# Velocity P-wave (km/s) = 6.67931 7.14650 6.91685
#
# Compressibility (1/GPa) = 0.01630377
#
# Stress axis : x y z
#
# Youngs Moduli (GPa) = 52.77342 54.81433 61.38515
#
# Poissons Ratio (x) = 0.20474 0.55587
# Poissons Ratio (y) = 0.19712 0.35597
# Poissons Ratio (z) = 0.47789 0.31786
#
# Static dielectric constant tensor:
#      x y z
#    x 3.377990 0.000000 0.000000 
#    y 0.000000 3.245450 0.000000 
#    z 0.000000 0.000000 3.548590 
# 
# 
# High freq. dielectric constant tensor:
#      x y z
#    x 1.718290 0.000000 0.000000 
#    y 0.000000 1.704940 0.000000 
#    z 0.000000 0.000000 1.725770 
# 
# From -- ./inp_files/6348.got.cif
#   From: 2010.03.12/outbox.cif.g09.slc.cpg/sg47_4_cif.got.tgz:6348.got - 2010.04.14 03:12:58.
