data_PCOD8200025
_publ_section_title
;
Structure prediction by ZEFSAII (Michael W. Deem and Ramdas Pophale) SiO2 
 PCOD8200025
Probable space group: P M M M
;
_chemical_formula_sum "Si O2"
_cell_formula_units_Z 64
_cell_length_a 15.351084
_cell_length_b 9.034960
_cell_length_c 24.876571
_cell_angle_alpha 90.000000
_cell_angle_beta 90.000000
_cell_angle_gamma 90.000000
_cell_volume 3450.291586
_symmetry_space_group_name_H-M "P M M M"
_symmetry_group_IT_number 47
_symmetry_cell_setting 'orthorhombic'
loop_
_space_group_symop_operation_xyz
x,y,z
-x,-y,z
x,-y,-z
-x,y,-z
-x,-y,-z
x,y,-z
-x,y,z
x,-y,z
loop_
_atom_site_type_symbol
_atom_site_label
_atom_site_fract_x
_atom_site_fract_y
_atom_site_fract_z
Si Si1 0.902528 0.670222 0.868074
Si Si2 0.218596 0.329768 0.355807
Si Si3 0.594358 0.670268 0.679023
Si Si4 0.403960 0.329987 0.106574
Si Si5 0.633828 0.174454 0.213643
Si Si6 0.097153 0.825137 0.560490
Si Si7 0.240849 0.170452 0.061427
Si Si8 0.805056 0.668257 0.764826
O O1 0.890702 0.500000 0.885376
O O2 0.834929 0.766335 0.901349
O O3 0.888426 0.686431 0.803486
O O4 0.000000 0.725922 0.880641
O O5 0.206522 0.500000 0.371211
O O6 0.321699 0.284524 0.356820
O O7 0.169936 0.235658 0.400085
O O8 0.175449 0.294415 0.297557
O O9 0.500000 0.690808 0.649046
O O10 0.607460 0.500000 0.696569
O O11 0.589874 0.769545 0.731897
O O12 0.500000 0.319535 0.079259
O O13 0.375977 0.500000 0.115003
O O14 0.412713 0.250497 0.163727
O O15 0.332328 0.253121 0.069239
O O16 0.734944 0.218076 0.211907
O O17 0.622389 0.000000 0.209345
O O18 0.118085 0.771038 0.500000
O O19 0.000000 0.770297 0.576995
O O20 0.100597 0.000000 0.563279
O O21 0.255146 0.000000 0.076899
O O22 0.211178 0.189609 0.000000
O O23 0.768444 0.500000 0.767685
#
# Coordination Sequence:
#
# PCOD8200025 Si02
#       8
#     8   8   8   8   8   8   8   8
#     4  10  21  38  62  87 110 143 185 223 264 324
#     4   9  18  31  52  83 112 140 180 227 270 315
#     4   9  18  33  51  73 108 151 187 219 262 318
#     4  11  23  38  58  82 108 141 180 221 269 329
#     4  11  20  30  50  80 112 143 179 221 265 314
#     4   9  19  36  55  75 104 144 187 229 275 327
#     4  11  25  43  61  82 109 140 177 228 282 328
#     4   9  18  34  54  78 113 149 179 215 266 323
#
# _framework density 18.549157999999998
#
# number of rings (size 3 to 8) (size 9 to 14) (size 15 to 20)
#    0.000    2.125    1.250    3.375    0.000    7.500 
#    0.000    4.375    0.000    0.375    0.000    2.625 
#    0.000    0.000    0.000    0.000    0.000    0.000 
#
# Total GULP energy -793297.014756 kJ/mol
# GULP energy per Si atom -12395.265856 kJ/mol
# Density = 1.850694 g / cm^3
# Si number density = 18.549158 Si / 1000 Ang^3
#
#
#
# Elastic Constant Matrix: (Units=GPa)
#
#
# Indices 1 2 3 4 5 6 
#
# 1 131.7864 49.9952 63.7316 0.0000 0.0000 0.0000
# 2 49.9952 95.0748 40.3776 0.0000 0.0000 0.0000
# 3 63.7316 40.3776 90.6698 0.0000 0.0000 0.0000
# 4 0.0000 0.0000 0.0000 24.5075 0.0000 0.0000
# 5 0.0000 0.0000 0.0000 0.0000 11.1913 0.0000
# 6 0.0000 0.0000 0.0000 0.0000 0.0000 11.9021
#
#
#
# Elastic Compliance Matrix: (Units=1/GPa)
#
#
# Indices 1 2 3 4 5 6 
#
# 1 0.012356 -0.003464 -0.007143 0.000000 0.000000 0.000000
# 2 -0.003464 0.013942 -0.003774 0.000000 0.000000 0.000000
# 3 -0.007143 -0.003774 0.017730 0.000000 0.000000 0.000000
# 4 0.000000 0.000000 0.000000 0.040804 0.000000 0.000000
# 5 0.000000 0.000000 0.000000 0.000000 0.089355 0.000000
# 6 0.000000 0.000000 0.000000 0.000000 0.000000 0.084019
#
#
# Mechanical properties :
#
#
# Convention : Reuss Voigt Hill
#
# Bulk Modulus (GPa) = 65.49845 69.52665 67.51255
# Shear Modulus (GPa) = 17.11993 20.41529 18.76761
#
# Velocity S-wave (km/s) = 3.04130 3.32114 3.18429
# Velocity P-wave (km/s) = 6.90797 7.22982 7.07073
#
# Compressibility (1/GPa) = 0.01526754
#
# Stress axis : x y z
#
# Youngs Moduli (GPa) = 80.93003 71.72334 56.40107
#
# Poissons Ratio (x) = 0.24846 0.40285
# Poissons Ratio (y) = 0.28036 0.21286
# Poissons Ratio (z) = 0.57805 0.27068
#
# Static dielectric constant tensor:
#      x y z
#    x 3.532630 0.000000 0.000000 
#    y 0.000000 3.350260 0.000000 
#    z 0.000000 0.000000 3.238560 
# 
# 
# High freq. dielectric constant tensor:
#      x y z
#    x 1.725880 0.000000 0.000000 
#    y 0.000000 1.717410 0.000000 
#    z 0.000000 0.000000 1.696040 
# 
# From -- ./inp_files/32772.got.cif
#   From: 2010.03.12/outbox.cif.g09.slc.cpg/sg47_17_cif.got.tgz:32772.got - 2010.04.14 03:12:58.
