data_PCOD8200042
_publ_section_title
;
Structure prediction by ZEFSAII (Michael W. Deem and Ramdas Pophale) SiO2 
 PCOD8200042
Probable space group: P M M M
;
_chemical_formula_sum "Si O2"
_cell_formula_units_Z 64
_cell_length_a 25.001435
_cell_length_b 14.881365
_cell_length_c 8.723970
_cell_angle_alpha 90.000000
_cell_angle_beta 90.000000
_cell_angle_gamma 90.000000
_cell_volume 3245.800844
_symmetry_space_group_name_H-M "P M M M"
_symmetry_group_IT_number 47
_symmetry_cell_setting 'orthorhombic'
loop_
_space_group_symop_operation_xyz
x,y,z
-x,-y,z
x,-y,-z
-x,y,-z
-x,-y,-z
x,y,-z
-x,y,z
x,-y,z
loop_
_atom_site_type_symbol
_atom_site_label
_atom_site_fract_x
_atom_site_fract_y
_atom_site_fract_z
Si Si1 0.791926 0.099507 0.829088
Si Si2 0.440820 0.598461 0.818111
Si Si3 0.439582 0.104531 0.678475
Si Si4 0.058727 0.711080 0.818319
Si Si5 0.249665 0.730853 0.677825
Si Si6 0.365145 0.248105 0.818660
Si Si7 0.918126 0.903966 0.172494
Si Si8 0.161356 0.602944 0.817724
O O1 0.772564 0.169270 0.702975
O O2 0.854981 0.100670 0.829677
O O3 0.770495 0.000000 0.786263
O O4 0.771204 0.126356 0.000000
O O5 0.500000 0.614886 0.750875
O O6 0.419936 0.500000 0.768498
O O7 0.401913 0.672929 0.750383
O O8 0.442811 0.605746 0.000000
O O9 0.431767 0.125104 0.500000
O O10 0.500000 0.133264 0.729360
O O11 0.393333 0.155062 0.772318
O O12 0.431466 0.000000 0.713275
O O13 0.060816 0.812632 0.746396
O O14 0.106441 0.648561 0.752859
O O15 0.000000 0.669967 0.778159
O O16 0.066757 0.718329 0.000000
O O17 0.250565 0.707922 0.500000
O O18 0.308678 0.732062 0.743929
O O19 0.213106 0.656116 0.759298
O O20 0.358430 0.250626 0.000000
O O21 0.935859 0.000000 0.251316
O O22 0.940452 0.905591 0.000000
O O23 0.163348 0.500000 0.759068
O O24 0.161794 0.606112 0.000000
#
# Coordination Sequence:
#
# PCOD8200042 Si02
#       8
#     8   8   8   8   8   8   8   8
#     4   9  17  33  58  82 106 140 182 226 270 323
#     4   8  15  30  53  81 110 136 165 208 264 323
#     4   9  19  37  59  83 117 161 201 237 284 340
#     4   9  16  27  49  83 118 145 176 226 285 343
#     4  12  25  39  56  79 111 149 189 236 288 345
#     4  11  22  35  56  85 114 145 188 237 284 337
#     4   8  13  23  44  75 110 143 172 210 263 321
#     4  10  21  39  61  81 107 145 190 240 292 346
#
# _framework density 19.717784000000002
#
# number of rings (size 3 to 8) (size 9 to 14) (size 15 to 20)
#    0.000    2.500    1.250    3.375    0.000    3.000 
#    0.000    4.375    0.000    1.500    0.000    5.250 
#    0.000    2.000    0.000    0.000    0.000    0.000 
#
# Total GULP energy -793016.954331 kJ/mol
# GULP energy per Si atom -12390.889911 kJ/mol
# Density = 1.967291 g / cm^3
# Si number density = 19.717784 Si / 1000 Ang^3
#
#
#
# Elastic Constant Matrix: (Units=GPa)
#
#
# Indices 1 2 3 4 5 6 
#
# 1 125.7264 68.9582 18.5631 0.0000 0.0000 0.0000
# 2 68.9582 140.2251 22.3505 0.0000 0.0000 0.0000
# 3 18.5631 22.3505 32.0256 0.0000 0.0000 0.0000
# 4 0.0000 0.0000 0.0000 12.3505 0.0000 0.0000
# 5 0.0000 0.0000 0.0000 0.0000 9.0580 0.0000
# 6 0.0000 0.0000 0.0000 0.0000 0.0000 10.6628
#
#
#
# Elastic Compliance Matrix: (Units=1/GPa)
#
#
# Indices 1 2 3 4 5 6 
#
# 1 0.011136 -0.005004 -0.002962 0.000000 0.000000 0.000000
# 2 -0.005004 0.010273 -0.004269 0.000000 0.000000 0.000000
# 3 -0.002962 -0.004269 0.035921 0.000000 0.000000 0.000000
# 4 0.000000 0.000000 0.000000 0.080968 0.000000 0.000000
# 5 0.000000 0.000000 0.000000 0.000000 0.110400 0.000000
# 6 0.000000 0.000000 0.000000 0.000000 0.000000 0.093784
#
#
# Mechanical properties :
#
#
# Convention : Reuss Voigt Hill
#
# Bulk Modulus (GPa) = 30.43273 57.52453 43.97863
# Shear Modulus (GPa) = 13.23086 18.95462 16.09274
#
# Velocity S-wave (km/s) = 2.59320 3.10384 2.85994
# Velocity P-wave (km/s) = 4.94307 6.48709 5.76699
#
# Compressibility (1/GPa) = 0.03285935
#
# Stress axis : x y z
#
# Youngs Moduli (GPa) = 89.80064 97.34623 27.83874
#
# Poissons Ratio (x) = 0.48713 0.08247
# Poissons Ratio (y) = 0.44937 0.11883
# Poissons Ratio (z) = 0.26602 0.41554
#
# Static dielectric constant tensor:
#      x y z
#    x -21.126850 0.000000 0.000000 
#    y 0.000000 13.313950 0.000000 
#    z 0.000000 0.000000 3.124190 
# 
# 
# High freq. dielectric constant tensor:
#      x y z
#    x 1.773790 0.000000 0.000000 
#    y 0.000000 1.780930 0.000000 
#    z 0.000000 0.000000 1.712550 
# 
# From -- ./inp_files/12771.got.cif
#   From: 2010.03.12/outbox.cif.g09.slc.cpg/sg47_7_cif.got.tgz:12771.got - 2010.04.14 03:12:58.
