data_PCOD8200523
_publ_section_title
;
Structure prediction by ZEFSAII (Michael W. Deem and Ramdas Pophale) SiO2 
 PCOD8200523
Probable space group: P M M M
;
_chemical_formula_sum "Si O2"
_cell_formula_units_Z 60
_cell_length_a 23.021016
_cell_length_b 18.329434
_cell_length_c 9.339451
_cell_angle_alpha 90.000000
_cell_angle_beta 90.000000
_cell_angle_gamma 90.000000
_cell_volume 3940.895229
_symmetry_space_group_name_H-M "P M M M"
_symmetry_group_IT_number 47
_symmetry_cell_setting 'orthorhombic'
loop_
_space_group_symop_operation_xyz
x,y,z
-x,-y,z
x,-y,-z
-x,y,-z
-x,-y,-z
x,y,-z
-x,y,z
x,-y,z
loop_
_atom_site_type_symbol
_atom_site_label
_atom_site_fract_x
_atom_site_fract_y
_atom_site_fract_z
Si Si1 0.232191 0.791979 0.835981
Si Si2 0.065485 0.417413 0.331772
Si Si3 0.604526 0.151766 0.337288
Si Si4 0.164750 0.345424 0.838333
Si Si5 0.500000 0.084176 0.830559
Si Si6 0.330581 0.708602 0.666012
Si Si7 0.729118 0.083830 0.334676
Si Si8 0.713773 0.415691 0.832598
O O1 0.174429 0.742187 0.828977
O O2 0.279446 0.751045 0.742664
O O3 0.224728 0.871518 0.763446
O O4 0.253036 0.800461 0.000000
O O5 0.073351 0.410103 0.500000
O O6 0.078842 0.500000 0.282579
O O7 0.109799 0.362678 0.258260
O O8 0.000000 0.395961 0.287042
O O9 0.585321 0.134199 0.500000
O O10 0.556489 0.124327 0.228528
O O11 0.612538 0.239747 0.318802
O O12 0.663768 0.109331 0.300814
O O13 0.221819 0.389716 0.786081
O O14 0.150547 0.369295 0.000000
O O15 0.500000 0.000000 0.781531
O O16 0.500000 0.091432 0.000000
O O17 0.315305 0.696344 0.500000
O O18 0.335285 0.629902 0.744529
O O19 0.744203 0.098098 0.500000
O O20 0.735672 0.000000 0.292434
O O21 0.705716 0.500000 0.793458
O O22 0.704259 0.400225 0.000000
#
# Coordination Sequence:
#
# PCOD8200523 Si02
#       8
#     8   8   8   8   4   8   8   8
#     4   9  17  28  41  59  84 112 140 171 209 251
#     4   9  18  30  41  56  80 109 142 179 215 248
#     4   9  18  32  47  61  82 114 144 170 204 244
#     4   9  17  28  41  58  82 112 144 175 205 242
#     4  11  23  33  43  65  90 109 138 177 207 238
#     4   9  17  29  44  62  83 109 143 176 207 248
#     4   9  17  29  45  65  87 111 141 173 204 244
#     4   9  17  28  42  63  90 115 139 171 212 254
#
# _framework density 15.224966
#
# number of rings (size 3 to 8) (size 9 to 14) (size 15 to 20)
#    0.000    2.867    0.000    3.800    0.000    8.000 
#    0.000    0.667    0.000    0.000    0.000    0.467 
#    0.000    4.267    0.000    5.867    0.000    4.267 
#
# Total GULP energy -743626.333835 kJ/mol
# GULP energy per Si atom -12393.772231 kJ/mol
# Density = 1.519031 g / cm^3
# Si number density = 15.224966 Si / 1000 Ang^3
#
#
#
# Elastic Constant Matrix: (Units=GPa)
#
#
# Indices 1 2 3 4 5 6 
#
# 1 54.5116 43.5404 39.6955 0.0000 0.0000 0.0000
# 2 43.5404 122.1026 59.1483 0.0000 0.0000 0.0000
# 3 39.6955 59.1483 79.0594 0.0000 0.0000 0.0000
# 4 0.0000 0.0000 0.0000 30.0876 0.0000 0.0000
# 5 0.0000 0.0000 0.0000 0.0000 20.6743 0.0000
# 6 0.0000 0.0000 0.0000 0.0000 0.0000 20.4157
#
#
#
# Elastic Compliance Matrix: (Units=1/GPa)
#
#
# Indices 1 2 3 4 5 6 
#
# 1 0.031134 -0.005536 -0.011491 0.000000 0.000000 0.000000
# 2 -0.005536 0.013829 -0.007567 0.000000 0.000000 0.000000
# 3 -0.011491 -0.007567 0.024079 0.000000 0.000000 0.000000
# 4 0.000000 0.000000 0.000000 0.033236 0.000000 0.000000
# 5 0.000000 0.000000 0.000000 0.000000 0.048369 0.000000
# 6 0.000000 0.000000 0.000000 0.000000 0.000000 0.048982
#
#
# Mechanical properties :
#
#
# Convention : Reuss Voigt Hill
#
# Bulk Modulus (GPa) = 50.36294 60.04911 55.20603
# Shear Modulus (GPa) = 19.57442 21.78815 20.68128
#
# Velocity S-wave (km/s) = 3.58953 3.78707 3.68962
# Velocity P-wave (km/s) = 7.09441 7.65828 7.38173
#
# Compressibility (1/GPa) = 0.01985587
#
# Stress axis : x y z
#
# Youngs Moduli (GPa) = 32.11933 72.30996 41.52929
#
# Poissons Ratio (x) = 0.40029 0.47720
# Poissons Ratio (y) = 0.17780 0.31425
# Poissons Ratio (z) = 0.36907 0.54717
#
# Static dielectric constant tensor:
#      x y z
#    x 2.674690 0.000000 0.000000 
#    y 0.000000 3.416200 0.000000 
#    z 0.000000 0.000000 3.045420 
# 
# 
# High freq. dielectric constant tensor:
#      x y z
#    x 1.536840 0.000000 0.000000 
#    y 0.000000 1.585060 0.000000 
#    z 0.000000 0.000000 1.593250 
# 
# From -- ./inp_files/12870.got.cif
#   From: 2010.03.12/outbox.cif.g09.slc.cpg/sg47_7_cif.got.tgz:12870.got - 2010.04.14 03:12:58.
