data_PCOD8200474
_publ_section_title
;
Structure prediction by ZEFSAII (Michael W. Deem and Ramdas Pophale) SiO2 
 PCOD8200474
Probable space group: P M M M
;
_chemical_formula_sum "Si O2"
_cell_formula_units_Z 52
_cell_length_a 9.711375
_cell_length_b 13.745064
_cell_length_c 21.458854
_cell_angle_alpha 90.000000
_cell_angle_beta 90.000000
_cell_angle_gamma 90.000000
_cell_volume 2864.402314
_symmetry_space_group_name_H-M "P M M M"
_symmetry_group_IT_number 47
_symmetry_cell_setting 'orthorhombic'
loop_
_space_group_symop_operation_xyz
x,y,z
-x,-y,z
x,-y,-z
-x,y,-z
-x,-y,-z
x,y,-z
-x,y,z
x,-y,z
loop_
_atom_site_type_symbol
_atom_site_label
_atom_site_fract_x
_atom_site_fract_y
_atom_site_fract_z
Si Si1 0.334830 0.219082 0.124110
Si Si2 0.500000 0.884219 0.427458
Si Si3 0.843143 0.611570 0.840516
Si Si4 0.840037 0.390960 0.694882
Si Si5 0.000000 0.107912 0.572365
Si Si6 0.337709 0.891890 0.000000
Si Si7 0.240155 0.803809 0.358237
Si Si8 0.157271 0.113699 0.227089
O O1 0.500000 0.224449 0.132908
O O2 0.268253 0.326440 0.120740
O O3 0.265125 0.163415 0.181134
O O4 0.289873 0.165230 0.061126
O O5 0.500000 0.852350 0.500000
O O6 0.377681 0.838499 0.389297
O O7 0.500000 0.000000 0.422418
O O8 0.816038 0.500000 0.857612
O O9 0.818194 0.630593 0.767587
O O10 0.000000 0.640399 0.858181
O O11 0.788235 0.500000 0.678361
O O12 0.754027 0.311981 0.655742
O O13 0.000000 0.380243 0.677972
O O14 0.871094 0.172349 0.590139
O O15 0.000000 0.090766 0.500000
O O16 0.000000 0.000000 0.604500
O O17 0.500000 0.901584 0.000000
O O18 0.271363 0.000000 0.000000
O O19 0.205206 0.863912 0.296539
O O20 0.000000 0.152254 0.217051
O O21 0.163715 0.000000 0.214632
#
# Coordination Sequence:
#
# PCOD8200474 Si02
#       8
#     8   4   8   8   4   4   8   8
#     4  11  22  36  59  85 115 153 197 246 291 346
#     4  11  26  44  59  81 121 164 197 236 292 359
#     4   9  18  35  58  84 118 156 191 236 295 353
#     4   9  17  33  59  88 115 147 189 238 293 347
#     4  11  22  36  57  83 111 152 201 236 278 349
#     4   9  20  40  58  77 112 162 207 235 278 351
#     4  12  21  37  60  85 116 151 195 244 295 343
#     4  11  22  35  54  85 120 149 185 245 303 350
#
# _framework density 18.153874999999999
#
# number of rings (size 3 to 8) (size 9 to 14) (size 15 to 20)
#    0.000    1.615    3.077    3.692    1.077    2.462 
#    0.000    2.308    0.000    7.846    0.000    0.000 
#    0.000    0.000    0.000    0.000    0.000    0.000 
#
# Total GULP energy -644659.602471 kJ/mol
# GULP energy per Si atom -12397.300048 kJ/mol
# Density = 1.811256 g / cm^3
# Si number density = 18.153875 Si / 1000 Ang^3
#
#
#
# Elastic Constant Matrix: (Units=GPa)
#
#
# Indices 1 2 3 4 5 6 
#
# 1 126.1426 61.1342 50.9328 0.0000 0.0000 0.0000
# 2 61.1342 135.1114 51.3742 0.0000 0.0000 0.0000
# 3 50.9328 51.3742 82.7946 0.0000 0.0000 0.0000
# 4 0.0000 0.0000 0.0000 26.5356 0.0000 0.0000
# 5 0.0000 0.0000 0.0000 0.0000 25.5557 0.0000
# 6 0.0000 0.0000 0.0000 0.0000 0.0000 31.7133
#
#
#
# Elastic Compliance Matrix: (Units=1/GPa)
#
#
# Indices 1 2 3 4 5 6 
#
# 1 0.011579 -0.003312 -0.005068 0.000000 0.000000 0.000000
# 2 -0.003312 0.010634 -0.004561 0.000000 0.000000 0.000000
# 3 -0.005068 -0.004561 0.018026 0.000000 0.000000 0.000000
# 4 0.000000 0.000000 0.000000 0.037685 0.000000 0.000000
# 5 0.000000 0.000000 0.000000 0.000000 0.039130 0.000000
# 6 0.000000 0.000000 0.000000 0.000000 0.000000 0.031532
#
#
# Mechanical properties :
#
#
# Convention : Reuss Voigt Hill
#
# Bulk Modulus (GPa) = 69.65269 74.54790 72.10029
# Shear Modulus (GPa) = 27.89327 28.80142 28.34734
#
# Velocity S-wave (km/s) = 3.92406 3.98743 3.95587
# Velocity P-wave (km/s) = 7.67999 7.89640 7.78895
#
# Compressibility (1/GPa) = 0.01435695
#
# Stress axis : x y z
#
# Youngs Moduli (GPa) = 86.36300 94.03590 55.47607
#
# Poissons Ratio (x) = 0.31147 0.28114
# Poissons Ratio (y) = 0.28605 0.25303
# Poissons Ratio (z) = 0.43768 0.42890
#
# Static dielectric constant tensor:
#      x y z
#    x 3.247170 0.000000 0.000000 
#    y 0.000000 3.632400 0.000000 
#    z 0.000000 0.000000 3.310430 
# 
# 
# High freq. dielectric constant tensor:
#      x y z
#    x 1.694560 0.000000 0.000000 
#    y 0.000000 1.719080 0.000000 
#    z 0.000000 0.000000 1.690920 
# 
# From -- ./inp_files/29662.got.cif
#   From: 2010.03.12/outbox.cif.g09.slc.cpg/sg47_15_cif.got.tgz:29662.got - 2010.04.14 03:12:58.
