data_PCOD8200095
_publ_section_title
;
Structure prediction by ZEFSAII (Michael W. Deem and Ramdas Pophale) SiO2 
 PCOD8200095
Probable space group: P M M M
;
_chemical_formula_sum "Si O2"
_cell_formula_units_Z 48
_cell_length_a 27.195425
_cell_length_b 10.158375
_cell_length_c 9.610983
_cell_angle_alpha 90.000000
_cell_angle_beta 90.000000
_cell_angle_gamma 90.000000
_cell_volume 2655.142902
_symmetry_space_group_name_H-M "P M M M"
_symmetry_group_IT_number 47
_symmetry_cell_setting 'orthorhombic'
loop_
_space_group_symop_operation_xyz
x,y,z
-x,-y,z
x,-y,-z
-x,y,-z
-x,-y,-z
x,y,-z
-x,y,z
x,-y,z
loop_
_atom_site_type_symbol
_atom_site_label
_atom_site_fract_x
_atom_site_fract_y
_atom_site_fract_z
Si Si1 0.827171 0.850697 0.162125
Si Si2 0.344903 0.355174 0.658704
Si Si3 0.555145 0.760709 0.657441
Si Si4 0.713185 0.850765 0.160139
Si Si5 0.000000 0.643240 0.335980
Si Si6 0.558002 0.000000 0.154362
Si Si7 0.106840 0.343985 0.337477
O O1 0.770110 0.833136 0.198179
O O2 0.855355 0.741489 0.250098
O O3 0.843724 0.000000 0.200815
O O4 0.837135 0.824684 0.000000
O O5 0.329350 0.328764 0.500000
O O6 0.327579 0.500000 0.706576
O O7 0.404472 0.353592 0.672520
O O8 0.319179 0.246482 0.750400
O O9 0.554567 0.816973 0.500000
O O10 0.500000 0.709945 0.696520
O O11 0.574624 0.872498 0.761316
O O12 0.696322 0.000000 0.191899
O O13 0.704333 0.816230 0.000000
O O14 0.948052 0.710856 0.294824
O O15 0.000000 0.500000 0.264962
O O16 0.000000 0.623868 0.500000
O O17 0.500000 0.000000 0.141357
O O18 0.582233 0.000000 0.000000
O O19 0.117121 0.319707 0.500000
O O20 0.112031 0.500000 0.303645
#
# Coordination Sequence:
#
# PCOD8200095 Si02
#       7
#     8   8   8   8   4   4   8
#     4   9  19  36  54  73 101 135 171 212 258 309
#     4  10  22  37  53  78 108 134 165 208 254 301
#     4   9  18  33  52  73 101 136 168 199 243 299
#     4   9  20  39  59  76  97 132 175 213 254 307
#     4   7  12  26  46  69 102 140 174 209 250 297
#     4   9  17  29  47  73 101 127 161 205 243 278
#     4   9  17  30  51  78 105 136 175 216 256 300
#
# _framework density 18.078123999999999
#
# number of rings (size 3 to 8) (size 9 to 14) (size 15 to 20)
#    0.000    3.000    0.000    2.250    1.167    4.667 
#    0.000    7.500    0.000    4.000    0.000    3.500 
#    0.000    0.000    0.000    0.000    0.000    0.000 
#
# Total GULP energy -594726.227685 kJ/mol
# GULP energy per Si atom -12390.129743 kJ/mol
# Density = 1.803698 g / cm^3
# Si number density = 18.078124 Si / 1000 Ang^3
#
#
#
# Elastic Constant Matrix: (Units=GPa)
#
#
# Indices 1 2 3 4 5 6 
#
# 1 91.8576 65.7056 53.0060 0.0000 0.0000 0.0000
# 2 65.7056 104.1371 59.6570 0.0000 0.0000 0.0000
# 3 53.0060 59.6570 79.7986 0.0000 0.0000 0.0000
# 4 0.0000 0.0000 0.0000 24.8212 0.0000 0.0000
# 5 0.0000 0.0000 0.0000 0.0000 2.9471 0.0000
# 6 0.0000 0.0000 0.0000 0.0000 0.0000 26.9449
#
#
#
# Elastic Compliance Matrix: (Units=1/GPa)
#
#
# Indices 1 2 3 4 5 6 
#
# 1 0.022111 -0.009685 -0.007447 0.000000 0.000000 0.000000
# 2 -0.009685 0.021038 -0.009295 0.000000 0.000000 0.000000
# 3 -0.007447 -0.009295 0.024427 0.000000 0.000000 0.000000
# 4 0.000000 0.000000 0.000000 0.040288 0.000000 0.000000
# 5 0.000000 0.000000 0.000000 0.000000 0.339320 0.000000
# 6 0.000000 0.000000 0.000000 0.000000 0.000000 0.037113
#
#
# Mechanical properties :
#
#
# Convention : Reuss Voigt Hill
#
# Bulk Modulus (GPa) = 67.92127 70.28115 69.10121
# Shear Modulus (GPa) = 9.22411 17.43763 13.33087
#
# Velocity S-wave (km/s) = 2.26129 3.10912 2.71846
# Velocity P-wave (km/s) = 6.66862 7.20067 6.93974
#
# Compressibility (1/GPa) = 0.01472293
#
# Stress axis : x y z
#
# Youngs Moduli (GPa) = 45.22560 47.53236 40.93863
#
# Poissons Ratio (x) = 0.46036 0.30486
# Poissons Ratio (y) = 0.43802 0.38052
# Poissons Ratio (z) = 0.33679 0.44180
#
# Static dielectric constant tensor:
#      x y z
#    x 3.449110 0.000000 0.000000 
#    y 0.000000 3.167710 0.000000 
#    z 0.000000 0.000000 3.285030 
# 
# 
# High freq. dielectric constant tensor:
#      x y z
#    x 1.706260 0.000000 0.000000 
#    y 0.000000 1.683680 0.000000 
#    z 0.000000 0.000000 1.688660 
# 
# From -- ./inp_files/13835.got.cif
#   From: 2010.03.12/outbox.cif.g09.slc.cpg/sg47_7_cif.got.tgz:13835.got - 2010.04.14 03:12:58.
