data_PCOD8200301
_publ_section_title
;
Structure prediction by ZEFSAII (Michael W. Deem and Ramdas Pophale) SiO2 
 PCOD8200301
Probable space group: P M M M
;
_chemical_formula_sum "Si O2"
_cell_formula_units_Z 48
_cell_length_a 20.630327
_cell_length_b 9.102055
_cell_length_c 19.803944
_cell_angle_alpha 90.000000
_cell_angle_beta 90.000000
_cell_angle_gamma 90.000000
_cell_volume 3718.752344
_symmetry_space_group_name_H-M "P M M M"
_symmetry_group_IT_number 47
_symmetry_cell_setting 'orthorhombic'
loop_
_space_group_symop_operation_xyz
x,y,z
-x,-y,z
x,-y,-z
-x,y,-z
-x,-y,-z
x,y,-z
-x,y,z
x,-y,z
loop_
_atom_site_type_symbol
_atom_site_label
_atom_site_fract_x
_atom_site_fract_y
_atom_site_fract_z
Si Si1 0.000000 0.834163 0.080584
Si Si2 0.125602 0.665532 0.080385
Si Si3 0.577270 0.669824 0.282628
Si Si4 0.500000 0.331352 0.079699
Si Si5 0.616159 0.827293 0.847566
Si Si6 0.427408 0.325717 0.571384
Si Si7 0.747092 0.829437 0.922639
O O1 0.063639 0.752707 0.109142
O O2 0.000000 0.000000 0.108035
O O3 0.000000 0.831914 0.000000
O O4 0.122870 0.500000 0.108119
O O5 0.191578 0.740574 0.106096
O O6 0.123919 0.668776 0.000000
O O7 0.500000 0.691636 0.276902
O O8 0.595181 0.500000 0.269340
O O9 0.613646 0.771795 0.229162
O O10 0.603557 0.724001 0.356931
O O11 0.500000 0.500000 0.104032
O O12 0.563485 0.253961 0.107490
O O13 0.500000 0.317514 0.000000
O O14 0.686034 0.786848 0.877173
O O15 0.602374 0.000000 0.850498
O O16 0.392279 0.276152 0.500000
O O17 0.500000 0.262534 0.568900
O O18 0.430640 0.500000 0.574053
O O19 0.764529 0.000000 0.917207
O O20 0.731396 0.786332 0.000000
#
# Coordination Sequence:
#
# PCOD8200301 Si02
#       7
#     4   8   8   4   8   8   8
#     4   9  15  23  37  55  75  97 115 133 164 209
#     4   9  16  25  38  56  74  90 111 142 178 213
#     4   9  16  26  40  56  74  93 115 146 181 218
#     4  11  23  35  45  55  66  83 114 157 199 234
#     4  11  21  31  43  56  71  93 119 150 188 231
#     4   7  10  18  34  55  74  91 112 137 167 207
#     4   9  18  31  42  51  66  90 120 151 184 223
#
# _framework density 12.907555
#
# number of rings (size 3 to 8) (size 9 to 14) (size 15 to 20)
#    0.000    2.833    0.833    3.500    0.000    5.667 
#    0.000    1.667    0.000    0.500    0.000    2.333 
#    0.000    0.000    0.000    0.000    0.000    0.000 
#
# Total GULP energy -594758.201097 kJ/mol
# GULP energy per Si atom -12390.795856 kJ/mol
# Density = 1.287818 g / cm^3
# Si number density = 12.907555 Si / 1000 Ang^3
#
#
#
# Elastic Constant Matrix: (Units=GPa)
#
#
# Indices 1 2 3 4 5 6 
#
# 1 88.5335 53.1950 38.2646 0.0000 0.0000 0.0000
# 2 53.1950 76.7990 33.6395 0.0000 0.0000 0.0000
# 3 38.2646 33.6395 78.1107 0.0000 0.0000 0.0000
# 4 0.0000 0.0000 0.0000 9.4099 0.0000 0.0000
# 5 0.0000 0.0000 0.0000 0.0000 -0.8611 0.0000
# 6 0.0000 0.0000 0.0000 0.0000 0.0000 10.9994
#
#
#
# Elastic Compliance Matrix: (Units=1/GPa)
#
#
# Indices 1 2 3 4 5 6 
#
# 1 0.020766 -0.012236 -0.004903 0.000000 0.000000 0.000000
# 2 -0.012236 0.023258 -0.004022 0.000000 0.000000 0.000000
# 3 -0.004903 -0.004022 0.016937 0.000000 0.000000 0.000000
# 4 0.000000 0.000000 0.000000 0.106271 0.000000 0.000000
# 5 0.000000 0.000000 0.000000 0.000000 -1.161303 0.000000
# 6 0.000000 0.000000 0.000000 0.000000 0.000000 0.090914
#
#
# Mechanical properties :
#
#
# Convention : Reuss Voigt Hill
#
# Bulk Modulus (GPa) = 53.65450 54.84907 54.25179
# Shear Modulus (GPa) = -5.85055 11.79926 2.97435
#
# Velocity S-wave (km/s) = -2.13131 3.02675 1.51966
# Velocity P-wave (km/s) = 5.96673 7.40277 6.72320
#
# Compressibility (1/GPa) = 0.01863776
#
# Stress axis : x y z
#
# Youngs Moduli (GPa) = 48.15450 42.99543 59.04363
#
# Poissons Ratio (x) = 0.52610 0.28951
# Poissons Ratio (y) = 0.58923 0.23749
# Poissons Ratio (z) = 0.23612 0.17294
#
# Static dielectric constant tensor:
#      x y z
#    x 2.476600 0.000000 0.000000 
#    y 0.000000 2.616550 0.000000 
#    z 0.000000 0.000000 2.721510 
# 
# 
# High freq. dielectric constant tensor:
#      x y z
#    x 1.460760 0.000000 0.000000 
#    y 0.000000 1.491590 0.000000 
#    z 0.000000 0.000000 1.464310 
# 
# From -- ./inp_files/11686.got.cif
#   From: 2010.03.12/outbox.cif.g09.slc.cpg/sg47_6_cif.got.tgz:11686.got - 2010.04.14 03:12:58.
