data_PCOD8200465
_publ_section_title
;
Structure prediction by ZEFSAII (Michael W. Deem and Ramdas Pophale) SiO2 
 PCOD8200465
Probable space group: P M M M
;
_chemical_formula_sum "Si O2"
_cell_formula_units_Z 52
_cell_length_a 24.394621
_cell_length_b 14.453167
_cell_length_c 8.801955
_cell_angle_alpha 90.000000
_cell_angle_beta 90.000000
_cell_angle_gamma 90.000000
_cell_volume 3103.389168
_symmetry_space_group_name_H-M "P M M M"
_symmetry_group_IT_number 47
_symmetry_cell_setting 'orthorhombic'
loop_
_space_group_symop_operation_xyz
x,y,z
-x,-y,z
x,-y,-z
-x,y,-z
-x,-y,-z
x,y,-z
-x,y,z
x,-y,z
loop_
_atom_site_type_symbol
_atom_site_label
_atom_site_fract_x
_atom_site_fract_y
_atom_site_fract_z
Si Si1 0.778786 0.605637 0.819748
Si Si2 0.384753 0.105501 0.674472
Si Si3 0.500000 0.847062 0.172603
Si Si4 0.390698 0.399514 0.671768
Si Si5 0.000000 0.389487 0.829018
Si Si6 0.500000 0.628942 0.174495
Si Si7 0.316778 0.738953 0.823595
Si Si8 0.891316 0.390452 0.669564
O O1 0.765896 0.500000 0.760864
O O2 0.736604 0.684115 0.757416
O O3 0.838235 0.639124 0.764974
O O4 0.777187 0.604865 0.000000
O O5 0.392014 0.133532 0.500000
O O6 0.444220 0.117132 0.750796
O O7 0.334258 0.165789 0.742283
O O8 0.365729 0.000000 0.694256
O O9 0.500000 0.738283 0.181897
O O10 0.500000 0.883015 0.000000
O O11 0.388244 0.358178 0.500000
O O12 0.361287 0.500000 0.673711
O O13 0.451332 0.414017 0.729690
O O14 0.365747 0.331835 0.796476
O O15 0.945977 0.349399 0.746709
O O16 0.000000 0.500000 0.826292
O O17 0.000000 0.352003 0.000000
O O18 0.500000 0.594297 0.000000
O O19 0.309630 0.761055 0.000000
O O20 0.886268 0.349866 0.500000
O O21 0.896339 0.500000 0.665075
#
# Coordination Sequence:
#
# PCOD8200465 Si02
#       8
#     8   8   4   8   4   4   8   8
#     4   9  18  32  48  67  94 128 164 199 235 277
#     4  11  24  40  58  78  98 121 148 185 238 295
#     4  11  22  37  58  81  98 117 146 185 235 289
#     4  11  23  36  51  71  95 124 155 188 229 276
#     4   9  15  23  37  57  85 123 164 205 246 281
#     4  11  22  35  52  73  94 119 150 187 231 275
#     4  11  22  36  54  74  95 123 158 196 236 279
#     4   9  16  25  39  61  89 122 163 206 242 276
#
# _framework density 16.755873999999999
#
# number of rings (size 3 to 8) (size 9 to 14) (size 15 to 20)
#    0.000    1.769    1.538    3.462    0.000    9.538 
#    0.000    1.538    0.000    0.000    0.000    0.000 
#    0.000    0.000    0.000    0.692    0.000   13.000 
#
# Total GULP energy -644411.377659 kJ/mol
# GULP energy per Si atom -12392.526493 kJ/mol
# Density = 1.671774 g / cm^3
# Si number density = 16.755874 Si / 1000 Ang^3
#
#
#
# Elastic Constant Matrix: (Units=GPa)
#
#
# Indices 1 2 3 4 5 6 
#
# 1 116.1732 37.3452 30.9172 0.0000 0.0000 0.0000
# 2 37.3452 78.6483 28.3242 0.0000 0.0000 0.0000
# 3 30.9172 28.3242 73.8069 0.0000 0.0000 0.0000
# 4 0.0000 0.0000 0.0000 29.4272 0.0000 0.0000
# 5 0.0000 0.0000 0.0000 0.0000 15.2511 0.0000
# 6 0.0000 0.0000 0.0000 0.0000 0.0000 10.9016
#
#
#
# Elastic Compliance Matrix: (Units=1/GPa)
#
#
# Indices 1 2 3 4 5 6 
#
# 1 0.010679 -0.004015 -0.002933 0.000000 0.000000 0.000000
# 2 -0.004015 0.016263 -0.004560 0.000000 0.000000 0.000000
# 3 -0.002933 -0.004560 0.016527 0.000000 0.000000 0.000000
# 4 0.000000 0.000000 0.000000 0.033982 0.000000 0.000000
# 5 0.000000 0.000000 0.000000 0.000000 0.065569 0.000000
# 6 0.000000 0.000000 0.000000 0.000000 0.000000 0.091730
#
#
# Mechanical properties :
#
#
# Convention : Reuss Voigt Hill
#
# Bulk Modulus (GPa) = 48.88623 51.31129 50.09876
# Shear Modulus (GPa) = 18.89772 22.58542 20.74157
#
# Velocity S-wave (km/s) = 3.36196 3.67537 3.52215
# Velocity P-wave (km/s) = 6.65652 6.97857 6.81945
#
# Compressibility (1/GPa) = 0.02045566
#
# Stress axis : x y z
#
# Youngs Moduli (GPa) = 93.64323 61.48868 60.50668
#
# Poissons Ratio (x) = 0.24685 0.17744
# Poissons Ratio (y) = 0.37594 0.27588
# Poissons Ratio (z) = 0.27462 0.28036
#
# Static dielectric constant tensor:
#      x y z
#    x 3.239500 0.000000 0.000000 
#    y 0.000000 2.963200 0.000000 
#    z 0.000000 0.000000 3.282910 
# 
# 
# High freq. dielectric constant tensor:
#      x y z
#    x 1.634810 0.000000 0.000000 
#    y 0.000000 1.606610 0.000000 
#    z 0.000000 0.000000 1.659440 
# 
# From -- ./inp_files/12608.got.cif
#   From: 2010.03.12/outbox.cif.g09.slc.cpg/sg47_7_cif.got.tgz:12608.got - 2010.04.14 03:12:58.
