data_PCOD8200051
_publ_section_title
;
Structure prediction by ZEFSAII (Michael W. Deem and Ramdas Pophale) SiO2 
 PCOD8200051
Probable space group: P M M M
;
_chemical_formula_sum "Si O2"
_cell_formula_units_Z 48
_cell_length_a 13.430982
_cell_length_b 8.756224
_cell_length_c 18.693113
_cell_angle_alpha 90.000000
_cell_angle_beta 90.000000
_cell_angle_gamma 90.000000
_cell_volume 2198.397702
_symmetry_space_group_name_H-M "P M M M"
_symmetry_group_IT_number 47
_symmetry_cell_setting 'orthorhombic'
loop_
_space_group_symop_operation_xyz
x,y,z
-x,-y,z
x,-y,-z
-x,y,-z
-x,-y,-z
x,y,-z
-x,y,z
x,-y,z
loop_
_atom_site_type_symbol
_atom_site_label
_atom_site_fract_x
_atom_site_fract_y
_atom_site_fract_z
Si Si1 0.881577 0.672379 0.771227
Si Si2 0.619225 0.326316 0.000000
Si Si3 0.212563 0.821622 0.362461
Si Si4 0.381121 0.173777 0.144471
Si Si5 0.612458 0.679969 0.709434
Si Si6 0.888216 0.681025 0.924064
Si Si7 0.112596 0.680559 0.500000
O O1 0.842115 0.500000 0.754665
O O2 0.849737 0.784933 0.708573
O O3 0.838969 0.736494 0.848558
O O4 0.000000 0.669459 0.776462
O O5 0.662747 0.246615 0.071524
O O6 0.656918 0.500000 0.000000
O O7 0.500000 0.317374 0.000000
O O8 0.324895 0.760835 0.352856
O O9 0.166296 0.738785 0.429782
O O10 0.212831 0.000000 0.377127
O O11 0.500000 0.182220 0.141037
O O12 0.343746 0.269610 0.213301
O O13 0.344071 0.000000 0.151403
O O14 0.500000 0.737806 0.700394
O O15 0.620607 0.500000 0.702237
O O16 0.893997 0.500000 0.917671
O O17 0.000000 0.747078 0.929096
O O18 0.832524 0.726631 0.000000
O O19 0.115033 0.500000 0.500000
O O20 0.000000 0.742533 0.500000
#
# Coordination Sequence:
#
# PCOD8200051 Si02
#       7
#     8   4   8   8   8   8   4
#     4   9  17  31  54  84 118 157 201 248 298 356
#     4   9  15  23  39  67 103 145 196 249 302 365
#     4  12  25  40  62  92 127 162 198 243 300 367
#     4   9  16  27  46  74 108 146 191 248 313 370
#     4  10  21  39  63  88 116 155 205 258 307 361
#     4   7  10  19  40  72 107 144 190 243 294 341
#     4  11  25  47  74 101 130 163 199 242 294 353
#
# _framework density 21.834084000000001
#
# number of rings (size 3 to 8) (size 9 to 14) (size 15 to 20)
#    0.000    2.500    0.000    5.000    0.000    7.000 
#    0.000    0.417    1.833    3.000    0.000    2.333 
#    0.000    0.000    0.000    0.000    0.000    0.000 
#
# Total GULP energy -594993.716695 kJ/mol
# GULP energy per Si atom -12395.702431 kJ/mol
# Density = 2.178439 g / cm^3
# Si number density = 21.834084 Si / 1000 Ang^3
#
#
#
# Elastic Constant Matrix: (Units=GPa)
#
#
# Indices 1 2 3 4 5 6 
#
# 1 56.4137 12.1576 60.3822 0.0000 0.0000 0.0000
# 2 12.1576 78.4072 31.3419 0.0000 0.0000 0.0000
# 3 60.3822 31.3419 172.6754 0.0000 0.0000 0.0000
# 4 0.0000 0.0000 0.0000 -18.5063 0.0000 0.0000
# 5 0.0000 0.0000 0.0000 0.0000 179.1708 0.0000
# 6 0.0000 0.0000 0.0000 0.0000 0.0000 13.6829
#
#
#
# Elastic Compliance Matrix: (Units=1/GPa)
#
#
# Indices 1 2 3 4 5 6 
#
# 1 0.028345 -0.000467 -0.009827 0.000000 0.000000 0.000000
# 2 -0.000467 0.013759 -0.002334 0.000000 0.000000 0.000000
# 3 -0.009827 -0.002334 0.009651 0.000000 0.000000 0.000000
# 4 0.000000 0.000000 0.000000 -0.054036 0.000000 0.000000
# 5 0.000000 0.000000 0.000000 0.000000 0.005581 0.000000
# 6 0.000000 0.000000 0.000000 0.000000 0.000000 0.073084
#
#
# Mechanical properties :
#
#
# Convention : Reuss Voigt Hill
#
# Bulk Modulus (GPa) = 37.73660 57.25108 47.49384
# Shear Modulus (GPa) = 45.25905 48.44379 46.85142
#
# Velocity S-wave (km/s) = 4.55781 4.71544 4.63730
# Velocity P-wave (km/s) = 6.70962 7.47831 7.10437
#
# Compressibility (1/GPa) = 0.02649947
#
# Stress axis : x y z
#
# Youngs Moduli (GPa) = 35.27919 72.67772 103.61271
#
# Poissons Ratio (x) = 0.03393 1.01823
# Poissons Ratio (y) = 0.01647 0.24185
# Poissons Ratio (z) = 0.34670 0.16964
#
# Static dielectric constant tensor:
#      x y z
#    x 3.933640 0.000000 0.000000 
#    y 0.000000 3.654950 0.000000 
#    z 0.000000 0.000000 4.392670 
# 
# 
# High freq. dielectric constant tensor:
#      x y z
#    x 1.865620 0.000000 0.000000 
#    y 0.000000 1.832650 0.000000 
#    z 0.000000 0.000000 1.861770 
# 
# From -- ./inp_files/28004.got.cif
#   From: 2010.03.12/outbox.cif.g09.slc.cpg/sg47_15_cif.got.tgz:28004.got - 2010.04.14 03:12:58.
