data_PCOD8200610
_publ_section_title
;
Structure prediction by ZEFSAII (Michael W. Deem and Ramdas Pophale) SiO2 
 PCOD8200610
Probable space group: P M M M
;
_chemical_formula_sum "Si O2"
_cell_formula_units_Z 48
_cell_length_a 30.680514
_cell_length_b 9.107020
_cell_length_c 9.472569
_cell_angle_alpha 90.000000
_cell_angle_beta 90.000000
_cell_angle_gamma 90.000000
_cell_volume 2646.712076
_symmetry_space_group_name_H-M "P M M M"
_symmetry_group_IT_number 47
_symmetry_cell_setting 'orthorhombic'
loop_
_space_group_symop_operation_xyz
x,y,z
-x,-y,z
x,-y,-z
-x,y,-z
-x,-y,-z
x,y,-z
-x,y,z
x,-y,z
loop_
_atom_site_type_symbol
_atom_site_label
_atom_site_fract_x
_atom_site_fract_y
_atom_site_fract_z
Si Si1 0.121778 0.673319 0.837833
Si Si2 0.050468 0.169347 0.661226
Si Si3 0.706683 0.825633 0.656334
Si Si4 0.372313 0.175517 0.841483
Si Si5 0.548240 0.825406 0.341622
Si Si6 0.195531 0.829520 0.664520
O O1 0.122023 0.500000 0.824361
O O2 0.077872 0.731961 0.766959
O O3 0.163997 0.734263 0.759758
O O4 0.122766 0.724736 0.000000
O O5 0.060714 0.214692 0.500000
O O6 0.000000 0.195607 0.695915
O O7 0.063190 0.000000 0.684100
O O8 0.696400 0.763387 0.500000
O O9 0.670984 0.762731 0.764837
O O10 0.755287 0.779518 0.703180
O O11 0.704149 0.000000 0.650695
O O12 0.415187 0.238491 0.763152
O O13 0.372432 0.000000 0.839996
O O14 0.372517 0.236897 0.000000
O O15 0.557782 0.768396 0.500000
O O16 0.500000 0.773142 0.292466
O O17 0.550160 0.000000 0.340740
O O18 0.185852 0.800122 0.500000
O O19 0.188265 0.000000 0.699901
#
# Coordination Sequence:
#
# PCOD8200610 Si02
#       6
#     8   8   8   8   8   8
#     4  11  24  37  49  72 106 138 165 195 235 284
#     4   9  19  37  60  83 104 128 163 205 243 280
#     4   8  14  25  40  57  77 101 132 175 225 272
#     4   9  15  20  28  45  68  93 124 166 215 265
#     4   8  13  20  28  37  53  84 126 168 211 260
#     4   9  18  33  53  74  93 118 158 204 244 284
#
# _framework density 18.135708000000001
#
# number of rings (size 3 to 8) (size 9 to 14) (size 15 to 20)
#    0.000    3.000    0.000    3.500    0.000    7.667 
#    0.000    5.833    0.000    0.000    0.000    0.000 
#    0.000    0.000    0.000    0.000    0.000    0.833 
#
# Total GULP energy -595027.799340 kJ/mol
# GULP energy per Si atom -12396.412486 kJ/mol
# Density = 1.809443 g / cm^3
# Si number density = 18.135708 Si / 1000 Ang^3
#
#
#
# Elastic Constant Matrix: (Units=GPa)
#
#
# Indices 1 2 3 4 5 6 
#
# 1 151.0237 31.9989 96.9962 0.0000 0.0000 0.0000
# 2 31.9989 30.6490 35.6795 0.0000 0.0000 0.0000
# 3 96.9962 35.6795 139.7241 0.0000 0.0000 0.0000
# 4 0.0000 0.0000 0.0000 17.4254 0.0000 0.0000
# 5 0.0000 0.0000 0.0000 0.0000 14.9334 0.0000
# 6 0.0000 0.0000 0.0000 0.0000 0.0000 -2.0670
#
#
#
# Elastic Compliance Matrix: (Units=1/GPa)
#
#
# Indices 1 2 3 4 5 6 
#
# 1 0.012306 -0.004131 -0.007488 0.000000 0.000000 0.000000
# 2 -0.004131 0.047816 -0.009342 0.000000 0.000000 0.000000
# 3 -0.007488 -0.009342 0.014741 0.000000 0.000000 0.000000
# 4 0.000000 0.000000 0.000000 0.057388 0.000000 0.000000
# 5 0.000000 0.000000 0.000000 0.000000 0.066964 0.000000
# 6 0.000000 0.000000 0.000000 0.000000 0.000000 -0.483787
#
#
# Mechanical properties :
#
#
# Convention : Reuss Voigt Hill
#
# Bulk Modulus (GPa) = 30.35808 72.30511 51.33159
# Shear Modulus (GPa) = -21.58245 16.50651 -2.53797
#
# Velocity S-wave (km/s) = -3.45346 3.02017 -1.18426
# Velocity P-wave (km/s) = 0.93484 7.21924 5.14739
#
# Compressibility (1/GPa) = 0.03294016
#
# Stress axis : x y z
#
# Youngs Moduli (GPa) = 81.26202 20.91339 67.83964
#
# Poissons Ratio (x) = 0.08639 0.50797
# Poissons Ratio (y) = 0.33570 0.63379
# Poissons Ratio (z) = 0.60848 0.19538
#
# Static dielectric constant tensor:
#      x y z
#    x 3.632590 0.000000 0.000000 
#    y 0.000000 2.740410 0.000000 
#    z 0.000000 0.000000 3.516490 
# 
# 
# High freq. dielectric constant tensor:
#      x y z
#    x 1.722050 0.000000 0.000000 
#    y 0.000000 1.636990 0.000000 
#    z 0.000000 0.000000 1.703480 
# 
# From -- ./inp_files/13806.got.cif
#   From: 2010.03.12/outbox.cif.g09.slc.cpg/sg47_7_cif.got.tgz:13806.got - 2010.04.14 03:12:58.
