data_PCOD8200622
_publ_section_title
;
Structure prediction by ZEFSAII (Michael W. Deem and Ramdas Pophale) SiO2 
 PCOD8200622
Probable space group: P M M M
;
_chemical_formula_sum "Si O2"
_cell_formula_units_Z 44
_cell_length_a 18.534515
_cell_length_b 14.742036
_cell_length_c 7.898922
_cell_angle_alpha 90.000000
_cell_angle_beta 90.000000
_cell_angle_gamma 90.000000
_cell_volume 2158.273701
_symmetry_space_group_name_H-M "P M M M"
_symmetry_group_IT_number 47
_symmetry_cell_setting 'orthorhombic'
loop_
_space_group_symop_operation_xyz
x,y,z
-x,-y,z
x,-y,-z
-x,y,-z
-x,-y,-z
x,y,-z
-x,y,z
x,-y,z
loop_
_atom_site_type_symbol
_atom_site_label
_atom_site_fract_x
_atom_site_fract_y
_atom_site_fract_z
Si Si1 0.683389 0.244825 0.691886
Si Si2 0.580722 0.396243 0.199048
Si Si3 0.577582 0.097518 0.194767
Si Si4 0.085675 0.892503 0.000000
Si Si5 0.846227 0.777554 0.694866
Si Si6 0.914968 0.399705 0.193020
O O1 0.683167 0.214955 0.500000
O O2 0.644775 0.341732 0.711547
O O3 0.639394 0.170276 0.790734
O O4 0.765067 0.242584 0.758557
O O5 0.500000 0.364040 0.254890
O O6 0.591475 0.500000 0.252184
O O7 0.588560 0.383041 0.000000
O O8 0.500000 0.129443 0.273673
O O9 0.600138 0.000000 0.276225
O O10 0.564999 0.082025 0.000000
O O11 0.117303 0.847353 0.172102
O O12 0.000000 0.876059 0.000000
O O13 0.104177 0.000000 0.000000
O O14 0.850196 0.815492 0.500000
O O15 0.883858 0.679419 0.690512
O O16 0.886577 0.500000 0.248859
O O17 0.000000 0.398150 0.210752
O O18 0.891798 0.380227 0.000000
#
# Coordination Sequence:
#
# PCOD8200622 Si02
#       6
#     8   8   8   4   8   8
#     4  11  24  37  53  84 122 158 196 241 300 362
#     4   9  19  36  58  84 115 159 215 263 300 347
#     4   9  19  36  58  83 109 144 194 246 294 347
#     4  11  26  48  73  97 120 157 209 257 313 384
#     4  11  25  42  62  95 134 166 205 258 313 373
#     4   9  18  35  62  94 125 159 201 247 297 361
#
# _framework density 20.386662999999999
#
# number of rings (size 3 to 8) (size 9 to 14) (size 15 to 20)
#    0.000    2.091    0.909    3.273    2.545    7.273 
#    0.000    9.091    0.000    0.000    0.000    0.000 
#    0.000    0.000    0.000    0.000    0.000    0.000 
#
# Total GULP energy -545212.114857 kJ/mol
# GULP energy per Si atom -12391.184429 kJ/mol
# Density = 2.034026 g / cm^3
# Si number density = 20.386663 Si / 1000 Ang^3
#
#
#
# Elastic Constant Matrix: (Units=GPa)
#
#
# Indices 1 2 3 4 5 6 
#
# 1 114.9712 63.1416 40.9284 0.0000 0.0000 0.0000
# 2 63.1416 129.2805 37.9980 0.0000 0.0000 0.0000
# 3 40.9284 37.9980 73.2918 0.0000 0.0000 0.0000
# 4 0.0000 0.0000 0.0000 49.3087 0.0000 0.0000
# 5 0.0000 0.0000 0.0000 0.0000 34.3963 0.0000
# 6 0.0000 0.0000 0.0000 0.0000 0.0000 44.6110
#
#
#
# Elastic Compliance Matrix: (Units=1/GPa)
#
#
# Indices 1 2 3 4 5 6 
#
# 1 0.013145 -0.005029 -0.004733 0.000000 0.000000 0.000000
# 2 -0.005029 0.011050 -0.002920 0.000000 0.000000 0.000000
# 3 -0.004733 -0.002920 0.017801 0.000000 0.000000 0.000000
# 4 0.000000 0.000000 0.000000 0.020280 0.000000 0.000000
# 5 0.000000 0.000000 0.000000 0.000000 0.029073 0.000000
# 6 0.000000 0.000000 0.000000 0.000000 0.000000 0.022416
#
#
# Mechanical properties :
#
#
# Convention : Reuss Voigt Hill
#
# Bulk Modulus (GPa) = 60.12957 66.85330 63.49143
# Shear Modulus (GPa) = 34.56070 37.36155 35.96112
#
# Velocity S-wave (km/s) = 4.12182 4.28559 4.20450
# Velocity P-wave (km/s) = 7.22573 7.57312 7.40146
#
# Compressibility (1/GPa) = 0.01663075
#
# Stress axis : x y z
#
# Youngs Moduli (GPa) = 76.07725 90.50133 56.17559
#
# Poissons Ratio (x) = 0.45511 0.26589
# Poissons Ratio (y) = 0.38257 0.16406
# Poissons Ratio (z) = 0.36009 0.26430
#
# Static dielectric constant tensor:
#      x y z
#    x 3.988280 0.000000 0.000000 
#    y 0.000000 3.988000 0.000000 
#    z 0.000000 0.000000 3.566600 
# 
# 
# High freq. dielectric constant tensor:
#      x y z
#    x 1.796570 0.000000 0.000000 
#    y 0.000000 1.801780 0.000000 
#    z 0.000000 0.000000 1.786180 
# 
# From -- ./inp_files/8952.got.cif
#   From: 2010.03.12/outbox.cif.g09.slc.cpg/sg47_5_cif.got.tgz:8952.got - 2010.04.14 03:12:58.
