data_PCOD8200916
_publ_section_title
;
Structure prediction by ZEFSAII (Michael W. Deem and Ramdas Pophale) SiO2 
 PCOD8200916
Probable space group: P M M M
;
_chemical_formula_sum "Si O2"
_cell_formula_units_Z 56
_cell_length_a 28.807020
_cell_length_b 13.901073
_cell_length_c 9.711949
_cell_angle_alpha 90.000000
_cell_angle_beta 90.000000
_cell_angle_gamma 90.000000
_cell_volume 3889.135292
_symmetry_space_group_name_H-M "P M M M"
_symmetry_group_IT_number 47
_symmetry_cell_setting 'orthorhombic'
loop_
_space_group_symop_operation_xyz
x,y,z
-x,-y,z
x,-y,-z
-x,y,-z
-x,-y,-z
x,y,-z
-x,y,z
x,-y,z
loop_
_atom_site_type_symbol
_atom_site_label
_atom_site_fract_x
_atom_site_fract_y
_atom_site_fract_z
Si Si1 0.228317 0.291810 0.163957
Si Si2 0.371596 0.791627 0.838041
Si Si3 0.948688 0.385762 0.654394
Si Si4 0.553649 0.110402 0.342110
Si Si5 0.319383 0.605771 0.836848
Si Si6 0.722244 0.106037 0.836681
Si Si7 0.134694 0.387295 0.839774
O O1 0.269394 0.360066 0.221208
O O2 0.238740 0.182271 0.214508
O O3 0.179008 0.329336 0.219449
O O4 0.228122 0.296552 0.000000
O O5 0.417268 0.820435 0.755999
O O6 0.359357 0.681645 0.796428
O O7 0.328931 0.859514 0.791960
O O8 0.381543 0.801522 0.000000
O O9 0.936844 0.350363 0.500000
O O10 0.948806 0.500000 0.659228
O O11 0.910109 0.346333 0.759514
O O12 0.000000 0.348014 0.697819
O O13 0.567933 0.128431 0.500000
O O14 0.500000 0.136001 0.319514
O O15 0.563145 0.000000 0.301561
O O16 0.331360 0.500000 0.776571
O O17 0.315502 0.601908 0.000000
O O18 0.732240 0.000000 0.773717
O O19 0.723746 0.101946 0.000000
O O20 0.143135 0.500000 0.812421
O O21 0.126296 0.366833 0.000000
#
# Coordination Sequence:
#
# PCOD8200916 Si02
#       7
#     8   8   8   8   8   8   8
#     4   8  13  20  31  50  75 101 126 149 177 216
#     4   9  16  25  41  64  82  98 126 161 189 214
#     4   8  14  24  35  46  64  93 124 148 175 216
#     4   9  18  31  44  58  78 103 126 149 186 236
#     4   8  13  22  37  57  81 106 129 154 185 220
#     4   8  13  21  34  54  79 101 120 147 182 217
#     4   9  15  21  32  51  72  93 119 151 180 205
#
# _framework density 14.399088000000001
#
# number of rings (size 3 to 8) (size 9 to 14) (size 15 to 20)
#    0.000    3.571    0.000    3.429    0.000    3.143 
#    0.000    2.143    0.000    4.286    0.000    3.000 
#    0.000    0.571    0.000    7.143    0.000    1.429 
#
# Total GULP energy -693902.723763 kJ/mol
# GULP energy per Si atom -12391.120067 kJ/mol
# Density = 1.436632 g / cm^3
# Si number density = 14.399088 Si / 1000 Ang^3
#
#
#
# Elastic Constant Matrix: (Units=GPa)
#
#
# Indices 1 2 3 4 5 6 
#
# 1 110.5665 54.7088 44.3397 0.0000 0.0000 0.0000
# 2 54.7088 99.6637 25.7462 0.0000 0.0000 0.0000
# 3 44.3397 25.7462 36.3328 0.0000 0.0000 0.0000
# 4 0.0000 0.0000 0.0000 8.8549 0.0000 0.0000
# 5 0.0000 0.0000 0.0000 0.0000 4.1699 0.0000
# 6 0.0000 0.0000 0.0000 0.0000 0.0000 19.4849
#
#
#
# Elastic Compliance Matrix: (Units=1/GPa)
#
#
# Indices 1 2 3 4 5 6 
#
# 1 0.020083 -0.005744 -0.020438 0.000000 0.000000 0.000000
# 2 -0.005744 0.013925 -0.002857 0.000000 0.000000 0.000000
# 3 -0.020438 -0.002857 0.054490 0.000000 0.000000 0.000000
# 4 0.000000 0.000000 0.000000 0.112932 0.000000 0.000000
# 5 0.000000 0.000000 0.000000 0.000000 0.239813 0.000000
# 6 0.000000 0.000000 0.000000 0.000000 0.000000 0.051322
#
#
# Mechanical properties :
#
#
# Convention : Reuss Voigt Hill
#
# Bulk Modulus (GPa) = 32.87460 55.12806 44.00133
# Shear Modulus (GPa) = 8.91609 14.61982 11.76795
#
# Velocity S-wave (km/s) = 2.49110 3.18988 2.86190
# Velocity P-wave (km/s) = 5.58164 7.20667 6.44557
#
# Compressibility (1/GPa) = 0.03041862
#
# Stress axis : x y z
#
# Youngs Moduli (GPa) = 49.79398 71.81239 18.35197
#
# Poissons Ratio (x) = 0.41252 0.37508
# Poissons Ratio (y) = 0.28603 0.05244
# Poissons Ratio (z) = 1.01769 0.20520
#
# Static dielectric constant tensor:
#      x y z
#    x 2.895120 0.000000 0.000000 
#    y 0.000000 3.003160 0.000000 
#    z 0.000000 0.000000 2.473460 
# 
# 
# High freq. dielectric constant tensor:
#      x y z
#    x 1.546010 0.000000 0.000000 
#    y 0.000000 1.529720 0.000000 
#    z 0.000000 0.000000 1.510840 
# 
# From -- ./inp_files/14206.got.cif
#   From: 2010.03.12/outbox.cif.g09.slc.cpg/sg47_8_cif.got.tgz:14206.got - 2010.04.14 03:12:58.
