data_PCOD8200406
_publ_section_title
;
Structure prediction by ZEFSAII (Michael W. Deem and Ramdas Pophale) SiO2 
 PCOD8200406
Probable space group: P M M M
;
_chemical_formula_sum "Si O2"
_cell_formula_units_Z 32
_cell_length_a 13.051457
_cell_length_b 14.200460
_cell_length_c 8.907533
_cell_angle_alpha 90.000000
_cell_angle_beta 90.000000
_cell_angle_gamma 90.000000
_cell_volume 1650.892710
_symmetry_space_group_name_H-M "P M M M"
_symmetry_group_IT_number 47
_symmetry_cell_setting 'orthorhombic'
loop_
_space_group_symop_operation_xyz
x,y,z
-x,-y,z
x,-y,-z
-x,y,-z
-x,-y,-z
x,y,-z
-x,y,z
x,-y,z
loop_
_atom_site_type_symbol
_atom_site_label
_atom_site_fract_x
_atom_site_fract_y
_atom_site_fract_z
Si Si1 0.500000 0.610795 0.168657
Si Si2 0.684678 0.710538 0.321869
Si Si3 0.886383 0.606069 0.321810
Si Si4 0.280492 0.896609 0.827504
Si Si5 0.883757 0.000000 0.322660
O O1 0.500000 0.500000 0.160480
O O2 0.600409 0.640868 0.258136
O O3 0.500000 0.653736 0.000000
O O4 0.677249 0.712042 0.500000
O O5 0.796622 0.675520 0.263838
O O6 0.659158 0.814744 0.258772
O O7 0.883679 0.604588 0.500000
O O8 0.865841 0.500000 0.261760
O O9 0.000000 0.640087 0.267602
O O10 0.168943 0.906756 0.748144
O O11 0.336511 0.000000 0.813595
O O12 0.266998 0.867672 0.000000
O O13 0.869170 0.000000 0.500000
O O14 0.000000 0.000000 0.272671
#
# Coordination Sequence:
#
# PCOD8200406 Si02
#       5
#     4   8   8   8   4
#     4  11  25  43  62  85 118 159 199 244 301 360
#     4  11  21  35  60  89 117 149 196 250 296 351
#     4   8  15  29  50  79 114 147 180 227 290 351
#     4   9  20  36  54  77 113 154 191 234 290 357
#     4   9  17  31  53  80 111 150 199 251 294 337
#
# _framework density 19.383452999999999
#
# number of rings (size 3 to 8) (size 9 to 14) (size 15 to 20)
#    0.750    1.750    0.000    3.375    0.000    4.000 
#    0.000    3.125    0.000    6.000    0.000    8.750 
#    0.000    0.000    0.000    0.000    0.000    0.000 
#
# Total GULP energy -396497.326644 kJ/mol
# GULP energy per Si atom -12390.541458 kJ/mol
# Density = 1.933934 g / cm^3
# Si number density = 19.383453 Si / 1000 Ang^3
#
#
#
# Elastic Constant Matrix: (Units=GPa)
#
#
# Indices 1 2 3 4 5 6 
#
# 1 98.7295 40.9297 37.9300 0.0000 0.0000 0.0000
# 2 40.9297 96.5704 40.0945 0.0000 0.0000 0.0000
# 3 37.9300 40.0945 95.3605 0.0000 0.0000 0.0000
# 4 0.0000 0.0000 0.0000 23.1340 0.0000 0.0000
# 5 0.0000 0.0000 0.0000 0.0000 15.0552 0.0000
# 6 0.0000 0.0000 0.0000 0.0000 0.0000 20.9246
#
#
#
# Elastic Compliance Matrix: (Units=1/GPa)
#
#
# Indices 1 2 3 4 5 6 
#
# 1 0.013190 -0.004134 -0.003508 0.000000 0.000000 0.000000
# 2 -0.004134 0.013841 -0.004175 0.000000 0.000000 0.000000
# 3 -0.003508 -0.004175 0.013637 0.000000 0.000000 0.000000
# 4 0.000000 0.000000 0.000000 0.043226 0.000000 0.000000
# 5 0.000000 0.000000 0.000000 0.000000 0.066422 0.000000
# 6 0.000000 0.000000 0.000000 0.000000 0.000000 0.047791
#
#
# Mechanical properties :
#
#
# Convention : Reuss Voigt Hill
#
# Bulk Modulus (GPa) = 58.70715 58.72988 58.71852
# Shear Modulus (GPa) = 21.98575 23.26984 22.62780
#
# Velocity S-wave (km/s) = 3.37152 3.46858 3.42040
# Velocity P-wave (km/s) = 6.74605 6.81221 6.77921
#
# Compressibility (1/GPa) = 0.01703370
#
# Stress axis : x y z
#
# Youngs Moduli (GPa) = 75.81337 72.25108 73.32773
#
# Poissons Ratio (x) = 0.29868 0.25726
# Poissons Ratio (y) = 0.31340 0.30615
# Poissons Ratio (z) = 0.26598 0.30165
#
# Static dielectric constant tensor:
#      x y z
#    x 3.560130 0.000000 0.000000 
#    y 0.000000 3.601190 0.000000 
#    z 0.000000 0.000000 3.371420 
# 
# 
# High freq. dielectric constant tensor:
#      x y z
#    x 1.739830 0.000000 0.000000 
#    y 0.000000 1.753780 0.000000 
#    z 0.000000 0.000000 1.742060 
# 
# From -- ./inp_files/3372.got.cif
#   From: 2010.03.12/outbox.cif.g09.slc.cpg/sg47_2_cif.got.tgz:3372.got - 2010.04.14 03:12:58.
