data_PCOD8200072
_publ_section_title
;
Structure prediction by ZEFSAII (Michael W. Deem and Ramdas Pophale) SiO2 
 PCOD8200072
Probable space group: P M M M
;
_chemical_formula_sum "Si O2"
_cell_formula_units_Z 49
_cell_length_a 18.779479
_cell_length_b 14.845404
_cell_length_c 8.956974
_cell_angle_alpha 90.000000
_cell_angle_beta 90.000000
_cell_angle_gamma 90.000000
_cell_volume 2497.105401
_symmetry_space_group_name_H-M "P M M M"
_symmetry_group_IT_number 47
_symmetry_cell_setting 'orthorhombic'
loop_
_space_group_symop_operation_xyz
x,y,z
-x,-y,z
x,-y,-z
-x,y,-z
-x,-y,-z
x,y,-z
-x,y,z
x,-y,z
loop_
_atom_site_type_symbol
_atom_site_label
_atom_site_fract_x
_atom_site_fract_y
_atom_site_fract_z
Si Si1 0.416452 0.756990 0.327147
Si Si2 0.000000 0.500000 0.500000
Si Si3 0.177003 0.333486 0.833528
Si Si4 0.084212 0.000000 0.171029
Si Si5 0.332892 0.396583 0.825700
Si Si6 0.076970 0.500000 0.208716
Si Si7 0.829172 0.846648 0.323464
Si Si8 0.318095 0.896111 0.172663
O O1 0.396526 0.769623 0.500000
O O2 0.500000 0.758693 0.300032
O O3 0.387166 0.661641 0.271035
O O4 0.383632 0.838408 0.232676
O O5 0.934332 0.500000 0.385062
O O6 0.252612 0.371809 0.779055
O O7 0.119416 0.411719 0.838931
O O8 0.151489 0.255338 0.721608
O O9 0.184423 0.292643 0.000000
O O10 0.112352 0.088755 0.251808
O O11 0.000000 0.000000 0.181281
O O12 0.110977 0.000000 0.000000
O O13 0.347382 0.500000 0.785750
O O14 0.345683 0.377770 0.000000
O O15 0.000000 0.500000 0.125251
O O16 0.832119 0.857312 0.500000
O O17 0.751422 0.872058 0.266115
O O18 0.338013 0.000000 0.194671
O O19 0.304036 0.872619 0.000000
#
# Coordination Sequence:
#
# PCOD8200072 Si02
#       8
#     8   1   8   4   8   4   8   8
#     4  11  25  43  62  92 132 170 210 260 319 381
#     4   8  24  44  58  92 136 170 208 272 328 380
#     4  11  22  39  65  95 126 166 215 264 313 380
#     4  11  25  47  69  93 128 171 216 265 317 375
#     4  10  21  39  64  94 124 163 214 264 313 373
#     4  10  23  42  64  87 134 169 211 262 326 373
#     4  12  25  39  66  98 130 167 211 262 320 379
#     4  11  23  41  67  95 126 164 211 262 314 379
#
# _framework density 19.622720000000001
#
# number of rings (size 3 to 8) (size 9 to 14) (size 15 to 20)
#    0.245    0.898    3.265    2.939    1.143    5.224 
#    0.000    3.265    0.000    0.000    0.000    0.000 
#    0.000    0.000    0.000    0.000    0.000    0.000 
#
# Total GULP energy -607258.484793 kJ/mol
# GULP energy per Si atom -12393.030302 kJ/mol
# Density = 1.957806 g / cm^3
# Si number density = 19.622720 Si / 1000 Ang^3
#
#
#
# Elastic Constant Matrix: (Units=GPa)
#
#
# Indices 1 2 3 4 5 6 
#
# 1 101.1484 60.4168 54.6295 0.0000 0.0000 0.0000
# 2 60.4168 153.1868 64.2860 0.0000 0.0000 0.0000
# 3 54.6295 64.2860 137.7361 0.0000 0.0000 0.0000
# 4 0.0000 0.0000 0.0000 6.3277 0.0000 0.0000
# 5 0.0000 0.0000 0.0000 0.0000 28.8834 0.0000
# 6 0.0000 0.0000 0.0000 0.0000 0.0000 37.7567
#
#
#
# Elastic Compliance Matrix: (Units=1/GPa)
#
#
# Indices 1 2 3 4 5 6 
#
# 1 0.014371 -0.004074 -0.003799 0.000000 0.000000 0.000000
# 2 -0.004074 0.009273 -0.002712 0.000000 0.000000 0.000000
# 3 -0.003799 -0.002712 0.010033 0.000000 0.000000 0.000000
# 4 0.000000 0.000000 0.000000 0.158036 0.000000 0.000000
# 5 0.000000 0.000000 0.000000 0.000000 0.034622 0.000000
# 6 0.000000 0.000000 0.000000 0.000000 0.000000 0.026485
#
#
# Mechanical properties :
#
#
# Convention : Reuss Voigt Hill
#
# Bulk Modulus (GPa) = 79.95101 83.41509 81.68305
# Shear Modulus (GPa) = 17.97529 28.77615 23.37572
#
# Velocity S-wave (km/s) = 3.02991 3.83361 3.45520
# Velocity P-wave (km/s) = 7.28512 7.88651 7.59178
#
# Compressibility (1/GPa) = 0.01250766
#
# Stress axis : x y z
#
# Youngs Moduli (GPa) = 69.58219 107.84080 99.67374
#
# Poissons Ratio (x) = 0.43934 0.37862
# Poissons Ratio (y) = 0.28348 0.27033
# Poissons Ratio (z) = 0.26432 0.29248
#
# Static dielectric constant tensor:
#      x y z
#    x 3.505090 0.000000 0.000000 
#    y 0.000000 3.490710 0.000000 
#    z 0.000000 0.000000 3.714360 
# 
# 
# High freq. dielectric constant tensor:
#      x y z
#    x 1.764690 0.000000 0.000000 
#    y 0.000000 1.772510 0.000000 
#    z 0.000000 0.000000 1.779030 
# 
# From -- ./inp_files/9278.got.cif
#   From: 2010.03.12/outbox.cif.g09.slc.cpg/sg47_5_cif.got.tgz:9278.got - 2010.04.14 03:12:58.
