data_PCOD8200328
_publ_section_title
;
Structure prediction by ZEFSAII (Michael W. Deem and Ramdas Pophale) SiO2 
 PCOD8200328
Probable space group: P M M M
;
_chemical_formula_sum "Si O2"
_cell_formula_units_Z 40
_cell_length_a 12.691757
_cell_length_b 23.825721
_cell_length_c 8.132374
_cell_angle_alpha 90.000000
_cell_angle_beta 90.000000
_cell_angle_gamma 90.000000
_cell_volume 2459.150699
_symmetry_space_group_name_H-M "P M M M"
_symmetry_group_IT_number 47
_symmetry_cell_setting 'orthorhombic'
loop_
_space_group_symop_operation_xyz
x,y,z
-x,-y,z
x,-y,-z
-x,y,-z
-x,-y,-z
x,y,-z
-x,y,z
x,-y,z
loop_
_atom_site_type_symbol
_atom_site_label
_atom_site_fract_x
_atom_site_fract_y
_atom_site_fract_z
Si Si1 0.125601 0.563858 0.500000
Si Si2 0.122213 0.251099 0.309162
Si Si3 0.125203 0.630732 0.817165
Si Si4 0.809112 0.867577 0.311390
Si Si5 0.620123 0.936350 0.192802
Si Si6 0.000000 0.060861 0.188455
O O1 0.165044 0.500000 0.500000
O O2 0.170535 0.592598 0.667737
O O3 0.000000 0.567871 0.500000
O O4 0.141756 0.264643 0.500000
O O5 0.162022 0.304994 0.207662
O O6 0.187154 0.196652 0.246597
O O7 0.000000 0.238332 0.275349
O O8 0.000000 0.627984 0.808453
O O9 0.163526 0.610595 0.000000
O O10 0.841714 0.866357 0.500000
O O11 0.692981 0.892509 0.287913
O O12 0.894314 0.905615 0.223534
O O13 0.500000 0.922703 0.240680
O O14 0.648139 0.000000 0.245812
O O15 0.638210 0.929143 0.000000
O O16 0.000000 0.000000 0.281018
O O17 0.000000 0.047429 0.000000
#
# Coordination Sequence:
#
# PCOD8200328 Si02
#       6
#     4   8   8   8   8   4
#     4   9  16  26  38  54  80 112 145 190 229 255
#     4   9  16  29  43  57  86 116 142 180 229 274
#     4   9  16  25  39  57  77 110 149 185 225 266
#     4  11  21  32  48  70  90 113 146 190 235 278
#     4   9  19  36  53  66  85 115 149 186 230 283
#     4  11  23  35  45  61  91 123 147 180 229 284
#
# _framework density 16.265778999999998
#
# number of rings (size 3 to 8) (size 9 to 14) (size 15 to 20)
#    0.000    2.400    2.000    2.100    0.000    6.000 
#    0.000    3.000    0.000    0.000    0.000    0.000 
#    0.000    0.000    0.000    0.000    0.000    2.000 
#
# Total GULP energy -495799.286602 kJ/mol
# GULP energy per Si atom -12394.982165 kJ/mol
# Density = 1.622876 g / cm^3
# Si number density = 16.265779 Si / 1000 Ang^3
#
#
#
# Elastic Constant Matrix: (Units=GPa)
#
#
# Indices 1 2 3 4 5 6 
#
# 1 45.6058 29.5266 14.9303 0.0000 0.0000 0.0000
# 2 29.5266 123.4869 57.1426 0.0000 0.0000 0.0000
# 3 14.9303 57.1426 87.3718 0.0000 0.0000 0.0000
# 4 0.0000 0.0000 0.0000 15.1109 0.0000 0.0000
# 5 0.0000 0.0000 0.0000 0.0000 -0.8729 0.0000
# 6 0.0000 0.0000 0.0000 0.0000 0.0000 18.7694
#
#
#
# Elastic Compliance Matrix: (Units=1/GPa)
#
#
# Indices 1 2 3 4 5 6 
#
# 1 0.025961 -0.005958 -0.000540 0.000000 0.000000 0.000000
# 2 -0.005958 0.012980 -0.007471 0.000000 0.000000 0.000000
# 3 -0.000540 -0.007471 0.016424 0.000000 0.000000 0.000000
# 4 0.000000 0.000000 0.000000 0.066177 0.000000 0.000000
# 5 0.000000 0.000000 0.000000 0.000000 -1.145550 0.000000
# 6 0.000000 0.000000 0.000000 0.000000 0.000000 0.053278
#
#
# Mechanical properties :
#
#
# Convention : Reuss Voigt Hill
#
# Bulk Modulus (GPa) = 36.45975 51.07374 43.76674
# Shear Modulus (GPa) = -5.35532 16.92581 5.78525
#
# Velocity S-wave (km/s) = -1.81646 3.22930 1.88797
# Velocity P-wave (km/s) = 4.25021 6.73589 5.63189
#
# Compressibility (1/GPa) = 0.02742751
#
# Stress axis : x y z
#
# Youngs Moduli (GPa) = 38.51944 77.04400 60.88787
#
# Poissons Ratio (x) = 0.45900 0.03287
# Poissons Ratio (y) = 0.22948 0.45488
# Poissons Ratio (z) = 0.02080 0.57558
#
# Static dielectric constant tensor:
#      x y z
#    x 2.646620 0.000000 0.000000 
#    y 0.000000 3.214620 0.000000 
#    z 0.000000 0.000000 3.193620 
# 
# 
# High freq. dielectric constant tensor:
#      x y z
#    x 1.558840 0.000000 0.000000 
#    y 0.000000 1.626940 0.000000 
#    z 0.000000 0.000000 1.635030 
# 
# From -- ./inp_files/4117.got.cif
#   From: 2010.03.12/outbox.cif.g09.slc.cpg/sg47_3_cif.got.tgz:4117.got - 2010.04.14 03:12:58.
