data_PCOD8200237
_publ_section_title
;
Structure prediction by ZEFSAII (Michael W. Deem and Ramdas Pophale) SiO2 
 PCOD8200237
Probable space group: P M M M
;
_chemical_formula_sum "Si O2"
_cell_formula_units_Z 36
_cell_length_a 9.112789
_cell_length_b 15.507922
_cell_length_c 14.380407
_cell_angle_alpha 90.000000
_cell_angle_beta 90.000000
_cell_angle_gamma 90.000000
_cell_volume 2032.245172
_symmetry_space_group_name_H-M "P M M M"
_symmetry_group_IT_number 47
_symmetry_cell_setting 'orthorhombic'
loop_
_space_group_symop_operation_xyz
x,y,z
-x,-y,z
x,-y,-z
-x,y,-z
-x,-y,-z
x,y,-z
-x,y,z
x,-y,z
loop_
_atom_site_type_symbol
_atom_site_label
_atom_site_fract_x
_atom_site_fract_y
_atom_site_fract_z
Si Si1 0.826913 0.738824 0.717989
Si Si2 0.331857 0.230679 0.102218
Si Si3 0.174199 0.096210 0.395247
Si Si4 0.169724 0.099862 0.000000
Si Si5 0.334998 0.597101 0.609687
O O1 0.749011 0.717867 0.816265
O O2 0.767543 0.829375 0.674367
O O3 0.785704 0.660618 0.651130
O O4 0.000000 0.740931 0.732608
O O5 0.500000 0.215476 0.129863
O O6 0.248115 0.138606 0.092126
O O7 0.320008 0.278013 0.000000
O O8 0.233201 0.114156 0.500000
O O9 0.000000 0.100021 0.396936
O O10 0.225432 0.000000 0.362751
O O11 0.000000 0.125946 0.000000
O O12 0.195077 0.000000 0.000000
O O13 0.320731 0.601754 0.500000
O O14 0.500000 0.623889 0.640411
O O15 0.301766 0.500000 0.644243
#
# Coordination Sequence:
#
# PCOD8200237 Si02
#       5
#     8   8   8   4   8
#     4  11  20  30  52  81 106 134 174 223 273 317
#     4   9  20  35  50  69  98 137 176 214 260 317
#     4   8  15  28  44  66 100 137 170 205 249 305
#     4   9  17  31  51  73  98 129 170 223 275 315
#     4   9  19  36  56  78 107 143 179 215 262 324
#
# _framework density 17.714397999999999
#
# number of rings (size 3 to 8) (size 9 to 14) (size 15 to 20)
#    0.667    2.111    0.000    3.333    0.000    3.556 
#    0.000    3.333    0.000    2.667    0.000   12.444 
#    0.000    0.000    0.000    0.000    0.000    0.000 
#
# Total GULP energy -446036.180539 kJ/mol
# GULP energy per Si atom -12389.893904 kJ/mol
# Density = 1.767408 g / cm^3
# Si number density = 17.714398 Si / 1000 Ang^3
#
#
#
# Elastic Constant Matrix: (Units=GPa)
#
#
# Indices 1 2 3 4 5 6 
#
# 1 72.5357 36.2062 34.4781 0.0000 0.0000 0.0000
# 2 36.2062 83.0213 38.6568 0.0000 0.0000 0.0000
# 3 34.4781 38.6568 76.4337 0.0000 0.0000 0.0000
# 4 0.0000 0.0000 0.0000 13.7524 0.0000 0.0000
# 5 0.0000 0.0000 0.0000 0.0000 20.7025 0.0000
# 6 0.0000 0.0000 0.0000 0.0000 0.0000 23.5947
#
#
#
# Elastic Compliance Matrix: (Units=1/GPa)
#
#
# Indices 1 2 3 4 5 6 
#
# 1 0.019443 -0.005749 -0.005863 0.000000 0.000000 0.000000
# 2 -0.005749 0.017456 -0.006235 0.000000 0.000000 0.000000
# 3 -0.005863 -0.006235 0.018881 0.000000 0.000000 0.000000
# 4 0.000000 0.000000 0.000000 0.072714 0.000000 0.000000
# 5 0.000000 0.000000 0.000000 0.000000 0.048303 0.000000
# 6 0.000000 0.000000 0.000000 0.000000 0.000000 0.042382
#
#
# Mechanical properties :
#
#
# Convention : Reuss Voigt Hill
#
# Bulk Modulus (GPa) = 49.78623 50.07477 49.93050
# Shear Modulus (GPa) = 19.11549 19.78658 19.45103
#
# Velocity S-wave (km/s) = 3.28852 3.34575 3.31726
# Velocity P-wave (km/s) = 6.52573 6.57682 6.55132
#
# Compressibility (1/GPa) = 0.02008587
#
# Stress axis : x y z
#
# Youngs Moduli (GPa) = 51.43315 57.28851 52.96324
#
# Poissons Ratio (x) = 0.32937 0.31050
# Poissons Ratio (y) = 0.29571 0.33021
# Poissons Ratio (z) = 0.30153 0.35718
#
# Static dielectric constant tensor:
#      x y z
#    x 3.143970 0.000000 0.000000 
#    y 0.000000 3.204450 0.000000 
#    z 0.000000 0.000000 3.389990 
# 
# 
# High freq. dielectric constant tensor:
#      x y z
#    x 1.674490 0.000000 0.000000 
#    y 0.000000 1.662340 0.000000 
#    z 0.000000 0.000000 1.679500 
# 
# From -- ./inp_files/20581.got.cif
#   From: 2010.03.12/outbox.cif.g09.slc.cpg/sg47_11_cif.got.tgz:20581.got - 2010.04.14 03:12:58.
