data_PCOD8200983
_publ_section_title
;
Structure prediction by ZEFSAII (Michael W. Deem and Ramdas Pophale) SiO2 
 PCOD8200983
Probable space group: P M M M
;
_chemical_formula_sum "Si O2"
_cell_formula_units_Z 52
_cell_length_a 26.634016
_cell_length_b 9.444718
_cell_length_c 13.644739
_cell_angle_alpha 90.000000
_cell_angle_beta 90.000000
_cell_angle_gamma 90.000000
_cell_volume 3432.344606
_symmetry_space_group_name_H-M "P M M M"
_symmetry_group_IT_number 47
_symmetry_cell_setting 'orthorhombic'
loop_
_space_group_symop_operation_xyz
x,y,z
-x,-y,z
x,-y,-z
-x,y,-z
-x,-y,-z
x,y,-z
-x,y,z
x,-y,z
loop_
_atom_site_type_symbol
_atom_site_label
_atom_site_fract_x
_atom_site_fract_y
_atom_site_fract_z
Si Si1 0.500000 0.660124 0.616459
Si Si2 0.757418 0.837304 0.890229
Si Si3 0.786632 0.663049 0.609274
Si Si4 0.404922 0.163912 0.614057
Si Si5 0.844282 0.666423 0.202147
Si Si6 0.054847 0.668075 0.889606
Si Si7 0.700084 0.835702 0.699824
O O1 0.500000 0.500000 0.657447
O O2 0.500000 0.661649 0.500000
O O3 0.549296 0.741732 0.654228
O O4 0.806007 0.742144 0.871167
O O5 0.713059 0.800583 0.813284
O O6 0.773957 0.000000 0.877866
O O7 0.737258 0.807197 0.000000
O O8 0.806901 0.694026 0.500000
O O9 0.771430 0.500000 0.622583
O O10 0.830684 0.704321 0.685442
O O11 0.736764 0.752328 0.627730
O O12 0.393515 0.193619 0.500000
O O13 0.356803 0.210101 0.677804
O O14 0.418904 0.000000 0.630381
O O15 0.840205 0.500000 0.181092
O O16 0.900644 0.723296 0.181117
O O17 0.054168 0.500000 0.888994
O O18 0.000000 0.723988 0.853407
O O19 0.065069 0.722411 0.000000
O O20 0.707382 0.000000 0.675273
#
# Coordination Sequence:
#
# PCOD8200983 Si02
#       7
#     4   8   8   8   8   8   8
#     4   9  17  27  39  57  80 105 130 156 191 233
#     4   9  17  28  41  59  84 108 128 157 198 237
#     4   9  17  27  38  55  80 106 130 160 198 234
#     4   9  16  26  40  57  78 103 130 160 190 221
#     4   9  16  26  41  58  76 102 134 163 192 233
#     4   8  13  21  35  56  77  95 122 163 203 234
#     4   9  17  28  42  60  80 105 136 163 190 230
#
# _framework density 15.149993
#
# number of rings (size 3 to 8) (size 9 to 14) (size 15 to 20)
#    0.000    3.154    0.000    1.615    0.000    3.385 
#    0.000    1.538    0.000    0.923    0.000    5.923 
#    0.000    4.308    0.000    7.692    0.000    8.308 
#
# Total GULP energy -644550.836686 kJ/mol
# GULP energy per Si atom -12395.208398 kJ/mol
# Density = 1.511551 g / cm^3
# Si number density = 15.149993 Si / 1000 Ang^3
#
#
#
# Elastic Constant Matrix: (Units=GPa)
#
#
# Indices 1 2 3 4 5 6 
#
# 1 147.1384 45.6377 61.7251 0.0000 0.0000 0.0000
# 2 45.6377 40.3592 27.9684 0.0000 0.0000 0.0000
# 3 61.7251 27.9684 87.7141 0.0000 0.0000 0.0000
# 4 0.0000 0.0000 0.0000 14.8232 0.0000 0.0000
# 5 0.0000 0.0000 0.0000 0.0000 21.2775 0.0000
# 6 0.0000 0.0000 0.0000 0.0000 0.0000 16.9062
#
#
#
# Elastic Compliance Matrix: (Units=1/GPa)
#
#
# Indices 1 2 3 4 5 6 
#
# 1 0.012155 -0.010034 -0.005354 0.000000 0.000000 0.000000
# 2 -0.010034 0.040089 -0.005722 0.000000 0.000000 0.000000
# 3 -0.005354 -0.005722 0.016993 0.000000 0.000000 0.000000
# 4 0.000000 0.000000 0.000000 0.067462 0.000000 0.000000
# 5 0.000000 0.000000 0.000000 0.000000 0.046998 0.000000
# 6 0.000000 0.000000 0.000000 0.000000 0.000000 0.059150
#
#
# Mechanical properties :
#
#
# Convention : Reuss Voigt Hill
#
# Bulk Modulus (GPa) = 37.01369 60.65268 48.83319
# Shear Modulus (GPa) = 17.00273 19.92675 18.46474
#
# Velocity S-wave (km/s) = 3.35370 3.63064 3.49491
# Velocity P-wave (km/s) = 6.28338 7.59586 6.97058
#
# Compressibility (1/GPa) = 0.02701703
#
# Stress axis : x y z
#
# Youngs Moduli (GPa) = 82.27397 24.94450 58.84929
#
# Poissons Ratio (x) = 0.25030 0.31507
# Poissons Ratio (y) = 0.82555 0.33672
# Poissons Ratio (z) = 0.44048 0.14272
#
# Static dielectric constant tensor:
#      x y z
#    x 3.061300 0.000000 0.000000 
#    y 0.000000 2.842390 0.000000 
#    z 0.000000 0.000000 2.918540 
# 
# 
# High freq. dielectric constant tensor:
#      x y z
#    x 1.573610 0.000000 0.000000 
#    y 0.000000 1.568380 0.000000 
#    z 0.000000 0.000000 1.561240 
# 
# From -- ./inp_files/25716.got.cif
#   From: 2010.03.12/outbox.cif.g09.slc.cpg/sg47_13_cif.got.tgz:25716.got - 2010.04.14 03:12:58.
