data_PCOD8200654
_publ_section_title
;
Structure prediction by ZEFSAII (Michael W. Deem and Ramdas Pophale) SiO2 
 PCOD8200654
Probable space group: P M M M
;
_chemical_formula_sum "Si O2"
_cell_formula_units_Z 28
_cell_length_a 9.670562
_cell_length_b 7.402655
_cell_length_c 19.618573
_cell_angle_alpha 90.000000
_cell_angle_beta 90.000000
_cell_angle_gamma 90.000000
_cell_volume 1404.451150
_symmetry_space_group_name_H-M "P M M M"
_symmetry_group_IT_number 47
_symmetry_cell_setting 'orthorhombic'
loop_
_space_group_symop_operation_xyz
x,y,z
-x,-y,z
x,-y,-z
-x,y,-z
-x,-y,-z
x,y,-z
-x,y,z
x,-y,z
loop_
_atom_site_type_symbol
_atom_site_label
_atom_site_fract_x
_atom_site_fract_y
_atom_site_fract_z
Si Si1 0.652329 0.214221 0.807966
Si Si2 0.154496 0.785381 0.075082
Si Si3 0.159195 0.500000 0.419370
Si Si4 0.661242 0.210757 0.345372
O O1 0.500000 0.293162 0.821463
O O2 0.751995 0.300126 0.865205
O O3 0.700612 0.266953 0.731988
O O4 0.648633 0.000000 0.813996
O O5 0.000000 0.710917 0.085476
O O6 0.154591 0.000000 0.080376
O O7 0.209402 0.726792 0.000000
O O8 0.163205 0.500000 0.500000
O O9 0.238711 0.678304 0.394392
O O10 0.000000 0.500000 0.393363
O O11 0.500000 0.255741 0.359663
O O12 0.689401 0.000000 0.358317
#
# Coordination Sequence:
#
# PCOD8200654 Si02
#       4
#     8   8   4   8
#     4   8  14  25  42  66  95 127 168 217 263 307
#     4   8  13  20  31  53  89 131 172 212 254 303
#     4  11  25  41  57  83 116 145 176 217 267 326
#     4   9  19  37  60  84 110 143 184 227 270 320
#
# _framework density 19.936612
#
# number of rings (size 3 to 8) (size 9 to 14) (size 15 to 20)
#    0.000    3.286    0.000    3.000    0.000    4.000 
#    0.000    8.571    0.000    0.000    0.000    1.000 
#    0.000    8.000    0.000    0.857    0.000    0.000 
#
# Total GULP energy -346995.558037 kJ/mol
# GULP energy per Si atom -12392.698501 kJ/mol
# Density = 1.989124 g / cm^3
# Si number density = 19.936612 Si / 1000 Ang^3
#
#
#
# Elastic Constant Matrix: (Units=GPa)
#
#
# Indices 1 2 3 4 5 6 
#
# 1 126.0018 42.6400 85.4048 0.0000 0.0000 0.0000
# 2 42.6400 65.6738 33.3681 0.0000 0.0000 0.0000
# 3 85.4048 33.3681 127.1061 0.0000 0.0000 0.0000
# 4 0.0000 0.0000 0.0000 -91.7337 0.0000 0.0000
# 5 0.0000 0.0000 0.0000 0.0000 43.6104 0.0000
# 6 0.0000 0.0000 0.0000 0.0000 0.0000 11.1799
#
#
#
# Elastic Compliance Matrix: (Units=1/GPa)
#
#
# Indices 1 2 3 4 5 6 
#
# 1 0.016278 -0.005783 -0.009419 0.000000 0.000000 0.000000
# 2 -0.005783 0.019625 -0.001266 0.000000 0.000000 0.000000
# 3 -0.009419 -0.001266 0.014529 0.000000 0.000000 0.000000
# 4 0.000000 0.000000 0.000000 -0.010901 0.000000 0.000000
# 5 0.000000 0.000000 0.000000 0.000000 0.022930 0.000000
# 6 0.000000 0.000000 0.000000 0.000000 0.000000 0.089446
#
#
# Mechanical properties :
#
#
# Convention : Reuss Voigt Hill
#
# Bulk Modulus (GPa) = 57.16048 71.28974 64.22511
# Shear Modulus (GPa) = 26.22262 3.10256 14.66259
#
# Velocity S-wave (km/s) = 3.63064 1.24884 2.71488
# Velocity P-wave (km/s) = 6.80505 6.15754 6.48938
#
# Compressibility (1/GPa) = 0.01749461
#
# Stress axis : x y z
#
# Youngs Moduli (GPa) = 61.43355 50.95587 68.82882
#
# Poissons Ratio (x) = 0.29467 0.64831
# Poissons Ratio (y) = 0.35526 0.08716
# Poissons Ratio (z) = 0.57865 0.06453
#
# Static dielectric constant tensor:
#      x y z
#    x 3.907920 0.000000 0.000000 
#    y 0.000000 3.218110 0.000000 
#    z 0.000000 0.000000 3.792110 
# 
# 
# High freq. dielectric constant tensor:
#      x y z
#    x 1.768850 0.000000 0.000000 
#    y 0.000000 1.759230 0.000000 
#    z 0.000000 0.000000 1.778150 
# 
# From -- ./inp_files/819.got.cif
#   From: 2010.03.12/outbox.cif.g09.slc.cpg/sg47_1_cif.got.tgz:819.got - 2010.04.14 03:12:58.
