data_PCOD8200514
_publ_section_title
;
Structure prediction by ZEFSAII (Michael W. Deem and Ramdas Pophale) SiO2 
 PCOD8200514
Probable space group: P M M M
;
_chemical_formula_sum "Si O2"
_cell_formula_units_Z 48
_cell_length_a 8.600998
_cell_length_b 29.187412
_cell_length_c 10.031339
_cell_angle_alpha 90.000000
_cell_angle_beta 90.000000
_cell_angle_gamma 90.000000
_cell_volume 2518.276092
_symmetry_space_group_name_H-M "P M M M"
_symmetry_group_IT_number 47
_symmetry_cell_setting 'orthorhombic'
loop_
_space_group_symop_operation_xyz
x,y,z
-x,-y,z
x,-y,-z
-x,y,-z
-x,-y,-z
x,y,-z
-x,y,z
x,-y,z
loop_
_atom_site_type_symbol
_atom_site_label
_atom_site_fract_x
_atom_site_fract_y
_atom_site_fract_z
Si Si1 0.315463 0.875403 0.646777
Si Si2 0.682500 0.771346 0.346281
Si Si3 0.817764 0.697601 0.845308
Si Si4 0.182712 0.448080 0.500000
Si Si5 0.683330 0.394986 0.747093
Si Si6 0.684815 0.449367 0.000000
Si Si7 0.314948 0.050999 0.148897
O O1 0.251371 0.887980 0.500000
O O2 0.500000 0.879231 0.646412
O O3 0.268448 0.823637 0.683096
O O4 0.241989 0.911192 0.751908
O O5 0.724343 0.758269 0.500000
O O6 0.500000 0.763522 0.322345
O O7 0.779054 0.742949 0.238016
O O8 0.729011 0.657555 0.766970
O O9 0.000000 0.687958 0.840963
O O10 0.761445 0.701869 0.000000
O O11 0.254255 0.500000 0.500000
O O12 0.235632 0.418541 0.375934
O O13 0.000000 0.452246 0.500000
O O14 0.500000 0.398570 0.728091
O O15 0.747359 0.422733 0.872879
O O16 0.756813 0.500000 0.000000
O O17 0.500000 0.451116 0.000000
O O18 0.500000 0.053743 0.150762
O O19 0.261734 0.000000 0.193269
O O20 0.253826 0.061480 0.000000
#
# Coordination Sequence:
#
# PCOD8200514 Si02
#       7
#     8   8   8   4   8   4   8
#     4   8  14  25  40  61  90 124 165 214 262 310
#     4   9  19  35  55  78 104 136 179 227 273 324
#     4  11  24  40  57  80 112 144 178 222 276 335
#     4  11  25  43  61  87 123 157 187 221 266 319
#     4  11  22  39  63  88 115 147 186 229 270 317
#     4   9  18  34  59  89 115 139 175 223 268 309
#     4   8  13  20  31  52  86 127 168 208 254 310
#
# _framework density 19.060659000000001
#
# number of rings (size 3 to 8) (size 9 to 14) (size 15 to 20)
#    0.000    2.500    0.833    3.250    1.167    3.667 
#    0.000    3.333    0.000    2.000    0.000    0.000 
#    0.000    0.667    0.000    7.333    0.000   12.000 
#
# Total GULP energy -595020.839710 kJ/mol
# GULP energy per Si atom -12396.267494 kJ/mol
# Density = 1.901728 g / cm^3
# Si number density = 19.060659 Si / 1000 Ang^3
#
#
#
# Elastic Constant Matrix: (Units=GPa)
#
#
# Indices 1 2 3 4 5 6 
#
# 1 33.0126 13.5792 23.0010 0.0000 0.0000 0.0000
# 2 13.5792 141.8262 88.9116 0.0000 0.0000 0.0000
# 3 23.0010 88.9116 150.1639 0.0000 0.0000 0.0000
# 4 0.0000 0.0000 0.0000 47.1056 0.0000 0.0000
# 5 0.0000 0.0000 0.0000 0.0000 22.3518 0.0000
# 6 0.0000 0.0000 0.0000 0.0000 0.0000 10.5075
#
#
#
# Elastic Compliance Matrix: (Units=1/GPa)
#
#
# Indices 1 2 3 4 5 6 
#
# 1 0.033910 0.000015 -0.005203 0.000000 0.000000 0.000000
# 2 0.000015 0.011213 -0.006642 0.000000 0.000000 0.000000
# 3 -0.005203 -0.006642 0.011389 0.000000 0.000000 0.000000
# 4 0.000000 0.000000 0.000000 0.021229 0.000000 0.000000
# 5 0.000000 0.000000 0.000000 0.000000 0.044739 0.000000
# 6 0.000000 0.000000 0.000000 0.000000 0.000000 0.095170
#
#
# Mechanical properties :
#
#
# Convention : Reuss Voigt Hill
#
# Bulk Modulus (GPa) = 30.43845 63.99850 47.21848
# Shear Modulus (GPa) = 19.82080 29.29371 24.55725
#
# Velocity S-wave (km/s) = 3.22822 3.92454 3.59329
# Velocity P-wave (km/s) = 5.46801 7.36106 6.48399
#
# Compressibility (1/GPa) = 0.03285318
#
# Stress axis : x y z
#
# Youngs Moduli (GPa) = 29.48948 89.18180 87.80568
#
# Poissons Ratio (x) = -0.00134 0.45686
# Poissons Ratio (y) = -0.00044 0.58316
# Poissons Ratio (z) = 0.15344 0.59230
#
# Static dielectric constant tensor:
#      x y z
#    x 3.019770 0.000000 0.000000 
#    y 0.000000 3.715810 0.000000 
#    z 0.000000 0.000000 3.749330 
# 
# 
# High freq. dielectric constant tensor:
#      x y z
#    x 1.697960 0.000000 0.000000 
#    y 0.000000 1.752490 0.000000 
#    z 0.000000 0.000000 1.752020 
# 
# From -- ./inp_files/2564.got.cif
#   From: 2010.03.12/outbox.cif.g09.slc.cpg/sg47_2_cif.got.tgz:2564.got - 2010.04.14 03:12:58.
