data_PCOD8200740
_publ_section_title
;
Structure prediction by ZEFSAII (Michael W. Deem and Ramdas Pophale) SiO2 
 PCOD8200740
Probable space group: P M M M
;
_chemical_formula_sum "Si O2"
_cell_formula_units_Z 52
_cell_length_a 9.418826
_cell_length_b 34.230385
_cell_length_c 9.281499
_cell_angle_alpha 90.000000
_cell_angle_beta 90.000000
_cell_angle_gamma 90.000000
_cell_volume 2992.448466
_symmetry_space_group_name_H-M "P M M M"
_symmetry_group_IT_number 47
_symmetry_cell_setting 'orthorhombic'
loop_
_space_group_symop_operation_xyz
x,y,z
-x,-y,z
x,-y,-z
-x,y,-z
-x,-y,-z
x,y,-z
-x,y,z
x,-y,z
loop_
_atom_site_type_symbol
_atom_site_label
_atom_site_fract_x
_atom_site_fract_y
_atom_site_fract_z
Si Si1 0.159157 0.958641 0.171230
Si Si2 0.170135 0.124989 0.162591
Si Si3 0.835517 0.273686 0.832713
Si Si4 0.665336 0.349616 0.833288
Si Si5 0.668974 0.425259 0.663039
Si Si6 0.669411 0.500000 0.163551
Si Si7 0.169112 0.198409 0.662206
O O1 0.229506 0.917357 0.221582
O O2 0.000000 0.960453 0.233064
O O3 0.236119 0.000000 0.218586
O O4 0.153382 0.956511 0.000000
O O5 0.230738 0.159434 0.262721
O O6 0.000000 0.123792 0.165783
O O7 0.222799 0.133099 0.000000
O O8 0.749399 0.311506 0.781524
O O9 0.775936 0.236645 0.745422
O O10 0.000000 0.281451 0.798954
O O11 0.810098 0.264748 0.000000
O O12 0.500000 0.341832 0.806152
O O13 0.722260 0.385765 0.739338
O O14 0.695843 0.359271 0.000000
O O15 0.728058 0.426961 0.500000
O O16 0.500000 0.426487 0.662679
O O17 0.728151 0.462020 0.753012
O O18 0.500000 0.500000 0.162194
O O19 0.727652 0.500000 0.000000
O O20 0.227045 0.199885 0.500000
O O21 0.000000 0.197332 0.667152
#
# Coordination Sequence:
#
# PCOD8200740 Si02
#       7
#     8   8   8   8   8   4   8
#     4   7   9  13  22  37  55  75 104 143 182 219
#     4   8  12  18  29  43  59  82 113 149 188 228
#     4   9  17  29  44  60  78 102 133 166 197 232
#     4   9  17  29  44  62  84 108 133 162 197 235
#     4   9  16  25  38  58  84 111 137 165 197 234
#     4   9  15  23  37  57  82 111 140 169 200 232
#     4   9  16  24  34  49  69  92 120 157 197 232
#
# _framework density 17.377074
#
# number of rings (size 3 to 8) (size 9 to 14) (size 15 to 20)
#    0.000    3.462    0.000    2.538    0.000    5.231 
#    0.000    0.000    0.000    0.462    0.000    3.769 
#    0.000    4.308    0.000    0.000    0.000    0.769 
#
# Total GULP energy -644240.442017 kJ/mol
# GULP energy per Si atom -12389.239270 kJ/mol
# Density = 1.733752 g / cm^3
# Si number density = 17.377074 Si / 1000 Ang^3
#
#
#
# Elastic Constant Matrix: (Units=GPa)
#
#
# Indices 1 2 3 4 5 6 
#
# 1 10.8163 24.5528 12.9212 0.0000 0.0000 0.0000
# 2 24.5528 218.4694 95.2443 0.0000 0.0000 0.0000
# 3 12.9212 95.2443 106.1314 0.0000 0.0000 0.0000
# 4 0.0000 0.0000 0.0000 12.0696 0.0000 0.0000
# 5 0.0000 0.0000 0.0000 0.0000 6.7917 0.0000
# 6 0.0000 0.0000 0.0000 0.0000 0.0000 -2.3404
#
#
#
# Elastic Compliance Matrix: (Units=1/GPa)
#
#
# Indices 1 2 3 4 5 6 
#
# 1 0.125301 -0.012207 -0.004300 0.000000 0.000000 0.000000
# 2 -0.012207 0.008708 -0.006329 0.000000 0.000000 0.000000
# 3 -0.004300 -0.006329 0.015625 0.000000 0.000000 0.000000
# 4 0.000000 0.000000 0.000000 0.082853 0.000000 0.000000
# 5 0.000000 0.000000 0.000000 0.000000 0.147239 0.000000
# 6 0.000000 0.000000 0.000000 0.000000 0.000000 -0.427274
#
#
# Mechanical properties :
#
#
# Convention : Reuss Voigt Hill
#
# Bulk Modulus (GPa) = 9.61888 66.76150 38.19019
# Shear Modulus (GPa) = 152.54171 16.81743 84.67957
#
# Velocity S-wave (km/s) = 9.37944 3.11431 6.98831
# Velocity P-wave (km/s) = 11.08359 7.17179 9.33490
#
# Compressibility (1/GPa) = 0.10396216
#
# Stress axis : x y z
#
# Youngs Moduli (GPa) = 7.98081 114.83219 63.99838
#
# Poissons Ratio (x) = 1.40180 0.27518
# Poissons Ratio (y) = 0.09742 0.40504
# Poissons Ratio (z) = 0.03432 0.72675
#
# Static dielectric constant tensor:
#      x y z
#    x 2.474080 0.000000 0.000000 
#    y 0.000000 3.749610 0.000000 
#    z 0.000000 0.000000 3.192690 
# 
# 
# High freq. dielectric constant tensor:
#      x y z
#    x 1.578470 0.000000 0.000000 
#    y 0.000000 1.700400 0.000000 
#    z 0.000000 0.000000 1.656450 
# 
# From -- ./inp_files/4831.got.cif
#   From: 2010.03.12/outbox.cif.g09.slc.cpg/sg47_3_cif.got.tgz:4831.got - 2010.04.14 03:12:58.
