data_PCOD8200555
_publ_section_title
;
Structure prediction by ZEFSAII (Michael W. Deem and Ramdas Pophale) SiO2 
 PCOD8200555
Probable space group: P M M M
;
_chemical_formula_sum "Si O2"
_cell_formula_units_Z 64
_cell_length_a 9.047386
_cell_length_b 18.414853
_cell_length_c 20.674323
_cell_angle_alpha 90.000000
_cell_angle_beta 90.000000
_cell_angle_gamma 90.000000
_cell_volume 3444.472113
_symmetry_space_group_name_H-M "P M M M"
_symmetry_group_IT_number 47
_symmetry_cell_setting 'orthorhombic'
loop_
_space_group_symop_operation_xyz
x,y,z
-x,-y,z
x,-y,-z
-x,y,-z
-x,-y,-z
x,y,-z
-x,y,z
x,-y,z
loop_
_atom_site_type_symbol
_atom_site_label
_atom_site_fract_x
_atom_site_fract_y
_atom_site_fract_z
Si Si1 0.831116 0.583511 0.425041
Si Si2 0.169221 0.413275 0.792178
Si Si3 0.824728 0.418856 0.068345
Si Si4 0.174011 0.917603 0.803868
Si Si5 0.674218 0.671125 0.318814
Si Si6 0.667355 0.913734 0.070525
Si Si7 0.329691 0.916557 0.425167
Si Si8 0.175156 0.174502 0.318518
O O1 0.809623 0.601804 0.500000
O O2 0.791331 0.500000 0.410860
O O3 0.720860 0.634519 0.386046
O O4 0.000000 0.598750 0.403822
O O5 0.181549 0.500000 0.790318
O O6 0.223422 0.382906 0.863188
O O7 0.278023 0.380041 0.739899
O O8 0.000000 0.389568 0.777700
O O9 0.759549 0.500000 0.066156
O O10 0.000000 0.423334 0.070665
O O11 0.775115 0.379383 0.000000
O O12 0.236795 0.882371 0.870185
O O13 0.230226 0.871982 0.742825
O O14 0.000000 0.915242 0.809519
O O15 0.231097 0.000000 0.794396
O O16 0.500000 0.681929 0.318189
O O17 0.751937 0.747818 0.312059
O O18 0.500000 0.887662 0.080696
O O19 0.677523 0.000000 0.071033
O O20 0.725116 0.885738 0.000000
O O21 0.300111 0.898818 0.500000
O O22 0.500000 0.901294 0.407617
O O23 0.225097 0.864819 0.383891
O O24 0.289387 0.000000 0.410301
O O25 0.000000 0.182984 0.319911
#
# Coordination Sequence:
#
# PCOD8200555 Si02
#       8
#     8   8   8   8   8   8   8   8
#     4   9  19  38  63  86 106 131 166 208 254 306
#     4   9  17  31  53  78 104 136 173 214 259 307
#     4   7  10  19  40  72 103 127 158 204 254 301
#     4   9  18  32  51  76 102 128 164 213 264 307
#     4  12  25  37  51  74 106 142 177 214 257 307
#     4   8  14  25  43  70 102 133 165 201 245 302
#     4   9  19  37  60  85 112 139 167 203 250 305
#     4  11  23  38  55  75 103 139 179 221 259 300
#
# _framework density 18.580494999999999
#
# number of rings (size 3 to 8) (size 9 to 14) (size 15 to 20)
#    0.000    2.750    0.000    4.500    0.000    5.000 
#    0.000    3.750    0.000    1.125    0.000    3.500 
#    0.000    0.000    0.000    0.000    0.000    0.000 
#
# Total GULP energy -793122.272220 kJ/mol
# GULP energy per Si atom -12392.535503 kJ/mol
# Density = 1.853821 g / cm^3
# Si number density = 18.580495 Si / 1000 Ang^3
#
#
#
# Elastic Constant Matrix: (Units=GPa)
#
#
# Indices 1 2 3 4 5 6 
#
# 1 64.5327 33.7061 47.1846 0.0000 0.0000 0.0000
# 2 33.7061 64.0633 49.0864 0.0000 0.0000 0.0000
# 3 47.1846 49.0864 135.9763 0.0000 0.0000 0.0000
# 4 0.0000 0.0000 0.0000 -0.5500 0.0000 0.0000
# 5 0.0000 0.0000 0.0000 0.0000 19.4576 0.0000
# 6 0.0000 0.0000 0.0000 0.0000 0.0000 25.7180
#
#
#
# Elastic Compliance Matrix: (Units=1/GPa)
#
#
# Indices 1 2 3 4 5 6 
#
# 1 0.023719 -0.008533 -0.005150 0.000000 0.000000 0.000000
# 2 -0.008533 0.024648 -0.005937 0.000000 0.000000 0.000000
# 3 -0.005150 -0.005937 0.011284 0.000000 0.000000 0.000000
# 4 0.000000 0.000000 0.000000 -1.818120 0.000000 0.000000
# 5 0.000000 0.000000 0.000000 0.000000 0.051394 0.000000
# 6 0.000000 0.000000 0.000000 0.000000 0.000000 0.038883
#
#
# Mechanical properties :
#
#
# Convention : Reuss Voigt Hill
#
# Bulk Modulus (GPa) = 48.99285 58.28073 53.63679
# Shear Modulus (GPa) = -3.08233 17.89813 7.40790
#
# Velocity S-wave (km/s) = -1.28938 3.10703 1.99889
# Velocity P-wave (km/s) = 4.92021 6.65629 5.85298
#
# Compressibility (1/GPa) = 0.02041114
#
# Stress axis : x y z
#
# Youngs Moduli (GPa) = 42.16110 40.57130 88.61772
#
# Poissons Ratio (x) = 0.34620 0.45639
# Poissons Ratio (y) = 0.35977 0.52610
# Poissons Ratio (z) = 0.21713 0.24086
#
# Static dielectric constant tensor:
#      x y z
#    x 3.214900 0.000000 0.000000 
#    y 0.000000 3.132740 0.000000 
#    z 0.000000 0.000000 3.949520 
# 
# 
# High freq. dielectric constant tensor:
#      x y z
#    x 1.699030 0.000000 0.000000 
#    y 0.000000 1.684300 0.000000 
#    z 0.000000 0.000000 1.747380 
# 
# From -- ./inp_files/29998.got.cif
#   From: 2010.03.12/outbox.cif.g09.slc.cpg/sg47_15_cif.got.tgz:29998.got - 2010.04.14 03:12:58.
