data_PCOD8200969
_publ_section_title
;
Structure prediction by ZEFSAII (Michael W. Deem and Ramdas Pophale) SiO2 
 PCOD8200969
Probable space group: P M M M
;
_chemical_formula_sum "Si O2"
_cell_formula_units_Z 48
_cell_length_a 19.924957
_cell_length_b 9.932978
_cell_length_c 19.180406
_cell_angle_alpha 90.000000
_cell_angle_beta 90.000000
_cell_angle_gamma 90.000000
_cell_volume 3796.073933
_symmetry_space_group_name_H-M "P M M M"
_symmetry_group_IT_number 47
_symmetry_cell_setting 'orthorhombic'
loop_
_space_group_symop_operation_xyz
x,y,z
-x,-y,z
x,-y,-z
-x,y,-z
-x,-y,-z
x,y,-z
-x,y,z
x,-y,z
loop_
_atom_site_type_symbol
_atom_site_label
_atom_site_fract_x
_atom_site_fract_y
_atom_site_fract_z
Si Si1 0.310149 0.653702 0.417158
Si Si2 0.424691 0.849229 0.582915
Si Si3 0.079885 0.247850 0.163644
Si Si4 0.080139 0.500000 0.920793
Si Si5 0.924037 0.156427 0.688863
Si Si6 0.810544 0.845423 0.580859
Si Si7 0.919775 0.000000 0.922094
O O1 0.313530 0.648118 0.500000
O O2 0.307800 0.500000 0.387498
O O3 0.374848 0.734423 0.387252
O O4 0.245637 0.740207 0.393570
O O5 0.421206 0.848553 0.500000
O O6 0.500000 0.814227 0.608219
O O7 0.404421 0.000000 0.608918
O O8 0.108392 0.376539 0.123767
O O9 0.103074 0.240144 0.244283
O O10 0.000000 0.243854 0.162804
O O11 0.109505 0.126439 0.118898
O O12 0.000000 0.500000 0.923985
O O13 0.108408 0.500000 0.000000
O O14 0.877987 0.188700 0.622782
O O15 0.000000 0.198711 0.669114
O O16 0.921732 0.000000 0.709893
O O17 0.827571 0.824038 0.500000
O O18 0.786735 0.000000 0.594214
O O19 0.000000 0.000000 0.923928
O O20 0.890657 0.000000 0.000000
#
# Coordination Sequence:
#
# PCOD8200969 Si02
#       7
#     8   8   8   4   8   8   4
#     4   9  16  25  36  50  69  89 110 140 174 209
#     4   8  13  21  34  52  72  92 111 130 158 200
#     4   9  15  24  35  49  68  87 105 129 164 206
#     4   9  16  24  34  50  71  89 105 125 151 194
#     4   9  16  27  41  54  67  83 109 149 191 228
#     4   9  17  28  41  53  64  84 115 150 190 229
#     4   9  14  20  34  52  67  85 105 123 153 200
#
# _framework density 12.644643
#
# number of rings (size 3 to 8) (size 9 to 14) (size 15 to 20)
#    0.000    3.167    0.833    1.500    0.000    4.667 
#    1.500    3.333    0.000    0.000    0.000    2.333 
#    0.000    0.000    0.000    0.000    0.000    0.000 
#
# Total GULP energy -594770.377029 kJ/mol
# GULP energy per Si atom -12391.049521 kJ/mol
# Density = 1.261586 g / cm^3
# Si number density = 12.644643 Si / 1000 Ang^3
#
#
#
# Elastic Constant Matrix: (Units=GPa)
#
#
# Indices 1 2 3 4 5 6 
#
# 1 62.2006 42.9410 30.2318 0.0000 0.0000 0.0000
# 2 42.9410 103.1261 35.9993 0.0000 0.0000 0.0000
# 3 30.2318 35.9993 55.0074 0.0000 0.0000 0.0000
# 4 0.0000 0.0000 0.0000 16.2663 0.0000 0.0000
# 5 0.0000 0.0000 0.0000 0.0000 0.5591 0.0000
# 6 0.0000 0.0000 0.0000 0.0000 0.0000 10.5518
#
#
#
# Elastic Compliance Matrix: (Units=1/GPa)
#
#
# Indices 1 2 3 4 5 6 
#
# 1 0.025742 -0.007492 -0.009245 0.000000 0.000000 0.000000
# 2 -0.007492 0.014748 -0.005535 0.000000 0.000000 0.000000
# 3 -0.009245 -0.005535 0.026882 0.000000 0.000000 0.000000
# 4 0.000000 0.000000 0.000000 0.061477 0.000000 0.000000
# 5 0.000000 0.000000 0.000000 0.000000 1.788584 0.000000
# 6 0.000000 0.000000 0.000000 0.000000 0.000000 0.094770
#
#
# Mechanical properties :
#
#
# Convention : Reuss Voigt Hill
#
# Bulk Modulus (GPa) = 43.80079 48.74205 46.27142
# Shear Modulus (GPa) = 2.42206 12.88625 7.65416
#
# Velocity S-wave (km/s) = 1.38551 3.19581 2.46301
# Velocity P-wave (km/s) = 6.10529 7.22834 6.69042
#
# Compressibility (1/GPa) = 0.02283064
#
# Stress axis : x y z
#
# Youngs Moduli (GPa) = 38.84637 67.80403 37.19899
#
# Poissons Ratio (x) = 0.50797 0.34391
# Poissons Ratio (y) = 0.29103 0.20588
# Poissons Ratio (z) = 0.35914 0.37527
#
# Static dielectric constant tensor:
#      x y z
#    x 2.362630 0.000000 0.000000 
#    y 0.000000 2.817690 0.000000 
#    z 0.000000 0.000000 2.358880 
# 
# 
# High freq. dielectric constant tensor:
#      x y z
#    x 1.438090 0.000000 0.000000 
#    y 0.000000 1.489510 0.000000 
#    z 0.000000 0.000000 1.444980 
# 
# From -- ./inp_files/11422.got.cif
#   From: 2010.03.12/outbox.cif.g09.slc.cpg/sg47_6_cif.got.tgz:11422.got - 2010.04.14 03:12:58.
