data_PCOD8200838
_publ_section_title
;
Structure prediction by ZEFSAII (Michael W. Deem and Ramdas Pophale) SiO2 
 PCOD8200838
Probable space group: P M M M
;
_chemical_formula_sum "Si O2"
_cell_formula_units_Z 48
_cell_length_a 9.601512
_cell_length_b 15.437021
_cell_length_c 25.438353
_cell_angle_alpha 90.000000
_cell_angle_beta 90.000000
_cell_angle_gamma 90.000000
_cell_volume 3770.440690
_symmetry_space_group_name_H-M "P M M M"
_symmetry_group_IT_number 47
_symmetry_cell_setting 'orthorhombic'
loop_
_space_group_symop_operation_xyz
x,y,z
-x,-y,z
x,-y,-z
-x,y,-z
-x,-y,-z
x,y,-z
-x,y,z
x,-y,z
loop_
_atom_site_type_symbol
_atom_site_label
_atom_site_fract_x
_atom_site_fract_y
_atom_site_fract_z
Si Si1 0.162997 0.253981 0.560945
Si Si2 0.342793 0.396516 0.152842
Si Si3 0.343740 0.095526 0.437580
Si Si4 0.844825 0.397211 0.247240
Si Si5 0.156168 0.397019 0.941583
Si Si6 0.165459 0.404027 0.636305
O O1 0.197910 0.270703 0.500000
O O2 0.238907 0.168613 0.583626
O O3 0.220859 0.336650 0.592953
O O4 0.000000 0.239774 0.570104
O O5 0.500000 0.360303 0.153283
O O6 0.343181 0.500000 0.152930
O O7 0.262144 0.360194 0.204042
O O8 0.264906 0.360075 0.100987
O O9 0.339006 0.094866 0.500000
O O10 0.500000 0.116906 0.418163
O O11 0.298454 0.000000 0.416829
O O12 0.853401 0.500000 0.243047
O O13 0.789652 0.372041 0.305438
O O14 0.000000 0.358999 0.237020
O O15 0.157648 0.500000 0.939864
O O16 0.000000 0.364370 0.928027
O O17 0.199798 0.365075 0.000000
O O18 0.227073 0.500000 0.624125
O O19 0.000000 0.409585 0.634393
#
# Coordination Sequence:
#
# PCOD8200838 Si02
#       6
#     8   8   8   8   8   8
#     4   9  16  24  36  55  73  86 104 133 166 197
#     4   9  15  20  27  40  55  68  86 118 157 189
#     4   8  14  25  39  52  67  88 109 126 150 190
#     4   8  13  22  34  42  50  71 102 129 151 181
#     4   8  13  20  28  37  50  69  91 112 138 180
#     4   8  14  24  36  49  65  86 111 136 163 197
#
# _framework density 12.730606999999999
#
# number of rings (size 3 to 8) (size 9 to 14) (size 15 to 20)
#    0.000    3.667    0.000    2.500    0.000    3.000 
#    0.000    5.833    0.000    1.500    0.000    2.333 
#    0.000    0.000    0.000    0.000    0.000    0.000 
#
# Total GULP energy -594744.170545 kJ/mol
# GULP energy per Si atom -12390.503553 kJ/mol
# Density = 1.270163 g / cm^3
# Si number density = 12.730607 Si / 1000 Ang^3
#
#
#
# Elastic Constant Matrix: (Units=GPa)
#
#
# Indices 1 2 3 4 5 6 
#
# 1 67.9314 29.7516 46.2220 0.0000 0.0000 0.0000
# 2 29.7516 52.0321 36.2276 0.0000 0.0000 0.0000
# 3 46.2220 36.2276 82.3609 0.0000 0.0000 0.0000
# 4 0.0000 0.0000 0.0000 0.6523 0.0000 0.0000
# 5 0.0000 0.0000 0.0000 0.0000 10.1665 0.0000
# 6 0.0000 0.0000 0.0000 0.0000 0.0000 8.8840
#
#
#
# Elastic Compliance Matrix: (Units=1/GPa)
#
#
# Indices 1 2 3 4 5 6 
#
# 1 0.025296 -0.006601 -0.011292 0.000000 0.000000 0.000000
# 2 -0.006601 0.029426 -0.009239 0.000000 0.000000 0.000000
# 3 -0.011292 -0.009239 0.022543 0.000000 0.000000 0.000000
# 4 0.000000 0.000000 0.000000 1.533045 0.000000 0.000000
# 5 0.000000 0.000000 0.000000 0.000000 0.098362 0.000000
# 6 0.000000 0.000000 0.000000 0.000000 0.000000 0.112562
#
#
# Mechanical properties :
#
#
# Convention : Reuss Voigt Hill
#
# Bulk Modulus (GPa) = 43.47933 47.41409 45.44671
# Shear Modulus (GPa) = 2.65510 9.94877 6.30194
#
# Velocity S-wave (km/s) = 1.44573 2.79854 2.22732
# Velocity P-wave (km/s) = 6.08394 6.91140 6.51083
#
# Compressibility (1/GPa) = 0.02299943
#
# Stress axis : x y z
#
# Youngs Moduli (GPa) = 39.53261 33.98358 44.35987
#
# Poissons Ratio (x) = 0.22434 0.50093
# Poissons Ratio (y) = 0.26097 0.40982
# Poissons Ratio (z) = 0.44642 0.31396
#
# Static dielectric constant tensor:
#      x y z
#    x 2.650200 0.000000 0.000000 
#    y 0.000000 2.369700 0.000000 
#    z 0.000000 0.000000 2.720220 
# 
# 
# High freq. dielectric constant tensor:
#      x y z
#    x 1.478040 0.000000 0.000000 
#    y 0.000000 1.419700 0.000000 
#    z 0.000000 0.000000 1.475600 
# 
# From -- ./inp_files/15397.got.cif
#   From: 2010.03.12/outbox.cif.g09.slc.cpg/sg47_8_cif.got.tgz:15397.got - 2010.04.14 03:12:58.
