data_PCOD8200830
_publ_section_title
;
Structure prediction by ZEFSAII (Michael W. Deem and Ramdas Pophale) SiO2 
 PCOD8200830
Probable space group: P M M M
;
_chemical_formula_sum "Si O2"
_cell_formula_units_Z 52
_cell_length_a 33.630548
_cell_length_b 9.798684
_cell_length_c 9.660276
_cell_angle_alpha 90.000000
_cell_angle_beta 90.000000
_cell_angle_gamma 90.000000
_cell_volume 3183.400139
_symmetry_space_group_name_H-M "P M M M"
_symmetry_group_IT_number 47
_symmetry_cell_setting 'orthorhombic'
loop_
_space_group_symop_operation_xyz
x,y,z
-x,-y,z
x,-y,-z
-x,y,-z
-x,-y,-z
x,y,-z
-x,y,z
x,-y,z
loop_
_atom_site_type_symbol
_atom_site_label
_atom_site_fract_x
_atom_site_fract_y
_atom_site_fract_z
Si Si1 0.341688 0.847553 0.164662
Si Si2 0.186835 0.337644 0.154001
Si Si3 0.430203 0.846685 0.164552
Si Si4 0.114458 0.658673 0.661630
Si Si5 0.044028 0.152944 0.664399
Si Si6 0.274130 0.348147 0.835093
Si Si7 0.500000 0.344952 0.834684
O O1 0.385907 0.803713 0.213958
O O2 0.308576 0.747189 0.229069
O O3 0.332354 0.000000 0.217306
O O4 0.339754 0.842800 0.000000
O O5 0.187495 0.500000 0.148927
O O6 0.153302 0.285126 0.259411
O O7 0.230516 0.289238 0.206002
O O8 0.177691 0.280231 0.000000
O O9 0.461366 0.735755 0.222701
O O10 0.440523 0.000000 0.218031
O O11 0.432075 0.848147 0.000000
O O12 0.121382 0.686146 0.500000
O O13 0.106695 0.500000 0.692324
O O14 0.076506 0.740595 0.721098
O O15 0.043678 0.158205 0.500000
O O16 0.000000 0.193551 0.719610
O O17 0.054891 0.000000 0.714546
O O18 0.280450 0.500000 0.774327
O O19 0.276779 0.353158 0.000000
O O20 0.500000 0.500000 0.777015
O O21 0.500000 0.347177 0.000000
#
# Coordination Sequence:
#
# PCOD8200830 Si02
#       7
#     8   8   8   8   8   8   4
#     4   8  13  20  29  41  56  73  96 131 172 206
#     4   8  14  25  39  54  75 102 125 146 182 229
#     4   8  13  20  27  33  45  68  93 118 158 209
#     4   9  16  25  40  62  81  96 122 160 189 209
#     4   8  14  25  40  57  78 103 126 148 181 224
#     4   8  13  21  33  46  59  80 109 135 162 203
#     4   9  15  19  23  33  47  63  89 127 164 197
#
# _framework density 16.334734000000001
#
# number of rings (size 3 to 8) (size 9 to 14) (size 15 to 20)
#    0.000    3.769    0.000    2.538    0.000    1.846 
#    0.000    5.385    0.000    1.846    0.000    3.231 
#    0.000    0.000    0.000    0.000    0.000    0.000 
#
# Total GULP energy -644274.697996 kJ/mol
# GULP energy per Si atom -12389.898038 kJ/mol
# Density = 1.629756 g / cm^3
# Si number density = 16.334734 Si / 1000 Ang^3
#
#
#
# Elastic Constant Matrix: (Units=GPa)
#
#
# Indices 1 2 3 4 5 6 
#
# 1 177.3728 90.5994 25.9298 0.0000 0.0000 0.0000
# 2 90.5994 92.8000 15.5791 0.0000 0.0000 0.0000
# 3 25.9298 15.5791 14.9027 0.0000 0.0000 0.0000
# 4 0.0000 0.0000 0.0000 4.9377 0.0000 0.0000
# 5 0.0000 0.0000 0.0000 0.0000 2.3269 0.0000
# 6 0.0000 0.0000 0.0000 0.0000 0.0000 28.7742
#
#
#
# Elastic Compliance Matrix: (Units=1/GPa)
#
#
# Indices 1 2 3 4 5 6 
#
# 1 0.012568 -0.010429 -0.010965 0.000000 0.000000 0.000000
# 2 -0.010429 0.021724 -0.004564 0.000000 0.000000 0.000000
# 3 -0.010965 -0.004564 0.090951 0.000000 0.000000 0.000000
# 4 0.000000 0.000000 0.000000 0.202522 0.000000 0.000000
# 5 0.000000 0.000000 0.000000 0.000000 0.429758 0.000000
# 6 0.000000 0.000000 0.000000 0.000000 0.000000 0.034753
#
#
# Mechanical properties :
#
#
# Convention : Reuss Voigt Hill
#
# Bulk Modulus (GPa) = 13.63752 61.03244 37.33498
# Shear Modulus (GPa) = 5.75617 17.40558 11.58087
#
# Velocity S-wave (km/s) = 1.87924 3.26783 2.66554
# Velocity P-wave (km/s) = 3.61602 7.18909 5.69028
#
# Compressibility (1/GPa) = 0.07332714
#
# Stress axis : x y z
#
# Youngs Moduli (GPa) = 79.56899 46.03276 10.99493
#
# Poissons Ratio (x) = 0.48007 0.12056
# Poissons Ratio (y) = 0.82982 0.05018
# Poissons Ratio (z) = 0.87246 0.21009
#
# Static dielectric constant tensor:
#      x y z
#    x 3.594000 0.000000 0.000000 
#    y 0.000000 3.179320 0.000000 
#    z 0.000000 0.000000 2.438540 
# 
# 
# High freq. dielectric constant tensor:
#      x y z
#    x 1.646190 0.000000 0.000000 
#    y 0.000000 1.615310 0.000000 
#    z 0.000000 0.000000 1.544210 
# 
# From -- ./inp_files/20037.got.cif
#   From: 2010.03.12/outbox.cif.g09.slc.cpg/sg47_11_cif.got.tgz:20037.got - 2010.04.14 03:12:58.
