data_PCOD8200598
_publ_section_title
;
Structure prediction by ZEFSAII (Michael W. Deem and Ramdas Pophale) SiO2 
 PCOD8200598
Probable space group: P M M M
;
_chemical_formula_sum "Si O2"
_cell_formula_units_Z 40
_cell_length_a 27.449322
_cell_length_b 9.761771
_cell_length_c 7.972163
_cell_angle_alpha 90.000000
_cell_angle_beta 90.000000
_cell_angle_gamma 90.000000
_cell_volume 2136.172928
_symmetry_space_group_name_H-M "P M M M"
_symmetry_group_IT_number 47
_symmetry_cell_setting 'orthorhombic'
loop_
_space_group_symop_operation_xyz
x,y,z
-x,-y,z
x,-y,-z
-x,y,-z
-x,-y,-z
x,y,-z
-x,y,z
x,-y,z
loop_
_atom_site_type_symbol
_atom_site_label
_atom_site_fract_x
_atom_site_fract_y
_atom_site_fract_z
Si Si1 0.883169 0.662770 0.186648
Si Si2 0.585247 0.152584 0.698253
Si Si3 0.221265 0.656248 0.301241
Si Si4 0.500000 0.348486 0.194479
Si Si5 0.944862 0.663566 0.500000
Si Si6 0.306458 0.846906 0.699153
O O1 0.883812 0.500000 0.198325
O O2 0.828201 0.713993 0.219144
O O3 0.918775 0.721452 0.331481
O O4 0.900026 0.711133 0.000000
O O5 0.584753 0.148126 0.500000
O O6 0.548045 0.266247 0.757968
O O7 0.639348 0.192724 0.763407
O O8 0.571166 0.000000 0.765423
O O9 0.215880 0.670577 0.500000
O O10 0.230759 0.500000 0.248423
O O11 0.266386 0.743104 0.227434
O O12 0.500000 0.500000 0.280921
O O13 0.500000 0.371130 0.000000
O O14 0.943234 0.500000 0.500000
O O15 0.000000 0.718176 0.500000
O O16 0.305722 0.839207 0.500000
O O17 0.293398 0.000000 0.759770
#
# Coordination Sequence:
#
# PCOD8200598 Si02
#       6
#     8   8   8   4   4   8
#     4   9  16  26  40  60  89 124 161 201 245 292
#     4   9  18  34  55  76  96 122 160 202 244 295
#     4   9  15  25  43  65  91 125 159 189 229 287
#     4  11  24  37  48  68  98 129 162 203 248 294
#     4   9  16  26  40  60  89 125 165 206 245 290
#     4   8  15  28  47  72  98 121 151 195 241 285
#
# _framework density 18.725076999999999
#
# number of rings (size 3 to 8) (size 9 to 14) (size 15 to 20)
#    0.000    3.000    1.000    1.800    0.000    3.600 
#    0.000    5.000    0.000    4.200    0.000    0.000 
#    0.000    1.600    0.000    1.800    0.000    2.000 
#
# Total GULP energy -495709.816148 kJ/mol
# GULP energy per Si atom -12392.745404 kJ/mol
# Density = 1.868246 g / cm^3
# Si number density = 18.725077 Si / 1000 Ang^3
#
#
#
# Elastic Constant Matrix: (Units=GPa)
#
#
# Indices 1 2 3 4 5 6 
#
# 1 171.8131 74.1162 55.1285 0.0000 0.0000 0.0000
# 2 74.1162 82.1239 25.6887 0.0000 0.0000 0.0000
# 3 55.1285 25.6887 72.0115 0.0000 0.0000 0.0000
# 4 0.0000 0.0000 0.0000 6.5820 0.0000 0.0000
# 5 0.0000 0.0000 0.0000 0.0000 0.2328 0.0000
# 6 0.0000 0.0000 0.0000 0.0000 0.0000 6.1739
#
#
#
# Elastic Compliance Matrix: (Units=1/GPa)
#
#
# Indices 1 2 3 4 5 6 
#
# 1 0.011239 -0.008388 -0.005612 0.000000 0.000000 0.000000
# 2 -0.008388 0.019966 -0.000701 0.000000 0.000000 0.000000
# 3 -0.005612 -0.000701 0.018433 0.000000 0.000000 0.000000
# 4 0.000000 0.000000 0.000000 0.151928 0.000000 0.000000
# 5 0.000000 0.000000 0.000000 0.000000 4.295715 0.000000
# 6 0.000000 0.000000 0.000000 0.000000 0.000000 0.161972
#
#
# Mechanical properties :
#
#
# Convention : Reuss Voigt Hill
#
# Bulk Modulus (GPa) = 49.41614 70.64616 60.03115
# Shear Modulus (GPa) = 1.06487 13.99876 7.53181
#
# Velocity S-wave (km/s) = 0.75493 2.73718 2.00775
# Velocity P-wave (km/s) = 5.21609 6.91372 6.12401
#
# Compressibility (1/GPa) = 0.02023630
#
# Stress axis : x y z
#
# Youngs Moduli (GPa) = 88.97302 50.08486 54.25026
#
# Poissons Ratio (x) = 0.42011 0.30446
# Poissons Ratio (y) = 0.74630 0.03803
# Poissons Ratio (z) = 0.49932 0.03511
#
# Static dielectric constant tensor:
#      x y z
#    x 3.500290 0.000000 0.000000 
#    y 0.000000 5.161520 0.000000 
#    z 0.000000 0.000000 3.329180 
# 
# 
# High freq. dielectric constant tensor:
#      x y z
#    x 1.733340 0.000000 0.000000 
#    y 0.000000 1.682870 0.000000 
#    z 0.000000 0.000000 1.713470 
# 
# From -- ./inp_files/13050.got.cif
#   From: 2010.03.12/outbox.cif.g09.slc.cpg/sg47_7_cif.got.tgz:13050.got - 2010.04.14 03:12:58.
