data_PCOD8200459
_publ_section_title
;
Structure prediction by ZEFSAII (Michael W. Deem and Ramdas Pophale) SiO2 
 PCOD8200459
Probable space group: P M M M
;
_chemical_formula_sum "Si O2"
_cell_formula_units_Z 40
_cell_length_a 7.523457
_cell_length_b 9.302868
_cell_length_c 29.383084
_cell_angle_alpha 90.000000
_cell_angle_beta 90.000000
_cell_angle_gamma 90.000000
_cell_volume 2056.514039
_symmetry_space_group_name_H-M "P M M M"
_symmetry_group_IT_number 47
_symmetry_cell_setting 'orthorhombic'
loop_
_space_group_symop_operation_xyz
x,y,z
-x,-y,z
x,-y,-z
-x,y,-z
-x,-y,-z
x,y,-z
-x,y,z
x,-y,z
loop_
_atom_site_type_symbol
_atom_site_label
_atom_site_fract_x
_atom_site_fract_y
_atom_site_fract_z
Si Si1 0.500000 0.330354 0.708407
Si Si2 0.500000 0.328604 0.606006
Si Si3 0.788702 0.338720 0.050243
Si Si4 0.796435 0.331406 0.222887
Si Si5 0.211270 0.839041 0.134365
Si Si6 0.795405 0.835298 0.552803
O O1 0.500000 0.500000 0.705191
O O2 0.500000 0.267843 0.657532
O O3 0.322974 0.278904 0.734805
O O4 0.500000 0.500000 0.603665
O O5 0.323210 0.271475 0.582075
O O6 0.718308 0.500000 0.059083
O O7 0.708975 0.234423 0.088876
O O8 0.000000 0.338533 0.052805
O O9 0.726925 0.286083 0.000000
O O10 0.773679 0.500000 0.213260
O O11 0.726455 0.249750 0.178280
O O12 0.000000 0.292209 0.234518
O O13 0.000000 0.840255 0.131920
O O14 0.287816 0.000000 0.137677
O O15 0.759343 0.803810 0.500000
O O16 0.000000 0.805093 0.565028
O O17 0.745497 0.000000 0.563974
#
# Coordination Sequence:
#
# PCOD8200459 Si02
#       6
#     4   4   8   8   8   8
#     4   9  20  36  52  75 103 133 172 210 253 313
#     4  11  22  34  53  84 118 145 175 226 285 330
#     4   8  13  21  34  55  85 120 157 194 232 284
#     4   9  17  32  53  70  89 124 167 207 245 292
#     4   9  16  25  39  62  91 120 153 197 248 297
#     4   9  19  37  59  81 109 150 195 229 260 311
#
# _framework density 19.450389000000001
#
# number of rings (size 3 to 8) (size 9 to 14) (size 15 to 20)
#    0.000    3.000    0.000    2.400    0.000    5.600 
#    0.000    7.500    0.000    2.400    0.000    0.700 
#    0.000    5.600    0.000    0.600    0.000    0.000 
#
# Total GULP energy -495884.126828 kJ/mol
# GULP energy per Si atom -12397.103171 kJ/mol
# Density = 1.940612 g / cm^3
# Si number density = 19.450389 Si / 1000 Ang^3
#
#
#
# Elastic Constant Matrix: (Units=GPa)
#
#
# Indices 1 2 3 4 5 6 
#
# 1 81.5517 39.2343 64.4003 0.0000 0.0000 0.0000
# 2 39.2343 97.9223 76.7136 0.0000 0.0000 0.0000
# 3 64.4003 76.7136 168.5243 0.0000 0.0000 0.0000
# 4 0.0000 0.0000 0.0000 10.7606 0.0000 0.0000
# 5 0.0000 0.0000 0.0000 0.0000 5.9612 0.0000
# 6 0.0000 0.0000 0.0000 0.0000 0.0000 15.3473
#
#
#
# Elastic Compliance Matrix: (Units=1/GPa)
#
#
# Indices 1 2 3 4 5 6 
#
# 1 0.018057 -0.002843 -0.005606 0.000000 0.000000 0.000000
# 2 -0.002843 0.016320 -0.006343 0.000000 0.000000 0.000000
# 3 -0.005606 -0.006343 0.010964 0.000000 0.000000 0.000000
# 4 0.000000 0.000000 0.000000 0.092931 0.000000 0.000000
# 5 0.000000 0.000000 0.000000 0.000000 0.167753 0.000000
# 6 0.000000 0.000000 0.000000 0.000000 0.000000 0.065158
#
#
# Mechanical properties :
#
#
# Convention : Reuss Voigt Hill
#
# Bulk Modulus (GPa) = 63.46356 78.74387 71.10371
# Shear Modulus (GPa) = 12.31470 17.59049 14.95260
#
# Velocity S-wave (km/s) = 2.51895 3.01055 2.77565
# Velocity P-wave (km/s) = 6.41556 7.25651 6.84895
#
# Compressibility (1/GPa) = 0.01575707
#
# Stress axis : x y z
#
# Youngs Moduli (GPa) = 55.37998 61.27386 91.21170
#
# Poissons Ratio (x) = 0.17419 0.51136
# Poissons Ratio (y) = 0.15744 0.57853
# Poissons Ratio (z) = 0.31048 0.38864
#
# Static dielectric constant tensor:
#      x y z
#    x 3.311780 0.000000 0.000000 
#    y 0.000000 3.502600 0.000000 
#    z 0.000000 0.000000 3.761820 
# 
# 
# High freq. dielectric constant tensor:
#      x y z
#    x 1.745490 0.000000 0.000000 
#    y 0.000000 1.740820 0.000000 
#    z 0.000000 0.000000 1.757230 
# 
# From -- ./inp_files/33093.got.cif
#   From: 2010.03.12/outbox.cif.g09.slc.cpg/sg47_17_cif.got.tgz:33093.got - 2010.04.14 03:12:58.
