data_PCOD8200815
_publ_section_title
;
Structure prediction by ZEFSAII (Michael W. Deem and Ramdas Pophale) SiO2 
 PCOD8200815
Probable space group: P M M M
;
_chemical_formula_sum "Si O2"
_cell_formula_units_Z 44
_cell_length_a 30.343881
_cell_length_b 7.559976
_cell_length_c 9.615176
_cell_angle_alpha 90.000000
_cell_angle_beta 90.000000
_cell_angle_gamma 90.000000
_cell_volume 2205.711876
_symmetry_space_group_name_H-M "P M M M"
_symmetry_group_IT_number 47
_symmetry_cell_setting 'orthorhombic'
loop_
_space_group_symop_operation_xyz
x,y,z
-x,-y,z
x,-y,-z
-x,y,-z
-x,-y,-z
x,y,-z
-x,y,z
x,-y,z
loop_
_atom_site_type_symbol
_atom_site_label
_atom_site_fract_x
_atom_site_fract_y
_atom_site_fract_z
Si Si1 0.548936 0.789808 0.344210
Si Si2 0.627741 0.211276 0.156910
Si Si3 0.293323 0.789722 0.343707
Si Si4 0.951106 0.500000 0.164577
Si Si5 0.195886 0.209702 0.655084
Si Si6 0.115338 0.203461 0.837177
O O1 0.560221 0.722556 0.500000
O O2 0.500000 0.724158 0.300857
O O3 0.584530 0.713846 0.235643
O O4 0.550404 0.000000 0.342848
O O5 0.670870 0.286416 0.235957
O O6 0.627754 0.000000 0.157337
O O7 0.627777 0.284992 0.000000
O O8 0.304543 0.724340 0.500000
O O9 0.244483 0.721397 0.300306
O O10 0.294490 0.000000 0.340715
O O11 0.925662 0.322809 0.212829
O O12 0.000000 0.500000 0.231702
O O13 0.955109 0.500000 0.000000
O O14 0.184612 0.278453 0.500000
O O15 0.158916 0.278119 0.761266
O O16 0.196484 0.000000 0.656431
O O17 0.104790 0.000000 0.797760
O O18 0.124251 0.224932 0.000000
#
# Coordination Sequence:
#
# PCOD8200815 Si02
#       6
#     8   8   8   4   8   8
#     4   8  13  20  27  32  41  65 104 148 195 250
#     4   9  15  19  24  37  56  77 104 146 200 250
#     4   8  13  21  32  45  63  89 119 150 191 248
#     4   9  18  32  49  71  99 127 157 195 234 273
#     4   8  14  25  41  60  82 109 139 173 217 267
#     4   9  17  29  47  70  93 120 155 193 232 273
#
# _framework density 19.948208000000001
#
# number of rings (size 3 to 8) (size 9 to 14) (size 15 to 20)
#    0.000    3.545    0.000    2.182    0.000    3.636 
#    0.000    7.727    0.000    1.091    0.000    2.545 
#    0.000    0.000    0.000    0.000    0.000    0.000 
#
# Total GULP energy -545251.391331 kJ/mol
# GULP energy per Si atom -12392.077076 kJ/mol
# Density = 1.990280 g / cm^3
# Si number density = 19.948208 Si / 1000 Ang^3
#
#
#
# Elastic Constant Matrix: (Units=GPa)
#
#
# Indices 1 2 3 4 5 6 
#
# 1 209.8757 32.3197 105.2766 0.0000 0.0000 0.0000
# 2 32.3197 41.7809 18.3695 0.0000 0.0000 0.0000
# 3 105.2766 18.3695 120.1061 0.0000 0.0000 0.0000
# 4 0.0000 0.0000 0.0000 -2.1862 0.0000 0.0000
# 5 0.0000 0.0000 0.0000 0.0000 32.8928 0.0000
# 6 0.0000 0.0000 0.0000 0.0000 0.0000 -14.1274
#
#
#
# Elastic Compliance Matrix: (Units=1/GPa)
#
#
# Indices 1 2 3 4 5 6 
#
# 1 0.009021 -0.003754 -0.007333 0.000000 0.000000 0.000000
# 2 -0.003754 0.027222 -0.000873 0.000000 0.000000 0.000000
# 3 -0.007333 -0.000873 0.014887 0.000000 0.000000 0.000000
# 4 0.000000 0.000000 0.000000 -0.457405 0.000000 0.000000
# 5 0.000000 0.000000 0.000000 0.000000 0.030402 0.000000
# 6 0.000000 0.000000 0.000000 0.000000 0.000000 -0.070785
#
#
# Mechanical properties :
#
#
# Convention : Reuss Voigt Hill
#
# Bulk Modulus (GPa) = 36.75085 75.96603 56.35844
# Shear Modulus (GPa) = -12.08703 17.70229 2.80763
#
# Velocity S-wave (km/s) = -2.46422 2.98218 1.18765
# Velocity P-wave (km/s) = 3.21973 7.07263 5.49494
#
# Compressibility (1/GPa) = 0.02721025
#
# Stress axis : x y z
#
# Youngs Moduli (GPa) = 110.84831 36.73469 67.17148
#
# Poissons Ratio (x) = 0.13791 0.49259
# Poissons Ratio (y) = 0.41616 0.05862
# Poissons Ratio (z) = 0.81288 0.03206
#
# Static dielectric constant tensor:
#      x y z
#    x 4.100320 0.000000 0.000000 
#    y 0.000000 3.092270 0.000000 
#    z 0.000000 0.000000 3.680910 
# 
# 
# High freq. dielectric constant tensor:
#      x y z
#    x 1.782220 0.000000 0.000000 
#    y 0.000000 1.739920 0.000000 
#    z 0.000000 0.000000 1.757350 
# 
# From -- ./inp_files/13638.got.cif
#   From: 2010.03.12/outbox.cif.g09.slc.cpg/sg47_7_cif.got.tgz:13638.got - 2010.04.14 03:12:58.
