data_PCOD8200370
_publ_section_title
;
Structure prediction by ZEFSAII (Michael W. Deem and Ramdas Pophale) SiO2 
 PCOD8200370
Probable space group: P M M M
;
_chemical_formula_sum "Si O2"
_cell_formula_units_Z 36
_cell_length_a 11.576089
_cell_length_b 9.180761
_cell_length_c 20.615267
_cell_angle_alpha 90.000000
_cell_angle_beta 90.000000
_cell_angle_gamma 90.000000
_cell_volume 2190.935048
_symmetry_space_group_name_H-M "P M M M"
_symmetry_group_IT_number 47
_symmetry_cell_setting 'orthorhombic'
loop_
_space_group_symop_operation_xyz
x,y,z
-x,-y,z
x,-y,-z
-x,y,-z
-x,-y,-z
x,y,-z
-x,y,z
x,-y,z
loop_
_atom_site_type_symbol
_atom_site_label
_atom_site_fract_x
_atom_site_fract_y
_atom_site_fract_z
Si Si1 0.365839 0.329345 0.733661
Si Si2 0.638081 0.837917 0.000000
Si Si3 0.000000 0.828464 0.572182
Si Si4 0.363363 0.333645 0.500000
Si Si5 0.247303 0.173173 0.381463
Si Si6 0.636972 0.339280 0.878749
O O1 0.500000 0.295336 0.720519
O O2 0.341514 0.500000 0.721485
O O3 0.288328 0.229567 0.687971
O O4 0.330211 0.283798 0.806858
O O5 0.687989 0.763146 0.065018
O O6 0.500000 0.833943 0.000000
O O7 0.686643 0.000000 0.000000
O O8 0.886197 0.779156 0.610877
O O9 0.000000 0.758041 0.500000
O O10 0.000000 0.000000 0.564062
O O11 0.317115 0.500000 0.500000
O O12 0.500000 0.332917 0.500000
O O13 0.321575 0.249764 0.436685
O O14 0.264043 0.000000 0.386686
O O15 0.500000 0.346602 0.884109
O O16 0.688571 0.500000 0.890011
#
# Coordination Sequence:
#
# PCOD8200370 Si02
#       6
#     8   4   4   4   8   8
#     4   9  18  32  47  66  96 128 154 187 232 276
#     4   9  15  21  33  57  87 116 151 196 229 249
#     4   9  18  36  54  68  90 117 146 189 240 278
#     4  11  23  36  49  68  96 123 146 181 228 275
#     4  11  21  34  53  71  89 117 154 192 230 276
#     4   8  14  25  40  56  81 122 160 182 213 268
#
# _framework density 16.431341
#
# number of rings (size 3 to 8) (size 9 to 14) (size 15 to 20)
#    0.000    2.556    1.111    3.333    0.000    6.222 
#    0.000    5.000    0.000    0.000    0.000    0.000 
#    0.000    0.889    0.000   10.000    0.000    7.556 
#
# Total GULP energy -446265.474539 kJ/mol
# GULP energy per Si atom -12396.263182 kJ/mol
# Density = 1.639394 g / cm^3
# Si number density = 16.431341 Si / 1000 Ang^3
#
#
#
# Elastic Constant Matrix: (Units=GPa)
#
#
# Indices 1 2 3 4 5 6 
#
# 1 65.4329 38.5125 46.9601 0.0000 0.0000 0.0000
# 2 38.5125 98.5865 75.1765 0.0000 0.0000 0.0000
# 3 46.9601 75.1765 153.6480 0.0000 0.0000 0.0000
# 4 0.0000 0.0000 0.0000 25.4810 0.0000 0.0000
# 5 0.0000 0.0000 0.0000 0.0000 -1.4320 0.0000
# 6 0.0000 0.0000 0.0000 0.0000 0.0000 11.3614
#
#
#
# Elastic Compliance Matrix: (Units=1/GPa)
#
#
# Indices 1 2 3 4 5 6 
#
# 1 0.021198 -0.005329 -0.003872 0.000000 0.000000 0.000000
# 2 -0.005329 0.017520 -0.006943 0.000000 0.000000 0.000000
# 3 -0.003872 -0.006943 0.011089 0.000000 0.000000 0.000000
# 4 0.000000 0.000000 0.000000 0.039245 0.000000 0.000000
# 5 0.000000 0.000000 0.000000 0.000000 -0.698325 0.000000
# 6 0.000000 0.000000 0.000000 0.000000 0.000000 0.088017
#
#
# Mechanical properties :
#
#
# Convention : Reuss Voigt Hill
#
# Bulk Modulus (GPa) = 57.08035 70.99618 64.03827
# Shear Modulus (GPa) = -10.34918 17.54996 3.60039
#
# Velocity S-wave (km/s) = -2.51239 3.27169 1.48187
# Velocity P-wave (km/s) = 5.13790 7.58772 6.47964
#
# Compressibility (1/GPa) = 0.01751916
#
# Stress axis : x y z
#
# Youngs Moduli (GPa) = 47.17499 57.07900 90.18025
#
# Poissons Ratio (x) = 0.30415 0.34914
# Poissons Ratio (y) = 0.25137 0.62615
# Poissons Ratio (z) = 0.18264 0.39632
#
# Static dielectric constant tensor:
#      x y z
#    x 2.816570 0.000000 0.000000 
#    y 0.000000 3.186700 0.000000 
#    z 0.000000 0.000000 3.335500 
# 
# 
# High freq. dielectric constant tensor:
#      x y z
#    x 1.581040 0.000000 0.000000 
#    y 0.000000 1.632550 0.000000 
#    z 0.000000 0.000000 1.645320 
# 
# From -- ./inp_files/30301.got.cif
#   From: 2010.03.12/outbox.cif.g09.slc.cpg/sg47_16_cif.got.tgz:30301.got - 2010.04.14 03:12:58.
