data_PCOD8200996
_publ_section_title
;
Structure prediction by ZEFSAII (Michael W. Deem and Ramdas Pophale) SiO2 
 PCOD8200996
Probable space group: P M M M
;
_chemical_formula_sum "Si O2"
_cell_formula_units_Z 44
_cell_length_a 9.743063
_cell_length_b 9.361518
_cell_length_c 28.669802
_cell_angle_alpha 90.000000
_cell_angle_beta 90.000000
_cell_angle_gamma 90.000000
_cell_volume 2614.968617
_symmetry_space_group_name_H-M "P M M M"
_symmetry_group_IT_number 47
_symmetry_cell_setting 'orthorhombic'
loop_
_space_group_symop_operation_xyz
x,y,z
-x,-y,z
x,-y,-z
-x,y,-z
-x,-y,-z
x,y,-z
-x,y,z
x,-y,z
loop_
_atom_site_type_symbol
_atom_site_label
_atom_site_fract_x
_atom_site_fract_y
_atom_site_fract_z
Si Si1 0.836284 0.838562 0.588721
Si Si2 0.341886 0.667979 0.139086
Si Si3 0.163507 0.662194 0.500000
Si Si4 0.836743 0.659437 0.675338
Si Si5 0.152989 0.329961 0.221978
Si Si6 0.663042 0.839300 0.051196
O O1 0.781237 0.745826 0.545325
O O2 0.779095 0.766739 0.636142
O O3 0.000000 0.840173 0.588721
O O4 0.779326 0.000000 0.585094
O O5 0.500000 0.710576 0.147191
O O6 0.323474 0.500000 0.133739
O O7 0.256573 0.729230 0.182885
O O8 0.280458 0.737191 0.091909
O O9 0.220547 0.500000 0.500000
O O10 0.000000 0.659446 0.500000
O O11 0.777216 0.500000 0.666408
O O12 0.793987 0.717548 0.726653
O O13 0.000000 0.651519 0.672881
O O14 0.148611 0.500000 0.221053
O O15 0.000000 0.269431 0.212154
O O16 0.500000 0.833805 0.051144
O O17 0.714200 0.000000 0.060998
O O18 0.716406 0.788541 0.000000
#
# Coordination Sequence:
#
# PCOD8200996 Si02
#       6
#     8   8   4   8   8   8
#     4   9  15  21  29  43  64  87 113 151 195 227
#     4   9  16  25  40  63  84  99 123 163 201 226
#     4   9  15  21  29  41  59  87 122 153 182 225
#     4   8  13  22  35  47  60  86 124 154 175 213
#     4   8  14  25  40  56  76 104 133 158 189 232
#     4   8  14  25  40  57  78 104 130 154 186 232
#
# _framework density 16.826207
#
# number of rings (size 3 to 8) (size 9 to 14) (size 15 to 20)
#    0.000    3.545    0.000    2.455    0.000    3.636 
#    0.000    2.727    0.000    2.182    0.000    3.818 
#    0.000    0.000    0.000    0.818    0.000   20.182 
#
# Total GULP energy -545242.111579 kJ/mol
# GULP energy per Si atom -12391.866172 kJ/mol
# Density = 1.678791 g / cm^3
# Si number density = 16.826207 Si / 1000 Ang^3
#
#
#
# Elastic Constant Matrix: (Units=GPa)
#
#
# Indices 1 2 3 4 5 6 
#
# 1 22.7350 17.0175 35.9764 0.0000 0.0000 0.0000
# 2 17.0175 86.6773 75.1198 0.0000 0.0000 0.0000
# 3 35.9764 75.1198 190.7077 0.0000 0.0000 0.0000
# 4 0.0000 0.0000 0.0000 17.9388 0.0000 0.0000
# 5 0.0000 0.0000 0.0000 0.0000 6.4276 0.0000
# 6 0.0000 0.0000 0.0000 0.0000 0.0000 5.6734
#
#
#
# Elastic Compliance Matrix: (Units=1/GPa)
#
#
# Indices 1 2 3 4 5 6 
#
# 1 0.063266 -0.003154 -0.010692 0.000000 0.000000 0.000000
# 2 -0.003154 0.017674 -0.006367 0.000000 0.000000 0.000000
# 3 -0.010692 -0.006367 0.009769 0.000000 0.000000 0.000000
# 4 0.000000 0.000000 0.000000 0.055745 0.000000 0.000000
# 5 0.000000 0.000000 0.000000 0.000000 0.155579 0.000000
# 6 0.000000 0.000000 0.000000 0.000000 0.000000 0.176262
#
#
# Mechanical properties :
#
#
# Convention : Reuss Voigt Hill
#
# Bulk Modulus (GPa) = 19.88799 61.81638 40.85218
# Shear Modulus (GPa) = 9.33736 17.47504 13.40620
#
# Velocity S-wave (km/s) = 2.35825 3.22617 2.82573
# Velocity P-wave (km/s) = 4.38867 7.12007 5.91422
#
# Compressibility (1/GPa) = 0.05028161
#
# Stress axis : x y z
#
# Youngs Moduli (GPa) = 15.80624 56.57950 102.36882
#
# Poissons Ratio (x) = 0.17848 1.09457
# Poissons Ratio (y) = 0.04986 0.65176
# Poissons Ratio (z) = 0.16901 0.36023
#
# Static dielectric constant tensor:
#      x y z
#    x 2.585300 0.000000 0.000000 
#    y 0.000000 3.128110 0.000000 
#    z 0.000000 0.000000 3.693630 
# 
# 
# High freq. dielectric constant tensor:
#      x y z
#    x 1.566900 0.000000 0.000000 
#    y 0.000000 1.632390 0.000000 
#    z 0.000000 0.000000 1.669880 
# 
# From -- ./inp_files/2159.got.cif
#   From: 2010.03.12/outbox.cif.g09.slc.cpg/sg47_2_cif.got.tgz:2159.got - 2010.04.14 03:12:58.
