data_PCOD8200637
_publ_section_title
;
Structure prediction by ZEFSAII (Michael W. Deem and Ramdas Pophale) SiO2 
 PCOD8200637
Probable space group: P M M M
;
_chemical_formula_sum "Si O2"
_cell_formula_units_Z 36
_cell_length_a 23.260676
_cell_length_b 9.386450
_cell_length_c 8.684593
_cell_angle_alpha 90.000000
_cell_angle_beta 90.000000
_cell_angle_gamma 90.000000
_cell_volume 1896.152108
_symmetry_space_group_name_H-M "P M M M"
_symmetry_group_IT_number 47
_symmetry_cell_setting 'orthorhombic'
loop_
_space_group_symop_operation_xyz
x,y,z
-x,-y,z
x,-y,-z
-x,y,-z
-x,-y,-z
x,y,-z
-x,y,z
x,-y,z
loop_
_atom_site_type_symbol
_atom_site_label
_atom_site_fract_x
_atom_site_fract_y
_atom_site_fract_z
Si Si1 0.895795 0.163970 0.819634
Si Si2 0.794608 0.666526 0.679419
Si Si3 0.665981 0.343166 0.317470
Si Si4 0.000000 0.337989 0.318223
Si Si5 0.437132 0.840771 0.683004
O O1 0.834627 0.233461 0.781641
O O2 0.943995 0.254740 0.735199
O O3 0.897262 0.000000 0.762655
O O4 0.907429 0.171527 0.000000
O O5 0.807526 0.693409 0.500000
O O6 0.804535 0.500000 0.718403
O O7 0.729642 0.713869 0.722625
O O8 0.659564 0.349933 0.500000
O O9 0.658275 0.500000 0.247108
O O10 0.615437 0.247790 0.243515
O O11 0.000000 0.500000 0.252252
O O12 0.000000 0.343679 0.500000
O O13 0.431676 0.842112 0.500000
O O14 0.500000 0.777415 0.729608
O O15 0.431846 0.000000 0.747952
#
# Coordination Sequence:
#
# PCOD8200637 Si02
#       5
#     8   8   8   4   8
#     4  11  24  39  55  79 109 137 168 206 246 291
#     4   9  18  33  52  74 100 131 170 212 252 299
#     4   8  14  24  38  58  85 117 155 200 245 289
#     4  11  24  41  62  86 108 133 168 205 242 290
#     4   8  13  20  30  48  78 116 156 196 239 290
#
# _framework density 18.985818999999999
#
# number of rings (size 3 to 8) (size 9 to 14) (size 15 to 20)
#    0.000    2.778    0.000    4.000    0.000    8.444 
#    0.000    4.444    0.000    0.000    0.000    0.000 
#    0.000    0.889    0.000    9.778    0.000   16.000 
#
# Total GULP energy -446200.445913 kJ/mol
# GULP energy per Si atom -12394.456831 kJ/mol
# Density = 1.894261 g / cm^3
# Si number density = 18.985819 Si / 1000 Ang^3
#
#
#
# Elastic Constant Matrix: (Units=GPa)
#
#
# Indices 1 2 3 4 5 6 
#
# 1 163.8674 84.3153 20.3034 0.0000 0.0000 0.0000
# 2 84.3153 120.2349 25.2861 0.0000 0.0000 0.0000
# 3 20.3034 25.2861 28.8861 0.0000 0.0000 0.0000
# 4 0.0000 0.0000 0.0000 18.7887 0.0000 0.0000
# 5 0.0000 0.0000 0.0000 0.0000 -5.9055 0.0000
# 6 0.0000 0.0000 0.0000 0.0000 0.0000 26.7566
#
#
#
# Elastic Compliance Matrix: (Units=1/GPa)
#
#
# Indices 1 2 3 4 5 6 
#
# 1 0.009573 -0.006493 -0.001044 0.000000 0.000000 0.000000
# 2 -0.006493 0.014598 -0.008215 0.000000 0.000000 0.000000
# 3 -0.001044 -0.008215 0.042544 0.000000 0.000000 0.000000
# 4 0.000000 0.000000 0.000000 0.053224 0.000000 0.000000
# 5 0.000000 0.000000 0.000000 0.000000 -0.169333 0.000000
# 6 0.000000 0.000000 0.000000 0.000000 0.000000 0.037374
#
#
# Mechanical properties :
#
#
# Convention : Reuss Voigt Hill
#
# Bulk Modulus (GPa) = 28.40128 63.64422 46.02275
# Shear Modulus (GPa) = 160.14371 20.13352 90.13862
#
# Velocity S-wave (km/s) = 9.19414 3.25999 6.89782
# Velocity P-wave (km/s) = 11.30050 6.91121 9.36659
#
# Compressibility (1/GPa) = 0.03520968
#
# Stress axis : x y z
#
# Youngs Moduli (GPa) = 104.46032 68.50136 23.50516
#
# Poissons Ratio (x) = 0.44481 0.02455
# Poissons Ratio (y) = 0.67831 0.19309
# Poissons Ratio (z) = 0.10910 0.56272
#
# Static dielectric constant tensor:
#      x y z
#    x 3.843170 0.000000 0.000000 
#    y 0.000000 3.771350 0.000000 
#    z 0.000000 0.000000 2.946400 
# 
# 
# High freq. dielectric constant tensor:
#      x y z
#    x 1.758530 0.000000 0.000000 
#    y 0.000000 1.737680 0.000000 
#    z 0.000000 0.000000 1.685060 
# 
# From -- ./inp_files/12078.got.cif
#   From: 2010.03.12/outbox.cif.g09.slc.cpg/sg47_7_cif.got.tgz:12078.got - 2010.04.14 03:12:58.
