data_PCOD8200809
_publ_section_title
;
Structure prediction by ZEFSAII (Michael W. Deem and Ramdas Pophale) SiO2 
 PCOD8200809
Probable space group: P M M M
;
_chemical_formula_sum "Si O2"
_cell_formula_units_Z 36
_cell_length_a 14.606033
_cell_length_b 15.733900
_cell_length_c 9.164100
_cell_angle_alpha 90.000000
_cell_angle_beta 90.000000
_cell_angle_gamma 90.000000
_cell_volume 2106.000562
_symmetry_space_group_name_H-M "P M M M"
_symmetry_group_IT_number 47
_symmetry_cell_setting 'orthorhombic'
loop_
_space_group_symop_operation_xyz
x,y,z
-x,-y,z
x,-y,-z
-x,y,-z
-x,-y,-z
x,y,-z
-x,y,z
x,-y,z
loop_
_atom_site_type_symbol
_atom_site_label
_atom_site_fract_x
_atom_site_fract_y
_atom_site_fract_z
Si Si1 0.103244 0.905927 0.173523
Si Si2 0.782386 0.750502 0.171882
Si Si3 0.602825 0.333088 0.829560
Si Si4 0.896576 0.593497 0.173524
Si Si5 0.608535 0.500000 0.336841
O O1 0.174514 0.836787 0.239520
O O2 0.000000 0.881990 0.222637
O O3 0.129376 0.000000 0.232798
O O4 0.108304 0.906748 0.000000
O O5 0.673449 0.743741 0.206418
O O6 0.832526 0.667571 0.239166
O O7 0.799851 0.752176 0.000000
O O8 0.500000 0.306624 0.779759
O O9 0.640859 0.416050 0.747694
O O10 0.604233 0.355356 0.000000
O O11 0.864053 0.500000 0.229619
O O12 0.000000 0.610953 0.226170
O O13 0.892303 0.594519 0.000000
O O14 0.500000 0.500000 0.341127
O O15 0.649607 0.500000 0.500000
#
# Coordination Sequence:
#
# PCOD8200809 Si02
#       5
#     8   8   8   8   4
#     4   8  13  21  33  50  74 104 135 166 203 245
#     4   9  15  21  33  50  72 103 133 162 198 240
#     4   9  17  27  39  57  81 107 135 168 201 234
#     4   8  13  19  26  40  65  93 119 151 191 231
#     4   9  17  29  43  57  76 105 140 174 205 235
#
# _framework density 17.094013
#
# number of rings (size 3 to 8) (size 9 to 14) (size 15 to 20)
#    0.000    3.444    0.000    2.333    1.556    4.000 
#    0.000    0.000    0.000    0.667    0.000    4.667 
#    0.000    8.000    0.000    8.000    0.000    8.000 
#
# Total GULP energy -445996.991120 kJ/mol
# GULP energy per Si atom -12388.805309 kJ/mol
# Density = 1.705511 g / cm^3
# Si number density = 17.094013 Si / 1000 Ang^3
#
#
#
# Elastic Constant Matrix: (Units=GPa)
#
#
# Indices 1 2 3 4 5 6 
#
# 1 111.4589 86.3301 11.3038 0.0000 0.0000 0.0000
# 2 86.3301 141.6268 11.7490 0.0000 0.0000 0.0000
# 3 11.3038 11.7490 17.2166 0.0000 0.0000 0.0000
# 4 0.0000 0.0000 0.0000 1.7725 0.0000 0.0000
# 5 0.0000 0.0000 0.0000 0.0000 3.1923 0.0000
# 6 0.0000 0.0000 0.0000 0.0000 0.0000 28.2536
#
#
#
# Elastic Compliance Matrix: (Units=1/GPa)
#
#
# Indices 1 2 3 4 5 6 
#
# 1 0.017307 -0.010184 -0.004414 0.000000 0.000000 0.000000
# 2 -0.010184 0.013477 -0.002511 0.000000 0.000000 0.000000
# 3 -0.004414 -0.002511 0.062695 0.000000 0.000000 0.000000
# 4 0.000000 0.000000 0.000000 0.564183 0.000000 0.000000
# 5 0.000000 0.000000 0.000000 0.000000 0.313250 0.000000
# 6 0.000000 0.000000 0.000000 0.000000 0.000000 0.035394
#
#
# Mechanical properties :
#
#
# Convention : Reuss Voigt Hill
#
# Bulk Modulus (GPa) = 16.87404 54.34090 35.60747
# Shear Modulus (GPa) = 4.71575 17.37165 11.04370
#
# Velocity S-wave (km/s) = 1.66274 3.19131 2.54452
# Velocity P-wave (km/s) = 3.68497 6.74075 5.43216
#
# Compressibility (1/GPa) = 0.05926261
#
# Stress axis : x y z
#
# Youngs Moduli (GPa) = 57.77924 74.20247 15.95033
#
# Poissons Ratio (x) = 0.75565 0.07040
# Poissons Ratio (y) = 0.58840 0.04004
# Poissons Ratio (z) = 0.25502 0.18629
#
# Static dielectric constant tensor:
#      x y z
#    x 3.323950 0.000000 0.000000 
#    y 0.000000 3.533350 0.000000 
#    z 0.000000 0.000000 2.578040 
# 
# 
# High freq. dielectric constant tensor:
#      x y z
#    x 1.660620 0.000000 0.000000 
#    y 0.000000 1.648760 0.000000 
#    z 0.000000 0.000000 1.581110 
# 
# From -- ./inp_files/5531.got.cif
#   From: 2010.03.12/outbox.cif.g09.slc.cpg/sg47_3_cif.got.tgz:5531.got - 2010.04.14 03:12:58.
