data_PCOD8200700
_publ_section_title
;
Structure prediction by ZEFSAII (Michael W. Deem and Ramdas Pophale) SiO2 
 PCOD8200700
Probable space group: P M M M
;
_chemical_formula_sum "Si O2"
_cell_formula_units_Z 44
_cell_length_a 12.772141
_cell_length_b 25.844525
_cell_length_c 9.270582
_cell_angle_alpha 90.000000
_cell_angle_beta 90.000000
_cell_angle_gamma 90.000000
_cell_volume 3060.125646
_symmetry_space_group_name_H-M "P M M M"
_symmetry_group_IT_number 47
_symmetry_cell_setting 'orthorhombic'
loop_
_space_group_symop_operation_xyz
x,y,z
-x,-y,z
x,-y,-z
-x,y,-z
-x,-y,-z
x,y,-z
-x,y,z
x,-y,z
loop_
_atom_site_type_symbol
_atom_site_label
_atom_site_fract_x
_atom_site_fract_y
_atom_site_fract_z
Si Si1 0.124498 0.247488 0.662810
Si Si2 0.275226 0.942211 0.172469
Si Si3 0.125035 0.654049 0.837501
Si Si4 0.124481 0.557158 0.662009
Si Si5 0.879084 0.853559 0.831123
Si Si6 0.500000 0.938807 0.157141
O O1 0.168689 0.247212 0.500000
O O2 0.168764 0.297622 0.745948
O O3 0.162597 0.196303 0.745576
O O4 0.000000 0.249485 0.661903
O O5 0.186350 0.902776 0.225399
O O6 0.389791 0.924078 0.235672
O O7 0.246419 0.000000 0.228025
O O8 0.282151 0.942786 0.000000
O O9 0.169577 0.601015 0.768176
O O10 0.000000 0.654139 0.836558
O O11 0.167920 0.658283 0.000000
O O12 0.165198 0.568026 0.500000
O O13 0.161692 0.500000 0.713631
O O14 0.000000 0.559403 0.662466
O O15 0.000000 0.865259 0.796726
O O16 0.862040 0.842948 0.000000
O O17 0.500000 0.000000 0.136939
O O18 0.500000 0.911853 0.000000
#
# Coordination Sequence:
#
# PCOD8200700 Si02
#       6
#     8   8   8   8   8   4
#     4   9  16  25  35  44  57  81 111 138 165 202
#     4   8  13  21  34  52  72  92 112 136 168 204
#     4   9  15  21  30  43  57  74 100 136 174 206
#     4   8  13  20  28  38  54  76 101 130 166 207
#     4   9  16  24  34  50  71  90 109 138 174 207
#     4   7  10  18  32  50  71  91 111 135 162 195
#
# _framework density 14.378494
#
# number of rings (size 3 to 8) (size 9 to 14) (size 15 to 20)
#    0.000    3.545    0.000    2.727    0.000    5.091 
#    0.000    3.636    0.000    0.545    0.000    3.182 
#    0.000    2.182    0.000    0.000    0.000    0.000 
#
# Total GULP energy -545118.605332 kJ/mol
# GULP energy per Si atom -12389.059212 kJ/mol
# Density = 1.434577 g / cm^3
# Si number density = 14.378494 Si / 1000 Ang^3
#
#
#
# Elastic Constant Matrix: (Units=GPa)
#
#
# Indices 1 2 3 4 5 6 
#
# 1 37.8588 38.8056 19.2302 0.0000 0.0000 0.0000
# 2 38.8056 136.0164 58.2786 0.0000 0.0000 0.0000
# 3 19.2302 58.2786 73.7514 0.0000 0.0000 0.0000
# 4 0.0000 0.0000 0.0000 15.1350 0.0000 0.0000
# 5 0.0000 0.0000 0.0000 0.0000 2.9010 0.0000
# 6 0.0000 0.0000 0.0000 0.0000 0.0000 0.9178
#
#
#
# Elastic Compliance Matrix: (Units=1/GPa)
#
#
# Indices 1 2 3 4 5 6 
#
# 1 0.037525 -0.009848 -0.002003 0.000000 0.000000 0.000000
# 2 -0.009848 0.013700 -0.008258 0.000000 0.000000 0.000000
# 3 -0.002003 -0.008258 0.020607 0.000000 0.000000 0.000000
# 4 0.000000 0.000000 0.000000 0.066072 0.000000 0.000000
# 5 0.000000 0.000000 0.000000 0.000000 0.344703 0.000000
# 6 0.000000 0.000000 0.000000 0.000000 0.000000 1.089540
#
#
# Mechanical properties :
#
#
# Convention : Reuss Voigt Hill
#
# Bulk Modulus (GPa) = 31.63059 53.36170 42.49614
# Shear Modulus (GPa) = 3.08090 12.54494 7.81292
#
# Velocity S-wave (km/s) = 1.46539 2.95698 2.33357
# Velocity P-wave (km/s) = 4.99094 6.98935 6.07291
#
# Compressibility (1/GPa) = 0.03161496
#
# Stress axis : x y z
#
# Youngs Moduli (GPa) = 26.64865 72.99302 48.52797
#
# Poissons Ratio (x) = 0.71883 0.09718
# Poissons Ratio (y) = 0.26243 0.40074
# Poissons Ratio (z) = 0.05337 0.60277
#
# Static dielectric constant tensor:
#      x y z
#    x 2.462570 0.000000 0.000000 
#    y 0.000000 3.011930 0.000000 
#    z 0.000000 0.000000 2.726770 
# 
# 
# High freq. dielectric constant tensor:
#      x y z
#    x 1.476550 0.000000 0.000000 
#    y 0.000000 1.555710 0.000000 
#    z 0.000000 0.000000 1.531780 
# 
# From -- ./inp_files/7976.got.cif
#   From: 2010.03.12/outbox.cif.g09.slc.cpg/sg47_4_cif.got.tgz:7976.got - 2010.04.14 03:12:58.
