data_PCOD8200380
_publ_section_title
;
Structure prediction by ZEFSAII (Michael W. Deem and Ramdas Pophale) SiO2 
 PCOD8200380
Probable space group: P M M M
;
_chemical_formula_sum "Si O2"
_cell_formula_units_Z 36
_cell_length_a 20.853390
_cell_length_b 9.005201
_cell_length_c 11.602189
_cell_angle_alpha 90.000000
_cell_angle_beta 90.000000
_cell_angle_gamma 90.000000
_cell_volume 2178.763104
_symmetry_space_group_name_H-M "P M M M"
_symmetry_group_IT_number 47
_symmetry_cell_setting 'orthorhombic'
loop_
_space_group_symop_operation_xyz
x,y,z
-x,-y,z
x,-y,-z
-x,y,-z
-x,-y,-z
x,y,-z
-x,y,z
x,-y,z
loop_
_atom_site_type_symbol
_atom_site_label
_atom_site_fract_x
_atom_site_fract_y
_atom_site_fract_z
Si Si1 0.613937 0.177150 0.733939
Si Si2 0.877049 0.164695 0.137136
Si Si3 0.500000 0.330083 0.863597
Si Si4 0.737363 0.823598 0.871944
Si Si5 0.424361 0.325749 0.500000
Si Si6 0.000000 0.334553 0.862353
O O1 0.561908 0.243985 0.819812
O O2 0.683153 0.226362 0.782301
O O3 0.607398 0.248305 0.609176
O O4 0.605675 0.000000 0.727488
O O5 0.807394 0.234041 0.171072
O O6 0.935656 0.259726 0.188024
O O7 0.884402 0.000000 0.188955
O O8 0.881066 0.158486 0.000000
O O9 0.500000 0.500000 0.816531
O O10 0.500000 0.327621 0.000000
O O11 0.740926 0.000000 0.880062
O O12 0.721467 0.760363 0.000000
O O13 0.409039 0.500000 0.500000
O O14 0.500000 0.295317 0.500000
O O15 0.000000 0.500000 0.815228
O O16 0.000000 0.327457 0.000000
#
# Coordination Sequence:
#
# PCOD8200380 Si02
#       6
#     8   8   4   8   4   4
#     4  11  21  34  55  76  93 117 158 204 241 278
#     4   8  13  23  39  57  82 119 155 182 218 270
#     4  11  23  36  49  70 101 131 155 183 228 287
#     4   8  15  28  46  70  97 121 149 191 238 279
#     4  11  23  39  55  69  94 125 154 193 244 294
#     4   9  15  21  31  53  85 118 155 194 221 247
#
# _framework density 16.523135
#
# number of rings (size 3 to 8) (size 9 to 14) (size 15 to 20)
#    0.000    2.556    1.111    3.667    0.000    3.556 
#    0.000    2.222    0.000    5.333    0.000    0.000 
#    0.000    0.889    0.000   10.222    0.000    6.667 
#
# Total GULP energy -446209.935968 kJ/mol
# GULP energy per Si atom -12394.720444 kJ/mol
# Density = 1.648553 g / cm^3
# Si number density = 16.523135 Si / 1000 Ang^3
#
#
#
# Elastic Constant Matrix: (Units=GPa)
#
#
# Indices 1 2 3 4 5 6 
#
# 1 175.8956 66.4517 56.2239 0.0000 0.0000 0.0000
# 2 66.4517 91.7643 36.4466 0.0000 0.0000 0.0000
# 3 56.2239 36.4466 72.3709 0.0000 0.0000 0.0000
# 4 0.0000 0.0000 0.0000 30.3427 0.0000 0.0000
# 5 0.0000 0.0000 0.0000 0.0000 1.0340 0.0000
# 6 0.0000 0.0000 0.0000 0.0000 0.0000 3.1036
#
#
#
# Elastic Compliance Matrix: (Units=1/GPa)
#
#
# Indices 1 2 3 4 5 6 
#
# 1 0.008897 -0.004622 -0.004584 0.000000 0.000000 0.000000
# 2 -0.004622 0.016023 -0.004479 0.000000 0.000000 0.000000
# 3 -0.004584 -0.004479 0.019635 0.000000 0.000000 0.000000
# 4 0.000000 0.000000 0.000000 0.032957 0.000000 0.000000
# 5 0.000000 0.000000 0.000000 0.000000 0.967107 0.000000
# 6 0.000000 0.000000 0.000000 0.000000 0.000000 0.322203
#
#
# Mechanical properties :
#
#
# Convention : Reuss Voigt Hill
#
# Bulk Modulus (GPa) = 58.19017 73.14170 65.66593
# Shear Modulus (GPa) = 3.57164 18.95663 11.26413
#
# Velocity S-wave (km/s) = 1.47183 3.39082 2.61381
# Velocity P-wave (km/s) = 6.17918 7.72610 6.99553
#
# Compressibility (1/GPa) = 0.01718503
#
# Stress axis : x y z
#
# Youngs Moduli (GPa) = 112.40366 62.40915 50.93066
#
# Poissons Ratio (x) = 0.28844 0.23347
# Poissons Ratio (y) = 0.51951 0.22811
# Poissons Ratio (z) = 0.51526 0.27952
#
# Static dielectric constant tensor:
#      x y z
#    x 3.576260 0.000000 0.000000 
#    y 0.000000 3.129800 0.000000 
#    z 0.000000 0.000000 2.771150 
# 
# 
# High freq. dielectric constant tensor:
#      x y z
#    x 1.651830 0.000000 0.000000 
#    y 0.000000 1.627980 0.000000 
#    z 0.000000 0.000000 1.586430 
# 
# From -- ./inp_files/18875.got.cif
#   From: 2010.03.12/outbox.cif.g09.slc.cpg/sg47_10_cif.got.tgz:18875.got - 2010.04.14 03:12:58.
