data_PCOD8200164
_publ_section_title
;
Structure prediction by ZEFSAII (Michael W. Deem and Ramdas Pophale) SiO2 
 PCOD8200164
Probable space group: P M M M
;
_chemical_formula_sum "Si O2"
_cell_formula_units_Z 44
_cell_length_a 9.151536
_cell_length_b 30.499306
_cell_length_c 7.842843
_cell_angle_alpha 90.000000
_cell_angle_beta 90.000000
_cell_angle_gamma 90.000000
_cell_volume 2189.059021
_symmetry_space_group_name_H-M "P M M M"
_symmetry_group_IT_number 47
_symmetry_cell_setting 'orthorhombic'
loop_
_space_group_symop_operation_xyz
x,y,z
-x,-y,z
x,-y,-z
-x,y,-z
-x,-y,-z
x,y,-z
-x,y,z
x,-y,z
loop_
_atom_site_type_symbol
_atom_site_label
_atom_site_fract_x
_atom_site_fract_y
_atom_site_fract_z
Si Si1 0.172908 0.101009 0.200264
Si Si2 0.163251 0.547826 0.202670
Si Si3 0.337093 0.812752 0.801544
Si Si4 0.668279 0.948177 0.500000
Si Si5 0.338372 0.371205 0.801999
Si Si6 0.664631 0.720308 0.699325
O O1 0.230685 0.148666 0.260687
O O2 0.251501 0.066808 0.325782
O O3 0.000000 0.099050 0.229612
O O4 0.210295 0.091149 0.000000
O O5 0.229366 0.500000 0.254626
O O6 0.253761 0.588074 0.284638
O O7 0.000000 0.551522 0.275303
O O8 0.160115 0.551856 0.000000
O O9 0.500000 0.816716 0.716256
O O10 0.260444 0.766001 0.756324
O O11 0.356256 0.816940 0.000000
O O12 0.500000 0.931539 0.500000
O O13 0.674427 0.000000 0.500000
O O14 0.500000 0.369406 0.718803
O O15 0.258779 0.323996 0.771624
O O16 0.349308 0.380857 0.000000
O O17 0.668076 0.716762 0.500000
O O18 0.500000 0.721930 0.773816
#
# Coordination Sequence:
#
# PCOD8200164 Si02
#       6
#     8   8   8   4   8   8
#     4  10  22  40  62  90 125 162 198 242 298 355
#     4   8  14  25  41  61  84 110 143 186 238 295
#     4   9  17  31  53  79 106 140 184 229 270 319
#     4  11  25  43  65  93 123 159 205 253 296 343
#     4   9  16  26  42  64  89 116 150 196 245 293
#     4   9  17  28  44  68  97 130 167 207 253 307
#
# _framework density 20.099961
#
# number of rings (size 3 to 8) (size 9 to 14) (size 15 to 20)
#    0.000    2.818    0.000    1.909    1.273    4.727 
#    0.000    4.545    0.000    6.545    0.000    3.818 
#    0.000    0.000    0.000    0.000    0.000    0.000 
#
# Total GULP energy -545115.403470 kJ/mol
# GULP energy per Si atom -12388.986442 kJ/mol
# Density = 2.005421 g / cm^3
# Si number density = 20.099961 Si / 1000 Ang^3
#
#
#
# Elastic Constant Matrix: (Units=GPa)
#
#
# Indices 1 2 3 4 5 6 
#
# 1 86.1825 60.9610 31.3921 0.0000 0.0000 0.0000
# 2 60.9610 163.0988 36.0761 0.0000 0.0000 0.0000
# 3 31.3921 36.0761 47.1874 0.0000 0.0000 0.0000
# 4 0.0000 0.0000 0.0000 1.5762 0.0000 0.0000
# 5 0.0000 0.0000 0.0000 0.0000 15.8153 0.0000
# 6 0.0000 0.0000 0.0000 0.0000 0.0000 15.1899
#
#
#
# Elastic Compliance Matrix: (Units=1/GPa)
#
#
# Indices 1 2 3 4 5 6 
#
# 1 0.018110 -0.004939 -0.008272 0.000000 0.000000 0.000000
# 2 -0.004939 0.008726 -0.003386 0.000000 0.000000 0.000000
# 3 -0.008272 -0.003386 0.029283 0.000000 0.000000 0.000000
# 4 0.000000 0.000000 0.000000 0.634447 0.000000 0.000000
# 5 0.000000 0.000000 0.000000 0.000000 0.063230 0.000000
# 6 0.000000 0.000000 0.000000 0.000000 0.000000 0.065833
#
#
# Mechanical properties :
#
#
# Convention : Reuss Voigt Hill
#
# Bulk Modulus (GPa) = 43.61765 61.48079 52.54922
# Shear Modulus (GPa) = 5.81081 17.71890 11.76486
#
# Velocity S-wave (km/s) = 1.70213 2.97229 2.42196
# Velocity P-wave (km/s) = 5.06068 6.51408 5.83283
#
# Compressibility (1/GPa) = 0.02292650
#
# Stress axis : x y z
#
# Youngs Moduli (GPa) = 55.21780 114.59662 34.14916
#
# Poissons Ratio (x) = 0.56603 0.28247
# Poissons Ratio (y) = 0.27274 0.11561
# Poissons Ratio (z) = 0.45675 0.38797
#
# Static dielectric constant tensor:
#      x y z
#    x 3.661770 0.000000 0.000000 
#    y 0.000000 4.142940 0.000000 
#    z 0.000000 0.000000 3.328210 
# 
# 
# High freq. dielectric constant tensor:
#      x y z
#    x 1.744670 0.000000 0.000000 
#    y 0.000000 1.803600 0.000000 
#    z 0.000000 0.000000 1.765590 
# 
# From -- ./inp_files/2054.got.cif
#   From: 2010.03.12/outbox.cif.g09.slc.cpg/sg47_2_cif.got.tgz:2054.got - 2010.04.14 03:12:58.
