data_PCOD8200091
_publ_section_title
;
Structure prediction by ZEFSAII (Michael W. Deem and Ramdas Pophale) SiO2 
 PCOD8200091
Probable space group: P M M M
;
_chemical_formula_sum "Si O2"
_cell_formula_units_Z 52
_cell_length_a 9.311868
_cell_length_b 19.606327
_cell_length_c 14.726676
_cell_angle_alpha 90.000000
_cell_angle_beta 90.000000
_cell_angle_gamma 90.000000
_cell_volume 2688.671754
_symmetry_space_group_name_H-M "P M M M"
_symmetry_group_IT_number 47
_symmetry_cell_setting 'orthorhombic'
loop_
_space_group_symop_operation_xyz
x,y,z
-x,-y,z
x,-y,-z
-x,y,-z
-x,-y,-z
x,y,-z
-x,y,z
x,-y,z
loop_
_atom_site_type_symbol
_atom_site_label
_atom_site_fract_x
_atom_site_fract_y
_atom_site_fract_z
Si Si1 0.336797 0.740526 0.743724
Si Si2 0.829411 0.000000 0.603907
Si Si3 0.160491 0.500000 0.608224
Si Si4 0.170007 0.123316 0.731872
Si Si5 0.331998 0.634527 0.894761
Si Si6 0.338175 0.375572 0.602264
Si Si7 0.658473 0.080178 0.900000
Si Si8 0.162856 0.500000 0.892564
O O1 0.500000 0.765866 0.757093
O O2 0.237114 0.803088 0.714963
O O3 0.286074 0.700371 0.834808
O O4 0.321856 0.692679 0.657685
O O5 0.775138 0.932243 0.657391
O O6 0.769563 0.000000 0.500000
O O7 0.000000 0.000000 0.602402
O O8 0.170494 0.500000 0.500000
O O9 0.237945 0.433138 0.646895
O O10 0.000000 0.500000 0.645454
O O11 0.217368 0.102090 0.832244
O O12 0.000000 0.128837 0.728645
O O13 0.500000 0.618559 0.879561
O O14 0.245096 0.568223 0.859840
O O15 0.298488 0.651302 0.000000
O O16 0.289664 0.358695 0.500000
O O17 0.500000 0.403754 0.605002
O O18 0.500000 0.106805 0.868892
O O19 0.654471 0.000000 0.905790
O O20 0.693932 0.110253 0.000000
O O21 0.000000 0.500000 0.853919
O O22 0.161505 0.500000 0.000000
#
# Coordination Sequence:
#
# PCOD8200091 Si02
#       8
#     8   4   4   8   8   8   8   4
#     4  10  22  37  53  77 108 143 182 224 271 327
#     4   9  20  40  62  83 110 146 185 223 272 337
#     4   9  17  30  51  78 105 133 170 219 271 326
#     4  11  22  37  58  84 113 145 183 230 278 327
#     4   9  18  34  54  74 101 142 187 224 262 316
#     4   9  18  34  54  74 101 138 177 220 272 327
#     4   9  18  34  58  85 112 144 177 212 262 321
#     4   9  17  30  51  78 107 139 178 229 277 310
#
# _framework density 19.340406000000002
#
# number of rings (size 3 to 8) (size 9 to 14) (size 15 to 20)
#    0.000    2.538    0.769    1.385    0.000    5.231 
#    0.000    5.385    0.000    3.231    0.000    0.000 
#    0.000    0.000    0.000    0.000    0.000    0.000 
#
# Total GULP energy -644570.105234 kJ/mol
# GULP energy per Si atom -12395.578947 kJ/mol
# Density = 1.929639 g / cm^3
# Si number density = 19.340406 Si / 1000 Ang^3
#
#
#
# Elastic Constant Matrix: (Units=GPa)
#
#
# Indices 1 2 3 4 5 6 
#
# 1 91.8252 63.7819 37.0336 0.0000 0.0000 0.0000
# 2 63.7819 131.2661 53.1762 0.0000 0.0000 0.0000
# 3 37.0336 53.1762 99.0364 0.0000 0.0000 0.0000
# 4 0.0000 0.0000 0.0000 24.0058 0.0000 0.0000
# 5 0.0000 0.0000 0.0000 0.0000 20.7007 0.0000
# 6 0.0000 0.0000 0.0000 0.0000 0.0000 36.2300
#
#
#
# Elastic Compliance Matrix: (Units=1/GPa)
#
#
# Indices 1 2 3 4 5 6 
#
# 1 0.016887 -0.007217 -0.002440 0.000000 0.000000 0.000000
# 2 -0.007217 0.012820 -0.004185 0.000000 0.000000 0.000000
# 3 -0.002440 -0.004185 0.013257 0.000000 0.000000 0.000000
# 4 0.000000 0.000000 0.000000 0.041657 0.000000 0.000000
# 5 0.000000 0.000000 0.000000 0.000000 0.048307 0.000000
# 6 0.000000 0.000000 0.000000 0.000000 0.000000 0.027601
#
#
# Mechanical properties :
#
#
# Convention : Reuss Voigt Hill
#
# Bulk Modulus (GPa) = 65.44203 70.01234 67.72718
# Shear Modulus (GPa) = 25.86567 27.39636 26.63102
#
# Velocity S-wave (km/s) = 3.66100 3.76777 3.71477
# Velocity P-wave (km/s) = 7.19590 7.43013 7.31395
#
# Compressibility (1/GPa) = 0.01528070
#
# Stress axis : x y z
#
# Youngs Moduli (GPa) = 59.21641 78.00185 75.43429
#
# Poissons Ratio (x) = 0.56295 0.18403
# Poissons Ratio (y) = 0.42737 0.31568
# Poissons Ratio (z) = 0.14447 0.32643
#
# Static dielectric constant tensor:
#      x y z
#    x 3.524470 0.000000 0.000000 
#    y 0.000000 3.893280 0.000000 
#    z 0.000000 0.000000 4.678990 
# 
# 
# High freq. dielectric constant tensor:
#      x y z
#    x 1.738760 0.000000 0.000000 
#    y 0.000000 1.749690 0.000000 
#    z 0.000000 0.000000 1.755870 
# 
# From -- ./inp_files/21557.got.cif
#   From: 2010.03.12/outbox.cif.g09.slc.cpg/sg47_11_cif.got.tgz:21557.got - 2010.04.14 03:12:58.
