data_PCOD8200140
_publ_section_title
;
Structure prediction by ZEFSAII (Michael W. Deem and Ramdas Pophale) SiO2 
 PCOD8200140
Probable space group: P M M M
;
_chemical_formula_sum "Si O2"
_cell_formula_units_Z 48
_cell_length_a 9.939246
_cell_length_b 29.209902
_cell_length_c 9.246600
_cell_angle_alpha 90.000000
_cell_angle_beta 90.000000
_cell_angle_gamma 90.000000
_cell_volume 2684.513612
_symmetry_space_group_name_H-M "P M M M"
_symmetry_group_IT_number 47
_symmetry_cell_setting 'orthorhombic'
loop_
_space_group_symop_operation_xyz
x,y,z
-x,-y,z
x,-y,-z
-x,y,-z
-x,-y,-z
x,y,-z
-x,y,z
x,-y,z
loop_
_atom_site_type_symbol
_atom_site_label
_atom_site_fract_x
_atom_site_fract_y
_atom_site_fract_z
Si Si1 0.745303 0.593341 0.168946
Si Si2 0.159816 0.049951 0.838398
Si Si3 0.152355 0.764961 0.327781
Si Si4 0.500000 0.446642 0.661583
Si Si5 0.159023 0.133604 0.341054
Si Si6 0.000000 0.446038 0.328570
Si Si7 0.344714 0.303814 0.833914
O O1 0.626594 0.566442 0.243897
O O2 0.875671 0.578616 0.255203
O O3 0.722600 0.647093 0.187316
O O4 0.755311 0.579799 0.000000
O O5 0.224295 0.092232 0.750627
O O6 0.000000 0.054571 0.840476
O O7 0.199666 0.000000 0.772167
O O8 0.216968 0.053351 0.000000
O O9 0.160600 0.762712 0.500000
O O10 0.189624 0.816327 0.273840
O O11 0.261172 0.731316 0.261379
O O12 0.000000 0.752158 0.277833
O O13 0.500000 0.500000 0.637403
O O14 0.500000 0.423683 0.500000
O O15 0.223388 0.130239 0.500000
O O16 0.000000 0.127275 0.351572
O O17 0.000000 0.500000 0.294887
O O18 0.000000 0.436978 0.500000
O O19 0.500000 0.305305 0.781874
O O20 0.336765 0.288357 0.000000
#
# Coordination Sequence:
#
# PCOD8200140 Si02
#       7
#     8   8   8   4   8   4   8
#     4  11  23  41  62  85 114 148 184 222 266 319
#     4   8  13  20  31  51  82 120 162 205 247 296
#     4   9  19  34  52  77 105 135 174 218 263 314
#     4  11  23  39  61  89 117 145 181 223 266 315
#     4   8  14  25  39  58  89 124 161 206 251 300
#     4  11  25  43  61  87 121 149 179 223 268 313
#     4  10  22  40  57  78 108 138 173 219 264 309
#
# _framework density 17.880334000000001
#
# number of rings (size 3 to 8) (size 9 to 14) (size 15 to 20)
#    0.000    2.500    0.833    3.000    1.167    6.333 
#    0.000    3.333    0.000    0.000    0.000    0.000 
#    0.000    0.667    0.000    7.333    0.000   12.000 
#
# Total GULP energy -594892.695850 kJ/mol
# GULP energy per Si atom -12393.597830 kJ/mol
# Density = 1.783964 g / cm^3
# Si number density = 17.880334 Si / 1000 Ang^3
#
#
#
# Elastic Constant Matrix: (Units=GPa)
#
#
# Indices 1 2 3 4 5 6 
#
# 1 104.6113 53.0836 50.6431 0.0000 0.0000 0.0000
# 2 53.0836 121.0456 63.4462 0.0000 0.0000 0.0000
# 3 50.6431 63.4462 93.7167 0.0000 0.0000 0.0000
# 4 0.0000 0.0000 0.0000 35.4479 0.0000 0.0000
# 5 0.0000 0.0000 0.0000 0.0000 31.6864 0.0000
# 6 0.0000 0.0000 0.0000 0.0000 0.0000 13.0788
#
#
#
# Elastic Compliance Matrix: (Units=1/GPa)
#
#
# Indices 1 2 3 4 5 6 
#
# 1 0.013751 -0.003310 -0.005190 0.000000 0.000000 0.000000
# 2 -0.003310 0.013602 -0.007420 0.000000 0.000000 0.000000
# 3 -0.005190 -0.007420 0.018498 0.000000 0.000000 0.000000
# 4 0.000000 0.000000 0.000000 0.028210 0.000000 0.000000
# 5 0.000000 0.000000 0.000000 0.000000 0.031559 0.000000
# 6 0.000000 0.000000 0.000000 0.000000 0.000000 0.076460
#
#
# Mechanical properties :
#
#
# Convention : Reuss Voigt Hill
#
# Bulk Modulus (GPa) = 71.36912 72.63547 72.00229
# Shear Modulus (GPa) = 22.87364 26.18933 24.53149
#
# Velocity S-wave (km/s) = 3.58056 3.83129 3.70805
# Velocity P-wave (km/s) = 7.55615 7.76421 7.66089
#
# Compressibility (1/GPa) = 0.01401166
#
# Stress axis : x y z
#
# Youngs Moduli (GPa) = 72.71949 73.51775 54.05888
#
# Poissons Ratio (x) = 0.24336 0.28057
# Poissons Ratio (y) = 0.24072 0.40111
# Poissons Ratio (z) = 0.37742 0.54549
#
# Static dielectric constant tensor:
#      x y z
#    x 2.886120 0.000000 0.000000 
#    y 0.000000 3.596810 0.000000 
#    z 0.000000 0.000000 3.558000 
# 
# 
# High freq. dielectric constant tensor:
#      x y z
#    x 1.655040 0.000000 0.000000 
#    y 0.000000 1.706120 0.000000 
#    z 0.000000 0.000000 1.694820 
# 
# From -- ./inp_files/2760.got.cif
#   From: 2010.03.12/outbox.cif.g09.slc.cpg/sg47_2_cif.got.tgz:2760.got - 2010.04.14 03:12:58.
