data_PCOD8200521
_publ_section_title
;
Structure prediction by ZEFSAII (Michael W. Deem and Ramdas Pophale) SiO2 
 PCOD8200521
Probable space group: P M M M
;
_chemical_formula_sum "Si O2"
_cell_formula_units_Z 52
_cell_length_a 9.383276
_cell_length_b 18.500833
_cell_length_c 18.361852
_cell_angle_alpha 90.000000
_cell_angle_beta 90.000000
_cell_angle_gamma 90.000000
_cell_volume 3187.588537
_symmetry_space_group_name_H-M "P M M M"
_symmetry_group_IT_number 47
_symmetry_cell_setting 'orthorhombic'
loop_
_space_group_symop_operation_xyz
x,y,z
-x,-y,z
x,-y,-z
-x,y,-z
-x,-y,-z
x,y,-z
-x,y,z
x,-y,z
loop_
_atom_site_type_symbol
_atom_site_label
_atom_site_fract_x
_atom_site_fract_y
_atom_site_fract_z
Si Si1 0.335887 0.580068 0.208909
Si Si2 0.168617 0.083495 0.500000
Si Si3 0.664669 0.081356 0.786353
Si Si4 0.164265 0.204078 0.159427
Si Si5 0.338365 0.279014 0.719295
Si Si6 0.834971 0.655302 0.081908
Si Si7 0.660433 0.150832 0.370792
O O1 0.500000 0.577565 0.186066
O O2 0.281618 0.500000 0.231269
O O3 0.315126 0.633885 0.278958
O O4 0.254231 0.607538 0.137777
O O5 0.227620 0.123145 0.570959
O O6 0.000000 0.090937 0.500000
O O7 0.216877 0.000000 0.500000
O O8 0.500000 0.084504 0.807166
O O9 0.748573 0.129119 0.846432
O O10 0.691402 0.111074 0.705273
O O11 0.723528 0.000000 0.790172
O O12 0.218019 0.247110 0.229436
O O13 0.189972 0.258134 0.091629
O O14 0.000000 0.183936 0.169447
O O15 0.500000 0.261158 0.747943
O O16 0.321208 0.238328 0.641256
O O17 0.000000 0.637155 0.095808
O O18 0.788798 0.634960 0.000000
O O19 0.500000 0.133418 0.397950
#
# Coordination Sequence:
#
# PCOD8200521 Si02
#       7
#     8   4   8   8   8   8   8
#     4   9  17  29  46  69  94 115 138 175 220 260
#     4  11  23  33  41  61  94 123 144 174 215 249
#     4   9  17  29  45  64  85 109 138 175 220 264
#     4   9  16  26  42  62  81 105 142 184 219 252
#     4   8  15  29  46  63  85 113 144 176 212 254
#     4   9  18  31  44  59  84 119 152 178 209 255
#     4   9  17  30  47  63  82 114 150 175 200 247
#
# _framework density 16.313272999999999
#
# number of rings (size 3 to 8) (size 9 to 14) (size 15 to 20)
#    0.000    3.000    0.000    2.077    0.000    5.538 
#    0.000    1.538    0.000    0.462    0.000    3.769 
#    0.000    4.308    0.000    0.000    0.000    0.000 
#
# Total GULP energy -644193.796792 kJ/mol
# GULP energy per Si atom -12388.342246 kJ/mol
# Density = 1.627614 g / cm^3
# Si number density = 16.313273 Si / 1000 Ang^3
#
#
#
# Elastic Constant Matrix: (Units=GPa)
#
#
# Indices 1 2 3 4 5 6 
#
# 1 56.5000 45.0564 25.0801 0.0000 0.0000 0.0000
# 2 45.0564 152.5368 41.8150 0.0000 0.0000 0.0000
# 3 25.0801 41.8150 42.3980 0.0000 0.0000 0.0000
# 4 0.0000 0.0000 0.0000 19.3785 0.0000 0.0000
# 5 0.0000 0.0000 0.0000 0.0000 20.2353 0.0000
# 6 0.0000 0.0000 0.0000 0.0000 0.0000 22.9325
#
#
#
# Elastic Compliance Matrix: (Units=1/GPa)
#
#
# Indices 1 2 3 4 5 6 
#
# 1 0.026348 -0.004811 -0.010841 0.000000 0.000000 0.000000
# 2 -0.004811 0.009863 -0.006882 0.000000 0.000000 0.000000
# 3 -0.010841 -0.006882 0.036786 0.000000 0.000000 0.000000
# 4 0.000000 0.000000 0.000000 0.051604 0.000000 0.000000
# 5 0.000000 0.000000 0.000000 0.000000 0.049419 0.000000
# 6 0.000000 0.000000 0.000000 0.000000 0.000000 0.043606
#
#
# Mechanical properties :
#
#
# Convention : Reuss Voigt Hill
#
# Bulk Modulus (GPa) = 35.80418 52.81533 44.30975
# Shear Modulus (GPa) = 18.38209 21.80813 20.09511
#
# Velocity S-wave (km/s) = 3.36045 3.66024 3.51354
# Velocity P-wave (km/s) = 6.08707 7.09289 6.60914
#
# Compressibility (1/GPa) = 0.02792970
#
# Stress axis : x y z
#
# Youngs Moduli (GPa) = 37.95377 101.38541 27.18397
#
# Poissons Ratio (x) = 0.48774 0.29471
# Poissons Ratio (y) = 0.18259 0.18708
# Poissons Ratio (z) = 0.41147 0.69773
#
# Static dielectric constant tensor:
#      x y z
#    x 3.101780 0.000000 0.000000 
#    y 0.000000 3.531670 0.000000 
#    z 0.000000 0.000000 2.845270 
# 
# 
# High freq. dielectric constant tensor:
#      x y z
#    x 1.631670 0.000000 0.000000 
#    y 0.000000 1.635200 0.000000 
#    z 0.000000 0.000000 1.579790 
# 
# From -- ./inp_files/9591.got.cif
#   From: 2010.03.12/outbox.cif.g09.slc.cpg/sg47_5_cif.got.tgz:9591.got - 2010.04.14 03:12:58.
