data_PCOD8200512
_publ_section_title
;
Structure prediction by ZEFSAII (Michael W. Deem and Ramdas Pophale) SiO2 
 PCOD8200512
Probable space group: P M M M
;
_chemical_formula_sum "Si O2"
_cell_formula_units_Z 40
_cell_length_a 10.219347
_cell_length_b 24.001762
_cell_length_c 8.935343
_cell_angle_alpha 90.000000
_cell_angle_beta 90.000000
_cell_angle_gamma 90.000000
_cell_volume 2191.681791
_symmetry_space_group_name_H-M "P M M M"
_symmetry_group_IT_number 47
_symmetry_cell_setting 'orthorhombic'
loop_
_space_group_symop_operation_xyz
x,y,z
-x,-y,z
x,-y,-z
-x,y,-z
-x,-y,-z
x,y,-z
-x,y,z
x,-y,z
loop_
_atom_site_type_symbol
_atom_site_label
_atom_site_fract_x
_atom_site_fract_y
_atom_site_fract_z
Si Si1 0.353753 0.937642 0.678003
Si Si2 0.148006 0.848629 0.677273
Si Si3 0.248634 0.382908 0.823964
Si Si4 0.850567 0.736170 0.171863
Si Si5 0.000000 0.565811 0.669042
Si Si6 0.500000 0.564335 0.677177
O O1 0.349084 0.936367 0.500000
O O2 0.500000 0.920577 0.732099
O O3 0.245890 0.895235 0.744593
O O4 0.320315 0.000000 0.734837
O O5 0.151204 0.849870 0.500000
O O6 0.197688 0.788215 0.730083
O O7 0.000000 0.860043 0.735983
O O8 0.238708 0.316974 0.790950
O O9 0.375374 0.405275 0.743028
O O10 0.125887 0.414739 0.758075
O O11 0.255893 0.394805 0.000000
O O12 0.000000 0.720045 0.210954
O O13 0.837506 0.753818 0.000000
O O14 0.000000 0.500000 0.662446
O O15 0.000000 0.590233 0.500000
O O16 0.500000 0.500000 0.726454
O O17 0.500000 0.570291 0.500000
#
# Coordination Sequence:
#
# PCOD8200512 Si02
#       6
#     8   8   8   8   4   4
#     4   8  14  26  44  67  99 135 167 206 257 307
#     4   9  17  28  46  74 101 128 168 213 256 305
#     4  11  22  39  61  83 108 145 190 228 267 326
#     4   9  18  35  55  76 105 138 173 216 265 313
#     4  11  23  37  57  87 117 143 176 225 280 327
#     4  11  25  43  59  81 115 147 176 221 284 337
#
# _framework density 18.250826
#
# number of rings (size 3 to 8) (size 9 to 14) (size 15 to 20)
#    0.000    2.400    1.000    2.400    0.000    6.000 
#    1.800    2.000    0.000    0.600    0.000    4.200 
#    0.000    0.000    0.000    0.000    0.000    0.000 
#
# Total GULP energy -495955.951857 kJ/mol
# GULP energy per Si atom -12398.898796 kJ/mol
# Density = 1.820929 g / cm^3
# Si number density = 18.250826 Si / 1000 Ang^3
#
#
#
# Elastic Constant Matrix: (Units=GPa)
#
#
# Indices 1 2 3 4 5 6 
#
# 1 141.0494 86.5001 37.7635 0.0000 0.0000 0.0000
# 2 86.5001 136.4356 40.3003 0.0000 0.0000 0.0000
# 3 37.7635 40.3003 43.1869 0.0000 0.0000 0.0000
# 4 0.0000 0.0000 0.0000 -0.8461 0.0000 0.0000
# 5 0.0000 0.0000 0.0000 0.0000 69.0634 0.0000
# 6 0.0000 0.0000 0.0000 0.0000 0.0000 35.8566
#
#
#
# Elastic Compliance Matrix: (Units=1/GPa)
#
#
# Indices 1 2 3 4 5 6 
#
# 1 0.012279 -0.006369 -0.004794 0.000000 0.000000 0.000000
# 2 -0.006369 0.013422 -0.006956 0.000000 0.000000 0.000000
# 3 -0.004794 -0.006956 0.033838 0.000000 0.000000 0.000000
# 4 0.000000 0.000000 0.000000 -1.181851 0.000000 0.000000
# 5 0.000000 0.000000 0.000000 0.000000 0.014479 0.000000
# 6 0.000000 0.000000 0.000000 0.000000 0.000000 0.027889
#
#
# Mechanical properties :
#
#
# Convention : Reuss Voigt Hill
#
# Bulk Modulus (GPa) = 42.91505 72.19998 57.55752
# Shear Modulus (GPa) = -4.82653 31.22198 13.19772
#
# Velocity S-wave (km/s) = -1.62797 4.14057 2.69203
# Velocity P-wave (km/s) = 4.47564 7.90600 6.42402
#
# Compressibility (1/GPa) = 0.02330185
#
# Stress axis : x y z
#
# Youngs Moduli (GPa) = 81.44029 74.50511 29.55279
#
# Poissons Ratio (x) = 0.47451 0.14167
# Poissons Ratio (y) = 0.51868 0.20556
# Poissons Ratio (z) = 0.39041 0.51824
#
# Static dielectric constant tensor:
#      x y z
#    x 2.828440 0.000000 0.000000 
#    y 0.000000 3.577970 0.000000 
#    z 0.000000 0.000000 3.236860 
# 
# 
# High freq. dielectric constant tensor:
#      x y z
#    x 1.705640 0.000000 0.000000 
#    y 0.000000 1.715790 0.000000 
#    z 0.000000 0.000000 1.688960 
# 
# From -- ./inp_files/1730.got.cif
#   From: 2010.03.12/outbox.cif.g09.slc.cpg/sg47_1_cif.got.tgz:1730.got - 2010.04.14 03:12:58.
