data_PCOD8200560
_publ_section_title
;
Structure prediction by ZEFSAII (Michael W. Deem and Ramdas Pophale) SiO2 
 PCOD8200560
Probable space group: P M M M
;
_chemical_formula_sum "Si O2"
_cell_formula_units_Z 24
_cell_length_a 18.601798
_cell_length_b 8.964376
_cell_length_c 7.909674
_cell_angle_alpha 90.000000
_cell_angle_beta 90.000000
_cell_angle_gamma 90.000000
_cell_volume 1318.965915
_symmetry_space_group_name_H-M "P M M M"
_symmetry_group_IT_number 47
_symmetry_cell_setting 'orthorhombic'
loop_
_space_group_symop_operation_xyz
x,y,z
-x,-y,z
x,-y,-z
-x,y,-z
-x,-y,-z
x,y,-z
-x,y,z
x,-y,z
loop_
_atom_site_type_symbol
_atom_site_label
_atom_site_fract_x
_atom_site_fract_y
_atom_site_fract_z
Si Si1 0.920765 0.000000 0.197257
Si Si2 0.207163 0.834060 0.688882
Si Si3 0.662858 0.673293 0.190162
Si Si4 0.582206 0.823601 0.500000
O O1 0.876117 0.148919 0.251433
O O2 0.000000 0.000000 0.283091
O O3 0.930226 0.000000 0.000000
O O4 0.208960 0.768732 0.500000
O O5 0.253605 0.724472 0.805906
O O6 0.242678 0.000000 0.694409
O O7 0.657964 0.500000 0.234459
O O8 0.618157 0.762777 0.329317
O O9 0.633339 0.703913 0.000000
O O10 0.500000 0.770732 0.500000
O O11 0.589365 0.000000 0.500000
#
# Coordination Sequence:
#
# PCOD8200560 Si02
#       4
#     4   8   8   4
#     4   9  17  29  49  81 117 152 193 241 287 335
#     4   9  18  31  52  80 109 146 191 238 279 330
#     4  11  23  38  59  87 119 154 193 237 287 346
#     4  11  25  43  63  87 115 148 191 240 292 343
#
# _framework density 18.196075
#
# number of rings (size 3 to 8) (size 9 to 14) (size 15 to 20)
#    1.000    1.000    1.667    2.500    0.000    5.333 
#    0.000    3.333    0.000    1.000    0.000    7.000 
#    0.000    0.000    0.000    0.000    0.000    0.000 
#
# Total GULP energy -297348.947011 kJ/mol
# GULP energy per Si atom -12389.539459 kJ/mol
# Density = 1.815466 g / cm^3
# Si number density = 18.196075 Si / 1000 Ang^3
#
#
#
# Elastic Constant Matrix: (Units=GPa)
#
#
# Indices 1 2 3 4 5 6 
#
# 1 133.1586 42.6102 44.9842 0.0000 0.0000 0.0000
# 2 42.6102 67.0507 46.6583 0.0000 0.0000 0.0000
# 3 44.9842 46.6583 115.9263 0.0000 0.0000 0.0000
# 4 0.0000 0.0000 0.0000 27.4329 0.0000 0.0000
# 5 0.0000 0.0000 0.0000 0.0000 19.9191 0.0000
# 6 0.0000 0.0000 0.0000 0.0000 0.0000 -8.0503
#
#
#
# Elastic Compliance Matrix: (Units=1/GPa)
#
#
# Indices 1 2 3 4 5 6 
#
# 1 0.009684 -0.004916 -0.001779 0.000000 0.000000 0.000000
# 2 -0.004916 0.023212 -0.007435 0.000000 0.000000 0.000000
# 3 -0.001779 -0.007435 0.012309 0.000000 0.000000 0.000000
# 4 0.000000 0.000000 0.000000 0.036453 0.000000 0.000000
# 5 0.000000 0.000000 0.000000 0.000000 0.050203 0.000000
# 6 0.000000 0.000000 0.000000 0.000000 0.000000 -0.124219
#
#
# Mechanical properties :
#
#
# Convention : Reuss Voigt Hill
#
# Bulk Modulus (GPa) = 59.01507 64.96012 61.98760
# Shear Modulus (GPa) = 120.33748 19.98586 70.16167
#
# Velocity S-wave (km/s) = 8.14109 3.31775 6.21630
# Velocity P-wave (km/s) = 10.99423 7.10311 9.25546
#
# Compressibility (1/GPa) = 0.01694482
#
# Stress axis : x y z
#
# Youngs Moduli (GPa) = 103.26300 43.08167 81.24210
#
# Poissons Ratio (x) = 0.21179 0.14454
# Poissons Ratio (y) = 0.50765 0.60401
# Poissons Ratio (z) = 0.18372 0.32030
#
# Static dielectric constant tensor:
#      x y z
#    x 3.626460 0.000000 0.000000 
#    y 0.000000 3.122160 0.000000 
#    z 0.000000 0.000000 3.395450 
# 
# 
# High freq. dielectric constant tensor:
#      x y z
#    x 1.697410 0.000000 0.000000 
#    y 0.000000 1.676840 0.000000 
#    z 0.000000 0.000000 1.721600 
# 
# From -- ./inp_files/10269.got.cif
#   From: 2010.03.12/outbox.cif.g09.slc.cpg/sg47_6_cif.got.tgz:10269.got - 2010.04.14 03:12:58.
