data_PCOD8200309
_publ_section_title
;
Structure prediction by ZEFSAII (Michael W. Deem and Ramdas Pophale) SiO2 
 PCOD8200309
Probable space group: P M M M
;
_chemical_formula_sum "Si O2"
_cell_formula_units_Z 56
_cell_length_a 8.989261
_cell_length_b 18.935544
_cell_length_c 18.940456
_cell_angle_alpha 90.000000
_cell_angle_beta 90.000000
_cell_angle_gamma 90.000000
_cell_volume 3223.979023
_symmetry_space_group_name_H-M "P M M M"
_symmetry_group_IT_number 47
_symmetry_cell_setting 'orthorhombic'
loop_
_space_group_symop_operation_xyz
x,y,z
-x,-y,z
x,-y,-z
-x,y,-z
-x,-y,-z
x,y,-z
-x,y,z
x,-y,z
loop_
_atom_site_type_symbol
_atom_site_label
_atom_site_fract_x
_atom_site_fract_y
_atom_site_fract_z
Si Si1 0.327830 0.920387 0.329485
Si Si2 0.833929 0.583791 0.076577
Si Si3 0.325630 0.421768 0.785915
Si Si4 0.326811 0.918818 0.918545
Si Si5 0.676377 0.282682 0.714617
Si Si6 0.325292 0.207332 0.577220
Si Si7 0.823607 0.842687 0.793422
O O1 0.500000 0.908719 0.308144
O O2 0.284778 0.871100 0.395669
O O3 0.228769 0.902047 0.261883
O O4 0.295794 0.000000 0.353296
O O5 0.835307 0.500000 0.075258
O O6 0.728226 0.609691 0.139213
O O7 0.000000 0.612546 0.090593
O O8 0.776659 0.611687 0.000000
O O9 0.500000 0.428909 0.790824
O O10 0.257545 0.500000 0.768700
O O11 0.279244 0.364633 0.726828
O O12 0.500000 0.907146 0.901862
O O13 0.230618 0.865719 0.870915
O O14 0.283050 0.000000 0.902290
O O15 0.292146 0.900979 0.000000
O O16 0.500000 0.270529 0.722021
O O17 0.732338 0.263531 0.635503
O O18 0.754940 0.233037 0.772276
O O19 0.250401 0.219918 0.500000
O O20 0.500000 0.215841 0.568827
O O21 0.000000 0.836523 0.793088
#
# Coordination Sequence:
#
# PCOD8200309 Si02
#       7
#     8   8   8   8   8   8   8
#     4   9  17  29  46  68  94 124 155 187 227 274
#     4   8  14  25  41  62  89 118 144 173 214 262
#     4   9  17  29  47  70  92 116 150 191 231 273
#     4   9  18  33  52  71  92 123 162 200 238 278
#     4   9  18  33  50  67  91 122 153 187 231 282
#     4   8  14  26  46  70  92 118 155 192 222 260
#     4  11  21  31  46  68  94 123 157 196 233 272
#
# _framework density 17.369838999999999
#
# number of rings (size 3 to 8) (size 9 to 14) (size 15 to 20)
#    0.000    3.000    0.000    3.429    0.000    3.714 
#    0.000    4.286    0.000    8.143    0.000    7.000 
#    0.000    0.000    0.000    8.714    0.000    9.429 
#
# Total GULP energy -693972.129997 kJ/mol
# GULP energy per Si atom -12392.359464 kJ/mol
# Density = 1.733030 g / cm^3
# Si number density = 17.369839 Si / 1000 Ang^3
#
#
#
# Elastic Constant Matrix: (Units=GPa)
#
#
# Indices 1 2 3 4 5 6 
#
# 1 45.6795 32.0737 35.2337 0.0000 0.0000 0.0000
# 2 32.0737 112.6715 73.7009 0.0000 0.0000 0.0000
# 3 35.2337 73.7009 131.8499 0.0000 0.0000 0.0000
# 4 0.0000 0.0000 0.0000 18.9817 0.0000 0.0000
# 5 0.0000 0.0000 0.0000 0.0000 3.1973 0.0000
# 6 0.0000 0.0000 0.0000 0.0000 0.0000 10.9244
#
#
#
# Elastic Compliance Matrix: (Units=1/GPa)
#
#
# Indices 1 2 3 4 5 6 
#
# 1 0.029308 -0.005076 -0.004995 0.000000 0.000000 0.000000
# 2 -0.005076 0.014870 -0.006956 0.000000 0.000000 0.000000
# 3 -0.004995 -0.006956 0.012807 0.000000 0.000000 0.000000
# 4 0.000000 0.000000 0.000000 0.052682 0.000000 0.000000
# 5 0.000000 0.000000 0.000000 0.000000 0.312761 0.000000
# 6 0.000000 0.000000 0.000000 0.000000 0.000000 0.091539
#
#
# Mechanical properties :
#
#
# Convention : Reuss Voigt Hill
#
# Bulk Modulus (GPa) = 43.60510 63.57972 53.59241
# Shear Modulus (GPa) = 8.99824 16.56685 12.78254
#
# Velocity S-wave (km/s) = 2.27851 3.09167 2.71570
# Velocity P-wave (km/s) = 5.66397 7.03047 6.38389
#
# Compressibility (1/GPa) = 0.02293310
#
# Stress axis : x y z
#
# Youngs Moduli (GPa) = 34.12015 67.24882 78.08183
#
# Poissons Ratio (x) = 0.34136 0.38998
# Poissons Ratio (y) = 0.17319 0.54311
# Poissons Ratio (z) = 0.17041 0.46776
#
# Static dielectric constant tensor:
#      x y z
#    x 3.019000 0.000000 0.000000 
#    y 0.000000 3.268110 0.000000 
#    z 0.000000 0.000000 3.536870 
# 
# 
# High freq. dielectric constant tensor:
#      x y z
#    x 1.644650 0.000000 0.000000 
#    y 0.000000 1.654480 0.000000 
#    z 0.000000 0.000000 1.666470 
# 
# From -- ./inp_files/11514.got.cif
#   From: 2010.03.12/outbox.cif.g09.slc.cpg/sg47_6_cif.got.tgz:11514.got - 2010.04.14 03:12:58.
