data_PCOD8200900
_publ_section_title
;
Structure prediction by ZEFSAII (Michael W. Deem and Ramdas Pophale) SiO2 
 PCOD8200900
Probable space group: P M M M
;
_chemical_formula_sum "Si O2"
_cell_formula_units_Z 48
_cell_length_a 7.790934
_cell_length_b 9.984373
_cell_length_c 34.451563
_cell_angle_alpha 90.000000
_cell_angle_beta 90.000000
_cell_angle_gamma 90.000000
_cell_volume 2679.904095
_symmetry_space_group_name_H-M "P M M M"
_symmetry_group_IT_number 47
_symmetry_cell_setting 'orthorhombic'
loop_
_space_group_symop_operation_xyz
x,y,z
-x,-y,z
x,-y,-z
-x,y,-z
-x,-y,-z
x,y,-z
-x,y,z
x,-y,z
loop_
_atom_site_type_symbol
_atom_site_label
_atom_site_fract_x
_atom_site_fract_y
_atom_site_fract_z
Si Si1 0.700290 0.353897 0.608397
Si Si2 0.296844 0.650276 0.693701
Si Si3 0.000000 0.157572 0.181913
Si Si4 0.000000 0.160396 0.095282
Si Si5 0.690576 0.840795 0.956478
Si Si6 0.202237 0.851453 0.457241
Si Si7 0.300550 0.156476 0.761474
O O1 0.500000 0.368545 0.613520
O O2 0.776612 0.500000 0.596670
O O3 0.774755 0.310876 0.650672
O O4 0.737257 0.248206 0.575443
O O5 0.500000 0.653562 0.693600
O O6 0.233167 0.500000 0.704745
O O7 0.232384 0.759500 0.724548
O O8 0.824214 0.201311 0.203485
O O9 0.000000 0.220381 0.138807
O O10 0.000000 0.000000 0.177852
O O11 0.168737 0.216563 0.073351
O O12 0.000000 0.000000 0.095434
O O13 0.500000 0.792269 0.943777
O O14 0.697127 0.000000 0.956279
O O15 0.732190 0.789351 0.000000
O O16 0.268746 0.805736 0.500000
O O17 0.000000 0.855559 0.457675
O O18 0.274252 0.000000 0.447974
O O19 0.500000 0.187864 0.772255
O O20 0.277906 0.000000 0.751448
#
# Coordination Sequence:
#
# PCOD8200900 Si02
#       7
#     8   8   4   4   8   8   8
#     4   9  18  32  50  73  97 117 143 184 230 274
#     4   8  15  30  50  69  90 115 143 179 223 269
#     4   9  18  29  39  58  85 111 149 195 228 270
#     4   9  15  22  33  47  69 103 138 179 231 270
#     4   8  13  20  30  46  68  96 136 184 227 268
#     4   9  19  35  50  65  91 126 159 187 217 260
#     4   9  17  30  47  64  86 118 150 183 228 275
#
# _framework density 17.911090000000002
#
# number of rings (size 3 to 8) (size 9 to 14) (size 15 to 20)
#    0.000    3.333    0.000    2.250    0.000    3.667 
#    1.500    7.917    0.000    0.000    0.000    0.000 
#    0.000    0.000    0.000    0.000    0.000    6.667 
#
# Total GULP energy -594670.423344 kJ/mol
# GULP energy per Si atom -12388.967153 kJ/mol
# Density = 1.787032 g / cm^3
# Si number density = 17.911090 Si / 1000 Ang^3
#
#
#
# Elastic Constant Matrix: (Units=GPa)
#
#
# Indices 1 2 3 4 5 6 
#
# 1 78.5354 25.8170 65.0109 0.0000 0.0000 0.0000
# 2 25.8170 56.6851 63.5651 0.0000 0.0000 0.0000
# 3 65.0109 63.5651 172.0349 0.0000 0.0000 0.0000
# 4 0.0000 0.0000 0.0000 -3.3370 0.0000 0.0000
# 5 0.0000 0.0000 0.0000 0.0000 32.6888 0.0000
# 6 0.0000 0.0000 0.0000 0.0000 0.0000 29.8751
#
#
#
# Elastic Compliance Matrix: (Units=1/GPa)
#
#
# Indices 1 2 3 4 5 6 
#
# 1 0.018563 -0.001004 -0.006644 0.000000 0.000000 0.000000
# 2 -0.001004 0.030176 -0.010770 0.000000 0.000000 0.000000
# 3 -0.006644 -0.010770 0.012303 0.000000 0.000000 0.000000
# 4 0.000000 0.000000 0.000000 -0.299671 0.000000 0.000000
# 5 0.000000 0.000000 0.000000 0.000000 0.030592 0.000000
# 6 0.000000 0.000000 0.000000 0.000000 0.000000 0.033473
#
#
# Mechanical properties :
#
#
# Convention : Reuss Voigt Hill
#
# Bulk Modulus (GPa) = 41.31310 68.44903 54.88106
# Shear Modulus (GPa) = -38.56234 22.03621 -8.26307
#
# Velocity S-wave (km/s) = -4.64506 3.51138 -2.15021
# Velocity P-wave (km/s) = 2.37762 7.39856 4.95407
#
# Compressibility (1/GPa) = 0.02420540
#
# Stress axis : x y z
#
# Youngs Moduli (GPa) = 53.87103 33.13866 81.28173
#
# Poissons Ratio (x) = 0.03328 0.54001
# Poissons Ratio (y) = 0.05410 0.87543
# Poissons Ratio (z) = 0.35790 0.35691
#
# Static dielectric constant tensor:
#      x y z
#    x 3.357490 0.000000 0.000000 
#    y 0.000000 2.908900 0.000000 
#    z 0.000000 0.000000 2.572100 
# 
# 
# High freq. dielectric constant tensor:
#      x y z
#    x 1.690630 0.000000 0.000000 
#    y 0.000000 1.646230 0.000000 
#    z 0.000000 0.000000 1.693900 
# 
# From -- ./inp_files/34195.got.cif
#   From: 2010.03.12/outbox.cif.g09.slc.cpg/sg47_18_cif.got.tgz:34195.got - 2010.04.14 03:12:58.
