data_PCOD8200425
_publ_section_title
;
Structure prediction by ZEFSAII (Michael W. Deem and Ramdas Pophale) SiO2 
 PCOD8200425
Probable space group: P M M M
;
_chemical_formula_sum "Si O2"
_cell_formula_units_Z 44
_cell_length_a 16.765006
_cell_length_b 9.158110
_cell_length_c 15.106037
_cell_angle_alpha 90.000000
_cell_angle_beta 90.000000
_cell_angle_gamma 90.000000
_cell_volume 2319.317009
_symmetry_space_group_name_H-M "P M M M"
_symmetry_group_IT_number 47
_symmetry_cell_setting 'orthorhombic'
loop_
_space_group_symop_operation_xyz
x,y,z
-x,-y,z
x,-y,-z
-x,y,-z
-x,-y,-z
x,y,-z
-x,y,z
x,-y,z
loop_
_atom_site_type_symbol
_atom_site_label
_atom_site_fract_x
_atom_site_fract_y
_atom_site_fract_z
Si Si1 0.177411 0.171072 0.757057
Si Si2 0.908740 0.671492 0.601658
Si Si3 0.354766 0.172871 0.221499
Si Si4 0.906188 0.338780 0.097319
Si Si5 0.500000 0.825743 0.898999
Si Si6 0.590321 0.173328 0.405911
O O1 0.154247 0.246953 0.664579
O O2 0.263630 0.217604 0.797658
O O3 0.116451 0.215628 0.832984
O O4 0.173841 0.000000 0.738857
O O5 0.889569 0.713197 0.500000
O O6 0.898811 0.500000 0.616809
O O7 0.000000 0.717437 0.624648
O O8 0.419885 0.233974 0.150902
O O9 0.367965 0.240354 0.319633
O O10 0.365772 0.000000 0.222908
O O11 0.875110 0.500000 0.126703
O O12 0.000000 0.342596 0.091890
O O13 0.871517 0.299743 0.000000
O O14 0.500000 0.000000 0.899363
O O15 0.500000 0.766404 0.000000
O O16 0.629128 0.226120 0.500000
O O17 0.500000 0.226889 0.403517
O O18 0.594831 0.000000 0.401314
#
# Coordination Sequence:
#
# PCOD8200425 Si02
#       6
#     8   8   8   8   4   8
#     4  11  22  31  47  80 116 140 161 207 273 325
#     4   9  19  37  58  76  99 140 190 225 247 290
#     4   9  17  28  40  62  98 132 165 203 246 303
#     4   9  19  37  58  75  94 129 177 219 253 302
#     4   9  16  28  45  59  82 131 181 209 238 294
#     4   8  12  20  37  56  77 114 159 197 232 273
#
# _framework density 18.971101999999998
#
# number of rings (size 3 to 8) (size 9 to 14) (size 15 to 20)
#    0.000    2.818    0.909    2.727    0.000    5.091 
#    0.000    5.455    0.000    0.000    0.000    2.545 
#    0.000    5.818    0.000    0.000    0.000    0.000 
#
# Total GULP energy -545077.131713 kJ/mol
# GULP energy per Si atom -12388.116630 kJ/mol
# Density = 1.892792 g / cm^3
# Si number density = 18.971102 Si / 1000 Ang^3
#
#
#
# Elastic Constant Matrix: (Units=GPa)
#
#
# Indices 1 2 3 4 5 6 
#
# 1 83.6365 30.9578 57.3905 0.0000 0.0000 0.0000
# 2 30.9578 37.3275 30.2270 0.0000 0.0000 0.0000
# 3 57.3905 30.2270 144.0743 0.0000 0.0000 0.0000
# 4 0.0000 0.0000 0.0000 17.1052 0.0000 0.0000
# 5 0.0000 0.0000 0.0000 0.0000 16.3962 0.0000
# 6 0.0000 0.0000 0.0000 0.0000 0.0000 2.2920
#
#
#
# Elastic Compliance Matrix: (Units=1/GPa)
#
#
# Indices 1 2 3 4 5 6 
#
# 1 0.020314 -0.012402 -0.005490 0.000000 0.000000 0.000000
# 2 -0.012402 0.039845 -0.003419 0.000000 0.000000 0.000000
# 3 -0.005490 -0.003419 0.009845 0.000000 0.000000 0.000000
# 4 0.000000 0.000000 0.000000 0.058462 0.000000 0.000000
# 5 0.000000 0.000000 0.000000 0.000000 0.060990 0.000000
# 6 0.000000 0.000000 0.000000 0.000000 0.000000 0.436297
#
#
# Mechanical properties :
#
#
# Convention : Reuss Voigt Hill
#
# Bulk Modulus (GPa) = 36.52130 55.79879 46.16005
# Shear Modulus (GPa) = 7.38005 16.92286 12.15146
#
# Velocity S-wave (km/s) = 1.97449 2.98993 2.53360
# Velocity P-wave (km/s) = 4.94883 6.43397 5.73964
#
# Compressibility (1/GPa) = 0.02738128
#
# Stress axis : x y z
#
# Youngs Moduli (GPa) = 49.22638 25.09754 101.57335
#
# Poissons Ratio (x) = 0.31126 0.55764
# Poissons Ratio (y) = 0.61051 0.34730
# Poissons Ratio (z) = 0.27025 0.08581
#
# Static dielectric constant tensor:
#      x y z
#    x 3.474220 0.000000 0.000000 
#    y 0.000000 2.929830 0.000000 
#    z 0.000000 0.000000 3.947160 
# 
# 
# High freq. dielectric constant tensor:
#      x y z
#    x 1.728590 0.000000 0.000000 
#    y 0.000000 1.678140 0.000000 
#    z 0.000000 0.000000 1.755680 
# 
# From -- ./inp_files/24330.got.cif
#   From: 2010.03.12/outbox.cif.g09.slc.cpg/sg47_13_cif.got.tgz:24330.got - 2010.04.14 03:12:58.
