data_PCOD8200049
_publ_section_title
;
Structure prediction by ZEFSAII (Michael W. Deem and Ramdas Pophale) SiO2 
 PCOD8200049
Probable space group: P M M M
;
_chemical_formula_sum "Si O2"
_cell_formula_units_Z 49
_cell_length_a 30.584279
_cell_length_b 8.156463
_cell_length_c 9.273917
_cell_angle_alpha 90.000000
_cell_angle_beta 90.000000
_cell_angle_gamma 90.000000
_cell_volume 2313.467069
_symmetry_space_group_name_H-M "P M M M"
_symmetry_group_IT_number 47
_symmetry_cell_setting 'orthorhombic'
loop_
_space_group_symop_operation_xyz
x,y,z
-x,-y,z
x,-y,-z
-x,y,-z
-x,-y,-z
x,y,-z
-x,y,z
x,-y,z
loop_
_atom_site_type_symbol
_atom_site_label
_atom_site_fract_x
_atom_site_fract_y
_atom_site_fract_z
Si Si1 0.500000 0.306190 0.168911
Si Si2 0.161660 0.313659 0.332884
Si Si3 0.252967 0.188509 0.338205
Si Si4 0.667002 0.311379 0.164141
Si Si5 0.000000 0.000000 0.500000
Si Si6 0.584988 0.191122 0.333602
Si Si7 0.083211 0.185137 0.839375
Si Si8 0.000000 0.314773 0.291442
O O1 0.500000 0.500000 0.190762
O O2 0.541451 0.227927 0.245829
O O3 0.500000 0.259642 0.000000
O O4 0.161161 0.267668 0.500000
O O5 0.148632 0.500000 0.303036
O O6 0.210651 0.281751 0.274162
O O7 0.125449 0.201268 0.260785
O O8 0.264868 0.252634 0.500000
O O9 0.293618 0.210209 0.232634
O O10 0.240227 0.000000 0.344739
O O11 0.680533 0.500000 0.166294
O O12 0.623760 0.289546 0.258507
O O13 0.658635 0.251087 0.000000
O O14 0.000000 0.850257 0.614449
O O15 0.579835 0.247782 0.500000
O O16 0.596054 0.000000 0.325804
O O17 0.044210 0.309043 0.802042
O O18 0.065878 0.000000 0.822571
O O19 0.099127 0.223961 0.000000
O O20 0.000000 0.500000 0.364511
#
# Coordination Sequence:
#
# PCOD8200049 Si02
#       8
#     4   8   8   8   1   8   8   4
#     4  11  24  41  62  90 124 159 200 247 296 352
#     4  10  22  39  62  92 124 161 209 261 315 375
#     4  10  21  39  62  89 119 157 201 251 309 370
#     4  11  24  40  60  88 121 157 200 249 301 361
#     4  12  26  48  66 102 136 168 208 280 316 386
#     4  11  24  41  62  90 121 157 201 248 297 357
#     4  11  24  43  65  92 130 173 214 262 320 381
#     4  12  26  44  70  99 130 173 217 264 325 383
#
# _framework density 21.180330999999999
#
# number of rings (size 3 to 8) (size 9 to 14) (size 15 to 20)
#    0.000    1.224    0.816    4.286    1.143   13.061 
#    0.000    0.000    0.000    0.000    0.000    0.000 
#    0.000    0.000    0.000    0.000    0.000    0.000 
#
# Total GULP energy -607063.755726 kJ/mol
# GULP energy per Si atom -12389.056239 kJ/mol
# Density = 2.113212 g / cm^3
# Si number density = 21.180331 Si / 1000 Ang^3
#
#
#
# Elastic Constant Matrix: (Units=GPa)
#
#
# Indices 1 2 3 4 5 6 
#
# 1 136.3100 14.6191 56.7787 0.0000 0.0000 0.0000
# 2 14.6191 87.5385 36.3037 0.0000 0.0000 0.0000
# 3 56.7787 36.3037 116.3310 0.0000 0.0000 0.0000
# 4 0.0000 0.0000 0.0000 36.7637 0.0000 0.0000
# 5 0.0000 0.0000 0.0000 0.0000 637.6885 0.0000
# 6 0.0000 0.0000 0.0000 0.0000 0.0000 58.6463
#
#
#
# Elastic Compliance Matrix: (Units=1/GPa)
#
#
# Indices 1 2 3 4 5 6 
#
# 1 0.009219 0.000375 -0.004617 0.000000 0.000000 0.000000
# 2 0.000375 0.013137 -0.004283 0.000000 0.000000 0.000000
# 3 -0.004617 -0.004283 0.012186 0.000000 0.000000 0.000000
# 4 0.000000 0.000000 0.000000 0.027201 0.000000 0.000000
# 5 0.000000 0.000000 0.000000 0.000000 0.001568 0.000000
# 6 0.000000 0.000000 0.000000 0.000000 0.000000 0.017051
#
#
# Mechanical properties :
#
#
# Convention : Reuss Voigt Hill
#
# Bulk Modulus (GPa) = 57.16478 61.73137 59.44807
# Shear Modulus (GPa) = 48.42982 162.11824 105.27403
#
# Velocity S-wave (km/s) = 4.78697 8.75831 7.05773
# Velocity P-wave (km/s) = 7.58957 11.46675 9.72337
#
# Compressibility (1/GPa) = 0.01749329
#
# Stress axis : x y z
#
# Youngs Moduli (GPa) = 108.47146 76.12058 82.06158
#
# Poissons Ratio (x) = -0.02855 0.37885
# Poissons Ratio (y) = -0.04068 0.35145
# Poissons Ratio (z) = 0.50077 0.32601
#
# Static dielectric constant tensor:
#      x y z
#    x 3.710790 0.000000 0.000000 
#    y 0.000000 3.923790 0.000000 
#    z 0.000000 0.000000 3.973450 
# 
# 
# High freq. dielectric constant tensor:
#      x y z
#    x 1.833520 0.000000 0.000000 
#    y 0.000000 1.841860 0.000000 
#    z 0.000000 0.000000 1.835340 
# 
# From -- ./inp_files/14027.got.cif
#   From: 2010.03.12/outbox.cif.g09.slc.cpg/sg47_8_cif.got.tgz:14027.got - 2010.04.14 03:12:58.
