data_PCOD8200682
_publ_section_title
;
Structure prediction by ZEFSAII (Michael W. Deem and Ramdas Pophale) SiO2 
 PCOD8200682
Probable space group: P M M M
;
_chemical_formula_sum "Si O2"
_cell_formula_units_Z 60
_cell_length_a 14.610269
_cell_length_b 9.454828
_cell_length_c 26.653292
_cell_angle_alpha 90.000000
_cell_angle_beta 90.000000
_cell_angle_gamma 90.000000
_cell_volume 3681.821267
_symmetry_space_group_name_H-M "P M M M"
_symmetry_group_IT_number 47
_symmetry_cell_setting 'orthorhombic'
loop_
_space_group_symop_operation_xyz
x,y,z
-x,-y,z
x,-y,-z
-x,y,-z
-x,-y,-z
x,y,-z
-x,y,z
x,-y,z
loop_
_atom_site_type_symbol
_atom_site_label
_atom_site_fract_x
_atom_site_fract_y
_atom_site_fract_z
Si Si1 0.608126 0.845836 0.000000
Si Si2 0.896678 0.165311 0.746761
Si Si3 0.394083 0.162889 0.293491
Si Si4 0.220498 0.665808 0.445272
Si Si5 0.603714 0.830411 0.107801
Si Si6 0.718932 0.833546 0.800276
Si Si7 0.893718 0.663197 0.647946
Si Si8 0.602271 0.663477 0.609739
O O1 0.634185 0.768386 0.947269
O O2 0.500000 0.866223 0.000000
O O3 0.655721 0.000000 0.000000
O O4 0.826566 0.204253 0.792118
O O5 0.866416 0.249032 0.697150
O O6 0.000000 0.206385 0.763560
O O7 0.889614 0.000000 0.733700
O O8 0.500000 0.183371 0.280390
O O9 0.337239 0.225571 0.247053
O O10 0.365034 0.249546 0.342199
O O11 0.369772 0.000000 0.303841
O O12 0.196101 0.732363 0.500000
O O13 0.201044 0.500000 0.447453
O O14 0.158980 0.728599 0.400249
O O15 0.327789 0.696494 0.435192
O O16 0.500000 0.781878 0.121699
O O17 0.676150 0.768954 0.148555
O O18 0.606095 0.000000 0.105176
O O19 0.703843 0.000000 0.803060
O O20 0.866371 0.500000 0.657487
O O21 0.000000 0.679442 0.635972
O O22 0.500000 0.707538 0.592398
O O23 0.605948 0.500000 0.625225
#
# Coordination Sequence:
#
# PCOD8200682 Si02
#       8
#     4   8   8   8   8   8   8   8
#     4   7  10  16  26  42  67  99 130 159 191 223
#     4   9  17  28  41  57  77 101 127 152 180 218
#     4   9  16  25  38  56  76  97 121 149 182 220
#     4   9  17  28  42  60  78  94 117 151 185 216
#     4   8  12  18  29  47  72 100 130 162 192 221
#     4   9  15  22  34  52  73  98 127 156 185 219
#     4   9  17  29  45  62  77  95 120 150 186 226
#     4   9  17  28  41  56  74  98 125 149 176 213
#
# _framework density 16.296284
#
# number of rings (size 3 to 8) (size 9 to 14) (size 15 to 20)
#    0.000    3.267    0.000    2.000    0.000    2.133 
#    0.000    2.667    0.000    1.600    0.000    4.200 
#    0.000    3.733    0.000    2.400    0.000   34.533 
#
# Total GULP energy -743380.168268 kJ/mol
# GULP energy per Si atom -12389.669471 kJ/mol
# Density = 1.625919 g / cm^3
# Si number density = 16.296284 Si / 1000 Ang^3
#
#
#
# Elastic Constant Matrix: (Units=GPa)
#
#
# Indices 1 2 3 4 5 6 
#
# 1 82.6868 12.4747 66.6006 0.0000 0.0000 0.0000
# 2 12.4747 18.1421 20.2425 0.0000 0.0000 0.0000
# 3 66.6006 20.2425 129.0035 0.0000 0.0000 0.0000
# 4 0.0000 0.0000 0.0000 0.2487 0.0000 0.0000
# 5 0.0000 0.0000 0.0000 0.0000 23.0263 0.0000
# 6 0.0000 0.0000 0.0000 0.0000 0.0000 11.5330
#
#
#
# Elastic Compliance Matrix: (Units=1/GPa)
#
#
# Indices 1 2 3 4 5 6 
#
# 1 0.020821 -0.002816 -0.010307 0.000000 0.000000 0.000000
# 2 -0.002816 0.067200 -0.009091 0.000000 0.000000 0.000000
# 3 -0.010307 -0.009091 0.014500 0.000000 0.000000 0.000000
# 4 0.000000 0.000000 0.000000 4.021321 0.000000 0.000000
# 5 0.000000 0.000000 0.000000 0.000000 0.043429 0.000000
# 6 0.000000 0.000000 0.000000 0.000000 0.000000 0.086708
#
#
# Mechanical properties :
#
#
# Convention : Reuss Voigt Hill
#
# Bulk Modulus (GPa) = 17.21402 47.60755 32.41079
# Shear Modulus (GPa) = 1.15801 15.66256 8.41028
#
# Velocity S-wave (km/s) = 0.84388 3.10354 2.27422
# Velocity P-wave (km/s) = 3.39641 6.48998 5.17955
#
# Compressibility (1/GPa) = 0.05809217
#
# Stress axis : x y z
#
# Youngs Moduli (GPa) = 48.02911 14.88094 68.96772
#
# Poissons Ratio (x) = 0.04190 0.71087
# Poissons Ratio (y) = 0.13525 0.62698
# Poissons Ratio (z) = 0.49505 0.13528
#
# Static dielectric constant tensor:
#      x y z
#    x 3.181890 0.000000 0.000000 
#    y 0.000000 2.679160 0.000000 
#    z 0.000000 0.000000 3.379330 
# 
# 
# High freq. dielectric constant tensor:
#      x y z
#    x 1.624670 0.000000 0.000000 
#    y 0.000000 1.572160 0.000000 
#    z 0.000000 0.000000 1.620250 
# 
# From -- ./inp_files/32849.got.cif
#   From: 2010.03.12/outbox.cif.g09.slc.cpg/sg47_17_cif.got.tgz:32849.got - 2010.04.14 03:12:58.
