data_PCOD8200203
_publ_section_title
;
Structure prediction by ZEFSAII (Michael W. Deem and Ramdas Pophale) SiO2 
 PCOD8200203
Probable space group: P M M M
;
_chemical_formula_sum "Si O2"
_cell_formula_units_Z 64
_cell_length_a 27.727835
_cell_length_b 9.132018
_cell_length_c 14.572419
_cell_angle_alpha 90.000000
_cell_angle_beta 90.000000
_cell_angle_gamma 90.000000
_cell_volume 3689.898074
_symmetry_space_group_name_H-M "P M M M"
_symmetry_group_IT_number 47
_symmetry_cell_setting 'orthorhombic'
loop_
_space_group_symop_operation_xyz
x,y,z
-x,-y,z
x,-y,-z
-x,y,-z
-x,-y,-z
x,y,-z
-x,y,z
x,-y,z
loop_
_atom_site_type_symbol
_atom_site_label
_atom_site_fract_x
_atom_site_fract_y
_atom_site_fract_z
Si Si1 0.823122 0.173742 0.100543
Si Si2 0.136828 0.172867 0.287972
Si Si3 0.369177 0.825968 0.228052
Si Si4 0.284066 0.173541 0.101958
Si Si5 0.055346 0.330322 0.395625
Si Si6 0.219494 0.666333 0.606839
Si Si7 0.329779 0.671247 0.395341
Si Si8 0.443653 0.331706 0.104327
O O1 0.859485 0.222599 0.181044
O O2 0.769505 0.234571 0.123753
O O3 0.819891 0.000000 0.096639
O O4 0.840298 0.232386 0.000000
O O5 0.087921 0.238854 0.327015
O O6 0.184235 0.225776 0.340201
O O7 0.134263 0.000000 0.298220
O O8 0.322570 0.763326 0.173673
O O9 0.365872 0.762013 0.330685
O O10 0.416719 0.770732 0.176805
O O11 0.370903 0.000000 0.232756
O O12 0.284186 0.000000 0.108317
O O13 0.299510 0.224025 0.000000
O O14 0.065055 0.279780 0.500000
O O15 0.068526 0.500000 0.385288
O O16 0.000000 0.301537 0.369030
O O17 0.207043 0.677645 0.500000
O O18 0.211143 0.500000 0.640434
O O19 0.274384 0.715764 0.624997
O O20 0.342957 0.710754 0.500000
O O21 0.337098 0.500000 0.377484
O O22 0.500000 0.309113 0.121565
O O23 0.429056 0.500000 0.120985
O O24 0.430454 0.285658 0.000000
#
# Coordination Sequence:
#
# PCOD8200203 Si02
#       8
#     8   8   8   8   8   8   8   8
#     4   8  15  28  43  61  92 131 162 187 221 270
#     4  11  20  28  46  75  99 121 155 199 243 282
#     4  11  20  29  48  77 104 128 158 202 255 302
#     4   8  14  25  41  64  96 130 159 186 222 274
#     4   9  19  36  54  69  89 121 156 187 229 291
#     4   9  18  32  48  67  96 134 168 195 230 281
#     4   9  19  35  51  67  93 133 176 209 236 277
#     4   9  19  36  55  74  99 132 167 201 239 288
#
# _framework density 17.344653000000001
#
# number of rings (size 3 to 8) (size 9 to 14) (size 15 to 20)
#    0.000    2.750    0.000    4.500    0.000    5.000 
#    0.000    2.500    0.000    2.250    0.000   12.250 
#    0.000    0.000    0.000    0.000    0.000    0.000 
#
# Total GULP energy -793390.958896 kJ/mol
# GULP energy per Si atom -12396.733733 kJ/mol
# Density = 1.730518 g / cm^3
# Si number density = 17.344653 Si / 1000 Ang^3
#
#
#
# Elastic Constant Matrix: (Units=GPa)
#
#
# Indices 1 2 3 4 5 6 
#
# 1 78.0970 43.1031 67.5283 0.0000 0.0000 0.0000
# 2 43.1031 60.3325 51.4507 0.0000 0.0000 0.0000
# 3 67.5283 51.4507 121.2639 0.0000 0.0000 0.0000
# 4 0.0000 0.0000 0.0000 19.6712 0.0000 0.0000
# 5 0.0000 0.0000 0.0000 0.0000 31.4468 0.0000
# 6 0.0000 0.0000 0.0000 0.0000 0.0000 26.7970
#
#
#
# Elastic Compliance Matrix: (Units=1/GPa)
#
#
# Indices 1 2 3 4 5 6 
#
# 1 0.028516 -0.010703 -0.011338 0.000000 0.000000 0.000000
# 2 -0.010703 0.029990 -0.006764 0.000000 0.000000 0.000000
# 3 -0.011338 -0.006764 0.017430 0.000000 0.000000 0.000000
# 4 0.000000 0.000000 0.000000 0.050836 0.000000 0.000000
# 5 0.000000 0.000000 0.000000 0.000000 0.031800 0.000000
# 6 0.000000 0.000000 0.000000 0.000000 0.000000 0.037318
#
#
# Mechanical properties :
#
#
# Convention : Reuss Voigt Hill
#
# Bulk Modulus (GPa) = 54.57093 64.87307 59.72200
# Shear Modulus (GPa) = 19.25977 22.09042 20.67510
#
# Velocity S-wave (km/s) = 3.33590 3.57265 3.45630
# Velocity P-wave (km/s) = 6.80945 7.38254 7.10178
#
# Compressibility (1/GPa) = 0.01832477
#
# Stress axis : x y z
#
# Youngs Moduli (GPa) = 35.06811 33.34479 57.37120
#
# Poissons Ratio (x) = 0.35690 0.65050
# Poissons Ratio (y) = 0.37534 0.38805
# Poissons Ratio (z) = 0.39762 0.22554
#
# Static dielectric constant tensor:
#      x y z
#    x 3.106660 0.000000 0.000000 
#    y 0.000000 2.963800 0.000000 
#    z 0.000000 0.000000 3.432570 
# 
# 
# High freq. dielectric constant tensor:
#      x y z
#    x 1.652660 0.000000 0.000000 
#    y 0.000000 1.648650 0.000000 
#    z 0.000000 0.000000 1.673700 
# 
# From -- ./inp_files/25542.got.cif
#   From: 2010.03.12/outbox.cif.g09.slc.cpg/sg47_13_cif.got.tgz:25542.got - 2010.04.14 03:12:58.
