data_PCOD8200714
_publ_section_title
;
Structure prediction by ZEFSAII (Michael W. Deem and Ramdas Pophale) SiO2 
 PCOD8200714
Probable space group: P M M M
;
_chemical_formula_sum "Si O2"
_cell_formula_units_Z 40
_cell_length_a 26.210718
_cell_length_b 9.454004
_cell_length_c 9.311555
_cell_angle_alpha 90.000000
_cell_angle_beta 90.000000
_cell_angle_gamma 90.000000
_cell_volume 2307.368251
_symmetry_space_group_name_H-M "P M M M"
_symmetry_group_IT_number 47
_symmetry_cell_setting 'orthorhombic'
loop_
_space_group_symop_operation_xyz
x,y,z
-x,-y,z
x,-y,-z
-x,y,-z
-x,-y,-z
x,y,-z
-x,y,z
x,-y,z
loop_
_atom_site_type_symbol
_atom_site_label
_atom_site_fract_x
_atom_site_fract_y
_atom_site_fract_z
Si Si1 0.500000 0.344536 0.670979
Si Si2 0.294137 0.337493 0.167946
Si Si3 0.000000 0.168769 0.163252
Si Si4 0.390879 0.669143 0.661170
Si Si5 0.803774 0.164994 0.833538
Si Si6 0.097422 0.168272 0.337327
O O1 0.500000 0.500000 0.741613
O O2 0.500000 0.359290 0.500000
O O3 0.553726 0.268907 0.715602
O O4 0.285157 0.500000 0.212546
O O5 0.345114 0.274347 0.240154
O O6 0.245722 0.248575 0.221464
O O7 0.301945 0.320025 0.000000
O O8 0.049492 0.227105 0.247134
O O9 0.000000 0.000000 0.161252
O O10 0.000000 0.226823 0.000000
O O11 0.379503 0.721231 0.500000
O O12 0.394145 0.500000 0.666747
O O13 0.851184 0.220637 0.740108
O O14 0.793624 0.000000 0.808425
O O15 0.815717 0.197178 0.000000
O O16 0.095445 0.227469 0.500000
O O17 0.095605 0.000000 0.338773
#
# Coordination Sequence:
#
# PCOD8200714 Si02
#       6
#     4   8   4   8   8   8
#     4   7  10  18  33  53  76 101 128 158 194 237
#     4   9  17  28  41  59  83 107 132 166 204 237
#     4   9  15  23  37  57  82 111 138 163 198 246
#     4   8  13  22  37  56  78 104 132 161 196 240
#     4   9  17  29  43  58  79 109 140 165 194 238
#     4   9  16  25  38  58  83 107 133 169 207 237
#
# _framework density 17.335767000000001
#
# number of rings (size 3 to 8) (size 9 to 14) (size 15 to 20)
#    0.000    3.400    0.000    2.100    0.000    4.400 
#    0.000    0.500    0.000    3.000    0.000    1.400 
#    0.000   11.200    0.000    0.000    0.000    0.000 
#
# Total GULP energy -495659.998474 kJ/mol
# GULP energy per Si atom -12391.499962 kJ/mol
# Density = 1.729631 g / cm^3
# Si number density = 17.335767 Si / 1000 Ang^3
#
#
#
# Elastic Constant Matrix: (Units=GPa)
#
#
# Indices 1 2 3 4 5 6 
#
# 1 212.3709 32.1490 86.8374 0.0000 0.0000 0.0000
# 2 32.1490 16.5763 17.0093 0.0000 0.0000 0.0000
# 3 86.8374 17.0093 90.8426 0.0000 0.0000 0.0000
# 4 0.0000 0.0000 0.0000 8.7393 0.0000 0.0000
# 5 0.0000 0.0000 0.0000 0.0000 37.2222 0.0000
# 6 0.0000 0.0000 0.0000 0.0000 0.0000 19.7831
#
#
#
# Elastic Compliance Matrix: (Units=1/GPa)
#
#
# Indices 1 2 3 4 5 6 
#
# 1 0.009049 -0.010737 -0.006640 0.000000 0.000000 0.000000
# 2 -0.010737 0.087415 -0.006104 0.000000 0.000000 0.000000
# 3 -0.006640 -0.006104 0.018498 0.000000 0.000000 0.000000
# 4 0.000000 0.000000 0.000000 0.114426 0.000000 0.000000
# 5 0.000000 0.000000 0.000000 0.000000 0.026866 0.000000
# 6 0.000000 0.000000 0.000000 0.000000 0.000000 0.050548
#
#
# Mechanical properties :
#
#
# Convention : Reuss Voigt Hill
#
# Bulk Modulus (GPa) = 14.70579 65.75348 40.22963
# Shear Modulus (GPa) = 13.28272 25.40185 19.34228
#
# Velocity S-wave (km/s) = 2.77104 3.83206 3.34390
# Velocity P-wave (km/s) = 4.32892 7.58889 6.17782
#
# Compressibility (1/GPa) = 0.06800044
#
# Stress axis : x y z
#
# Youngs Moduli (GPa) = 110.50818 11.43974 54.06028
#
# Poissons Ratio (x) = 0.12283 0.35894
# Poissons Ratio (y) = 1.18655 0.32997
# Poissons Ratio (z) = 0.73374 0.06982
#
# Static dielectric constant tensor:
#      x y z
#    x 3.688950 0.000000 0.000000 
#    y 0.000000 2.596710 0.000000 
#    z 0.000000 0.000000 3.215610 
# 
# 
# High freq. dielectric constant tensor:
#      x y z
#    x 1.694100 0.000000 0.000000 
#    y 0.000000 1.590080 0.000000 
#    z 0.000000 0.000000 1.660560 
# 
# From -- ./inp_files/13156.got.cif
#   From: 2010.03.12/outbox.cif.g09.slc.cpg/sg47_7_cif.got.tgz:13156.got - 2010.04.14 03:12:58.
