data_PCOD8200299
_publ_section_title
;
Structure prediction by ZEFSAII (Michael W. Deem and Ramdas Pophale) SiO2 
 PCOD8200299
Probable space group: P M M M
;
_chemical_formula_sum "Si O2"
_cell_formula_units_Z 48
_cell_length_a 21.799196
_cell_length_b 20.170162
_cell_length_c 8.313802
_cell_angle_alpha 90.000000
_cell_angle_beta 90.000000
_cell_angle_gamma 90.000000
_cell_volume 3655.523160
_symmetry_space_group_name_H-M "P M M M"
_symmetry_group_IT_number 47
_symmetry_cell_setting 'orthorhombic'
loop_
_space_group_symop_operation_xyz
x,y,z
-x,-y,z
x,-y,-z
-x,y,-z
-x,-y,-z
x,y,-z
-x,y,z
x,-y,z
loop_
_atom_site_type_symbol
_atom_site_label
_atom_site_fract_x
_atom_site_fract_y
_atom_site_fract_z
Si Si1 0.112463 0.345181 0.813393
Si Si2 0.068879 0.793372 0.188708
Si Si3 0.071040 0.928902 0.311658
Si Si4 0.429863 0.421181 0.000000
Si Si5 0.361846 0.421490 0.320234
Si Si6 0.000000 0.572680 0.313001
Si Si7 0.221681 0.574875 0.685577
O O1 0.108150 0.269415 0.747130
O O2 0.179763 0.373929 0.781979
O O3 0.061358 0.389297 0.731089
O O4 0.097824 0.345883 0.000000
O O5 0.101994 0.862963 0.236753
O O6 0.000000 0.788921 0.263179
O O7 0.064496 0.790472 0.000000
O O8 0.079973 0.924868 0.500000
O O9 0.000000 0.928161 0.262370
O O10 0.098994 0.000000 0.249875
O O11 0.399947 0.392884 0.166828
O O12 0.423208 0.500000 0.000000
O O13 0.500000 0.398012 0.000000
O O14 0.383011 0.395132 0.500000
O O15 0.368545 0.500000 0.324526
O O16 0.291430 0.401499 0.290780
O O17 0.000000 0.500000 0.229274
O O18 0.000000 0.562337 0.500000
O O19 0.202636 0.576600 0.500000
O O20 0.212948 0.500000 0.752657
#
# Coordination Sequence:
#
# PCOD8200299 Si02
#       7
#     8   8   8   4   8   4   8
#     4  11  21  31  42  56  71  89 116 152 192 230
#     4   9  17  29  39  50  71  91 109 137 177 225
#     4   8  14  24  38  56  72  85 106 132 160 205
#     4   9  16  24  38  60  80  97 119 143 176 226
#     4   8  15  27  40  54  75  98 120 150 183 218
#     4  11  23  35  43  51  66  87 114 151 193 240
#     4   9  18  31  43  55  70  91 123 157 188 227
#
# _framework density 13.130815999999999
#
# number of rings (size 3 to 8) (size 9 to 14) (size 15 to 20)
#    0.000    2.833    0.833    2.750    1.167    5.000 
#    0.000    3.333    0.000    0.000    0.000    0.000 
#    0.000    0.000    0.000    0.000    0.000    0.000 
#
# Total GULP energy -594633.820034 kJ/mol
# GULP energy per Si atom -12388.204584 kJ/mol
# Density = 1.310093 g / cm^3
# Si number density = 13.130816 Si / 1000 Ang^3
#
#
#
# Elastic Constant Matrix: (Units=GPa)
#
#
# Indices 1 2 3 4 5 6 
#
# 1 55.1639 28.6152 29.6187 0.0000 0.0000 0.0000
# 2 28.6152 99.1651 27.9821 0.0000 0.0000 0.0000
# 3 29.6187 27.9821 57.1596 0.0000 0.0000 0.0000
# 4 0.0000 0.0000 0.0000 16.5185 0.0000 0.0000
# 5 0.0000 0.0000 0.0000 0.0000 18.5259 0.0000
# 6 0.0000 0.0000 0.0000 0.0000 0.0000 8.7621
#
#
#
# Elastic Compliance Matrix: (Units=1/GPa)
#
#
# Indices 1 2 3 4 5 6 
#
# 1 0.026677 -0.004406 -0.011667 0.000000 0.000000 0.000000
# 2 -0.004406 0.012428 -0.003801 0.000000 0.000000 0.000000
# 3 -0.011667 -0.003801 0.025401 0.000000 0.000000 0.000000
# 4 0.000000 0.000000 0.000000 0.060538 0.000000 0.000000
# 5 0.000000 0.000000 0.000000 0.000000 0.053979 0.000000
# 6 0.000000 0.000000 0.000000 0.000000 0.000000 0.114127
#
#
# Mechanical properties :
#
#
# Convention : Reuss Voigt Hill
#
# Bulk Modulus (GPa) = 40.38900 42.65783 41.52341
# Shear Modulus (GPa) = 14.65625 17.11279 15.88452
#
# Velocity S-wave (km/s) = 3.34454 3.61398 3.48187
# Velocity P-wave (km/s) = 6.76316 7.06907 6.91781
#
# Compressibility (1/GPa) = 0.02475922
#
# Stress axis : x y z
#
# Youngs Moduli (GPa) = 37.48488 80.46237 39.36851
#
# Poissons Ratio (x) = 0.35452 0.45930
# Poissons Ratio (y) = 0.16516 0.14964
# Poissons Ratio (z) = 0.43732 0.30584
#
# Static dielectric constant tensor:
#      x y z
#    x 2.437680 0.000000 0.000000 
#    y 0.000000 2.786540 0.000000 
#    z 0.000000 0.000000 2.781800 
# 
# 
# High freq. dielectric constant tensor:
#      x y z
#    x 1.454860 0.000000 0.000000 
#    y 0.000000 1.473370 0.000000 
#    z 0.000000 0.000000 1.510390 
# 
# From -- ./inp_files/11418.got.cif
#   From: 2010.03.12/outbox.cif.g09.slc.cpg/sg47_6_cif.got.tgz:11418.got - 2010.04.14 03:12:58.
