data_PCOD8200396
_publ_section_title
;
Structure prediction by ZEFSAII (Michael W. Deem and Ramdas Pophale) SiO2 
 PCOD8200396
Probable space group: P M M M
;
_chemical_formula_sum "Si O2"
_cell_formula_units_Z 28
_cell_length_a 11.939465
_cell_length_b 7.522034
_cell_length_c 16.799975
_cell_angle_alpha 90.000000
_cell_angle_beta 90.000000
_cell_angle_gamma 90.000000
_cell_volume 1508.789991
_symmetry_space_group_name_H-M "P M M M"
_symmetry_group_IT_number 47
_symmetry_cell_setting 'orthorhombic'
loop_
_space_group_symop_operation_xyz
x,y,z
-x,-y,z
x,-y,-z
-x,y,-z
-x,-y,-z
x,y,-z
-x,y,z
x,-y,z
loop_
_atom_site_type_symbol
_atom_site_label
_atom_site_fract_x
_atom_site_fract_y
_atom_site_fract_z
Si Si1 0.225555 0.702876 0.831058
Si Si2 0.873377 0.787771 0.328994
Si Si3 0.000000 0.710989 0.911096
Si Si4 0.367710 0.000000 0.091773
Si Si5 0.867359 0.193954 0.500000
O O1 0.249063 0.500000 0.857545
O O2 0.213777 0.712491 0.735529
O O3 0.110521 0.781730 0.867253
O O4 0.325636 0.823285 0.863539
O O5 0.835016 0.710398 0.416215
O O6 0.000000 0.722589 0.308732
O O7 0.869885 0.000000 0.331014
O O8 0.000000 0.500000 0.910382
O O9 0.000000 0.787855 0.000000
O O10 0.500000 0.000000 0.097640
O O11 0.327589 0.000000 0.000000
O O12 0.000000 0.170284 0.500000
O O13 0.810068 0.000000 0.500000
#
# Coordination Sequence:
#
# PCOD8200396 Si02
#       5
#     8   8   4   4   4
#     4  11  21  35  57  84 113 144 177 220 274 327
#     4   9  15  27  48  78 116 154 186 217 259 319
#     4   9  18  31  49  78 112 140 170 209 264 335
#     4  11  26  45  61  78 101 137 190 239 276 322
#     4   7  12  22  41  71 111 155 189 214 249 306
#
# _framework density 18.557918000000001
#
# number of rings (size 3 to 8) (size 9 to 14) (size 15 to 20)
#    0.000    2.429    2.857    2.571    0.000    2.857 
#    0.000    3.571    0.000    2.571    0.000    2.000 
#    0.000    2.286    0.000    0.000    0.000    0.000 
#
# Total GULP energy -346985.218807 kJ/mol
# GULP energy per Si atom -12392.329243 kJ/mol
# Density = 1.851568 g / cm^3
# Si number density = 18.557918 Si / 1000 Ang^3
#
#
#
# Elastic Constant Matrix: (Units=GPa)
#
#
# Indices 1 2 3 4 5 6 
#
# 1 61.5369 27.7193 42.8049 0.0000 0.0000 0.0000
# 2 27.7193 74.3776 25.9069 0.0000 0.0000 0.0000
# 3 42.8049 25.9069 161.7366 0.0000 0.0000 0.0000
# 4 0.0000 0.0000 0.0000 9.5603 0.0000 0.0000
# 5 0.0000 0.0000 0.0000 0.0000 19.1826 0.0000
# 6 0.0000 0.0000 0.0000 0.0000 0.0000 8.9473
#
#
#
# Elastic Compliance Matrix: (Units=1/GPa)
#
#
# Indices 1 2 3 4 5 6 
#
# 1 0.022722 -0.006750 -0.004932 0.000000 0.000000 0.000000
# 2 -0.006750 0.016245 -0.000816 0.000000 0.000000 0.000000
# 3 -0.004932 -0.000816 0.007619 0.000000 0.000000 0.000000
# 4 0.000000 0.000000 0.000000 0.104599 0.000000 0.000000
# 5 0.000000 0.000000 0.000000 0.000000 0.052131 0.000000
# 6 0.000000 0.000000 0.000000 0.000000 0.000000 0.111765
#
#
# Mechanical properties :
#
#
# Convention : Reuss Voigt Hill
#
# Bulk Modulus (GPa) = 46.31888 54.50148 50.41018
# Shear Modulus (GPa) = 14.39790 20.95271 17.67531
#
# Velocity S-wave (km/s) = 2.78841 3.36377 3.08951
# Velocity P-wave (km/s) = 5.94813 6.67223 6.32056
#
# Compressibility (1/GPa) = 0.02158947
#
# Stress axis : x y z
#
# Youngs Moduli (GPa) = 44.01040 61.55876 131.25229
#
# Poissons Ratio (x) = 0.41553 0.64738
# Poissons Ratio (y) = 0.29707 0.10705
# Poissons Ratio (z) = 0.21707 0.05021
#
# Static dielectric constant tensor:
#      x y z
#    x 2.872850 0.000000 0.000000 
#    y 0.000000 3.144270 0.000000 
#    z 0.000000 0.000000 3.996610 
# 
# 
# High freq. dielectric constant tensor:
#      x y z
#    x 1.646010 0.000000 0.000000 
#    y 0.000000 1.710790 0.000000 
#    z 0.000000 0.000000 1.746990 
# 
# From -- ./inp_files/27196.got.cif
#   From: 2010.03.12/outbox.cif.g09.slc.cpg/sg47_14_cif.got.tgz:27196.got - 2010.04.14 03:12:58.
