data_PCOD8200306
_publ_section_title
;
Structure prediction by ZEFSAII (Michael W. Deem and Ramdas Pophale) SiO2 
 PCOD8200306
Probable space group: P M M M
;
_chemical_formula_sum "Si O2"
_cell_formula_units_Z 40
_cell_length_a 19.819173
_cell_length_b 9.024381
_cell_length_c 15.504435
_cell_angle_alpha 90.000000
_cell_angle_beta 90.000000
_cell_angle_gamma 90.000000
_cell_volume 2773.057633
_symmetry_space_group_name_H-M "P M M M"
_symmetry_group_IT_number 47
_symmetry_cell_setting 'orthorhombic'
loop_
_space_group_symop_operation_xyz
x,y,z
-x,-y,z
x,-y,-z
-x,y,-z
-x,-y,-z
x,y,-z
-x,y,z
x,-y,z
loop_
_atom_site_type_symbol
_atom_site_label
_atom_site_fract_x
_atom_site_fract_y
_atom_site_fract_z
Si Si1 0.717179 0.675538 0.100434
Si Si2 0.077043 0.173001 0.330375
Si Si3 0.847564 0.175009 0.157015
Si Si4 0.080228 0.332792 0.500000
Si Si5 0.079728 0.670640 0.000000
Si Si6 0.428678 0.666313 0.102338
O O1 0.722596 0.500000 0.116799
O O2 0.771512 0.763905 0.156306
O O3 0.642967 0.737086 0.131588
O O4 0.730311 0.711012 0.000000
O O5 0.121299 0.219286 0.248633
O O6 0.107916 0.254189 0.413945
O O7 0.000000 0.222238 0.312370
O O8 0.081038 0.000000 0.349090
O O9 0.892217 0.251313 0.084434
O O10 0.848119 0.000000 0.141407
O O11 0.106540 0.500000 0.500000
O O12 0.000000 0.321422 0.500000
O O13 0.103399 0.500000 0.000000
O O14 0.000000 0.686073 0.000000
O O15 0.500000 0.746526 0.131557
O O16 0.431184 0.500000 0.138699
O O17 0.426054 0.660521 0.000000
#
# Coordination Sequence:
#
# PCOD8200306 Si02
#       6
#     8   8   8   4   4   8
#     4   9  16  26  40  57  80 109 140 174 210 244
#     4   9  18  32  47  61  79 105 136 168 204 248
#     4  11  21  31  44  61  82 111 143 173 205 246
#     4   9  17  29  47  69  85  97 120 161 212 257
#     4  11  23  35  45  57  76 105 142 183 219 244
#     4   7  10  18  34  55  75  98 133 172 204 238
#
# _framework density 14.42451
#
# number of rings (size 3 to 8) (size 9 to 14) (size 15 to 20)
#    0.000    2.800    1.000    3.600    0.000    4.400 
#    0.000    2.000    0.000    0.600    0.000    2.800 
#    0.000    0.000    0.000    0.900    0.000   18.200 
#
# Total GULP energy -495574.351408 kJ/mol
# GULP energy per Si atom -12389.358785 kJ/mol
# Density = 1.439168 g / cm^3
# Si number density = 14.424510 Si / 1000 Ang^3
#
#
#
# Elastic Constant Matrix: (Units=GPa)
#
#
# Indices 1 2 3 4 5 6 
#
# 1 116.1083 39.8943 54.3193 0.0000 0.0000 0.0000
# 2 39.8943 54.7392 46.3638 0.0000 0.0000 0.0000
# 3 54.3193 46.3638 96.2036 0.0000 0.0000 0.0000
# 4 0.0000 0.0000 0.0000 3.5266 0.0000 0.0000
# 5 0.0000 0.0000 0.0000 0.0000 3.8316 0.0000
# 6 0.0000 0.0000 0.0000 0.0000 0.0000 11.9140
#
#
#
# Elastic Compliance Matrix: (Units=1/GPa)
#
#
# Indices 1 2 3 4 5 6 
#
# 1 0.012558 -0.005317 -0.004528 0.000000 0.000000 0.000000
# 2 -0.005317 0.033120 -0.012960 0.000000 0.000000 0.000000
# 3 -0.004528 -0.012960 0.019197 0.000000 0.000000 0.000000
# 4 0.000000 0.000000 0.000000 0.283556 0.000000 0.000000
# 5 0.000000 0.000000 0.000000 0.000000 0.260989 0.000000
# 6 0.000000 0.000000 0.000000 0.000000 0.000000 0.083935
#
#
# Mechanical properties :
#
#
# Convention : Reuss Voigt Hill
#
# Bulk Modulus (GPa) = 51.90582 60.91178 56.40880
# Shear Modulus (GPa) = 6.70794 12.28604 9.49699
#
# Velocity S-wave (km/s) = 2.15881 2.92164 2.56870
# Velocity P-wave (km/s) = 6.50204 7.32809 6.92739
#
# Compressibility (1/GPa) = 0.01926566
#
# Stress axis : x y z
#
# Youngs Moduli (GPa) = 79.63074 30.19300 52.09147
#
# Poissons Ratio (x) = 0.16054 0.23588
# Poissons Ratio (y) = 0.42340 0.67509
# Poissons Ratio (z) = 0.36058 0.39129
#
# Static dielectric constant tensor:
#      x y z
#    x 3.178700 0.000000 0.000000 
#    y 0.000000 2.713430 0.000000 
#    z 0.000000 0.000000 2.609730 
# 
# 
# High freq. dielectric constant tensor:
#      x y z
#    x 1.552230 0.000000 0.000000 
#    y 0.000000 1.539580 0.000000 
#    z 0.000000 0.000000 1.511420 
# 
# From -- ./inp_files/10819.got.cif
#   From: 2010.03.12/outbox.cif.g09.slc.cpg/sg47_6_cif.got.tgz:10819.got - 2010.04.14 03:12:58.
