data_PCOD8200890
_publ_section_title
;
Structure prediction by ZEFSAII (Michael W. Deem and Ramdas Pophale) SiO2 
 PCOD8200890
Probable space group: P M M M
;
_chemical_formula_sum "Si O2"
_cell_formula_units_Z 48
_cell_length_a 9.863322
_cell_length_b 30.839516
_cell_length_c 9.755003
_cell_angle_alpha 90.000000
_cell_angle_beta 90.000000
_cell_angle_gamma 90.000000
_cell_volume 2967.277560
_symmetry_space_group_name_H-M "P M M M"
_symmetry_group_IT_number 47
_symmetry_cell_setting 'orthorhombic'
loop_
_space_group_symop_operation_xyz
x,y,z
-x,-y,z
x,-y,-z
-x,y,-z
-x,-y,-z
x,y,-z
-x,y,z
x,-y,z
loop_
_atom_site_type_symbol
_atom_site_label
_atom_site_fract_x
_atom_site_fract_y
_atom_site_fract_z
Si Si1 0.838726 0.122308 0.652388
Si Si2 0.150810 0.217606 0.336995
Si Si3 0.343273 0.705952 0.340913
Si Si4 0.838776 0.048048 0.846591
Si Si5 0.151746 0.452009 0.837307
Si Si6 0.656815 0.624005 0.159149
O O1 0.778073 0.115944 0.500000
O O2 0.800504 0.169874 0.712800
O O3 0.775526 0.084788 0.748131
O O4 0.000000 0.118691 0.645966
O O5 0.145978 0.216464 0.500000
O O6 0.255894 0.253686 0.285090
O O7 0.000000 0.228386 0.279989
O O8 0.311964 0.695539 0.500000
O O9 0.500000 0.717972 0.319632
O O10 0.300985 0.665062 0.249662
O O11 0.000000 0.051289 0.846107
O O12 0.794423 0.000000 0.795886
O O13 0.784050 0.056159 0.000000
O O14 0.191365 0.500000 0.781768
O O15 0.257536 0.416512 0.782482
O O16 0.000000 0.439839 0.787567
O O17 0.156753 0.452792 0.000000
O O18 0.500000 0.612142 0.179451
O O19 0.689430 0.634044 0.000000
#
# Coordination Sequence:
#
# PCOD8200890 Si02
#       6
#     8   8   8   8   8   8
#     4   8  13  21  33  48  66  90 121 155 187 220
#     4   8  14  25  40  57  77 101 129 161 196 232
#     4   9  17  29  44  60  79 105 135 163 193 234
#     4   8  13  20  29  43  67  98 125 148 181 226
#     4   8  14  25  41  61  84 108 133 162 196 232
#     4   9  17  28  42  61  83 104 128 162 200 232
#
# _framework density 16.176445000000001
#
# number of rings (size 3 to 8) (size 9 to 14) (size 15 to 20)
#    0.000    3.667    0.000    2.000    0.000    1.333 
#    0.000    4.167    0.000    1.500    0.000    3.500 
#    0.000    0.667    0.000    8.333    0.000    9.667 
#
# Total GULP energy -594815.966897 kJ/mol
# GULP energy per Si atom -12391.999310 kJ/mol
# Density = 1.613963 g / cm^3
# Si number density = 16.176445 Si / 1000 Ang^3
#
#
#
# Elastic Constant Matrix: (Units=GPa)
#
#
# Indices 1 2 3 4 5 6 
#
# 1 51.0296 68.3451 25.2581 0.0000 0.0000 0.0000
# 2 68.3451 175.6913 59.0790 0.0000 0.0000 0.0000
# 3 25.2581 59.0790 47.7068 0.0000 0.0000 0.0000
# 4 0.0000 0.0000 0.0000 26.6952 0.0000 0.0000
# 5 0.0000 0.0000 0.0000 0.0000 9.3274 0.0000
# 6 0.0000 0.0000 0.0000 0.0000 0.0000 7.0593
#
#
#
# Elastic Compliance Matrix: (Units=1/GPa)
#
#
# Indices 1 2 3 4 5 6 
#
# 1 0.041226 -0.014904 -0.003370 0.000000 0.000000 0.000000
# 2 -0.014904 0.015141 -0.010860 0.000000 0.000000 0.000000
# 3 -0.003370 -0.010860 0.036194 0.000000 0.000000 0.000000
# 4 0.000000 0.000000 0.000000 0.037460 0.000000 0.000000
# 5 0.000000 0.000000 0.000000 0.000000 0.107211 0.000000
# 6 0.000000 0.000000 0.000000 0.000000 0.000000 0.141657
#
#
# Mechanical properties :
#
#
# Convention : Reuss Voigt Hill
#
# Bulk Modulus (GPa) = 29.16009 64.42133 46.79071
# Shear Modulus (GPa) = 11.14609 16.73274 13.93942
#
# Velocity S-wave (km/s) = 2.62779 3.21968 2.93868
# Velocity P-wave (km/s) = 5.22230 7.33024 6.36415
#
# Compressibility (1/GPa) = 0.03429344
#
# Stress axis : x y z
#
# Youngs Moduli (GPa) = 24.25682 66.04486 27.62861
#
# Poissons Ratio (x) = 0.98431 0.09312
# Poissons Ratio (y) = 0.36152 0.30004
# Poissons Ratio (z) = 0.08175 0.71724
#
# Static dielectric constant tensor:
#      x y z
#    x 2.845740 0.000000 0.000000 
#    y 0.000000 3.452500 0.000000 
#    z 0.000000 0.000000 2.901220 
# 
# 
# High freq. dielectric constant tensor:
#      x y z
#    x 1.583370 0.000000 0.000000 
#    y 0.000000 1.634560 0.000000 
#    z 0.000000 0.000000 1.586930 
# 
# From -- ./inp_files/4456.got.cif
#   From: 2010.03.12/outbox.cif.g09.slc.cpg/sg47_3_cif.got.tgz:4456.got - 2010.04.14 03:12:58.
