data_PCOD8200950
_publ_section_title
;
Structure prediction by ZEFSAII (Michael W. Deem and Ramdas Pophale) SiO2 
 PCOD8200950
Probable space group: P M M M
;
_chemical_formula_sum "Si O2"
_cell_formula_units_Z 44
_cell_length_a 28.570227
_cell_length_b 9.731377
_cell_length_c 9.433735
_cell_angle_alpha 90.000000
_cell_angle_beta 90.000000
_cell_angle_gamma 90.000000
_cell_volume 2622.839172
_symmetry_space_group_name_H-M "P M M M"
_symmetry_group_IT_number 47
_symmetry_cell_setting 'orthorhombic'
loop_
_space_group_symop_operation_xyz
x,y,z
-x,-y,z
x,-y,-z
-x,y,-z
-x,-y,-z
x,y,-z
-x,y,z
x,-y,z
loop_
_atom_site_type_symbol
_atom_site_label
_atom_site_fract_x
_atom_site_fract_y
_atom_site_fract_z
Si Si1 0.500000 0.664141 0.159427
Si Si2 0.414017 0.663428 0.341927
Si Si3 0.773003 0.840440 0.334540
Si Si4 0.137417 0.836380 0.840382
Si Si5 0.948104 0.163457 0.659084
Si Si6 0.311189 0.347062 0.331413
O O1 0.500000 0.500000 0.160530
O O2 0.453894 0.722055 0.238172
O O3 0.500000 0.721510 0.000000
O O4 0.422333 0.723578 0.500000
O O5 0.416664 0.500000 0.349546
O O6 0.362626 0.705389 0.282217
O O7 0.782616 0.812536 0.500000
O O8 0.817688 0.786370 0.247886
O O9 0.728227 0.757411 0.276372
O O10 0.763123 0.000000 0.305672
O O11 0.090686 0.776019 0.766044
O O12 0.135547 0.000000 0.841176
O O13 0.140188 0.778263 0.000000
O O14 0.937698 0.217003 0.500000
O O15 0.000000 0.211695 0.707839
O O16 0.945684 0.000000 0.659269
O O17 0.311446 0.352339 0.500000
O O18 0.300749 0.500000 0.271254
#
# Coordination Sequence:
#
# PCOD8200950 Si02
#       6
#     4   8   8   8   8   8
#     4   9  15  21  31  51  78 101 120 148 188 229
#     4   8  13  22  36  52  71  97 126 153 184 225
#     4   9  16  26  41  59  78 102 132 164 196 229
#     4   9  16  24  34  50  74 103 132 161 193 231
#     4   8  13  21  33  49  70  97 128 161 197 235
#     4   8  14  25  41  60  80 102 130 163 196 230
#
# _framework density 16.775715000000002
#
# number of rings (size 3 to 8) (size 9 to 14) (size 15 to 20)
#    0.000    3.545    0.000    2.455    0.000    3.636 
#    0.000    2.727    0.000    1.636    0.000    0.636 
#    0.000    5.818    0.000    8.364    0.000   10.727 
#
# Total GULP energy -545273.730268 kJ/mol
# GULP energy per Si atom -12392.584779 kJ/mol
# Density = 1.673753 g / cm^3
# Si number density = 16.775715 Si / 1000 Ang^3
#
#
#
# Elastic Constant Matrix: (Units=GPa)
#
#
# Indices 1 2 3 4 5 6 
#
# 1 189.2642 34.5152 83.9865 0.0000 0.0000 0.0000
# 2 34.5152 20.9446 18.0232 0.0000 0.0000 0.0000
# 3 83.9865 18.0232 96.1712 0.0000 0.0000 0.0000
# 4 0.0000 0.0000 0.0000 5.7252 0.0000 0.0000
# 5 0.0000 0.0000 0.0000 0.0000 10.1573 0.0000
# 6 0.0000 0.0000 0.0000 0.0000 0.0000 12.8706
#
#
#
# Elastic Compliance Matrix: (Units=1/GPa)
#
#
# Indices 1 2 3 4 5 6 
#
# 1 0.010433 -0.011151 -0.007021 0.000000 0.000000 0.000000
# 2 -0.011151 0.068843 -0.003164 0.000000 0.000000 0.000000
# 3 -0.007021 -0.003164 0.017123 0.000000 0.000000 0.000000
# 4 0.000000 0.000000 0.000000 0.174666 0.000000 0.000000
# 5 0.000000 0.000000 0.000000 0.000000 0.098451 0.000000
# 6 0.000000 0.000000 0.000000 0.000000 0.000000 0.077697
#
#
# Mechanical properties :
#
#
# Convention : Reuss Voigt Hill
#
# Bulk Modulus (GPa) = 18.61256 64.38108 41.49682
# Shear Modulus (GPa) = 9.84652 17.07428 13.46040
#
# Velocity S-wave (km/s) = 2.42534 3.19375 2.83569
# Velocity P-wave (km/s) = 4.35454 7.21533 5.95915
#
# Compressibility (1/GPa) = 0.05372717
#
# Stress axis : x y z
#
# Youngs Moduli (GPa) = 95.85127 14.52578 58.40175
#
# Poissons Ratio (x) = 0.16197 0.41006
# Poissons Ratio (y) = 1.06880 0.18477
# Poissons Ratio (z) = 0.67300 0.04596
#
# Static dielectric constant tensor:
#      x y z
#    x 3.592380 0.000000 0.000000 
#    y 0.000000 2.559870 0.000000 
#    z 0.000000 0.000000 3.146690 
# 
# 
# High freq. dielectric constant tensor:
#      x y z
#    x 1.666740 0.000000 0.000000 
#    y 0.000000 1.565830 0.000000 
#    z 0.000000 0.000000 1.628490 
# 
# From -- ./inp_files/13175.got.cif
#   From: 2010.03.12/outbox.cif.g09.slc.cpg/sg47_7_cif.got.tgz:13175.got - 2010.04.14 03:12:58.
