data_PCOD8200620
_publ_section_title
;
Structure prediction by ZEFSAII (Michael W. Deem and Ramdas Pophale) SiO2 
 PCOD8200620
Probable space group: P M M M
;
_chemical_formula_sum "Si O2"
_cell_formula_units_Z 44
_cell_length_a 9.313018
_cell_length_b 27.989219
_cell_length_c 9.685336
_cell_angle_alpha 90.000000
_cell_angle_beta 90.000000
_cell_angle_gamma 90.000000
_cell_volume 2524.619395
_symmetry_space_group_name_H-M "P M M M"
_symmetry_group_IT_number 47
_symmetry_cell_setting 'orthorhombic'
loop_
_space_group_symop_operation_xyz
x,y,z
-x,-y,z
x,-y,-z
-x,y,-z
-x,-y,-z
x,y,-z
-x,y,z
x,-y,z
loop_
_atom_site_type_symbol
_atom_site_label
_atom_site_fract_x
_atom_site_fract_y
_atom_site_fract_z
Si Si1 0.171184 0.635456 0.346675
Si Si2 0.667654 0.185780 0.845901
Si Si3 0.170758 0.447257 0.845425
Si Si4 0.666890 0.924167 0.159215
Si Si5 0.836372 0.258667 0.337239
Si Si6 0.829831 0.000000 0.337793
O O1 0.231816 0.626436 0.500000
O O2 0.237902 0.594262 0.249703
O O3 0.217081 0.688151 0.293990
O O4 0.000000 0.633023 0.349666
O O5 0.500000 0.195368 0.836186
O O6 0.701898 0.130950 0.810963
O O7 0.742937 0.219113 0.736160
O O8 0.722997 0.197828 0.000000
O O9 0.217380 0.500000 0.791725
O O10 0.000000 0.443655 0.844616
O O11 0.229018 0.439417 0.000000
O O12 0.500000 0.935538 0.187694
O O13 0.764511 0.953521 0.264520
O O14 0.703419 0.937138 0.000000
O O15 0.819721 0.252182 0.500000
O O16 0.000000 0.251352 0.291015
O O17 0.789508 0.000000 0.500000
O O18 0.000000 0.000000 0.316816
#
# Coordination Sequence:
#
# PCOD8200620 Si02
#       6
#     8   8   8   8   8   4
#     4   8  14  24  36  52  78 112 148 184 223 270
#     4   9  19  35  53  74  98 123 157 200 239 278
#     4   8  13  20  30  47  73 105 142 184 227 270
#     4   9  19  37  58  76  96 126 163 200 237 278
#     4   9  18  31  46  67  96 127 158 194 236 282
#     4  11  24  37  50  76 110 135 158 193 234 276
#
# _framework density 17.428369
#
# number of rings (size 3 to 8) (size 9 to 14) (size 15 to 20)
#    0.000    3.182    0.000    3.273    0.000    5.455 
#    0.000    9.091    0.000    0.000    0.000    0.000 
#    0.000    0.727    0.000    8.000    0.000   13.091 
#
# Total GULP energy -545354.489726 kJ/mol
# GULP energy per Si atom -12394.420221 kJ/mol
# Density = 1.738870 g / cm^3
# Si number density = 17.428369 Si / 1000 Ang^3
#
#
#
# Elastic Constant Matrix: (Units=GPa)
#
#
# Indices 1 2 3 4 5 6 
#
# 1 38.7990 45.6177 37.9201 0.0000 0.0000 0.0000
# 2 45.6177 144.0866 78.9994 0.0000 0.0000 0.0000
# 3 37.9201 78.9994 90.5829 0.0000 0.0000 0.0000
# 4 0.0000 0.0000 0.0000 25.9291 0.0000 0.0000
# 5 0.0000 0.0000 0.0000 0.0000 24.5122 0.0000
# 6 0.0000 0.0000 0.0000 0.0000 0.0000 -25.9214
#
#
#
# Elastic Compliance Matrix: (Units=1/GPa)
#
#
# Indices 1 2 3 4 5 6 
#
# 1 0.048005 -0.008011 -0.013110 0.000000 0.000000 0.000000
# 2 -0.008011 0.014636 -0.009411 0.000000 0.000000 0.000000
# 3 -0.013110 -0.009411 0.024736 0.000000 0.000000 0.000000
# 4 0.000000 0.000000 0.000000 0.038567 0.000000 0.000000
# 5 0.000000 0.000000 0.000000 0.000000 0.040796 0.000000
# 6 0.000000 0.000000 0.000000 0.000000 0.000000 -0.038578
#
#
# Mechanical properties :
#
#
# Convention : Reuss Voigt Hill
#
# Bulk Modulus (GPa) = 38.00328 66.50478 52.25403
# Shear Modulus (GPa) = 25.25298 12.29941 18.77619
#
# Velocity S-wave (km/s) = 3.81065 2.65941 3.28584
# Velocity P-wave (km/s) = 6.41982 6.90447 6.66655
#
# Compressibility (1/GPa) = 0.02631352
#
# Stress axis : x y z
#
# Youngs Moduli (GPa) = 20.83113 68.32258 40.42748
#
# Poissons Ratio (x) = 0.54730 0.53000
# Poissons Ratio (y) = 0.16687 0.38048
# Poissons Ratio (z) = 0.27309 0.64301
#
# Static dielectric constant tensor:
#      x y z
#    x 2.801830 0.000000 0.000000 
#    y 0.000000 3.462080 0.000000 
#    z 0.000000 0.000000 3.366920 
# 
# 
# High freq. dielectric constant tensor:
#      x y z
#    x 1.625890 0.000000 0.000000 
#    y 0.000000 1.688700 0.000000 
#    z 0.000000 0.000000 1.672930 
# 
# From -- ./inp_files/2104.got.cif
#   From: 2010.03.12/outbox.cif.g09.slc.cpg/sg47_2_cif.got.tgz:2104.got - 2010.04.14 03:12:58.
