data_PCOD8200330
_publ_section_title
;
Structure prediction by ZEFSAII (Michael W. Deem and Ramdas Pophale) SiO2 
 PCOD8200330
Probable space group: P M M M
;
_chemical_formula_sum "Si O2"
_cell_formula_units_Z 52
_cell_length_a 26.745048
_cell_length_b 9.337270
_cell_length_c 12.087583
_cell_angle_alpha 90.000000
_cell_angle_beta 90.000000
_cell_angle_gamma 90.000000
_cell_volume 3018.580541
_symmetry_space_group_name_H-M "P M M M"
_symmetry_group_IT_number 47
_symmetry_cell_setting 'orthorhombic'
loop_
_space_group_symop_operation_xyz
x,y,z
-x,-y,z
x,-y,-z
-x,y,-z
-x,-y,-z
x,y,-z
-x,y,z
x,-y,z
loop_
_atom_site_type_symbol
_atom_site_label
_atom_site_fract_x
_atom_site_fract_y
_atom_site_fract_z
Si Si1 0.558067 0.664932 0.626323
Si Si2 0.673094 0.168795 0.000000
Si Si3 0.864923 0.830974 0.825222
Si Si4 0.785003 0.170047 0.000000
Si Si5 0.282535 0.663139 0.626585
Si Si6 0.638028 0.169835 0.762404
Si Si7 0.944442 0.830072 0.000000
Si Si8 0.832805 0.334768 0.375665
O O1 0.569830 0.710707 0.500000
O O2 0.500000 0.687227 0.652477
O O3 0.573581 0.500000 0.643532
O O4 0.588163 0.762348 0.711729
O O5 0.642397 0.216165 0.891196
O O6 0.729170 0.237068 0.000000
O O7 0.680366 0.000000 0.000000
O O8 0.815294 0.779237 0.891210
O O9 0.914308 0.780299 0.891156
O O10 0.866614 0.758278 0.705778
O O11 0.864579 0.000000 0.809405
O O12 0.783275 0.000000 0.000000
O O13 0.300383 0.677506 0.500000
O O14 0.291501 0.500000 0.666690
O O15 0.313302 0.773348 0.700048
O O16 0.225043 0.707146 0.637808
O O17 0.635416 0.000000 0.748551
O O18 0.000000 0.761824 0.000000
O O19 0.947583 0.000000 0.000000
O O20 0.850637 0.301279 0.500000
O O21 0.840625 0.500000 0.347098
#
# Coordination Sequence:
#
# PCOD8200330 Si02
#       8
#     8   4   8   4   8   8   4   8
#     4   9  19  37  58  75  92 117 148 186 237 290
#     4   9  19  32  43  62  98 135 155 176 221 274
#     4   9  16  27  48  73  92 119 160 201 238 275
#     4   8  14  27  45  65  92 123 155 191 229 268
#     4   9  18  32  48  67  95 129 159 189 231 281
#     4  11  21  32  49  72  97 125 157 193 231 271
#     4   8  15  29  49  73  99 124 153 196 250 297
#     4   9  18  31  45  64  95 132 161 188 230 281
#
# _framework density 17.22664
#
# number of rings (size 3 to 8) (size 9 to 14) (size 15 to 20)
#    0.000    2.846    0.000    4.154    0.000    4.923 
#    0.000    5.769    0.000    9.231    0.000    3.231 
#    0.000    0.000    0.000    0.000    0.000    0.000 
#
# Total GULP energy -644666.957064 kJ/mol
# GULP energy per Si atom -12397.441482 kJ/mol
# Density = 1.718743 g / cm^3
# Si number density = 17.226640 Si / 1000 Ang^3
#
#
#
# Elastic Constant Matrix: (Units=GPa)
#
#
# Indices 1 2 3 4 5 6 
#
# 1 96.8052 38.8616 63.8914 0.0000 0.0000 0.0000
# 2 38.8616 57.3144 54.6506 0.0000 0.0000 0.0000
# 3 63.8914 54.6506 132.7472 0.0000 0.0000 0.0000
# 4 0.0000 0.0000 0.0000 4.1713 0.0000 0.0000
# 5 0.0000 0.0000 0.0000 0.0000 19.4595 0.0000
# 6 0.0000 0.0000 0.0000 0.0000 0.0000 18.9358
#
#
#
# Elastic Compliance Matrix: (Units=1/GPa)
#
#
# Indices 1 2 3 4 5 6 
#
# 1 0.016254 -0.005863 -0.005409 0.000000 0.000000 0.000000
# 2 -0.005863 0.030838 -0.009874 0.000000 0.000000 0.000000
# 3 -0.005409 -0.009874 0.014202 0.000000 0.000000 0.000000
# 4 0.000000 0.000000 0.000000 0.239733 0.000000 0.000000
# 5 0.000000 0.000000 0.000000 0.000000 0.051389 0.000000
# 6 0.000000 0.000000 0.000000 0.000000 0.000000 0.052810
#
#
# Mechanical properties :
#
#
# Convention : Reuss Voigt Hill
#
# Bulk Modulus (GPa) = 52.62819 66.85267 59.74043
# Shear Modulus (GPa) = 11.01684 17.14419 14.08052
#
# Velocity S-wave (km/s) = 2.53162 3.15812 2.86207
# Velocity P-wave (km/s) = 6.25798 7.22429 6.75842
#
# Compressibility (1/GPa) = 0.01900122
#
# Stress axis : x y z
#
# Youngs Moduli (GPa) = 61.52438 32.42773 70.41490
#
# Poissons Ratio (x) = 0.19012 0.38089
# Poissons Ratio (y) = 0.36071 0.69526
# Poissons Ratio (z) = 0.33280 0.32018
#
# Static dielectric constant tensor:
#      x y z
#    x 3.224860 0.000000 0.000000 
#    y 0.000000 2.925370 0.000000 
#    z 0.000000 0.000000 3.313410 
# 
# 
# High freq. dielectric constant tensor:
#      x y z
#    x 1.651210 0.000000 0.000000 
#    y 0.000000 1.641740 0.000000 
#    z 0.000000 0.000000 1.667300 
# 
# From -- ./inp_files/19899.got.cif
#   From: 2010.03.12/outbox.cif.g09.slc.cpg/sg47_10_cif.got.tgz:19899.got - 2010.04.14 03:12:58.
