data_PCOD8200808
_publ_section_title
;
Structure prediction by ZEFSAII (Michael W. Deem and Ramdas Pophale) SiO2 
 PCOD8200808
Probable space group: P M M M
;
_chemical_formula_sum "Si O2"
_cell_formula_units_Z 36
_cell_length_a 9.996307
_cell_length_b 24.980569
_cell_length_c 7.524377
_cell_angle_alpha 90.000000
_cell_angle_beta 90.000000
_cell_angle_gamma 90.000000
_cell_volume 1878.938040
_symmetry_space_group_name_H-M "P M M M"
_symmetry_group_IT_number 47
_symmetry_cell_setting 'orthorhombic'
loop_
_space_group_symop_operation_xyz
x,y,z
-x,-y,z
x,-y,-z
-x,y,-z
-x,-y,-z
x,y,-z
-x,y,z
x,-y,z
loop_
_atom_site_type_symbol
_atom_site_label
_atom_site_fract_x
_atom_site_fract_y
_atom_site_fract_z
Si Si1 0.844355 0.641485 0.793953
Si Si2 0.350848 0.734019 0.210628
Si Si3 0.850343 0.059481 0.211406
Si Si4 0.157542 0.440900 0.500000
Si Si5 0.649746 0.147134 0.211321
O O1 0.758513 0.691641 0.721786
O O2 0.798908 0.590424 0.678341
O O3 0.000000 0.655515 0.763636
O O4 0.814856 0.628311 0.000000
O O5 0.500000 0.718443 0.279053
O O6 0.312086 0.793336 0.280601
O O7 0.351139 0.734820 0.000000
O O8 0.750502 0.103495 0.294888
O O9 0.000000 0.072455 0.278509
O O10 0.807764 0.000000 0.275798
O O11 0.845925 0.061643 0.000000
O O12 0.224682 0.500000 0.500000
O O13 0.000000 0.447467 0.500000
O O14 0.500000 0.132635 0.274093
O O15 0.658099 0.145938 0.000000
#
# Coordination Sequence:
#
# PCOD8200808 Si02
#       5
#     8   8   8   4   8
#     4   9  17  29  47  70  92 118 154 189 223 268
#     4   8  14  25  40  58  82 111 142 181 230 275
#     4   8  13  19  25  36  59  93 132 174 220 265
#     4   9  18  32  49  71  99 125 150 187 228 261
#     4   8  13  20  30  45  65  93 132 174 216 264
#
# _framework density 19.159759000000001
#
# number of rings (size 3 to 8) (size 9 to 14) (size 15 to 20)
#    0.000    3.667    0.000    2.000    0.000    1.778 
#    0.000    9.444    0.000    1.333    0.000    3.111 
#    0.000    0.000    0.000    1.000    0.000   22.000 
#
# Total GULP energy -446078.828113 kJ/mol
# GULP energy per Si atom -12391.078559 kJ/mol
# Density = 1.911615 g / cm^3
# Si number density = 19.159759 Si / 1000 Ang^3
#
#
#
# Elastic Constant Matrix: (Units=GPa)
#
#
# Indices 1 2 3 4 5 6 
#
# 1 107.3033 106.8891 21.5160 0.0000 0.0000 0.0000
# 2 106.8891 196.5414 34.7383 0.0000 0.0000 0.0000
# 3 21.5160 34.7383 45.9235 0.0000 0.0000 0.0000
# 4 0.0000 0.0000 0.0000 -20.6005 0.0000 0.0000
# 5 0.0000 0.0000 0.0000 0.0000 -0.3913 0.0000
# 6 0.0000 0.0000 0.0000 0.0000 0.0000 22.1140
#
#
#
# Elastic Compliance Matrix: (Units=1/GPa)
#
#
# Indices 1 2 3 4 5 6 
#
# 1 0.020409 -0.010861 -0.001346 0.000000 0.000000 0.000000
# 2 -0.010861 0.011654 -0.003726 0.000000 0.000000 0.000000
# 3 -0.001346 -0.003726 0.025225 0.000000 0.000000 0.000000
# 4 0.000000 0.000000 0.000000 -0.048543 0.000000 0.000000
# 5 0.000000 0.000000 0.000000 0.000000 -2.555573 0.000000
# 6 0.000000 0.000000 0.000000 0.000000 0.000000 0.045220
#
#
# Mechanical properties :
#
#
# Convention : Reuss Voigt Hill
#
# Bulk Modulus (GPa) = 39.33974 75.11723 57.22848
# Shear Modulus (GPa) = -2.03147 12.66610 5.31731
#
# Velocity S-wave (km/s) = -1.03082 2.57393 1.66772
# Velocity P-wave (km/s) = 4.37725 6.93717 5.80020
#
# Compressibility (1/GPa) = 0.02541959
#
# Stress axis : x y z
#
# Youngs Moduli (GPa) = 48.99857 85.81014 39.64362
#
# Poissons Ratio (x) = 0.93202 0.05335
# Poissons Ratio (y) = 0.53219 0.14773
# Poissons Ratio (z) = 0.06594 0.31977
#
# Static dielectric constant tensor:
#      x y z
#    x 3.640940 0.000000 0.000000 
#    y 0.000000 3.946970 0.000000 
#    z 0.000000 0.000000 3.057260 
# 
# 
# High freq. dielectric constant tensor:
#      x y z
#    x 1.727650 0.000000 0.000000 
#    y 0.000000 1.742150 0.000000 
#    z 0.000000 0.000000 1.717160 
# 
# From -- ./inp_files/3920.got.cif
#   From: 2010.03.12/outbox.cif.g09.slc.cpg/sg47_2_cif.got.tgz:3920.got - 2010.04.14 03:12:58.
