data_PCOD8200493
_publ_section_title
;
Structure prediction by ZEFSAII (Michael W. Deem and Ramdas Pophale) SiO2 
 PCOD8200493
Probable space group: P M M M
;
_chemical_formula_sum "Si O2"
_cell_formula_units_Z 56
_cell_length_a 21.527987
_cell_length_b 9.072716
_cell_length_c 14.856357
_cell_angle_alpha 90.000000
_cell_angle_beta 90.000000
_cell_angle_gamma 90.000000
_cell_volume 2901.703717
_symmetry_space_group_name_H-M "P M M M"
_symmetry_group_IT_number 47
_symmetry_cell_setting 'orthorhombic'
loop_
_space_group_symop_operation_xyz
x,y,z
-x,-y,z
x,-y,-z
-x,y,-z
-x,-y,-z
x,y,-z
-x,y,z
x,-y,z
loop_
_atom_site_type_symbol
_atom_site_label
_atom_site_fract_x
_atom_site_fract_y
_atom_site_fract_z
Si Si1 0.811655 0.666420 0.399354
Si Si2 0.811655 0.666420 0.899354
Si Si3 0.069820 0.833257 0.644042
Si Si4 0.500000 0.824772 0.102025
Si Si5 0.735059 0.824971 0.750000
Si Si6 0.595057 0.175073 0.750000
Si Si7 0.069820 0.833257 0.144042
Si Si8 0.500000 0.175228 0.602025
O O1 0.784463 0.671390 0.500000
O O2 0.811179 0.500000 0.361430
O O3 0.882319 0.723596 0.402825
O O4 0.769016 0.769518 0.338892
O O5 0.811179 0.500000 0.861430
O O6 0.769016 0.769518 0.838892
O O7 0.882319 0.723596 0.902825
O O8 0.784463 0.671390 0.000000
O O9 0.080224 0.825199 0.750000
O O10 0.000000 0.784091 0.618277
O O11 0.081659 0.000000 0.610461
O O12 0.560248 0.770392 0.158857
O O13 0.500000 0.000000 0.095415
O O14 0.500000 0.758110 0.000000
O O15 0.664861 0.762817 0.750000
O O16 0.736878 0.000000 0.750000
O O17 0.560248 0.229608 0.658857
O O18 0.594980 0.000000 0.750000
O O19 0.000000 0.784091 0.118277
O O20 0.081659 0.000000 0.110461
O O21 0.500000 0.241890 0.500000
O O22 0.500000 0.000000 0.595415
#
# Coordination Sequence:
#
# PCOD8200493 Si02
#       8
#     8   8   8   4   8   8   8   4
#     4  11  24  39  55  78 109 146 187 229 276 330
#     4  11  24  39  55  78 109 146 187 229 276 330
#     4   9  18  34  57  83 108 136 174 224 283 339
#     4   8  13  25  46  73 109 144 170 206 260 318
#     4  11  22  37  57  81 112 147 186 230 271 318
#     4   8  16  28  45  75 109 141 176 213 260 316
#     4   9  18  34  57  83 108 136 174 224 283 339
#     4   8  13  25  46  73 109 144 170 206 260 318
#
# _framework density 19.299007
#
# number of rings (size 3 to 8) (size 9 to 14) (size 15 to 20)
#    0.000    2.429    1.429    3.000    0.000    4.571 
#    0.000    7.143    0.000    0.000    0.000    8.000 
#    0.000   13.714    0.000    0.000    0.000    0.000 
#
# Total GULP energy -694237.620870 kJ/mol
# GULP energy per Si atom -12397.100373 kJ/mol
# Density = 1.925508 g / cm^3
# Si number density = 19.299007 Si / 1000 Ang^3
#
#
#
# Elastic Constant Matrix: (Units=GPa)
#
#
# Indices 1 2 3 4 5 6 
#
# 1 145.4757 42.7047 55.9224 0.0000 0.0000 0.0000
# 2 42.7047 72.8177 30.0574 0.0000 0.0000 0.0000
# 3 55.9224 30.0574 123.6103 0.0000 0.0000 0.0000
# 4 0.0000 0.0000 0.0000 29.2543 0.0000 0.0000
# 5 0.0000 0.0000 0.0000 0.0000 -1.5990 0.0000
# 6 0.0000 0.0000 0.0000 0.0000 0.0000 1.5855
#
#
#
# Elastic Compliance Matrix: (Units=1/GPa)
#
#
# Indices 1 2 3 4 5 6 
#
# 1 0.009325 -0.004143 -0.003211 0.000000 0.000000 0.000000
# 2 -0.004143 0.017106 -0.002285 0.000000 0.000000 0.000000
# 3 -0.003211 -0.002285 0.010098 0.000000 0.000000 0.000000
# 4 0.000000 0.000000 0.000000 0.034183 0.000000 0.000000
# 5 0.000000 0.000000 0.000000 0.000000 -0.625384 0.000000
# 6 0.000000 0.000000 0.000000 0.000000 0.000000 0.630717
#
#
# Mechanical properties :
#
#
# Convention : Reuss Voigt Hill
#
# Bulk Modulus (GPa) = 57.97024 66.58584 62.27804
# Shear Modulus (GPa) = 49.46883 20.06278 34.76580
#
# Velocity S-wave (km/s) = 5.06838 3.22774 4.24893
# Velocity P-wave (km/s) = 8.02212 6.96191 7.51075
#
# Compressibility (1/GPa) = 0.01725023
#
# Stress axis : x y z
#
# Youngs Moduli (GPa) = 107.24356 58.45935 99.02624
#
# Poissons Ratio (x) = 0.24220 0.31798
# Poissons Ratio (y) = 0.44431 0.22629
# Poissons Ratio (z) = 0.34437 0.13359
#
# Static dielectric constant tensor:
#      x y z
#    x 3.755300 0.000000 0.000000 
#    y 0.000000 3.236900 0.000000 
#    z 0.000000 0.000000 3.600700 
# 
# 
# High freq. dielectric constant tensor:
#      x y z
#    x 1.747900 0.000000 0.000000 
#    y 0.000000 1.717340 0.000000 
#    z 0.000000 0.000000 1.758680 
# 
# From -- ./inp_files/25252.got.cif
#   From: 2010.03.12/outbox.cif.g09.slc.cpg/sg47_13_cif.got.tgz:25252.got - 2010.04.14 03:12:58.
