data_PCOD8200107
_publ_section_title
;
Structure prediction by ZEFSAII (Michael W. Deem and Ramdas Pophale) SiO2 
 PCOD8200107
Probable space group: P M M M
;
_chemical_formula_sum "Si O2"
_cell_formula_units_Z 52
_cell_length_a 19.926319
_cell_length_b 9.729698
_cell_length_c 14.135172
_cell_angle_alpha 90.000000
_cell_angle_beta 90.000000
_cell_angle_gamma 90.000000
_cell_volume 2740.485676
_symmetry_space_group_name_H-M "P M M M"
_symmetry_group_IT_number 47
_symmetry_cell_setting 'orthorhombic'
loop_
_space_group_symop_operation_xyz
x,y,z
-x,-y,z
x,-y,-z
-x,y,-z
-x,-y,-z
x,y,-z
-x,y,z
x,-y,z
loop_
_atom_site_type_symbol
_atom_site_label
_atom_site_fract_x
_atom_site_fract_y
_atom_site_fract_z
Si Si1 0.579217 0.500000 0.895661
Si Si2 0.218761 0.343770 0.608175
Si Si3 0.576723 0.770508 0.790903
Si Si4 0.698573 0.849103 0.896341
Si Si5 0.821764 0.834372 0.223800
Si Si6 0.376526 0.657547 0.605882
Si Si7 0.078622 0.344433 0.109041
O O1 0.500000 0.500000 0.903299
O O2 0.603572 0.630182 0.837586
O O3 0.611617 0.500000 0.000000
O O4 0.197802 0.315645 0.500000
O O5 0.199114 0.500000 0.636653
O O6 0.180392 0.232424 0.671940
O O7 0.297937 0.323618 0.620579
O O8 0.500000 0.810065 0.816412
O O9 0.628587 0.873914 0.839222
O O10 0.583917 0.757487 0.677803
O O11 0.755532 0.778154 0.831873
O O12 0.726813 0.000000 0.916031
O O13 0.688910 0.776307 0.000000
O O14 0.885820 0.772561 0.170778
O O15 0.826707 0.000000 0.232291
O O16 0.397418 0.701849 0.500000
O O17 0.398277 0.500000 0.623722
O O18 0.100320 0.500000 0.138105
O O19 0.000000 0.326197 0.125643
O O20 0.097364 0.318787 0.000000
#
# Coordination Sequence:
#
# PCOD8200107 Si02
#       7
#     4   8   8   8   8   8   8
#     4   9  18  30  43  65  95 125 159 207 269 326
#     4   9  18  34  56  80 108 144 186 231 278 333
#     4  11  20  32  50  70  97 133 173 221 273 328
#     4  10  22  38  52  70  99 136 180 226 269 318
#     4  11  21  34  57  86 116 148 183 230 281 328
#     4   9  17  31  51  74 100 130 169 220 278 337
#     4   9  19  37  60  87 121 158 192 224 261 315
#
# _framework density 18.974739
#
# number of rings (size 3 to 8) (size 9 to 14) (size 15 to 20)
#    0.000    2.231    2.308    2.769    0.000    3.077 
#    1.385    2.308    0.000    0.923    0.000    4.308 
#    0.000    0.000    0.000    0.000    0.000    0.000 
#
# Total GULP energy -644418.513922 kJ/mol
# GULP energy per Si atom -12392.663729 kJ/mol
# Density = 1.893155 g / cm^3
# Si number density = 18.974739 Si / 1000 Ang^3
#
#
#
# Elastic Constant Matrix: (Units=GPa)
#
#
# Indices 1 2 3 4 5 6 
#
# 1 67.9792 30.8965 39.6441 0.0000 0.0000 0.0000
# 2 30.8965 83.1872 44.9773 0.0000 0.0000 0.0000
# 3 39.6441 44.9773 130.5021 0.0000 0.0000 0.0000
# 4 0.0000 0.0000 0.0000 24.7884 0.0000 0.0000
# 5 0.0000 0.0000 0.0000 0.0000 30.6948 0.0000
# 6 0.0000 0.0000 0.0000 0.0000 0.0000 18.6844
#
#
#
# Elastic Compliance Matrix: (Units=1/GPa)
#
#
# Indices 1 2 3 4 5 6 
#
# 1 0.019399 -0.004939 -0.004191 0.000000 0.000000 0.000000
# 2 -0.004939 0.016032 -0.004025 0.000000 0.000000 0.000000
# 3 -0.004191 -0.004025 0.010323 0.000000 0.000000 0.000000
# 4 0.000000 0.000000 0.000000 0.040341 0.000000 0.000000
# 5 0.000000 0.000000 0.000000 0.000000 0.032579 0.000000
# 6 0.000000 0.000000 0.000000 0.000000 0.000000 0.053521
#
#
# Mechanical properties :
#
#
# Convention : Reuss Voigt Hill
#
# Bulk Modulus (GPa) = 51.42938 56.96713 54.19825
# Shear Modulus (GPa) = 24.39191 25.91021 25.15106
#
# Velocity S-wave (km/s) = 3.58927 3.69929 3.64469
# Velocity P-wave (km/s) = 6.65884 6.95228 6.80714
#
# Compressibility (1/GPa) = 0.01944414
#
# Stress axis : x y z
#
# Youngs Moduli (GPa) = 51.54840 62.37645 96.87130
#
# Poissons Ratio (x) = 0.30809 0.40597
# Poissons Ratio (y) = 0.25461 0.38989
# Poissons Ratio (z) = 0.21603 0.25106
#
# Static dielectric constant tensor:
#      x y z
#    x 3.125180 0.000000 0.000000 
#    y 0.000000 3.415000 0.000000 
#    z 0.000000 0.000000 3.679050 
# 
# 
# High freq. dielectric constant tensor:
#      x y z
#    x 1.711410 0.000000 0.000000 
#    y 0.000000 1.719080 0.000000 
#    z 0.000000 0.000000 1.747630 
# 
# From -- ./inp_files/24998.got.cif
#   From: 2010.03.12/outbox.cif.g09.slc.cpg/sg47_13_cif.got.tgz:24998.got - 2010.04.14 03:12:58.
