data_PCOD8200388
_publ_section_title
;
Structure prediction by ZEFSAII (Michael W. Deem and Ramdas Pophale) SiO2 
 PCOD8200388
Probable space group: P M M M
;
_chemical_formula_sum "Si O2"
_cell_formula_units_Z 52
_cell_length_a 30.286633
_cell_length_b 10.958806
_cell_length_c 9.008636
_cell_angle_alpha 90.000000
_cell_angle_beta 90.000000
_cell_angle_gamma 90.000000
_cell_volume 2990.014353
_symmetry_space_group_name_H-M "P M M M"
_symmetry_group_IT_number 47
_symmetry_cell_setting 'orthorhombic'
loop_
_space_group_symop_operation_xyz
x,y,z
-x,-y,z
x,-y,-z
-x,y,-z
-x,-y,-z
x,y,-z
-x,y,z
x,-y,z
loop_
_atom_site_type_symbol
_atom_site_label
_atom_site_fract_x
_atom_site_fract_y
_atom_site_fract_z
Si Si1 0.323701 0.360028 0.676154
Si Si2 0.585810 0.643697 0.165575
Si Si3 0.050393 0.500000 0.324842
Si Si4 0.736917 0.136598 0.324065
Si Si5 0.500000 0.645837 0.332526
Si Si6 0.914244 0.728695 0.175055
Si Si7 0.162863 0.858959 0.332252
Si Si8 0.000000 0.868424 0.175818
O O1 0.327321 0.355382 0.500000
O O2 0.309785 0.500000 0.724389
O O3 0.370676 0.323120 0.742934
O O4 0.290850 0.253431 0.736433
O O5 0.580160 0.500000 0.154491
O O6 0.543222 0.698239 0.249530
O O7 0.588818 0.699944 0.000000
O O8 0.047818 0.500000 0.500000
O O9 0.080567 0.392662 0.266591
O O10 0.000000 0.500000 0.259266
O O11 0.733915 0.133363 0.500000
O O12 0.787239 0.160255 0.275333
O O13 0.721692 0.000000 0.265915
O O14 0.500000 0.500000 0.333186
O O15 0.500000 0.696192 0.500000
O O16 0.868217 0.790032 0.216998
O O17 0.955638 0.806436 0.232303
O O18 0.915571 0.704252 0.000000
O O19 0.157137 0.807990 0.500000
O O20 0.150006 0.000000 0.328968
O O21 0.000000 0.000000 0.250183
O O22 0.000000 0.875040 0.000000
#
# Coordination Sequence:
#
# PCOD8200388 Si02
#       8
#     8   8   4   8   4   8   8   4
#     4   9  16  27  45  69  94 122 162 207 245 287
#     4   9  16  25  38  59  91 128 160 195 246 299
#     4  11  23  39  57  75 101 133 167 201 239 288
#     4   8  15  30  51  72  97 130 166 204 248 297
#     4   9  15  23  37  59  88 123 164 205 240 282
#     4  11  21  35  55  76 103 133 165 201 242 292
#     4   9  18  34  54  76 103 132 164 205 251 295
#     4   9  18  31  49  74 100 127 158 193 236 287
#
# _framework density 17.391221999999999
#
# number of rings (size 3 to 8) (size 9 to 14) (size 15 to 20)
#    0.000    2.692    0.769    2.769    0.000    4.000 
#    1.385    0.769    0.000    3.231    0.000    0.538 
#    0.000    4.308    0.000    0.000    0.000    0.000 
#
# Total GULP energy -644366.654631 kJ/mol
# GULP energy per Si atom -12391.666435 kJ/mol
# Density = 1.735164 g / cm^3
# Si number density = 17.391222 Si / 1000 Ang^3
#
#
#
# Elastic Constant Matrix: (Units=GPa)
#
#
# Indices 1 2 3 4 5 6 
#
# 1 124.9407 64.5007 32.6897 0.0000 0.0000 0.0000
# 2 64.5007 100.5093 26.7500 0.0000 0.0000 0.0000
# 3 32.6897 26.7500 54.9679 0.0000 0.0000 0.0000
# 4 0.0000 0.0000 0.0000 9.4041 0.0000 0.0000
# 5 0.0000 0.0000 0.0000 0.0000 15.6680 0.0000
# 6 0.0000 0.0000 0.0000 0.0000 0.0000 15.5958
#
#
#
# Elastic Compliance Matrix: (Units=1/GPa)
#
#
# Indices 1 2 3 4 5 6 
#
# 1 0.012737 -0.007074 -0.004132 0.000000 0.000000 0.000000
# 2 -0.007074 0.015359 -0.003267 0.000000 0.000000 0.000000
# 3 -0.004132 -0.003267 0.022240 0.000000 0.000000 0.000000
# 4 0.000000 0.000000 0.000000 0.106337 0.000000 0.000000
# 5 0.000000 0.000000 0.000000 0.000000 0.063824 0.000000
# 6 0.000000 0.000000 0.000000 0.000000 0.000000 0.064120
#
#
# Mechanical properties :
#
#
# Convention : Reuss Voigt Hill
#
# Bulk Modulus (GPa) = 46.75414 58.69985 52.72699
# Shear Modulus (GPa) = 15.59127 18.56542 17.07835
#
# Velocity S-wave (km/s) = 2.99741 3.27083 3.13710
# Velocity P-wave (km/s) = 6.23870 6.93472 6.59590
#
# Compressibility (1/GPa) = 0.02138848
#
# Stress axis : x y z
#
# Youngs Moduli (GPa) = 78.51198 65.11030 44.96433
#
# Poissons Ratio (x) = 0.46059 0.18580
# Poissons Ratio (y) = 0.55539 0.14691
# Poissons Ratio (z) = 0.32442 0.21273
#
# Static dielectric constant tensor:
#      x y z
#    x 3.312790 0.000000 0.000000 
#    y 0.000000 3.166720 0.000000 
#    z 0.000000 0.000000 3.083280 
# 
# 
# High freq. dielectric constant tensor:
#      x y z
#    x 1.674530 0.000000 0.000000 
#    y 0.000000 1.646860 0.000000 
#    z 0.000000 0.000000 1.655720 
# 
# From -- ./inp_files/13339.got.cif
#   From: 2010.03.12/outbox.cif.g09.slc.cpg/sg47_7_cif.got.tgz:13339.got - 2010.04.14 03:12:58.
