data_PCOD8200179
_publ_section_title
;
Structure prediction by ZEFSAII (Michael W. Deem and Ramdas Pophale) SiO2 
 PCOD8200179
Probable space group: P M M M
;
_chemical_formula_sum "Si O2"
_cell_formula_units_Z 52
_cell_length_a 8.215009
_cell_length_b 32.249023
_cell_length_c 10.588282
_cell_angle_alpha 90.000000
_cell_angle_beta 90.000000
_cell_angle_gamma 90.000000
_cell_volume 2805.111347
_symmetry_space_group_name_H-M "P M M M"
_symmetry_group_IT_number 47
_symmetry_cell_setting 'orthorhombic'
loop_
_space_group_symop_operation_xyz
x,y,z
-x,-y,z
x,-y,-z
-x,y,-z
-x,-y,-z
x,y,-z
-x,y,z
x,-y,z
loop_
_atom_site_type_symbol
_atom_site_label
_atom_site_fract_x
_atom_site_fract_y
_atom_site_fract_z
Si Si1 0.324063 0.500000 0.357655
Si Si2 0.693310 0.728341 0.142388
Si Si3 0.679815 0.180213 0.148768
Si Si4 0.188177 0.419073 0.250633
Si Si5 0.819342 0.904449 0.150267
Si Si6 0.500000 0.952864 0.849696
Si Si7 0.313533 0.453823 0.000000
Si Si8 0.807487 0.333538 0.358871
O O1 0.500000 0.500000 0.282283
O O2 0.373397 0.500000 0.500000
O O3 0.217178 0.459833 0.332134
O O4 0.500000 0.728454 0.140385
O O5 0.755691 0.774552 0.179778
O O6 0.755524 0.698174 0.250762
O O7 0.755779 0.716092 0.000000
O O8 0.500000 0.175381 0.210165
O O9 0.794594 0.143026 0.197896
O O10 0.660072 0.176121 0.000000
O O11 0.270759 0.425098 0.116773
O O12 0.262018 0.378879 0.321063
O O13 0.000000 0.412037 0.227274
O O14 0.667272 0.931750 0.202628
O O15 0.000000 0.919216 0.198623
O O16 0.818037 0.906928 0.000000
O O17 0.500000 0.000000 0.801927
O O18 0.500000 0.949923 0.000000
O O19 0.226296 0.500000 0.000000
O O20 0.500000 0.463401 0.000000
O O21 0.740241 0.322044 0.500000
O O22 0.000000 0.334815 0.364920
#
# Coordination Sequence:
#
# PCOD8200179 Si02
#       8
#     4   8   8   8   8   4   4   8
#     4  11  23  38  57  82 107 131 167 213 256 299
#     4   9  19  34  54  81 106 132 170 217 267 317
#     4   8  13  25  43  62  89 118 150 202 261 311
#     4  11  23  39  60  81 105 138 176 211 251 306
#     4   9  15  22  35  54  76 111 159 207 259 315
#     4   9  16  24  32  46  76 118 161 211 265 310
#     4  11  23  39  59  85 114 136 162 208 264 308
#     4  10  23  41  57  77 108 143 177 213 257 311
#
# _framework density 18.537586999999998
#
# number of rings (size 3 to 8) (size 9 to 14) (size 15 to 20)
#    0.000    2.385    1.538    2.308    1.077    4.308 
#    0.000    3.077    0.000    0.000    0.000    0.000 
#    0.000    0.000    0.000    0.000    0.000    1.538 
#
# Total GULP energy -644199.681173 kJ/mol
# GULP energy per Si atom -12388.455407 kJ/mol
# Density = 1.849539 g / cm^3
# Si number density = 18.537587 Si / 1000 Ang^3
#
#
#
# Elastic Constant Matrix: (Units=GPa)
#
#
# Indices 1 2 3 4 5 6 
#
# 1 82.5423 47.5263 24.2426 0.0000 0.0000 0.0000
# 2 47.5263 147.6201 48.5457 0.0000 0.0000 0.0000
# 3 24.2426 48.5457 88.7108 0.0000 0.0000 0.0000
# 4 0.0000 0.0000 0.0000 1.8488 0.0000 0.0000
# 5 0.0000 0.0000 0.0000 0.0000 16.0271 0.0000
# 6 0.0000 0.0000 0.0000 0.0000 0.0000 26.7693
#
#
#
# Elastic Compliance Matrix: (Units=1/GPa)
#
#
# Indices 1 2 3 4 5 6 
#
# 1 0.015101 -0.004274 -0.001788 0.000000 0.000000 0.000000
# 2 -0.004274 0.009470 -0.004015 0.000000 0.000000 0.000000
# 3 -0.001788 -0.004015 0.013958 0.000000 0.000000 0.000000
# 4 0.000000 0.000000 0.000000 0.540878 0.000000 0.000000
# 5 0.000000 0.000000 0.000000 0.000000 0.062394 0.000000
# 6 0.000000 0.000000 0.000000 0.000000 0.000000 0.037356
#
#
# Mechanical properties :
#
#
# Convention : Reuss Voigt Hill
#
# Bulk Modulus (GPa) = 54.41674 62.16695 58.29184
# Shear Modulus (GPa) = 7.08781 22.16629 14.62705
#
# Velocity S-wave (km/s) = 1.95749 3.46171 2.81205
# Velocity P-wave (km/s) = 5.87602 7.04176 6.48513
#
# Compressibility (1/GPa) = 0.01837670
#
# Stress axis : x y z
#
# Youngs Moduli (GPa) = 66.22134 105.59347 71.64299
#
# Poissons Ratio (x) = 0.45128 0.12810
# Poissons Ratio (y) = 0.28301 0.28761
# Poissons Ratio (z) = 0.11840 0.42391
#
# Static dielectric constant tensor:
#      x y z
#    x 3.515580 0.000000 0.000000 
#    y 0.000000 3.788820 0.000000 
#    z 0.000000 0.000000 2.099980 
# 
# 
# High freq. dielectric constant tensor:
#      x y z
#    x 1.720280 0.000000 0.000000 
#    y 0.000000 1.721510 0.000000 
#    z 0.000000 0.000000 1.665330 
# 
# From -- ./inp_files/15683.got.cif
#   From: 2010.03.12/outbox.cif.g09.slc.cpg/sg47_8_cif.got.tgz:15683.got - 2010.04.14 03:12:58.
