data_PCOD8200547
_publ_section_title
;
Structure prediction by ZEFSAII (Michael W. Deem and Ramdas Pophale) SiO2 
 PCOD8200547
Probable space group: P M M M
;
_chemical_formula_sum "Si O2"
_cell_formula_units_Z 44
_cell_length_a 29.646476
_cell_length_b 7.989605
_cell_length_c 9.112248
_cell_angle_alpha 90.000000
_cell_angle_beta 90.000000
_cell_angle_gamma 90.000000
_cell_volume 2158.360165
_symmetry_space_group_name_H-M "P M M M"
_symmetry_group_IT_number 47
_symmetry_cell_setting 'orthorhombic'
loop_
_space_group_symop_operation_xyz
x,y,z
-x,-y,z
x,-y,-z
-x,y,-z
-x,-y,-z
x,y,-z
-x,y,z
x,-y,z
loop_
_atom_site_type_symbol
_atom_site_label
_atom_site_fract_x
_atom_site_fract_y
_atom_site_fract_z
Si Si1 0.553312 0.500000 0.831247
Si Si2 0.683670 0.692363 0.167423
Si Si3 0.231012 0.801105 0.332655
Si Si4 0.131769 0.815576 0.327124
Si Si5 0.400440 0.190321 0.327813
Si Si6 0.951375 0.306682 0.159832
O O1 0.500000 0.500000 0.822532
O O2 0.569629 0.328954 0.754377
O O3 0.570376 0.500000 0.000000
O O4 0.668102 0.500000 0.178006
O O5 0.734340 0.710593 0.225210
O O6 0.650522 0.802337 0.267505
O O7 0.681439 0.755825 0.000000
O O8 0.241334 0.747409 0.500000
O O9 0.180821 0.739591 0.284868
O O10 0.234501 0.000000 0.316855
O O11 0.128787 0.823687 0.500000
O O12 0.089690 0.712113 0.270726
O O13 0.127728 0.000000 0.258816
O O14 0.400481 0.231779 0.500000
O O15 0.418633 0.000000 0.300458
O O16 0.958467 0.500000 0.138319
O O17 0.000000 0.232532 0.217168
O O18 0.940031 0.226541 0.000000
#
# Coordination Sequence:
#
# PCOD8200547 Si02
#       6
#     4   8   8   8   8   8
#     4  11  25  45  69  99 135 173 215 265 318 373
#     4  11  23  37  56  86 122 158 199 248 301 357
#     4   9  19  36  55  76 106 145 187 230 282 345
#     4   9  19  35  53  75 104 136 174 224 278 334
#     4  11  24  42  67  97 129 170 217 264 316 372
#     4   9  19  35  52  71  98 132 170 215 269 331
#
# _framework density 20.385846999999998
#
# number of rings (size 3 to 8) (size 9 to 14) (size 15 to 20)
#    0.000    2.091    0.909    3.545    0.000    9.091 
#    0.000   10.000    0.000    0.000    0.000    0.000 
#    0.000    0.000    0.000    0.000    0.000    0.000 
#
# Total GULP energy -545328.483198 kJ/mol
# GULP energy per Si atom -12393.829164 kJ/mol
# Density = 2.033945 g / cm^3
# Si number density = 20.385847 Si / 1000 Ang^3
#
#
#
# Elastic Constant Matrix: (Units=GPa)
#
#
# Indices 1 2 3 4 5 6 
#
# 1 119.9728 37.8463 58.4685 0.0000 0.0000 0.0000
# 2 37.8463 82.2223 48.7751 0.0000 0.0000 0.0000
# 3 58.4685 48.7751 108.4641 0.0000 0.0000 0.0000
# 4 0.0000 0.0000 0.0000 39.6606 0.0000 0.0000
# 5 0.0000 0.0000 0.0000 0.0000 36.9285 0.0000
# 6 0.0000 0.0000 0.0000 0.0000 0.0000 22.0922
#
#
#
# Elastic Compliance Matrix: (Units=1/GPa)
#
#
# Indices 1 2 3 4 5 6 
#
# 1 0.011595 -0.002222 -0.005251 0.000000 0.000000 0.000000
# 2 -0.002222 0.017013 -0.006453 0.000000 0.000000 0.000000
# 3 -0.005251 -0.006453 0.014952 0.000000 0.000000 0.000000
# 4 0.000000 0.000000 0.000000 0.025214 0.000000 0.000000
# 5 0.000000 0.000000 0.000000 0.000000 0.027079 0.000000
# 6 0.000000 0.000000 0.000000 0.000000 0.000000 0.045265
#
#
# Mechanical properties :
#
#
# Convention : Reuss Voigt Hill
#
# Bulk Modulus (GPa) = 63.66136 66.75991 65.21063
# Shear Modulus (GPa) = 28.70154 30.77420 29.73787
#
# Velocity S-wave (km/s) = 3.75629 3.88955 3.82350
# Velocity P-wave (km/s) = 7.07877 7.27948 7.17982
#
# Compressibility (1/GPa) = 0.01570811
#
# Stress axis : x y z
#
# Youngs Moduli (GPa) = 86.24065 58.77956 66.88028
#
# Poissons Ratio (x) = 0.13062 0.35121
# Poissons Ratio (y) = 0.19164 0.43155
# Poissons Ratio (z) = 0.45288 0.37928
#
# Static dielectric constant tensor:
#      x y z
#    x 3.846750 0.000000 0.000000 
#    y 0.000000 3.629770 0.000000 
#    z 0.000000 0.000000 3.666780 
# 
# 
# High freq. dielectric constant tensor:
#      x y z
#    x 1.807370 0.000000 0.000000 
#    y 0.000000 1.787790 0.000000 
#    z 0.000000 0.000000 1.791700 
# 
# From -- ./inp_files/13645.got.cif
#   From: 2010.03.12/outbox.cif.g09.slc.cpg/sg47_7_cif.got.tgz:13645.got - 2010.04.14 03:12:58.
