data_PCOD8200341
_publ_section_title
;
Structure prediction by ZEFSAII (Michael W. Deem and Ramdas Pophale) SiO2 
 PCOD8200341
Probable space group: P M M M
;
_chemical_formula_sum "Si O2"
_cell_formula_units_Z 52
_cell_length_a 29.817697
_cell_length_b 9.244350
_cell_length_c 12.541828
_cell_angle_alpha 90.000000
_cell_angle_beta 90.000000
_cell_angle_gamma 90.000000
_cell_volume 3457.095029
_symmetry_space_group_name_H-M "P M M M"
_symmetry_group_IT_number 47
_symmetry_cell_setting 'orthorhombic'
loop_
_space_group_symop_operation_xyz
x,y,z
-x,-y,z
x,-y,-z
-x,y,-z
-x,-y,-z
x,y,-z
-x,y,z
x,-y,z
loop_
_atom_site_type_symbol
_atom_site_label
_atom_site_fract_x
_atom_site_fract_y
_atom_site_fract_z
Si Si1 0.551923 0.665224 0.876795
Si Si2 0.133651 0.162726 0.627312
Si Si3 0.695131 0.165648 0.377318
Si Si4 0.402571 0.830809 0.305178
Si Si5 0.950523 0.662514 0.626769
Si Si6 0.780818 0.336748 0.627064
Si Si7 0.553078 0.666913 0.500000
O O1 0.500000 0.696204 0.852780
O O2 0.563463 0.500000 0.845580
O O3 0.581724 0.775956 0.809748
O O4 0.562904 0.693269 0.000000
O O5 0.133482 0.165121 0.500000
O O6 0.087904 0.233041 0.673181
O O7 0.176123 0.251439 0.671912
O O8 0.136761 0.000000 0.670869
O O9 0.684585 0.203819 0.500000
O O10 0.650508 0.198231 0.310783
O O11 0.735251 0.263072 0.330679
O O12 0.710490 0.000000 0.366541
O O13 0.428418 0.743413 0.395360
O O14 0.413330 0.000000 0.319586
O O15 0.948395 0.663010 0.500000
O O16 0.941668 0.500000 0.668452
O O17 0.000000 0.715805 0.664196
O O18 0.781226 0.331917 0.500000
O O19 0.782838 0.500000 0.670105
O O20 0.568382 0.500000 0.500000
O O21 0.500000 0.680692 0.500000
#
# Coordination Sequence:
#
# PCOD8200341 Si02
#       7
#     8   8   8   8   8   8   4
#     4   9  19  36  54  70  90 116 144 173 206 245
#     4   9  15  21  29  41  57  79 106 139 182 228
#     4   9  17  30  42  55  80 107 128 155 197 242
#     4  11  21  33  49  70  92 114 140 174 212 248
#     4   8  13  20  28  37  51  72  99 136 181 225
#     4   9  16  24  35  50  65  86 119 153 183 223
#     4  11  23  35  47  65  91 121 147 169 200 247
#
# _framework density 15.041531000000001
#
# number of rings (size 3 to 8) (size 9 to 14) (size 15 to 20)
#    0.000    2.692    0.769    3.000    0.000    8.308 
#    0.000    2.308    0.000    0.000    0.000    0.000 
#    0.000    0.000    0.000    0.000    0.000    0.000 
#
# Total GULP energy -644700.061360 kJ/mol
# GULP energy per Si atom -12398.078103 kJ/mol
# Density = 1.500730 g / cm^3
# Si number density = 15.041531 Si / 1000 Ang^3
#
#
#
# Elastic Constant Matrix: (Units=GPa)
#
#
# Indices 1 2 3 4 5 6 
#
# 1 125.6789 82.8240 30.7557 0.0000 0.0000 0.0000
# 2 82.8240 125.6565 28.7787 0.0000 0.0000 0.0000
# 3 30.7557 28.7787 33.9591 0.0000 0.0000 0.0000
# 4 0.0000 0.0000 0.0000 15.3097 0.0000 0.0000
# 5 0.0000 0.0000 0.0000 0.0000 4.8572 0.0000
# 6 0.0000 0.0000 0.0000 0.0000 0.0000 33.3439
#
#
#
# Elastic Compliance Matrix: (Units=1/GPa)
#
#
# Indices 1 2 3 4 5 6 
#
# 1 0.015149 -0.008491 -0.006524 0.000000 0.000000 0.000000
# 2 -0.008491 0.014634 -0.004712 0.000000 0.000000 0.000000
# 3 -0.006524 -0.004712 0.039349 0.000000 0.000000 0.000000
# 4 0.000000 0.000000 0.000000 0.065318 0.000000 0.000000
# 5 0.000000 0.000000 0.000000 0.000000 0.205878 0.000000
# 6 0.000000 0.000000 0.000000 0.000000 0.000000 0.029990
#
#
# Mechanical properties :
#
#
# Convention : Reuss Voigt Hill
#
# Bulk Modulus (GPa) = 33.69481 63.33458 48.51470
# Shear Modulus (GPa) = 11.91426 20.23125 16.07276
#
# Velocity S-wave (km/s) = 2.81746 3.67144 3.27243
# Velocity P-wave (km/s) = 5.74752 7.75696 6.82658
#
# Compressibility (1/GPa) = 0.02967816
#
# Stress axis : x y z
#
# Youngs Moduli (GPa) = 66.01080 68.33448 25.41369
#
# Poissons Ratio (x) = 0.58022 0.16581
# Poissons Ratio (y) = 0.56049 0.11974
# Poissons Ratio (z) = 0.43068 0.32196
#
# Static dielectric constant tensor:
#      x y z
#    x 3.096550 0.000000 0.000000 
#    y 0.000000 3.075690 0.000000 
#    z 0.000000 0.000000 2.322000 
# 
# 
# High freq. dielectric constant tensor:
#      x y z
#    x 1.588080 0.000000 0.000000 
#    y 0.000000 1.590110 0.000000 
#    z 0.000000 0.000000 1.494780 
# 
# From -- ./inp_files/15443.got.cif
#   From: 2010.03.12/outbox.cif.g09.slc.cpg/sg47_8_cif.got.tgz:15443.got - 2010.04.14 03:12:58.
