data_PCOD8200499
_publ_section_title
;
Structure prediction by ZEFSAII (Michael W. Deem and Ramdas Pophale) SiO2 
 PCOD8200499
Probable space group: P M M M
;
_chemical_formula_sum "Si O2"
_cell_formula_units_Z 52
_cell_length_a 13.395273
_cell_length_b 8.712981
_cell_length_c 22.917392
_cell_angle_alpha 90.000000
_cell_angle_beta 90.000000
_cell_angle_gamma 90.000000
_cell_volume 2674.752053
_symmetry_space_group_name_H-M "P M M M"
_symmetry_group_IT_number 47
_symmetry_cell_setting 'orthorhombic'
loop_
_space_group_symop_operation_xyz
x,y,z
-x,-y,z
x,-y,-z
-x,y,-z
-x,-y,-z
x,y,-z
-x,y,z
x,-y,z
loop_
_atom_site_type_symbol
_atom_site_label
_atom_site_fract_x
_atom_site_fract_y
_atom_site_fract_z
Si Si1 0.205811 0.319740 0.563577
Si Si2 0.887446 0.321473 0.680516
Si Si3 0.301757 0.681031 0.130631
Si Si4 0.289208 0.178949 0.745264
Si Si5 0.388698 0.322511 0.638102
Si Si6 0.500000 0.682580 0.065978
Si Si7 0.112709 0.181045 0.933303
O O1 0.184965 0.242039 0.500000
O O2 0.197026 0.500000 0.555324
O O3 0.127861 0.265614 0.613331
O O4 0.316427 0.273269 0.585335
O O5 0.856523 0.500000 0.685484
O O6 0.821742 0.222802 0.724485
O O7 0.000000 0.292910 0.699438
O O8 0.297467 0.500000 0.125299
O O9 0.316714 0.728602 0.197149
O O10 0.398671 0.745849 0.096158
O O11 0.196779 0.743426 0.106714
O O12 0.368402 0.222719 0.695553
O O13 0.294235 0.000000 0.758993
O O14 0.500000 0.291327 0.615936
O O15 0.370859 0.500000 0.654859
O O16 0.500000 0.500000 0.068651
O O17 0.500000 0.743737 0.000000
O O18 0.000000 0.231935 0.914229
O O19 0.122468 0.000000 0.926979
O O20 0.131174 0.232058 0.000000
#
# Coordination Sequence:
#
# PCOD8200499 Si02
#       7
#     8   8   8   8   8   4   8
#     4   8  14  26  47  79 112 136 167 216 271 325
#     4   9  18  34  55  78 106 141 180 222 271 326
#     4  11  22  37  59  85 112 145 186 229 276 330
#     4  11  23  37  53  76 106 139 180 226 271 321
#     4   9  18  33  53  75 103 139 177 219 268 319
#     4   9  20  38  59  85 115 145 176 217 270 325
#     4   9  19  37  59  83 114 149 182 221 272 325
#
# _framework density 19.441054999999999
#
# number of rings (size 3 to 8) (size 9 to 14) (size 15 to 20)
#    0.000    2.538    0.000    3.692    1.077    3.077 
#    0.000    5.000    0.000   10.154    0.000    8.615 
#    0.000    0.000    0.000    0.000    0.000    0.000 
#
# Total GULP energy -644591.544324 kJ/mol
# GULP energy per Si atom -12395.991237 kJ/mol
# Density = 1.939681 g / cm^3
# Si number density = 19.441055 Si / 1000 Ang^3
#
#
#
# Elastic Constant Matrix: (Units=GPa)
#
#
# Indices 1 2 3 4 5 6 
#
# 1 92.8490 14.9931 18.8079 0.0000 0.0000 0.0000
# 2 14.9931 27.0102 5.3390 0.0000 0.0000 0.0000
# 3 18.8079 5.3390 100.5969 0.0000 0.0000 0.0000
# 4 0.0000 0.0000 0.0000 14.2163 0.0000 0.0000
# 5 0.0000 0.0000 0.0000 0.0000 24.8913 0.0000
# 6 0.0000 0.0000 0.0000 0.0000 0.0000 18.6919
#
#
#
# Elastic Compliance Matrix: (Units=1/GPa)
#
#
# Indices 1 2 3 4 5 6 
#
# 1 0.012194 -0.006385 -0.001941 0.000000 0.000000 0.000000
# 2 -0.006385 0.040759 -0.000969 0.000000 0.000000 0.000000
# 3 -0.001941 -0.000969 0.010355 0.000000 0.000000 0.000000
# 4 0.000000 0.000000 0.000000 0.070342 0.000000 0.000000
# 5 0.000000 0.000000 0.000000 0.000000 0.040175 0.000000
# 6 0.000000 0.000000 0.000000 0.000000 0.000000 0.053499
#
#
# Mechanical properties :
#
#
# Convention : Reuss Voigt Hill
#
# Bulk Modulus (GPa) = 22.36283 33.19290 27.77787
# Shear Modulus (GPa) = 19.17021 23.64765 21.40893
#
# Velocity S-wave (km/s) = 3.14358 3.49144 3.32207
# Velocity P-wave (km/s) = 4.97031 5.77618 5.38833
#
# Compressibility (1/GPa) = 0.04471707
#
# Stress axis : x y z
#
# Youngs Moduli (GPa) = 82.00453 24.53435 96.57155
#
# Poissons Ratio (x) = 0.15666 0.18745
# Poissons Ratio (y) = 0.52363 0.09362
# Poissons Ratio (z) = 0.15917 0.02378
#
# Static dielectric constant tensor:
#      x y z
#    x 3.790850 0.000000 0.000000 
#    y 0.000000 3.198120 0.000000 
#    z 0.000000 0.000000 3.616490 
# 
# 
# High freq. dielectric constant tensor:
#      x y z
#    x 1.766740 0.000000 0.000000 
#    y 0.000000 1.721980 0.000000 
#    z 0.000000 0.000000 1.759110 
# 
# From -- ./inp_files/30857.got.cif
#   From: 2010.03.12/outbox.cif.g09.slc.cpg/sg47_16_cif.got.tgz:30857.got - 2010.04.14 03:12:58.
