data_PCOD8200298
_publ_section_title
;
Structure prediction by ZEFSAII (Michael W. Deem and Ramdas Pophale) SiO2 
 PCOD8200298
Probable space group: P M M M
;
_chemical_formula_sum "Si O2"
_cell_formula_units_Z 36
_cell_length_a 15.339613
_cell_length_b 14.359700
_cell_length_c 9.074251
_cell_angle_alpha 90.000000
_cell_angle_beta 90.000000
_cell_angle_gamma 90.000000
_cell_volume 1998.805601
_symmetry_space_group_name_H-M "P M M M"
_symmetry_group_IT_number 47
_symmetry_cell_setting 'orthorhombic'
loop_
_space_group_symop_operation_xyz
x,y,z
-x,-y,z
x,-y,-z
-x,y,-z
-x,-y,-z
x,y,-z
-x,y,z
x,-y,z
loop_
_atom_site_type_symbol
_atom_site_label
_atom_site_fract_x
_atom_site_fract_y
_atom_site_fract_z
Si Si1 0.188490 0.107764 0.325283
Si Si2 0.742190 0.275690 0.174416
Si Si3 0.399099 0.392992 0.331132
Si Si4 0.000000 0.893432 0.327065
Si Si5 0.903758 0.604913 0.175059
O O1 0.197588 0.119050 0.500000
O O2 0.258960 0.172022 0.243467
O O3 0.092685 0.145610 0.268177
O O4 0.203548 0.000000 0.281026
O O5 0.655240 0.327971 0.222981
O O6 0.826826 0.330433 0.237844
O O7 0.743316 0.267887 0.000000
O O8 0.373062 0.373124 0.500000
O O9 0.500000 0.369771 0.305309
O O10 0.379852 0.500000 0.290915
O O11 0.000000 0.881882 0.500000
O O12 0.000000 0.000000 0.282331
O O13 0.889128 0.500000 0.234416
O O14 0.000000 0.640918 0.226780
O O15 0.899767 0.604299 0.000000
#
# Coordination Sequence:
#
# PCOD8200298 Si02
#       5
#     8   8   8   4   8
#     4   9  18  33  51  70  97 137 181 221 260 303
#     4  11  21  30  49  79 107 136 170 211 261 311
#     4   9  19  37  59  80 103 133 169 210 256 307
#     4   7  12  26  47  67  88 123 174 223 259 290
#     4   8  15  28  43  62  96 139 173 198 233 291
#
# _framework density 18.010756000000001
#
# number of rings (size 3 to 8) (size 9 to 14) (size 15 to 20)
#    0.000    3.000    0.000    4.000    1.556    2.222 
#    0.000    1.111    0.000    2.667    0.000    9.333 
#    0.000    0.000    0.000    0.000    0.000    0.000 
#
# Total GULP energy -446076.097313 kJ/mol
# GULP energy per Si atom -12391.002703 kJ/mol
# Density = 1.796976 g / cm^3
# Si number density = 18.010756 Si / 1000 Ang^3
#
#
#
# Elastic Constant Matrix: (Units=GPa)
#
#
# Indices 1 2 3 4 5 6 
#
# 1 84.8547 58.2779 35.2724 0.0000 0.0000 0.0000
# 2 58.2779 97.6596 42.5605 0.0000 0.0000 0.0000
# 3 35.2724 42.5605 50.1474 0.0000 0.0000 0.0000
# 4 0.0000 0.0000 0.0000 21.8011 0.0000 0.0000
# 5 0.0000 0.0000 0.0000 0.0000 23.4433 0.0000
# 6 0.0000 0.0000 0.0000 0.0000 0.0000 27.0296
#
#
#
# Elastic Compliance Matrix: (Units=1/GPa)
#
#
# Indices 1 2 3 4 5 6 
#
# 1 0.021280 -0.009801 -0.006650 0.000000 0.000000 0.000000
# 2 -0.009801 0.020764 -0.010729 0.000000 0.000000 0.000000
# 3 -0.006650 -0.010729 0.033724 0.000000 0.000000 0.000000
# 4 0.000000 0.000000 0.000000 0.045869 0.000000 0.000000
# 5 0.000000 0.000000 0.000000 0.000000 0.042656 0.000000
# 6 0.000000 0.000000 0.000000 0.000000 0.000000 0.036996
#
#
# Mechanical properties :
#
#
# Convention : Reuss Voigt Hill
#
# Bulk Modulus (GPa) = 46.70893 56.09816 51.40355
# Shear Modulus (GPa) = 19.02689 20.89153 19.95921
#
# Velocity S-wave (km/s) = 3.25378 3.40949 3.33255
# Velocity P-wave (km/s) = 6.33296 6.83478 6.58865
#
# Compressibility (1/GPa) = 0.02140918
#
# Stress axis : x y z
#
# Youngs Moduli (GPa) = 46.99188 48.16042 29.65221
#
# Poissons Ratio (x) = 0.47201 0.19719
# Poissons Ratio (y) = 0.46056 0.31813
# Poissons Ratio (z) = 0.31250 0.51671
#
# Static dielectric constant tensor:
#      x y z
#    x 3.357900 0.000000 0.000000 
#    y 0.000000 3.278830 0.000000 
#    z 0.000000 0.000000 2.902400 
# 
# 
# High freq. dielectric constant tensor:
#      x y z
#    x 1.687110 0.000000 0.000000 
#    y 0.000000 1.693110 0.000000 
#    z 0.000000 0.000000 1.665850 
# 
# From -- ./inp_files/5526.got.cif
#   From: 2010.03.12/outbox.cif.g09.slc.cpg/sg47_3_cif.got.tgz:5526.got - 2010.04.14 03:12:58.
