data_PCOD8200652
_publ_section_title
;
Structure prediction by ZEFSAII (Michael W. Deem and Ramdas Pophale) SiO2 
 PCOD8200652
Probable space group: P M M M
;
_chemical_formula_sum "Si O2"
_cell_formula_units_Z 40
_cell_length_a 9.340360
_cell_length_b 29.341644
_cell_length_c 7.503745
_cell_angle_alpha 90.000000
_cell_angle_beta 90.000000
_cell_angle_gamma 90.000000
_cell_volume 2056.487745
_symmetry_space_group_name_H-M "P M M M"
_symmetry_group_IT_number 47
_symmetry_cell_setting 'orthorhombic'
loop_
_space_group_symop_operation_xyz
x,y,z
-x,-y,z
x,-y,-z
-x,y,-z
-x,-y,-z
x,y,-z
-x,y,z
x,-y,z
loop_
_atom_site_type_symbol
_atom_site_label
_atom_site_fract_x
_atom_site_fract_y
_atom_site_fract_z
Si Si1 0.167839 0.393638 0.293984
Si Si2 0.660176 0.791875 0.288195
Si Si3 0.158471 0.708544 0.288560
Si Si4 0.335242 0.553791 0.000000
Si Si5 0.167530 0.880043 0.704385
Si Si6 0.169273 0.949500 0.000000
O O1 0.206856 0.402062 0.500000
O O2 0.208870 0.342150 0.234807
O O3 0.000000 0.402161 0.261063
O O4 0.259689 0.428045 0.177499
O O5 0.658215 0.789564 0.500000
O O6 0.500000 0.795132 0.210730
O O7 0.733383 0.746195 0.209579
O O8 0.748932 0.835779 0.225581
O O9 0.151772 0.711980 0.500000
O O10 0.000000 0.718109 0.211119
O O11 0.320022 0.500000 0.000000
O O12 0.500000 0.569314 0.000000
O O13 0.204887 0.891688 0.500000
O O14 0.218602 0.922774 0.822679
O O15 0.000000 0.869801 0.729006
O O16 0.000000 0.954084 0.000000
O O17 0.239128 0.000000 0.000000
#
# Coordination Sequence:
#
# PCOD8200652 Si02
#       6
#     8   8   8   4   8   4
#     4   9  19  37  61  86 110 141 183 228 272 320
#     4   9  16  26  44  72 104 136 168 201 239 289
#     4   8  14  27  49  77 107 136 168 208 254 304
#     4  11  25  41  56  79 112 147 182 225 278 331
#     4   9  17  30  49  71  96 128 162 197 242 293
#     4   9  18  32  50  73  96 117 154 209 256 295
#
# _framework density 19.450638000000001
#
# number of rings (size 3 to 8) (size 9 to 14) (size 15 to 20)
#    0.000    3.000    0.000    2.100    0.000    5.200 
#    0.000    7.500    0.000    3.600    0.000    2.800 
#    0.000    0.000    0.000    0.000    0.000    0.000 
#
# Total GULP energy -495891.764724 kJ/mol
# GULP energy per Si atom -12397.294118 kJ/mol
# Density = 1.940637 g / cm^3
# Si number density = 19.450638 Si / 1000 Ang^3
#
#
#
# Elastic Constant Matrix: (Units=GPa)
#
#
# Indices 1 2 3 4 5 6 
#
# 1 99.8212 74.2011 41.6585 0.0000 0.0000 0.0000
# 2 74.2011 146.8304 55.8227 0.0000 0.0000 0.0000
# 3 41.6585 55.8227 83.0536 0.0000 0.0000 0.0000
# 4 0.0000 0.0000 0.0000 -325.4683 0.0000 0.0000
# 5 0.0000 0.0000 0.0000 0.0000 12.0308 0.0000
# 6 0.0000 0.0000 0.0000 0.0000 0.0000 11.0685
#
#
#
# Elastic Compliance Matrix: (Units=1/GPa)
#
#
# Indices 1 2 3 4 5 6 
#
# 1 0.016835 -0.007116 -0.003662 0.000000 0.000000 0.000000
# 2 -0.007116 0.012156 -0.004601 0.000000 0.000000 0.000000
# 3 -0.003662 -0.004601 0.016970 0.000000 0.000000 0.000000
# 4 0.000000 0.000000 0.000000 -0.003072 0.000000 0.000000
# 5 0.000000 0.000000 0.000000 0.000000 0.083120 0.000000
# 6 0.000000 0.000000 0.000000 0.000000 0.000000 0.090346
#
#
# Mechanical properties :
#
#
# Convention : Reuss Voigt Hill
#
# Bulk Modulus (GPa) = 65.77333 74.78555 70.27944
# Shear Modulus (GPa) = 19.82716 -49.93893 -15.05589
#
# Velocity S-wave (km/s) = 3.19620 -5.07252 -2.78520
# Velocity P-wave (km/s) = 6.89274 2.05551 5.08601
#
# Compressibility (1/GPa) = 0.01520373
#
# Stress axis : x y z
#
# Youngs Moduli (GPa) = 59.39838 82.26524 58.92873
#
# Poissons Ratio (x) = 0.58538 0.21578
# Poissons Ratio (y) = 0.42266 0.27114
# Poissons Ratio (z) = 0.21750 0.37851
#
# Static dielectric constant tensor:
#      x y z
#    x 3.570490 0.000000 0.000000 
#    y 0.000000 3.710270 0.000000 
#    z 0.000000 0.000000 3.325410 
# 
# 
# High freq. dielectric constant tensor:
#      x y z
#    x 1.738320 0.000000 0.000000 
#    y 0.000000 1.756700 0.000000 
#    z 0.000000 0.000000 1.747410 
# 
# From -- ./inp_files/1867.got.cif
#   From: 2010.03.12/outbox.cif.g09.slc.cpg/sg47_1_cif.got.tgz:1867.got - 2010.04.14 03:12:58.
