data_PCOD8200798
_publ_section_title
;
Structure prediction by ZEFSAII (Michael W. Deem and Ramdas Pophale) SiO2 
 PCOD8200798
Probable space group: P M M M
;
_chemical_formula_sum "Si O2"
_cell_formula_units_Z 40
_cell_length_a 10.000904
_cell_length_b 9.708981
_cell_length_c 25.699692
_cell_angle_alpha 90.000000
_cell_angle_beta 90.000000
_cell_angle_gamma 90.000000
_cell_volume 2495.403777
_symmetry_space_group_name_H-M "P M M M"
_symmetry_group_IT_number 47
_symmetry_cell_setting 'orthorhombic'
loop_
_space_group_symop_operation_xyz
x,y,z
-x,-y,z
x,-y,-z
-x,y,-z
-x,-y,-z
x,y,-z
-x,y,z
x,-y,z
loop_
_atom_site_type_symbol
_atom_site_label
_atom_site_fract_x
_atom_site_fract_y
_atom_site_fract_z
Si Si1 0.155208 0.838618 0.151580
Si Si2 0.158673 0.345834 0.942515
Si Si3 0.350292 0.163885 0.643229
Si Si4 0.149717 0.163935 0.442129
Si Si5 0.350435 0.163560 0.758975
O O1 0.210853 0.761555 0.100389
O O2 0.241379 0.781349 0.200050
O O3 0.000000 0.804970 0.162852
O O4 0.177340 0.000000 0.142277
O O5 0.208319 0.500000 0.928509
O O6 0.000000 0.342489 0.943418
O O7 0.212471 0.303631 0.000000
O O8 0.500000 0.212681 0.629181
O O9 0.249478 0.228499 0.600743
O O10 0.311525 0.216548 0.701135
O O11 0.342497 0.000000 0.641875
O O12 0.192762 0.213085 0.500000
O O13 0.000000 0.215815 0.429586
O O14 0.153954 0.000000 0.439848
O O15 0.500000 0.215363 0.773782
O O16 0.348881 0.000000 0.758966
#
# Coordination Sequence:
#
# PCOD8200798 Si02
#       5
#     8   8   8   8   8
#     4   9  16  24  37  59  79  93 119 159 191 215
#     4   8  14  25  40  57  78 103 126 148 181 225
#     4   8  13  20  29  40  54  77 111 145 175 212
#     4   8  13  19  25  35  53  77 106 142 183 220
#     4   8  14  24  35  47  67  94 119 145 184 230
#
# _framework density 16.02947
#
# number of rings (size 3 to 8) (size 9 to 14) (size 15 to 20)
#    0.000    3.800    0.000    2.400    0.000    1.600 
#    0.000    8.000    0.000    1.200    0.000    4.200 
#    0.000    0.000    0.000    0.000    0.000    1.000 
#
# Total GULP energy -495584.553133 kJ/mol
# GULP energy per Si atom -12389.613828 kJ/mol
# Density = 1.599299 g / cm^3
# Si number density = 16.029470 Si / 1000 Ang^3
#
#
#
# Elastic Constant Matrix: (Units=GPa)
#
#
# Indices 1 2 3 4 5 6 
#
# 1 84.2564 19.9319 89.0063 0.0000 0.0000 0.0000
# 2 19.9319 19.8853 33.1713 0.0000 0.0000 0.0000
# 3 89.0063 33.1713 167.0279 0.0000 0.0000 0.0000
# 4 0.0000 0.0000 0.0000 1.4839 0.0000 0.0000
# 5 0.0000 0.0000 0.0000 0.0000 18.2956 0.0000
# 6 0.0000 0.0000 0.0000 0.0000 0.0000 4.0329
#
#
#
# Elastic Compliance Matrix: (Units=1/GPa)
#
#
# Indices 1 2 3 4 5 6 
#
# 1 0.027439 -0.004654 -0.013698 0.000000 0.000000 0.000000
# 2 -0.004654 0.075991 -0.012611 0.000000 0.000000 0.000000
# 3 -0.013698 -0.012611 0.015791 0.000000 0.000000 0.000000
# 4 0.000000 0.000000 0.000000 0.673881 0.000000 0.000000
# 5 0.000000 0.000000 0.000000 0.000000 0.054658 0.000000
# 6 0.000000 0.000000 0.000000 0.000000 0.000000 0.247963
#
#
# Mechanical properties :
#
#
# Convention : Reuss Voigt Hill
#
# Bulk Modulus (GPa) = 17.45360 61.70985 39.58172
# Shear Modulus (GPa) = 4.24900 13.36648 8.80774
#
# Velocity S-wave (km/s) = 1.62988 2.89081 2.34662
# Velocity P-wave (km/s) = 3.80185 7.05150 5.66471
#
# Compressibility (1/GPa) = 0.05729477
#
# Stress axis : x y z
#
# Youngs Moduli (GPa) = 36.44385 13.15939 63.32766
#
# Poissons Ratio (x) = 0.06125 0.86744
# Poissons Ratio (y) = 0.16962 0.79865
# Poissons Ratio (z) = 0.49920 0.16596
#
# Static dielectric constant tensor:
#      x y z
#    x 3.080140 0.000000 0.000000 
#    y 0.000000 2.484560 0.000000 
#    z 0.000000 0.000000 3.543730 
# 
# 
# High freq. dielectric constant tensor:
#      x y z
#    x 1.598430 0.000000 0.000000 
#    y 0.000000 1.544610 0.000000 
#    z 0.000000 0.000000 1.629940 
# 
# From -- ./inp_files/1647.got.cif
#   From: 2010.03.12/outbox.cif.g09.slc.cpg/sg47_1_cif.got.tgz:1647.got - 2010.04.14 03:12:58.
