data_PCOD8200657
_publ_section_title
;
Structure prediction by ZEFSAII (Michael W. Deem and Ramdas Pophale) SiO2 
 PCOD8200657
Probable space group: P M M M
;
_chemical_formula_sum "Si O2"
_cell_formula_units_Z 44
_cell_length_a 7.727668
_cell_length_b 30.298786
_cell_length_c 9.366726
_cell_angle_alpha 90.000000
_cell_angle_beta 90.000000
_cell_angle_gamma 90.000000
_cell_volume 2193.115475
_symmetry_space_group_name_H-M "P M M M"
_symmetry_group_IT_number 47
_symmetry_cell_setting 'orthorhombic'
loop_
_space_group_symop_operation_xyz
x,y,z
-x,-y,z
x,-y,-z
-x,y,-z
-x,-y,-z
x,y,-z
-x,y,z
x,-y,z
loop_
_atom_site_type_symbol
_atom_site_label
_atom_site_fract_x
_atom_site_fract_y
_atom_site_fract_z
Si Si1 0.203289 0.452876 0.335734
Si Si2 0.000000 0.052173 0.836012
Si Si3 0.698642 0.640161 0.341336
Si Si4 0.704537 0.801255 0.657372
Si Si5 0.700363 0.900693 0.331790
Si Si6 0.293025 0.720546 0.840440
O O1 0.260546 0.453296 0.500000
O O2 0.268234 0.500000 0.267467
O O3 0.281942 0.408313 0.266648
O O4 0.000000 0.450146 0.318786
O O5 0.174268 0.068220 0.758279
O O6 0.000000 0.000000 0.827974
O O7 0.000000 0.068605 0.000000
O O8 0.785640 0.640539 0.500000
O O9 0.500000 0.652140 0.357987
O O10 0.783165 0.677828 0.242516
O O11 0.783197 0.792401 0.500000
O O12 0.500000 0.796883 0.647772
O O13 0.752133 0.850474 0.708608
O O14 0.779451 0.764923 0.765912
O O15 0.728468 0.908870 0.500000
O O16 0.500000 0.910439 0.291177
O O17 0.500000 0.720160 0.842594
O O18 0.218310 0.719319 0.000000
#
# Coordination Sequence:
#
# PCOD8200657 Si02
#       6
#     8   4   8   8   8   8
#     4   8  14  25  41  60  81 106 139 182 231 281
#     4  11  25  41  57  83 121 161 195 233 284 339
#     4   9  16  25  40  63  88 113 144 186 232 277
#     4   8  14  27  49  76 103 130 165 210 256 304
#     4   9  19  37  62  89 114 146 192 243 290 336
#     4   9  16  25  40  65  96 128 159 190 232 291
#
# _framework density 20.062783
#
# number of rings (size 3 to 8) (size 9 to 14) (size 15 to 20)
#    0.000    3.182    0.000    2.455    0.000    4.727 
#    0.000    5.455    2.000    1.091    0.000    3.818 
#    0.000    0.000    0.000    0.000    0.000    0.000 
#
# Total GULP energy -545129.081868 kJ/mol
# GULP energy per Si atom -12389.297315 kJ/mol
# Density = 2.001712 g / cm^3
# Si number density = 20.062783 Si / 1000 Ang^3
#
#
#
# Elastic Constant Matrix: (Units=GPa)
#
#
# Indices 1 2 3 4 5 6 
#
# 1 49.6395 34.1696 31.1957 0.0000 0.0000 0.0000
# 2 34.1696 150.7260 76.1897 0.0000 0.0000 0.0000
# 3 31.1957 76.1897 106.5192 0.0000 0.0000 0.0000
# 4 0.0000 0.0000 0.0000 12.5594 0.0000 0.0000
# 5 0.0000 0.0000 0.0000 0.0000 11.3932 0.0000
# 6 0.0000 0.0000 0.0000 0.0000 0.0000 -44.0230
#
#
#
# Elastic Compliance Matrix: (Units=1/GPa)
#
#
# Indices 1 2 3 4 5 6 
#
# 1 0.025613 -0.003156 -0.005244 0.000000 0.000000 0.000000
# 2 -0.003156 0.010781 -0.006787 0.000000 0.000000 0.000000
# 3 -0.005244 -0.006787 0.015778 0.000000 0.000000 0.000000
# 4 0.000000 0.000000 0.000000 0.079622 0.000000 0.000000
# 5 0.000000 0.000000 0.000000 0.000000 0.087772 0.000000
# 6 0.000000 0.000000 0.000000 0.000000 0.000000 -0.022715
#
#
# Mechanical properties :
#
#
# Convention : Reuss Voigt Hill
#
# Bulk Modulus (GPa) = 45.87413 65.55496 55.71455
# Shear Modulus (GPa) = 21.32296 7.00790 14.16543
#
# Velocity S-wave (km/s) = 3.26362 1.87098 2.66005
# Velocity P-wave (km/s) = 6.09233 6.11664 6.10450
#
# Compressibility (1/GPa) = 0.02179878
#
# Stress axis : x y z
#
# Youngs Moduli (GPa) = 39.04262 92.75932 63.37890
#
# Poissons Ratio (x) = 0.29272 0.33236
# Poissons Ratio (y) = 0.12321 0.43014
# Poissons Ratio (z) = 0.20474 0.62954
#
# Static dielectric constant tensor:
#      x y z
#    x 3.193800 0.000000 0.000000 
#    y 0.000000 3.988320 0.000000 
#    z 0.000000 0.000000 3.589070 
# 
# 
# High freq. dielectric constant tensor:
#      x y z
#    x 1.752870 0.000000 0.000000 
#    y 0.000000 1.799500 0.000000 
#    z 0.000000 0.000000 1.744440 
# 
# From -- ./inp_files/2200.got.cif
#   From: 2010.03.12/outbox.cif.g09.slc.cpg/sg47_2_cif.got.tgz:2200.got - 2010.04.14 03:12:58.
