data_PCOD8200214
_publ_section_title
;
Structure prediction by ZEFSAII (Michael W. Deem and Ramdas Pophale) SiO2 
 PCOD8200214
Probable space group: P M M M
;
_chemical_formula_sum "Si O2"
_cell_formula_units_Z 56
_cell_length_a 9.196154
_cell_length_b 14.141400
_cell_length_c 31.052657
_cell_angle_alpha 90.000000
_cell_angle_beta 90.000000
_cell_angle_gamma 90.000000
_cell_volume 4038.289116
_symmetry_space_group_name_H-M "P M M M"
_symmetry_group_IT_number 47
_symmetry_cell_setting 'orthorhombic'
loop_
_space_group_symop_operation_xyz
x,y,z
-x,-y,z
x,-y,-z
-x,y,-z
-x,-y,-z
x,y,-z
-x,y,z
x,-y,z
loop_
_atom_site_type_symbol
_atom_site_label
_atom_site_fract_x
_atom_site_fract_y
_atom_site_fract_z
Si Si1 0.327290 0.393934 0.500000
Si Si2 0.164384 0.612699 0.916730
Si Si3 0.167945 0.892407 0.450330
Si Si4 0.170314 0.609273 0.343306
Si Si5 0.336838 0.612831 0.166138
Si Si6 0.160821 0.612176 0.753230
Si Si7 0.335344 0.387278 0.000000
Si Si8 0.327386 0.280229 0.416859
O O1 0.262998 0.500000 0.500000
O O2 0.500000 0.396651 0.500000
O O3 0.270239 0.340481 0.457643
O O4 0.163532 0.500000 0.916946
O O5 0.242088 0.651123 0.873729
O O6 0.000000 0.651819 0.918232
O O7 0.252151 0.651327 0.957948
O O8 0.213133 0.879719 0.500000
O O9 0.267526 0.826020 0.420825
O O10 0.000000 0.865028 0.443837
O O11 0.195659 0.000000 0.435686
O O12 0.210520 0.500000 0.351392
O O13 0.212336 0.640163 0.294695
O O14 0.266748 0.673621 0.373822
O O15 0.000000 0.626164 0.351830
O O16 0.500000 0.652156 0.161626
O O17 0.337005 0.500000 0.166202
O O18 0.270243 0.652614 0.210784
O O19 0.152973 0.500000 0.756357
O O20 0.000000 0.653561 0.762308
O O21 0.336470 0.500000 0.000000
O O22 0.500000 0.348284 0.000000
O O23 0.500000 0.277498 0.414517
#
# Coordination Sequence:
#
# PCOD8200214 Si02
#       8
#     4   8   8   8   8   8   4   8
#     4   9  18  30  40  55  82 110 131 151 178 213
#     4   9  15  21  28  37  50  70  95 122 157 204
#     4   9  18  33  51  67  83 103 126 154 186 220
#     4   9  18  31  44  58  78 104 132 158 184 219
#     4   9  15  21  30  44  59  74  97 131 168 205
#     4   8  14  25  38  49  63  85 112 142 174 207
#     4   9  15  21  27  35  49  67  89 121 161 203
#     4  11  20  30  45  64  85 107 128 155 188 221
#
# _framework density 13.867259000000001
#
# number of rings (size 3 to 8) (size 9 to 14) (size 15 to 20)
#    0.000    2.857    0.714    3.214    0.000    6.000 
#    0.000    2.143    0.000    1.714    0.000    0.000 
#    0.000    0.000    0.000    0.000    0.000    0.000 
#
# Total GULP energy -694250.637105 kJ/mol
# GULP energy per Si atom -12397.332805 kJ/mol
# Density = 1.383570 g / cm^3
# Si number density = 13.867259 Si / 1000 Ang^3
#
#
#
# Elastic Constant Matrix: (Units=GPa)
#
#
# Indices 1 2 3 4 5 6 
#
# 1 100.7753 27.1866 66.3671 0.0000 0.0000 0.0000
# 2 27.1866 40.6394 28.0222 0.0000 0.0000 0.0000
# 3 66.3671 28.0222 119.7458 0.0000 0.0000 0.0000
# 4 0.0000 0.0000 0.0000 1.7643 0.0000 0.0000
# 5 0.0000 0.0000 0.0000 0.0000 25.9184 0.0000
# 6 0.0000 0.0000 0.0000 0.0000 0.0000 12.7572
#
#
#
# Elastic Compliance Matrix: (Units=1/GPa)
#
#
# Indices 1 2 3 4 5 6 
#
# 1 0.016665 -0.005699 -0.007903 0.000000 0.000000 0.000000
# 2 -0.005699 0.031290 -0.004164 0.000000 0.000000 0.000000
# 3 -0.007903 -0.004164 0.013705 0.000000 0.000000 0.000000
# 4 0.000000 0.000000 0.000000 0.566803 0.000000 0.000000
# 5 0.000000 0.000000 0.000000 0.000000 0.038583 0.000000
# 6 0.000000 0.000000 0.000000 0.000000 0.000000 0.078387
#
#
# Mechanical properties :
#
#
# Convention : Reuss Voigt Hill
#
# Bulk Modulus (GPa) = 38.27091 56.03469 47.15280
# Shear Modulus (GPa) = 6.33172 17.39361 11.86267
#
# Velocity S-wave (km/s) = 2.13913 3.54544 2.92797
# Velocity P-wave (km/s) = 5.81026 7.56676 6.74592
#
# Compressibility (1/GPa) = 0.02612951
#
# Stress axis : x y z
#
# Youngs Moduli (GPa) = 60.00620 31.95880 72.96485
#
# Poissons Ratio (x) = 0.18214 0.57661
# Poissons Ratio (y) = 0.34199 0.30380
# Poissons Ratio (z) = 0.47420 0.13306
#
# Static dielectric constant tensor:
#      x y z
#    x 2.830300 0.000000 0.000000 
#    y 0.000000 2.226020 0.000000 
#    z 0.000000 0.000000 2.871580 
# 
# 
# High freq. dielectric constant tensor:
#      x y z
#    x 1.538120 0.000000 0.000000 
#    y 0.000000 1.451770 0.000000 
#    z 0.000000 0.000000 1.534260 
# 
# From -- ./inp_files/34392.got.cif
#   From: 2010.03.12/outbox.cif.g09.slc.cpg/sg47_18_cif.got.tgz:34392.got - 2010.04.14 03:12:58.
