data_PCOD8200482
_publ_section_title
;
Structure prediction by ZEFSAII (Michael W. Deem and Ramdas Pophale) SiO2 
 PCOD8200482
Probable space group: P M M M
;
_chemical_formula_sum "Si O2"
_cell_formula_units_Z 36
_cell_length_a 8.959864
_cell_length_b 11.524421
_cell_length_c 21.004710
_cell_angle_alpha 90.000000
_cell_angle_beta 90.000000
_cell_angle_gamma 90.000000
_cell_volume 2168.888483
_symmetry_space_group_name_H-M "P M M M"
_symmetry_group_IT_number 47
_symmetry_cell_setting 'orthorhombic'
loop_
_space_group_symop_operation_xyz
x,y,z
-x,-y,z
x,-y,-z
-x,y,-z
-x,-y,-z
x,y,-z
-x,y,z
x,-y,z
loop_
_atom_site_type_symbol
_atom_site_label
_atom_site_fract_x
_atom_site_fract_y
_atom_site_fract_z
Si Si1 0.321979 0.127860 0.500000
Si Si2 0.332529 0.861365 0.364070
Si Si3 0.324242 0.500000 0.925172
Si Si4 0.330480 0.862940 0.000000
Si Si5 0.175548 0.130487 0.760938
Si Si6 0.177689 0.735538 0.885961
O O1 0.500000 0.117204 0.500000
O O2 0.274338 0.189633 0.567055
O O3 0.249923 0.000000 0.500000
O O4 0.500000 0.818322 0.350749
O O5 0.232954 0.815808 0.305673
O O6 0.326511 0.000000 0.368646
O O7 0.500000 0.500000 0.912497
O O8 0.249782 0.609989 0.892219
O O9 0.287567 0.500000 0.000000
O O10 0.242655 0.821089 0.938501
O O11 0.500000 0.812501 0.000000
O O12 0.333410 0.000000 0.000000
O O13 0.227516 0.213143 0.818039
O O14 0.000000 0.125136 0.757576
O O15 0.239778 0.000000 0.771680
O O16 0.000000 0.727647 0.893574
#
# Coordination Sequence:
#
# PCOD8200482 Si02
#       6
#     4   8   4   4   8   8
#     4   7  10  18  33  55  83 116 157 196 223 257
#     4   8  13  22  38  59  85 121 160 193 226 267
#     4  11  23  39  57  75  96 117 148 199 250 286
#     4  11  23  36  51  74 101 125 153 193 236 277
#     4   9  18  31  45  66  97 127 155 191 232 274
#     4  11  22  36  55  73  93 124 161 195 234 287
#
# _framework density 16.598364
#
# number of rings (size 3 to 8) (size 9 to 14) (size 15 to 20)
#    0.000    2.556    1.111    3.333    0.000    4.000 
#    0.000    2.778    0.000    3.333    0.000    0.000 
#    0.000    0.889    0.000   10.000    0.000    7.111 
#
# Total GULP energy -446108.103197 kJ/mol
# GULP energy per Si atom -12391.891755 kJ/mol
# Density = 1.656059 g / cm^3
# Si number density = 16.598364 Si / 1000 Ang^3
#
#
#
# Elastic Constant Matrix: (Units=GPa)
#
#
# Indices 1 2 3 4 5 6 
#
# 1 51.7252 29.9545 51.4840 0.0000 0.0000 0.0000
# 2 29.9545 66.9226 53.1143 0.0000 0.0000 0.0000
# 3 51.4840 53.1143 184.6214 0.0000 0.0000 0.0000
# 4 0.0000 0.0000 0.0000 -2.0316 0.0000 0.0000
# 5 0.0000 0.0000 0.0000 0.0000 7.1886 0.0000
# 6 0.0000 0.0000 0.0000 0.0000 0.0000 17.4472
#
#
#
# Elastic Compliance Matrix: (Units=1/GPa)
#
#
# Indices 1 2 3 4 5 6 
#
# 1 0.030369 -0.008905 -0.005907 0.000000 0.000000 0.000000
# 2 -0.008905 0.021975 -0.003839 0.000000 0.000000 0.000000
# 3 -0.005907 -0.003839 0.008168 0.000000 0.000000 0.000000
# 4 0.000000 0.000000 0.000000 -0.492213 0.000000 0.000000
# 5 0.000000 0.000000 0.000000 0.000000 0.139109 0.000000
# 6 0.000000 0.000000 0.000000 0.000000 0.000000 0.057316
#
#
# Mechanical properties :
#
#
# Convention : Reuss Voigt Hill
#
# Bulk Modulus (GPa) = 43.08308 63.59720 53.34014
# Shear Modulus (GPa) = -26.28317 15.76858 -5.25730
#
# Velocity S-wave (km/s) = -3.98361 3.08556 -1.78164
# Velocity P-wave (km/s) = 2.20311 7.14792 5.28897
#
# Compressibility (1/GPa) = 0.02321097
#
# Stress axis : x y z
#
# Youngs Moduli (GPa) = 32.92788 45.50554 122.42733
#
# Poissons Ratio (x) = 0.40524 0.72317
# Poissons Ratio (y) = 0.29323 0.46998
# Poissons Ratio (z) = 0.19450 0.17469
#
# Static dielectric constant tensor:
#      x y z
#    x 3.113010 0.000000 0.000000 
#    y 0.000000 2.814100 0.000000 
#    z 0.000000 0.000000 3.611280 
# 
# 
# High freq. dielectric constant tensor:
#      x y z
#    x 1.634480 0.000000 0.000000 
#    y 0.000000 1.586830 0.000000 
#    z 0.000000 0.000000 1.658740 
# 
# From -- ./inp_files/29309.got.cif
#   From: 2010.03.12/outbox.cif.g09.slc.cpg/sg47_15_cif.got.tgz:29309.got - 2010.04.14 03:12:58.
