data_PCOD8200568
_publ_section_title
;
Structure prediction by ZEFSAII (Michael W. Deem and Ramdas Pophale) SiO2 
 PCOD8200568
Probable space group: P M M M
;
_chemical_formula_sum "Si O2"
_cell_formula_units_Z 52
_cell_length_a 9.156254
_cell_length_b 15.420911
_cell_length_c 19.221845
_cell_angle_alpha 90.000000
_cell_angle_beta 90.000000
_cell_angle_gamma 90.000000
_cell_volume 2714.081804
_symmetry_space_group_name_H-M "P M M M"
_symmetry_group_IT_number 47
_symmetry_cell_setting 'orthorhombic'
loop_
_space_group_symop_operation_xyz
x,y,z
-x,-y,z
x,-y,-z
-x,y,-z
-x,-y,-z
x,y,-z
-x,y,z
x,-y,z
loop_
_atom_site_type_symbol
_atom_site_label
_atom_site_fract_x
_atom_site_fract_y
_atom_site_fract_z
Si Si1 0.333540 0.848654 0.578579
Si Si2 0.668935 0.248130 0.215509
Si Si3 0.832628 0.097817 0.708931
Si Si4 0.666325 0.354125 0.579090
Si Si5 0.666968 0.332990 0.922273
Si Si6 0.831405 0.402635 0.709004
Si Si7 0.162303 0.500000 0.082648
O O1 0.281964 0.868531 0.500000
O O2 0.500000 0.879669 0.588699
O O3 0.230134 0.900099 0.630941
O O4 0.320710 0.747472 0.595563
O O5 0.500000 0.243931 0.237894
O O6 0.745894 0.160570 0.239531
O O7 0.687021 0.253627 0.131552
O O8 0.736514 0.334486 0.248237
O O9 0.000000 0.127995 0.706753
O O10 0.817838 0.000000 0.737570
O O11 0.713169 0.373928 0.500000
O O12 0.500000 0.384880 0.591493
O O13 0.775253 0.405063 0.629489
O O14 0.500000 0.363884 0.924754
O O15 0.758187 0.413433 0.891736
O O16 0.718746 0.304484 0.000000
O O17 0.813204 0.500000 0.740244
O O18 0.000000 0.373831 0.710150
O O19 0.000000 0.500000 0.114523
O O20 0.160734 0.500000 0.000000
#
# Coordination Sequence:
#
# PCOD8200568 Si02
#       7
#     8   8   8   8   8   8   4
#     4   9  18  34  57  84 112 144 184 230 280 334
#     4  11  23  39  61  85 111 147 189 232 279 333
#     4  11  24  40  59  85 116 148 183 228 284 342
#     4   9  18  34  56  80 107 143 189 238 284 330
#     4   9  19  36  57  82 113 148 187 231 278 327
#     4  11  24  38  53  79 115 153 191 233 281 332
#     4   9  17  29  49  81 117 151 186 221 262 319
#
# _framework density 19.159334000000001
#
# number of rings (size 3 to 8) (size 9 to 14) (size 15 to 20)
#    0.000    2.077    1.538    2.538    1.077    5.846 
#    0.000    4.615    0.000    0.462    0.000    3.231 
#    0.000    0.000    0.000    0.000    0.000    0.000 
#
# Total GULP energy -644792.759567 kJ/mol
# GULP energy per Si atom -12399.860761 kJ/mol
# Density = 1.911573 g / cm^3
# Si number density = 19.159334 Si / 1000 Ang^3
#
#
#
# Elastic Constant Matrix: (Units=GPa)
#
#
# Indices 1 2 3 4 5 6 
#
# 1 125.2093 56.5303 50.4613 0.0000 0.0000 0.0000
# 2 56.5303 93.3206 46.4065 0.0000 0.0000 0.0000
# 3 50.4613 46.4065 90.2883 0.0000 0.0000 0.0000
# 4 0.0000 0.0000 0.0000 18.4847 0.0000 0.0000
# 5 0.0000 0.0000 0.0000 0.0000 14.3334 0.0000
# 6 0.0000 0.0000 0.0000 0.0000 0.0000 22.9949
#
#
#
# Elastic Compliance Matrix: (Units=1/GPa)
#
#
# Indices 1 2 3 4 5 6 
#
# 1 0.011971 -0.005272 -0.003981 0.000000 0.000000 0.000000
# 2 -0.005272 0.016717 -0.005646 0.000000 0.000000 0.000000
# 3 -0.003981 -0.005646 0.016202 0.000000 0.000000 0.000000
# 4 0.000000 0.000000 0.000000 0.054099 0.000000 0.000000
# 5 0.000000 0.000000 0.000000 0.000000 0.069767 0.000000
# 6 0.000000 0.000000 0.000000 0.000000 0.000000 0.043488
#
#
# Mechanical properties :
#
#
# Convention : Reuss Voigt Hill
#
# Bulk Modulus (GPa) = 66.25519 68.40161 67.32840
# Shear Modulus (GPa) = 20.23697 21.52393 20.88045
#
# Velocity S-wave (km/s) = 3.25352 3.35538 3.30484
# Velocity P-wave (km/s) = 6.98356 7.12674 7.05551
#
# Compressibility (1/GPa) = 0.01509316
#
# Stress axis : x y z
#
# Youngs Moduli (GPa) = 83.53312 59.81973 61.71993
#
# Poissons Ratio (x) = 0.31538 0.24570
# Poissons Ratio (y) = 0.44040 0.34845
# Poissons Ratio (z) = 0.33253 0.33772
#
# Static dielectric constant tensor:
#      x y z
#    x 3.565790 0.000000 0.000000 
#    y 0.000000 3.287580 0.000000 
#    z 0.000000 0.000000 3.617770 
# 
# 
# High freq. dielectric constant tensor:
#      x y z
#    x 1.748100 0.000000 0.000000 
#    y 0.000000 1.723950 0.000000 
#    z 0.000000 0.000000 1.746190 
# 
# From -- ./inp_files/24984.got.cif
#   From: 2010.03.12/outbox.cif.g09.slc.cpg/sg47_13_cif.got.tgz:24984.got - 2010.04.14 03:12:58.
