data_PCOD8200854
_publ_section_title
;
Structure prediction by ZEFSAII (Michael W. Deem and Ramdas Pophale) SiO2 
 PCOD8200854
Probable space group: P M M M
;
_chemical_formula_sum "Si O2"
_cell_formula_units_Z 44
_cell_length_a 12.516666
_cell_length_b 9.315322
_cell_length_c 25.529248
_cell_angle_alpha 90.000000
_cell_angle_beta 90.000000
_cell_angle_gamma 90.000000
_cell_volume 2976.627963
_symmetry_space_group_name_H-M "P M M M"
_symmetry_group_IT_number 47
_symmetry_cell_setting 'orthorhombic'
loop_
_space_group_symop_operation_xyz
x,y,z
-x,-y,z
x,-y,-z
-x,y,-z
-x,-y,-z
x,y,-z
-x,y,z
x,-y,z
loop_
_atom_site_type_symbol
_atom_site_label
_atom_site_fract_x
_atom_site_fract_y
_atom_site_fract_z
Si Si1 0.627024 0.161196 0.942079
Si Si2 0.377682 0.666088 0.644400
Si Si3 0.627111 0.162132 0.745280
Si Si4 0.795638 0.666244 0.559965
Si Si5 0.627583 0.661830 0.155509
Si Si6 0.000000 0.162147 0.562285
O O1 0.500000 0.161738 0.939904
O O2 0.672934 0.267936 0.897994
O O3 0.668389 0.000000 0.930656
O O4 0.665240 0.211556 0.000000
O O5 0.500000 0.704884 0.631009
O O6 0.366694 0.500000 0.660457
O O7 0.333548 0.759448 0.692673
O O8 0.309294 0.703867 0.593195
O O9 0.500000 0.162341 0.747121
O O10 0.672254 0.247511 0.795450
O O11 0.671867 0.000000 0.746234
O O12 0.769739 0.707367 0.500000
O O13 0.827221 0.500000 0.564856
O O14 0.894397 0.757372 0.582818
O O15 0.500000 0.662630 0.155609
O O16 0.671446 0.500000 0.159389
O O17 0.000000 0.166934 0.500000
O O18 0.000000 0.000000 0.583803
#
# Coordination Sequence:
#
# PCOD8200854 Si02
#       6
#     8   8   8   8   8   4
#     4   8  13  20  28  38  54  76 102 135 177 222
#     4   9  17  28  41  58  80 103 127 157 192 230
#     4   9  16  25  36  48  64  89 120 151 183 221
#     4   9  17  29  45  63  82 104 128 155 190 232
#     4   9  15  21  30  43  58  78 107 144 183 220
#     4   9  17  29  45  63  81 101 127 159 190 221
#
# _framework density 14.781826000000001
#
# number of rings (size 3 to 8) (size 9 to 14) (size 15 to 20)
#    0.000    3.182    0.000    1.909    0.000    6.909 
#    0.000    3.636    0.000    0.000    0.000    5.091 
#    0.000    0.000    0.000    0.000    0.000    0.000 
#
# Total GULP energy -545432.517999 kJ/mol
# GULP energy per Si atom -12396.193591 kJ/mol
# Density = 1.474818 g / cm^3
# Si number density = 14.781826 Si / 1000 Ang^3
#
#
#
# Elastic Constant Matrix: (Units=GPa)
#
#
# Indices 1 2 3 4 5 6 
#
# 1 39.2868 30.4059 34.1537 0.0000 0.0000 0.0000
# 2 30.4059 107.7472 68.1610 0.0000 0.0000 0.0000
# 3 34.1537 68.1610 114.2171 0.0000 0.0000 0.0000
# 4 0.0000 0.0000 0.0000 27.7050 0.0000 0.0000
# 5 0.0000 0.0000 0.0000 0.0000 0.9641 0.0000
# 6 0.0000 0.0000 0.0000 0.0000 0.0000 9.6296
#
#
#
# Elastic Compliance Matrix: (Units=1/GPa)
#
#
# Indices 1 2 3 4 5 6 
#
# 1 0.036264 -0.005420 -0.007609 0.000000 0.000000 0.000000
# 2 -0.005420 0.015720 -0.007760 0.000000 0.000000 0.000000
# 3 -0.007609 -0.007760 0.015662 0.000000 0.000000 0.000000
# 4 0.000000 0.000000 0.000000 0.036095 0.000000 0.000000
# 5 0.000000 0.000000 0.000000 0.000000 1.037289 0.000000
# 6 0.000000 0.000000 0.000000 0.000000 0.000000 0.103847
#
#
# Mechanical properties :
#
#
# Convention : Reuss Voigt Hill
#
# Bulk Modulus (GPa) = 38.36407 58.52136 48.44271
# Shear Modulus (GPa) = 3.86058 16.22843 10.04451
#
# Velocity S-wave (km/s) = 1.61783 3.31700 2.60958
# Velocity P-wave (km/s) = 5.43136 7.37197 6.47479
#
# Compressibility (1/GPa) = 0.02606606
#
# Stress axis : x y z
#
# Youngs Moduli (GPa) = 27.57589 63.61496 63.84988
#
# Poissons Ratio (x) = 0.34478 0.48586
# Poissons Ratio (y) = 0.14945 0.49549
# Poissons Ratio (z) = 0.20984 0.49367
#
# Static dielectric constant tensor:
#      x y z
#    x 2.316680 0.000000 0.000000 
#    y 0.000000 3.057440 0.000000 
#    z 0.000000 0.000000 2.994090 
# 
# 
# High freq. dielectric constant tensor:
#      x y z
#    x 1.486540 0.000000 0.000000 
#    y 0.000000 1.576610 0.000000 
#    z 0.000000 0.000000 1.568130 
# 
# From -- ./inp_files/4427.got.cif
#   From: 2010.03.12/outbox.cif.g09.slc.cpg/sg47_3_cif.got.tgz:4427.got - 2010.04.14 03:12:58.
