data_PCOD8200849
_publ_section_title
;
Structure prediction by ZEFSAII (Michael W. Deem and Ramdas Pophale) SiO2 
 PCOD8200849
Probable space group: P M M M
;
_chemical_formula_sum "Si O2"
_cell_formula_units_Z 40
_cell_length_a 9.453142
_cell_length_b 27.794587
_cell_length_c 7.567359
_cell_angle_alpha 90.000000
_cell_angle_beta 90.000000
_cell_angle_gamma 90.000000
_cell_volume 1988.294653
_symmetry_space_group_name_H-M "P M M M"
_symmetry_group_IT_number 47
_symmetry_cell_setting 'orthorhombic'
loop_
_space_group_symop_operation_xyz
x,y,z
-x,-y,z
x,-y,-z
-x,y,-z
-x,-y,-z
x,y,-z
-x,y,z
x,-y,z
loop_
_atom_site_type_symbol
_atom_site_label
_atom_site_fract_x
_atom_site_fract_y
_atom_site_fract_z
Si Si1 0.665248 0.125981 0.703265
Si Si2 0.667010 0.946740 0.000000
Si Si3 0.158824 0.218410 0.709824
Si Si4 0.841140 0.500000 0.711146
Si Si5 0.341235 0.694265 0.289833
Si Si6 0.341553 0.412266 0.709956
O O1 0.698505 0.112837 0.500000
O O2 0.500000 0.137923 0.729605
O O3 0.752895 0.171957 0.769409
O O4 0.714774 0.081245 0.823156
O O5 0.500000 0.951818 0.000000
O O6 0.736533 0.000000 0.000000
O O7 0.155318 0.221371 0.500000
O O8 0.234490 0.265974 0.788835
O O9 0.000000 0.215273 0.786809
O O10 0.838980 0.500000 0.500000
O O11 0.763580 0.547470 0.787026
O O12 0.000000 0.500000 0.784632
O O13 0.340706 0.696774 0.500000
O O14 0.500000 0.704901 0.221056
O O15 0.292807 0.640969 0.226899
O O16 0.340851 0.414324 0.500000
O O17 0.500000 0.422889 0.779070
#
# Coordination Sequence:
#
# PCOD8200849 Si02
#       6
#     8   4   8   4   8   8
#     4   9  17  30  49  71  96 127 159 193 236 283
#     4   9  18  32  51  77 103 125 159 204 239 272
#     4   9  16  25  39  60  85 112 143 182 227 276
#     4   9  15  19  23  33  51  79 119 168 219 270
#     4   8  13  21  33  49  69  95 131 176 225 277
#     4   8  13  20  28  37  53  82 121 166 216 270
#
# _framework density 20.117740999999999
#
# number of rings (size 3 to 8) (size 9 to 14) (size 15 to 20)
#    0.000    3.400    0.000    2.100    0.000    4.800 
#    0.000    6.500    0.000    1.200    0.000    2.800 
#    0.000    0.000    0.000    0.000    0.000    1.000 
#
# Total GULP energy -495754.577194 kJ/mol
# GULP energy per Si atom -12393.864430 kJ/mol
# Density = 2.007195 g / cm^3
# Si number density = 20.117741 Si / 1000 Ang^3
#
#
#
# Elastic Constant Matrix: (Units=GPa)
#
#
# Indices 1 2 3 4 5 6 
#
# 1 124.9515 103.5994 19.3838 0.0000 0.0000 0.0000
# 2 103.5994 216.5500 37.0677 0.0000 0.0000 0.0000
# 3 19.3838 37.0677 44.9941 0.0000 0.0000 0.0000
# 4 0.0000 0.0000 0.0000 -16.1527 0.0000 0.0000
# 5 0.0000 0.0000 0.0000 0.0000 -0.9677 0.0000
# 6 0.0000 0.0000 0.0000 0.0000 0.0000 12.5464
#
#
#
# Elastic Compliance Matrix: (Units=1/GPa)
#
#
# Indices 1 2 3 4 5 6 
#
# 1 0.013277 -0.006255 -0.000567 0.000000 0.000000 0.000000
# 2 -0.006255 0.008323 -0.004162 0.000000 0.000000 0.000000
# 3 -0.000567 -0.004162 0.025898 0.000000 0.000000 0.000000
# 4 0.000000 0.000000 0.000000 -0.061909 0.000000 0.000000
# 5 0.000000 0.000000 0.000000 0.000000 -1.033373 0.000000
# 6 0.000000 0.000000 0.000000 0.000000 0.000000 0.079704
#
#
# Mechanical properties :
#
#
# Convention : Reuss Voigt Hill
#
# Bulk Modulus (GPa) = 39.16878 78.51083 58.83980
# Shear Modulus (GPa) = -5.33275 14.18151 4.42438
#
# Velocity S-wave (km/s) = -1.62988 2.65792 1.48459
# Velocity P-wave (km/s) = 3.99625 6.96633 5.67890
#
# Compressibility (1/GPa) = 0.02553054
#
# Stress axis : x y z
#
# Youngs Moduli (GPa) = 75.31812 120.15435 38.61299
#
# Poissons Ratio (x) = 0.75154 0.02189
# Poissons Ratio (y) = 0.47110 0.16070
# Poissons Ratio (z) = 0.04270 0.50007
#
# Static dielectric constant tensor:
#      x y z
#    x 3.711580 0.000000 0.000000 
#    y 0.000000 4.005880 0.000000 
#    z 0.000000 0.000000 3.115970 
# 
# 
# High freq. dielectric constant tensor:
#      x y z
#    x 1.763720 0.000000 0.000000 
#    y 0.000000 1.789570 0.000000 
#    z 0.000000 0.000000 1.748060 
# 
# From -- ./inp_files/1777.got.cif
#   From: 2010.03.12/outbox.cif.g09.slc.cpg/sg47_1_cif.got.tgz:1777.got - 2010.04.14 03:12:58.
