data_PCOD8200196
_publ_section_title
;
Structure prediction by ZEFSAII (Michael W. Deem and Ramdas Pophale) SiO2 
 PCOD8200196
Probable space group: P M M M
;
_chemical_formula_sum "Si O2"
_cell_formula_units_Z 64
_cell_length_a 28.679694
_cell_length_b 14.496357
_cell_length_c 9.290924
_cell_angle_alpha 90.000000
_cell_angle_beta 90.000000
_cell_angle_gamma 90.000000
_cell_volume 3862.711714
_symmetry_space_group_name_H-M "P M M M"
_symmetry_group_IT_number 47
_symmetry_cell_setting 'orthorhombic'
loop_
_space_group_symop_operation_xyz
x,y,z
-x,-y,z
x,-y,-z
-x,y,-z
-x,-y,-z
x,y,-z
-x,y,z
x,-y,z
loop_
_atom_site_type_symbol
_atom_site_label
_atom_site_fract_x
_atom_site_fract_y
_atom_site_fract_z
Si Si1 0.549338 0.390521 0.660919
Si Si2 0.876444 0.892227 0.162196
Si Si3 0.735141 0.273697 0.670973
Si Si4 0.806672 0.393283 0.163177
Si Si5 0.052465 0.229207 0.334805
Si Si6 0.769656 0.894700 0.168360
Si Si7 0.914564 0.604167 0.835190
Si Si8 0.350677 0.603963 0.327996
O O1 0.547597 0.349815 0.500000
O O2 0.500000 0.359908 0.738978
O O3 0.551195 0.500000 0.653138
O O4 0.598653 0.360293 0.733837
O O5 0.911677 0.842118 0.267186
O O6 0.823250 0.871773 0.207430
O O7 0.886649 0.000000 0.171659
O O8 0.885021 0.856316 0.000000
O O9 0.736672 0.265349 0.500000
O O10 0.779261 0.331829 0.723406
O O11 0.736157 0.171833 0.739894
O O12 0.688618 0.325511 0.726146
O O13 0.797736 0.500000 0.198934
O O14 0.860635 0.368055 0.180751
O O15 0.790509 0.370936 0.000000
O O16 0.066117 0.241277 0.500000
O O17 0.054618 0.329043 0.261357
O O18 0.000000 0.190629 0.316663
O O19 0.757732 0.000000 0.209859
O O20 0.761002 0.878125 0.000000
O O21 0.922782 0.500000 0.781380
O O22 0.930394 0.613899 0.000000
O O23 0.353010 0.602394 0.500000
O O24 0.339209 0.500000 0.272423
#
# Coordination Sequence:
#
# PCOD8200196 Si02
#       8
#     8   8   8   8   8   8   8   8
#     4   7   9  15  29  47  70 109 158 195 219 249
#     4   9  19  37  59  77  90 110 144 182 217 256
#     4  11  20  27  41  67  97 124 147 177 222 272
#     4   9  18  32  48  66  90 120 153 186 216 251
#     4  11  24  37  49  71 101 125 142 168 214 267
#     4   9  19  36  54  69  87 113 146 184 222 260
#     4   9  19  36  55  71  87 114 155 195 222 246
#     4   8  14  23  33  52  88 126 154 183 220 260
#
# _framework density 16.568670999999998
#
# number of rings (size 3 to 8) (size 9 to 14) (size 15 to 20)
#    0.000    2.875    0.000    4.500    0.000    7.000 
#    0.000    5.000    0.000    0.000    0.000    0.000 
#    0.000    2.500    0.000   20.375    0.000   12.750 
#
# Total GULP energy -793131.081094 kJ/mol
# GULP energy per Si atom -12392.673142 kJ/mol
# Density = 1.653096 g / cm^3
# Si number density = 16.568671 Si / 1000 Ang^3
#
#
#
# Elastic Constant Matrix: (Units=GPa)
#
#
# Indices 1 2 3 4 5 6 
#
# 1 90.3653 53.6863 39.4062 0.0000 0.0000 0.0000
# 2 53.6863 74.3064 35.3541 0.0000 0.0000 0.0000
# 3 39.4062 35.3541 56.2741 0.0000 0.0000 0.0000
# 4 0.0000 0.0000 0.0000 19.6244 0.0000 0.0000
# 5 0.0000 0.0000 0.0000 0.0000 -0.5174 0.0000
# 6 0.0000 0.0000 0.0000 0.0000 0.0000 14.2846
#
#
#
# Elastic Compliance Matrix: (Units=1/GPa)
#
#
# Indices 1 2 3 4 5 6 
#
# 1 0.021411 -0.011890 -0.007523 0.000000 0.000000 0.000000
# 2 -0.011890 0.025798 -0.007882 0.000000 0.000000 0.000000
# 3 -0.007523 -0.007882 0.027990 0.000000 0.000000 0.000000
# 4 0.000000 0.000000 0.000000 0.050957 0.000000 0.000000
# 5 0.000000 0.000000 0.000000 0.000000 -1.932657 0.000000
# 6 0.000000 0.000000 0.000000 0.000000 0.000000 0.070006
#
#
# Mechanical properties :
#
#
# Convention : Reuss Voigt Hill
#
# Bulk Modulus (GPa) = 48.52159 53.09322 50.80741
# Shear Modulus (GPa) = -2.98501 12.84492 4.92995
#
# Velocity S-wave (km/s) = -1.34369 2.78736 1.72683
# Velocity P-wave (km/s) = 5.19051 6.51714 5.89128
#
# Compressibility (1/GPa) = 0.02060938
#
# Stress axis : x y z
#
# Youngs Moduli (GPa) = 46.70595 38.76244 35.72696
#
# Poissons Ratio (x) = 0.46087 0.26878
# Poissons Ratio (y) = 0.55532 0.28160
# Poissons Ratio (z) = 0.35138 0.30552
#
# Static dielectric constant tensor:
#      x y z
#    x 3.401490 0.000000 0.000000 
#    y 0.000000 3.041510 0.000000 
#    z 0.000000 0.000000 2.868030 
# 
# 
# High freq. dielectric constant tensor:
#      x y z
#    x 1.633740 0.000000 0.000000 
#    y 0.000000 1.622620 0.000000 
#    z 0.000000 0.000000 1.611440 
# 
# From -- ./inp_files/14296.got.cif
#   From: 2010.03.12/outbox.cif.g09.slc.cpg/sg47_8_cif.got.tgz:14296.got - 2010.04.14 03:12:58.
