data_PCOD8200338
_publ_section_title
;
Structure prediction by ZEFSAII (Michael W. Deem and Ramdas Pophale) SiO2 
 PCOD8200338
Probable space group: P M M M
;
_chemical_formula_sum "Si O2"
_cell_formula_units_Z 52
_cell_length_a 9.269197
_cell_length_b 30.293320
_cell_length_c 12.531434
_cell_angle_alpha 90.000000
_cell_angle_beta 90.000000
_cell_angle_gamma 90.000000
_cell_volume 3518.760888
_symmetry_space_group_name_H-M "P M M M"
_symmetry_group_IT_number 47
_symmetry_cell_setting 'orthorhombic'
loop_
_space_group_symop_operation_xyz
x,y,z
-x,-y,z
x,-y,-z
-x,y,-z
-x,-y,-z
x,y,-z
-x,y,z
x,-y,z
loop_
_atom_site_type_symbol
_atom_site_label
_atom_site_fract_x
_atom_site_fract_y
_atom_site_fract_z
Si Si1 0.666455 0.052271 0.500000
Si Si2 0.828524 0.546740 0.380359
Si Si3 0.837287 0.641196 0.627829
Si Si4 0.831091 0.904304 0.305141
Si Si5 0.335356 0.051138 0.123334
Si Si6 0.337470 0.275735 0.372792
Si Si7 0.834586 0.808180 0.622439
O O1 0.500000 0.067569 0.500000
O O2 0.743637 0.070312 0.604599
O O3 0.678874 0.000000 0.500000
O O4 0.766734 0.544640 0.500000
O O5 0.781114 0.500000 0.322550
O O6 0.777616 0.593390 0.327632
O O7 0.000000 0.549249 0.384693
O O8 0.833337 0.639820 0.500000
O O9 0.738444 0.680402 0.673607
O O10 0.000000 0.650094 0.667434
O O11 0.775972 0.919738 0.190205
O O12 0.802185 0.852054 0.310740
O O13 0.000000 0.914902 0.319395
O O14 0.500000 0.062679 0.154851
O O15 0.305105 0.000000 0.147266
O O16 0.307708 0.061950 0.000000
O O17 0.328873 0.276286 0.500000
O O18 0.500000 0.275254 0.330478
O O19 0.259485 0.231768 0.329726
O O20 0.793483 0.818386 0.500000
O O21 0.000000 0.793472 0.631409
#
# Coordination Sequence:
#
# PCOD8200338 Si02
#       7
#     4   8   8   8   8   8   8
#     4  11  23  35  47  65  91 121 145 163 194 245
#     4   7   9  13  22  36  51  67  94 133 173 216
#     4   8  12  18  28  40  54  76 104 136 179 223
#     4  11  21  33  49  70  91 111 138 174 210 241
#     4   9  19  36  54  70  90 116 143 168 197 238
#     4   9  16  23  32  47  64  85 116 150 181 220
#     4   9  17  30  42  54  77 104 127 154 194 239
#
# _framework density 14.77793
#
# number of rings (size 3 to 8) (size 9 to 14) (size 15 to 20)
#    0.000    3.000    0.769    3.462    0.000    6.154 
#    0.000    0.769    0.000    0.462    0.000    3.231 
#    0.000    0.000    0.000    0.000    0.000    0.000 
#
# Total GULP energy -644288.295314 kJ/mol
# GULP energy per Si atom -12390.159525 kJ/mol
# Density = 1.474429 g / cm^3
# Si number density = 14.777930 Si / 1000 Ang^3
#
#
#
# Elastic Constant Matrix: (Units=GPa)
#
#
# Indices 1 2 3 4 5 6 
#
# 1 90.8073 71.5233 25.9116 0.0000 0.0000 0.0000
# 2 71.5233 137.0027 32.7468 0.0000 0.0000 0.0000
# 3 25.9116 32.7468 33.9986 0.0000 0.0000 0.0000
# 4 0.0000 0.0000 0.0000 4.7849 0.0000 0.0000
# 5 0.0000 0.0000 0.0000 0.0000 15.1032 0.0000
# 6 0.0000 0.0000 0.0000 0.0000 0.0000 6.8424
#
#
#
# Elastic Compliance Matrix: (Units=1/GPa)
#
#
# Indices 1 2 3 4 5 6 
#
# 1 0.019803 -0.008744 -0.006671 0.000000 0.000000 0.000000
# 2 -0.008744 0.013343 -0.006188 0.000000 0.000000 0.000000
# 3 -0.006671 -0.006188 0.040457 0.000000 0.000000 0.000000
# 4 0.000000 0.000000 0.000000 0.208991 0.000000 0.000000
# 5 0.000000 0.000000 0.000000 0.000000 0.066211 0.000000
# 6 0.000000 0.000000 0.000000 0.000000 0.000000 0.146147
#
#
# Mechanical properties :
#
#
# Convention : Reuss Voigt Hill
#
# Bulk Modulus (GPa) = 32.89656 58.01910 45.45783
# Shear Modulus (GPa) = 9.11930 14.12123 11.62026
#
# Velocity S-wave (km/s) = 2.48682 3.09457 2.80719
# Velocity P-wave (km/s) = 5.52762 7.21903 6.42919
#
# Compressibility (1/GPa) = 0.03039832
#
# Stress axis : x y z
#
# Youngs Moduli (GPa) = 50.49839 74.94667 24.71778
#
# Poissons Ratio (x) = 0.65531 0.16488
# Poissons Ratio (y) = 0.44154 0.15295
# Poissons Ratio (z) = 0.33685 0.46374
#
# Static dielectric constant tensor:
#      x y z
#    x 2.848910 0.000000 0.000000 
#    y 0.000000 3.265960 0.000000 
#    z 0.000000 0.000000 2.300270 
# 
# 
# High freq. dielectric constant tensor:
#      x y z
#    x 1.560270 0.000000 0.000000 
#    y 0.000000 1.585510 0.000000 
#    z 0.000000 0.000000 1.484550 
# 
# From -- ./inp_files/15676.got.cif
#   From: 2010.03.12/outbox.cif.g09.slc.cpg/sg47_8_cif.got.tgz:15676.got - 2010.04.14 03:12:58.
