data_PCOD8200292
_publ_section_title
;
Structure prediction by ZEFSAII (Michael W. Deem and Ramdas Pophale) SiO2 
 PCOD8200292
Probable space group: P M M M
;
_chemical_formula_sum "Si O2"
_cell_formula_units_Z 44
_cell_length_a 21.115605
_cell_length_b 13.722843
_cell_length_c 8.941275
_cell_angle_alpha 90.000000
_cell_angle_beta 90.000000
_cell_angle_gamma 90.000000
_cell_volume 2590.878674
_symmetry_space_group_name_H-M "P M M M"
_symmetry_group_IT_number 47
_symmetry_cell_setting 'orthorhombic'
loop_
_space_group_symop_operation_xyz
x,y,z
-x,-y,z
x,-y,-z
-x,y,-z
-x,-y,-z
x,y,-z
-x,y,z
x,-y,z
loop_
_atom_site_type_symbol
_atom_site_label
_atom_site_fract_x
_atom_site_fract_y
_atom_site_fract_z
Si Si1 0.000000 0.888734 0.179001
Si Si2 0.572485 0.612606 0.171864
Si Si3 0.800881 0.390433 0.824262
Si Si4 0.743726 0.889515 0.824105
Si Si5 0.685221 0.711202 0.323975
Si Si6 0.127129 0.204908 0.824148
O O1 0.938464 0.833356 0.246958
O O2 0.000000 0.000000 0.235779
O O3 0.000000 0.886578 0.000000
O O4 0.500000 0.642968 0.199686
O O5 0.582696 0.500000 0.212925
O O6 0.615146 0.678089 0.279316
O O7 0.591467 0.631235 0.000000
O O8 0.821857 0.500000 0.781933
O O9 0.735710 0.364543 0.742933
O O10 0.856752 0.316095 0.774164
O O11 0.787723 0.379406 0.000000
O O12 0.695216 0.820073 0.737997
O O13 0.815466 0.865029 0.773738
O O14 0.728097 0.000000 0.779625
O O15 0.735983 0.871138 0.000000
O O16 0.692575 0.712132 0.500000
O O17 0.118783 0.199780 0.000000
#
# Coordination Sequence:
#
# PCOD8200292 Si02
#       6
#     4   8   8   8   8   8
#     4   9  14  20  35  61  92 119 143 183 240 291
#     4   9  18  33  52  72  95 125 158 188 220 265
#     4   9  17  30  46  62  86 122 160 195 229 270
#     4   9  17  31  50  68  89 121 159 194 228 272
#     4  11  21  30  45  71  99 123 149 188 235 276
#     4   8  14  24  39  63  91 117 148 186 231 281
#
# _framework density 16.982654
#
# number of rings (size 3 to 8) (size 9 to 14) (size 15 to 20)
#    0.000    2.818    0.000    4.364    0.000    5.818 
#    0.000    1.364    0.000    3.273    0.000   14.000 
#    0.000   23.273    0.000    0.000    0.000    0.000 
#
# Total GULP energy -545477.095170 kJ/mol
# GULP energy per Si atom -12397.206708 kJ/mol
# Density = 1.694400 g / cm^3
# Si number density = 16.982654 Si / 1000 Ang^3
#
#
#
# Elastic Constant Matrix: (Units=GPa)
#
#
# Indices 1 2 3 4 5 6 
#
# 1 107.9705 67.0855 31.9532 0.0000 0.0000 0.0000
# 2 67.0855 143.1963 41.4395 0.0000 0.0000 0.0000
# 3 31.9532 41.4395 51.0065 0.0000 0.0000 0.0000
# 4 0.0000 0.0000 0.0000 8.1864 0.0000 0.0000
# 5 0.0000 0.0000 0.0000 0.0000 2.8808 0.0000
# 6 0.0000 0.0000 0.0000 0.0000 0.0000 24.7316
#
#
#
# Elastic Compliance Matrix: (Units=1/GPa)
#
#
# Indices 1 2 3 4 5 6 
#
# 1 0.013791 -0.005178 -0.004432 0.000000 0.000000 0.000000
# 2 -0.005178 0.011074 -0.005753 0.000000 0.000000 0.000000
# 3 -0.004432 -0.005753 0.027056 0.000000 0.000000 0.000000
# 4 0.000000 0.000000 0.000000 0.122153 0.000000 0.000000
# 5 0.000000 0.000000 0.000000 0.000000 0.347124 0.000000
# 6 0.000000 0.000000 0.000000 0.000000 0.000000 0.040434
#
#
# Mechanical properties :
#
#
# Convention : Reuss Voigt Hill
#
# Bulk Modulus (GPa) = 47.18387 64.79218 55.98802
# Shear Modulus (GPa) = 8.34133 17.93944 13.14039
#
# Velocity S-wave (km/s) = 2.21864 3.25366 2.78466
# Velocity P-wave (km/s) = 5.86575 7.23532 6.58623
#
# Compressibility (1/GPa) = 0.02119369
#
# Stress axis : x y z
#
# Youngs Moduli (GPa) = 72.51168 90.29976 36.96008
#
# Poissons Ratio (x) = 0.46758 0.16382
# Poissons Ratio (y) = 0.37548 0.21264
# Poissons Ratio (z) = 0.32140 0.51952
#
# Static dielectric constant tensor:
#      x y z
#    x 3.214080 0.000000 0.000000 
#    y 0.000000 3.408700 0.000000 
#    z 0.000000 0.000000 2.820410 
# 
# 
# High freq. dielectric constant tensor:
#      x y z
#    x 1.645290 0.000000 0.000000 
#    y 0.000000 1.657750 0.000000 
#    z 0.000000 0.000000 1.619020 
# 
# From -- ./inp_files/10876.got.cif
#   From: 2010.03.12/outbox.cif.g09.slc.cpg/sg47_6_cif.got.tgz:10876.got - 2010.04.14 03:12:58.
