data_PCOD8200485
_publ_section_title
;
Structure prediction by ZEFSAII (Michael W. Deem and Ramdas Pophale) SiO2 
 PCOD8200485
Probable space group: P M M M
;
_chemical_formula_sum "Si O2"
_cell_formula_units_Z 52
_cell_length_a 11.487281
_cell_length_b 9.037242
_cell_length_c 31.077055
_cell_angle_alpha 90.000000
_cell_angle_beta 90.000000
_cell_angle_gamma 90.000000
_cell_volume 3226.212825
_symmetry_space_group_name_H-M "P M M M"
_symmetry_group_IT_number 47
_symmetry_cell_setting 'orthorhombic'
loop_
_space_group_symop_operation_xyz
x,y,z
-x,-y,z
x,-y,-z
-x,y,-z
-x,-y,-z
x,y,-z
-x,y,z
x,-y,z
loop_
_atom_site_type_symbol
_atom_site_label
_atom_site_fract_x
_atom_site_fract_y
_atom_site_fract_z
Si Si1 0.138804 0.832998 0.500000
Si Si2 0.138789 0.333034 0.584336
Si Si3 0.138597 0.666578 0.752473
Si Si4 0.500000 0.325979 0.949273
Si Si5 0.862661 0.332356 0.000000
Si Si6 0.138864 0.833104 0.331328
Si Si7 0.734851 0.825394 0.075855
Si Si8 0.132686 0.171601 0.162633
O O1 0.186919 0.750547 0.457736
O O2 0.000000 0.831963 0.500000
O O3 0.186456 0.000000 0.500000
O O4 0.186467 0.500000 0.583967
O O5 0.186808 0.251931 0.626823
O O6 0.000000 0.331935 0.584287
O O7 0.186129 0.500000 0.750335
O O8 0.188476 0.754529 0.711414
O O9 0.183056 0.740367 0.796515
O O10 0.000000 0.670788 0.751421
O O11 0.500000 0.500000 0.939832
O O12 0.610282 0.250760 0.927297
O O13 0.500000 0.292629 0.000000
O O14 0.821751 0.245404 0.958253
O O15 0.810992 0.500000 0.000000
O O16 0.000000 0.337440 0.000000
O O17 0.000000 0.830921 0.331124
O O18 0.186215 0.000000 0.332512
O O19 0.786056 0.789953 0.122554
O O20 0.724431 0.000000 0.067193
O O21 0.000000 0.218905 0.151775
O O22 0.137517 0.000000 0.174545
#
# Coordination Sequence:
#
# PCOD8200485 Si02
#       8
#     4   8   8   4   4   8   8   8
#     4   9  15  21  27  35  49  71 101 139 187 240
#     4   9  15  21  28  38  53  74 104 144 189 237
#     4   9  16  25  38  56  77 102 130 159 195 243
#     4  11  23  39  57  75  98 124 152 186 224 261
#     4  11  23  36  51  74 103 129 151 179 218 261
#     4   9  15  22  32  45  62  86 116 151 191 236
#     4  11  22  36  56  76  95 121 155 188 218 256
#     4   9  18  32  48  68  93 117 141 173 214 258
#
# _framework density 16.11797
#
# number of rings (size 3 to 8) (size 9 to 14) (size 15 to 20)
#    0.000    2.385    0.769    3.000    0.000    9.231 
#    0.000    1.538    0.000    0.000    0.000    0.000 
#    0.000    0.000    0.000    0.000    0.000    0.000 
#
# Total GULP energy -644802.766436 kJ/mol
# GULP energy per Si atom -12400.053201 kJ/mol
# Density = 1.608128 g / cm^3
# Si number density = 16.117970 Si / 1000 Ang^3
#
#
#
# Elastic Constant Matrix: (Units=GPa)
#
#
# Indices 1 2 3 4 5 6 
#
# 1 40.3243 28.1206 31.7961 0.0000 0.0000 0.0000
# 2 28.1206 149.6017 96.7021 0.0000 0.0000 0.0000
# 3 31.7961 96.7021 162.4802 0.0000 0.0000 0.0000
# 4 0.0000 0.0000 0.0000 31.2231 0.0000 0.0000
# 5 0.0000 0.0000 0.0000 0.0000 -2.0685 0.0000
# 6 0.0000 0.0000 0.0000 0.0000 0.0000 25.8357
#
#
#
# Elastic Compliance Matrix: (Units=1/GPa)
#
#
# Indices 1 2 3 4 5 6 
#
# 1 0.030136 -0.003011 -0.004105 0.000000 0.000000 0.000000
# 2 -0.003011 0.011165 -0.006056 0.000000 0.000000 0.000000
# 3 -0.004105 -0.006056 0.010562 0.000000 0.000000 0.000000
# 4 0.000000 0.000000 0.000000 0.032028 0.000000 0.000000
# 5 0.000000 0.000000 0.000000 0.000000 -0.483442 0.000000
# 6 0.000000 0.000000 0.000000 0.000000 0.000000 0.038706
#
#
# Mechanical properties :
#
#
# Convention : Reuss Voigt Hill
#
# Bulk Modulus (GPa) = 39.18687 73.96042 56.57365
# Shear Modulus (GPa) = -15.33761 24.05056 4.35648
#
# Velocity S-wave (km/s) = -3.08812 3.86704 1.64582
# Velocity P-wave (km/s) = 3.41321 8.11943 6.22797
#
# Compressibility (1/GPa) = 0.02551875
#
# Stress axis : x y z
#
# Youngs Moduli (GPa) = 33.18321 89.56810 94.67868
#
# Poissons Ratio (x) = 0.26968 0.38869
# Poissons Ratio (y) = 0.09991 0.57334
# Poissons Ratio (z) = 0.13623 0.54239
#
# Static dielectric constant tensor:
#      x y z
#    x 2.443310 0.000000 0.000000 
#    y 0.000000 3.307950 0.000000 
#    z 0.000000 0.000000 3.242180 
# 
# 
# High freq. dielectric constant tensor:
#      x y z
#    x 1.535740 0.000000 0.000000 
#    y 0.000000 1.641490 0.000000 
#    z 0.000000 0.000000 1.635380 
# 
# From -- ./inp_files/34548.got.cif
#   From: 2010.03.12/outbox.cif.g09.slc.cpg/sg47_18_cif.got.tgz:34548.got - 2010.04.14 03:12:58.
