data_PCOD8200255
_publ_section_title
;
Structure prediction by ZEFSAII (Michael W. Deem and Ramdas Pophale) SiO2 
 PCOD8200255
Probable space group: P M M M
;
_chemical_formula_sum "Si O2"
_cell_formula_units_Z 52
_cell_length_a 10.645891
_cell_length_b 28.496173
_cell_length_c 10.182216
_cell_angle_alpha 90.000000
_cell_angle_beta 90.000000
_cell_angle_gamma 90.000000
_cell_volume 3088.949866
_symmetry_space_group_name_H-M "P M M M"
_symmetry_group_IT_number 47
_symmetry_cell_setting 'orthorhombic'
loop_
_space_group_symop_operation_xyz
x,y,z
-x,-y,z
x,-y,-z
-x,y,-z
-x,-y,-z
x,y,-z
-x,y,z
x,-y,z
loop_
_atom_site_type_symbol
_atom_site_label
_atom_site_fract_x
_atom_site_fract_y
_atom_site_fract_z
Si Si1 0.000000 0.445055 0.148525
Si Si2 0.358395 0.550834 0.000000
Si Si3 0.753082 0.401726 0.756208
Si Si4 0.352392 0.446887 0.500000
Si Si5 0.860155 0.204596 0.844470
Si Si6 0.351503 0.052087 0.645876
Si Si7 0.646558 0.131812 0.846147
Si Si8 0.854448 0.690475 0.151111
O O1 0.883594 0.428052 0.231795
O O2 0.000000 0.500000 0.139182
O O3 0.000000 0.423387 0.000000
O O4 0.333887 0.581905 0.873949
O O5 0.283364 0.500000 0.000000
O O6 0.500000 0.536105 0.000000
O O7 0.689659 0.416300 0.622341
O O8 0.772018 0.345434 0.762477
O O9 0.295323 0.500000 0.500000
O O10 0.500000 0.451355 0.500000
O O11 0.743210 0.172317 0.799887
O O12 0.832757 0.257120 0.792287
O O13 0.000000 0.187712 0.794215
O O14 0.866200 0.206593 0.000000
O O15 0.304852 0.068287 0.500000
O O16 0.500000 0.049681 0.644691
O O17 0.308859 0.087299 0.760527
O O18 0.297615 0.000000 0.677102
O O19 0.500000 0.145841 0.818103
O O20 0.663505 0.119724 0.000000
O O21 0.000000 0.676230 0.162889
O O22 0.810880 0.687088 0.000000
#
# Coordination Sequence:
#
# PCOD8200255 Si02
#       8
#     4   4   8   4   8   8   8   8
#     4  11  20  31  53  87 113 123 147 207 268 301
#     4  11  22  35  53  77 103 136 175 205 238 295
#     4  12  21  36  58  79 103 132 166 209 253 300
#     4  11  26  45  57  69 101 146 179 201 236 299
#     4   8  15  28  49  72  99 134 167 196 243 306
#     4   8  14  25  42  65  95 132 169 201 243 300
#     4   9  16  26  43  71 101 125 159 212 254 279
#     4   9  16  31  54  81 104 127 157 201 254 304
#
# _framework density 16.834199999999999
#
# number of rings (size 3 to 8) (size 9 to 14) (size 15 to 20)
#    0.000    2.385    2.308    3.231    0.000    1.846 
#    0.000    3.846    1.692    0.923    0.000    3.231 
#    0.000    0.000    0.000    0.000    0.000    0.000 
#
# Total GULP energy -644344.297711 kJ/mol
# GULP energy per Si atom -12391.236494 kJ/mol
# Density = 1.679588 g / cm^3
# Si number density = 16.834200 Si / 1000 Ang^3
#
#
#
# Elastic Constant Matrix: (Units=GPa)
#
#
# Indices 1 2 3 4 5 6 
#
# 1 74.3879 51.3337 30.8878 0.0000 0.0000 0.0000
# 2 51.3337 130.2664 53.7315 0.0000 0.0000 0.0000
# 3 30.8878 53.7315 90.3292 0.0000 0.0000 0.0000
# 4 0.0000 0.0000 0.0000 18.1862 0.0000 0.0000
# 5 0.0000 0.0000 0.0000 0.0000 20.5115 0.0000
# 6 0.0000 0.0000 0.0000 0.0000 0.0000 23.7032
#
#
#
# Elastic Compliance Matrix: (Units=1/GPa)
#
#
# Indices 1 2 3 4 5 6 
#
# 1 0.018948 -0.006353 -0.002700 0.000000 0.000000 0.000000
# 2 -0.006353 0.012303 -0.005146 0.000000 0.000000 0.000000
# 3 -0.002700 -0.005146 0.015055 0.000000 0.000000 0.000000
# 4 0.000000 0.000000 0.000000 0.054987 0.000000 0.000000
# 5 0.000000 0.000000 0.000000 0.000000 0.048753 0.000000
# 6 0.000000 0.000000 0.000000 0.000000 0.000000 0.042188
#
#
# Mechanical properties :
#
#
# Convention : Reuss Voigt Hill
#
# Bulk Modulus (GPa) = 55.84176 62.98771 59.41474
# Shear Modulus (GPa) = 22.06517 23.08222 22.57369
#
# Velocity S-wave (km/s) = 3.62433 3.70692 3.66586
# Velocity P-wave (km/s) = 7.12447 7.47124 7.29991
#
# Compressibility (1/GPa) = 0.01790774
#
# Stress axis : x y z
#
# Youngs Moduli (GPa) = 52.77473 81.28357 66.42403
#
# Poissons Ratio (x) = 0.51641 0.17936
# Poissons Ratio (y) = 0.33529 0.34179
# Poissons Ratio (z) = 0.14250 0.41826
#
# Static dielectric constant tensor:
#      x y z
#    x 3.141650 0.000000 0.000000 
#    y 0.000000 3.396940 0.000000 
#    z 0.000000 0.000000 3.200260 
# 
# 
# High freq. dielectric constant tensor:
#      x y z
#    x 1.633690 0.000000 0.000000 
#    y 0.000000 1.650540 0.000000 
#    z 0.000000 0.000000 1.623020 
# 
# From -- ./inp_files/4851.got.cif
#   From: 2010.03.12/outbox.cif.g09.slc.cpg/sg47_3_cif.got.tgz:4851.got - 2010.04.14 03:12:58.
