data_PCOD8200261
_publ_section_title
;
Structure prediction by ZEFSAII (Michael W. Deem and Ramdas Pophale) SiO2 
 PCOD8200261
Probable space group: P M M M
;
_chemical_formula_sum "Si O2"
_cell_formula_units_Z 36
_cell_length_a 23.101988
_cell_length_b 12.759486
_cell_length_c 7.625081
_cell_angle_alpha 90.000000
_cell_angle_beta 90.000000
_cell_angle_gamma 90.000000
_cell_volume 2247.641256
_symmetry_space_group_name_H-M "P M M M"
_symmetry_group_IT_number 47
_symmetry_cell_setting 'orthorhombic'
loop_
_space_group_symop_operation_xyz
x,y,z
-x,-y,z
x,-y,-z
-x,y,-z
-x,-y,-z
x,y,-z
-x,y,z
x,-y,z
loop_
_atom_site_type_symbol
_atom_site_label
_atom_site_fract_x
_atom_site_fract_y
_atom_site_fract_z
Si Si1 0.140759 0.806100 0.200634
Si Si2 0.435389 0.875335 0.194632
Si Si3 0.776290 0.875156 0.500000
Si Si4 0.068054 0.000000 0.703656
Si Si5 0.064429 0.616454 0.792002
Si Si6 0.355050 0.875039 0.500000
O O1 0.195089 0.831328 0.323148
O O2 0.093603 0.897934 0.204239
O O3 0.110320 0.701376 0.277281
O O4 0.162443 0.791906 0.000000
O O5 0.500000 0.837192 0.247106
O O6 0.388245 0.829912 0.329599
O O7 0.434177 0.000000 0.198388
O O8 0.419451 0.834724 0.000000
O O9 0.710508 0.834452 0.500000
O O10 0.780806 0.000000 0.500000
O O11 0.086194 0.000000 0.500000
O O12 0.000000 0.000000 0.731780
O O13 0.083799 0.500000 0.730922
O O14 0.000000 0.640892 0.717769
O O15 0.062127 0.622677 0.000000
O O16 0.356213 0.000000 0.500000
#
# Coordination Sequence:
#
# PCOD8200261 Si02
#       6
#     8   8   4   4   8   4
#     4  11  20  33  50  64  85 115 145 179 221 267
#     4   8  13  22  37  58  79  99 133 180 222 254
#     4  11  22  35  41  59  88 118 158 191 211 245
#     4  11  21  33  49  66  87 111 140 183 224 264
#     4   8  15  29  49  71  89 104 130 175 231 285
#     4   9  17  26  39  51  76 112 145 177 216 251
#
# _framework density 16.016791999999999
#
# number of rings (size 3 to 8) (size 9 to 14) (size 15 to 20)
#    0.000    2.556    2.222    2.667    0.000    4.000 
#    0.000    2.778    0.000    1.333    0.000    0.000 
#    0.000    0.000    0.000    0.000    0.000    8.889 
#
# Total GULP energy -446244.387091 kJ/mol
# GULP energy per Si atom -12395.677419 kJ/mol
# Density = 1.598034 g / cm^3
# Si number density = 16.016792 Si / 1000 Ang^3
#
#
#
# Elastic Constant Matrix: (Units=GPa)
#
#
# Indices 1 2 3 4 5 6 
#
# 1 130.8539 41.4093 65.3930 0.0000 0.0000 0.0000
# 2 41.4093 72.5514 21.7246 0.0000 0.0000 0.0000
# 3 65.3930 21.7246 95.8589 0.0000 0.0000 0.0000
# 4 0.0000 0.0000 0.0000 -15.4242 0.0000 0.0000
# 5 0.0000 0.0000 0.0000 0.0000 13.5034 0.0000
# 6 0.0000 0.0000 0.0000 0.0000 0.0000 10.2863
#
#
#
# Elastic Compliance Matrix: (Units=1/GPa)
#
#
# Indices 1 2 3 4 5 6 
#
# 1 0.013194 -0.005188 -0.007825 0.000000 0.000000 0.000000
# 2 -0.005188 0.016826 -0.000274 0.000000 0.000000 0.000000
# 3 -0.007825 -0.000274 0.015832 0.000000 0.000000 0.000000
# 4 0.000000 0.000000 0.000000 -0.064833 0.000000 0.000000
# 5 0.000000 0.000000 0.000000 0.000000 0.074056 0.000000
# 6 0.000000 0.000000 0.000000 0.000000 0.000000 0.097217
#
#
# Mechanical properties :
#
#
# Convention : Reuss Voigt Hill
#
# Bulk Modulus (GPa) = 51.87133 61.81311 56.84222
# Shear Modulus (GPa) = 26.98426 13.05558 20.01992
#
# Velocity S-wave (km/s) = 4.10902 2.85812 3.53927
# Velocity P-wave (km/s) = 7.41404 7.04048 7.22967
#
# Compressibility (1/GPa) = 0.01927847
#
# Stress axis : x y z
#
# Youngs Moduli (GPa) = 75.79001 59.43043 63.16154
#
# Poissons Ratio (x) = 0.30830 0.49425
# Poissons Ratio (y) = 0.39317 0.01734
# Poissons Ratio (z) = 0.59307 0.01631
#
# Static dielectric constant tensor:
#      x y z
#    x 3.079250 0.000000 0.000000 
#    y 0.000000 2.857530 0.000000 
#    z 0.000000 0.000000 3.148770 
# 
# 
# High freq. dielectric constant tensor:
#      x y z
#    x 1.600380 0.000000 0.000000 
#    y 0.000000 1.565340 0.000000 
#    z 0.000000 0.000000 1.625030 
# 
# From -- ./inp_files/10612.got.cif
#   From: 2010.03.12/outbox.cif.g09.slc.cpg/sg47_6_cif.got.tgz:10612.got - 2010.04.14 03:12:58.
