data_PCOD8200739
_publ_section_title
;
Structure prediction by ZEFSAII (Michael W. Deem and Ramdas Pophale) SiO2 
 PCOD8200739
Probable space group: P M M M
;
_chemical_formula_sum "Si O2"
_cell_formula_units_Z 52
_cell_length_a 9.286297
_cell_length_b 17.677819
_cell_length_c 26.098068
_cell_angle_alpha 90.000000
_cell_angle_beta 90.000000
_cell_angle_gamma 90.000000
_cell_volume 4284.297404
_symmetry_space_group_name_H-M "P M M M"
_symmetry_group_IT_number 47
_symmetry_cell_setting 'orthorhombic'
loop_
_space_group_symop_operation_xyz
x,y,z
-x,-y,z
x,-y,-z
-x,y,-z
-x,-y,-z
x,y,-z
-x,y,z
x,-y,z
loop_
_atom_site_type_symbol
_atom_site_label
_atom_site_fract_x
_atom_site_fract_y
_atom_site_fract_z
Si Si1 0.337939 0.590067 0.739886
Si Si2 0.662874 0.144481 0.560948
Si Si3 0.166680 0.709100 0.558749
Si Si4 0.171124 0.415225 0.054250
Si Si5 0.837494 0.590638 0.836051
Si Si6 0.163463 0.000000 0.438858
Si Si7 0.167066 0.586270 0.641261
O O1 0.500000 0.621117 0.737942
O O2 0.333340 0.500000 0.741578
O O3 0.262632 0.623093 0.790906
O O4 0.254942 0.618680 0.689530
O O5 0.662256 0.141517 0.500000
O O6 0.500000 0.141258 0.582390
O O7 0.738743 0.221361 0.579609
O O8 0.753116 0.073509 0.582457
O O9 0.204101 0.689701 0.500000
O O10 0.205726 0.635207 0.591468
O O11 0.000000 0.732048 0.564563
O O12 0.233057 0.500000 0.051883
O O13 0.221552 0.377776 0.108403
O O14 0.000000 0.418450 0.057060
O O15 0.218527 0.374249 0.000000
O O16 0.834128 0.500000 0.837571
O O17 0.000000 0.618689 0.825456
O O18 0.162393 0.000000 0.500000
O O19 0.000000 0.000000 0.417861
O O20 0.210599 0.500000 0.628559
O O21 0.000000 0.592109 0.655781
#
# Coordination Sequence:
#
# PCOD8200739 Si02
#       7
#     8   8   8   8   8   4   8
#     4   9  16  24  33  44  57  72  92 121 155 188
#     4   9  16  25  37  53  72  91 108 124 144 175
#     4   9  17  28  40  53  68  84 102 126 158 195
#     4   7   9  13  22  37  54  69  86 108 133 164
#     4   8  12  18  29  42  54  69  89 113 141 174
#     4   9  15  23  37  55  73  91 109 127 145 167
#     4   9  17  28  40  51  62  78 102 132 164 198
#
# _framework density 12.137346000000001
#
# number of rings (size 3 to 8) (size 9 to 14) (size 15 to 20)
#    0.000    3.462    0.000    2.538    0.000    5.538 
#    0.000    1.538    0.000    0.462    0.000    7.538 
#    0.000    0.000    0.000    0.000    0.000    0.000 
#
# Total GULP energy -644193.998540 kJ/mol
# GULP energy per Si atom -12388.346126 kJ/mol
# Density = 1.210972 g / cm^3
# Si number density = 12.137346 Si / 1000 Ang^3
#
#
#
# Elastic Constant Matrix: (Units=GPa)
#
#
# Indices 1 2 3 4 5 6 
#
# 1 70.2165 30.0973 40.4065 0.0000 0.0000 0.0000
# 2 30.0973 45.1630 30.6932 0.0000 0.0000 0.0000
# 3 40.4065 30.6932 85.2344 0.0000 0.0000 0.0000
# 4 0.0000 0.0000 0.0000 0.4319 0.0000 0.0000
# 5 0.0000 0.0000 0.0000 0.0000 6.6899 0.0000
# 6 0.0000 0.0000 0.0000 0.0000 0.0000 11.3155
#
#
#
# Elastic Compliance Matrix: (Units=1/GPa)
#
#
# Indices 1 2 3 4 5 6 
#
# 1 0.022740 -0.010364 -0.007048 0.000000 0.000000 0.000000
# 2 -0.010364 0.034041 -0.007345 0.000000 0.000000 0.000000
# 3 -0.007048 -0.007345 0.017718 0.000000 0.000000 0.000000
# 4 0.000000 0.000000 0.000000 2.315618 0.000000 0.000000
# 5 0.000000 0.000000 0.000000 0.000000 0.149480 0.000000
# 6 0.000000 0.000000 0.000000 0.000000 0.000000 0.088374
#
#
# Mechanical properties :
#
#
# Convention : Reuss Voigt Hill
#
# Bulk Modulus (GPa) = 40.02439 44.77866 42.40152
# Shear Modulus (GPa) = 1.86163 10.31523 6.08843
#
# Velocity S-wave (km/s) = 1.23981 2.91842 2.24213
# Velocity P-wave (km/s) = 5.92430 6.95195 6.45860
#
# Compressibility (1/GPa) = 0.02498477
#
# Stress axis : x y z
#
# Youngs Moduli (GPa) = 43.97531 29.37663 56.43858
#
# Poissons Ratio (x) = 0.30447 0.39777
# Poissons Ratio (y) = 0.45578 0.41453
# Poissons Ratio (z) = 0.30993 0.21576
#
# Static dielectric constant tensor:
#      x y z
#    x 2.548670 0.000000 0.000000 
#    y 0.000000 2.148490 0.000000 
#    z 0.000000 0.000000 2.641140 
# 
# 
# High freq. dielectric constant tensor:
#      x y z
#    x 1.459450 0.000000 0.000000 
#    y 0.000000 1.399900 0.000000 
#    z 0.000000 0.000000 1.447640 
# 
# From -- ./inp_files/32163.got.cif
#   From: 2010.03.12/outbox.cif.g09.slc.cpg/sg47_17_cif.got.tgz:32163.got - 2010.04.14 03:12:58.
