data_PCOD8200573
_publ_section_title
;
Structure prediction by ZEFSAII (Michael W. Deem and Ramdas Pophale) SiO2 
 PCOD8200573
Probable space group: P M M M
;
_chemical_formula_sum "Si O2"
_cell_formula_units_Z 48
_cell_length_a 28.946097
_cell_length_b 10.033584
_cell_length_c 8.610758
_cell_angle_alpha 90.000000
_cell_angle_beta 90.000000
_cell_angle_gamma 90.000000
_cell_volume 2500.849102
_symmetry_space_group_name_H-M "P M M M"
_symmetry_group_IT_number 47
_symmetry_cell_setting 'orthorhombic'
loop_
_space_group_symop_operation_xyz
x,y,z
-x,-y,z
x,-y,-z
-x,y,-z
-x,-y,-z
x,y,-z
-x,y,z
x,-y,z
loop_
_atom_site_type_symbol
_atom_site_label
_atom_site_fract_x
_atom_site_fract_y
_atom_site_fract_z
Si Si1 0.230489 0.153925 0.681819
Si Si2 0.948565 0.351118 0.315162
Si Si3 0.695256 0.345617 0.818941
Si Si4 0.399367 0.747071 0.681215
Si Si5 0.552030 0.000000 0.182311
Si Si6 0.125734 0.146913 0.315601
Si Si7 0.553958 0.500000 0.827183
O O1 0.238273 0.180666 0.500000
O O2 0.260225 0.257381 0.780585
O O3 0.177852 0.184348 0.731541
O O4 0.243251 0.000000 0.720927
O O5 0.945822 0.349146 0.500000
O O6 0.937907 0.500000 0.254252
O O7 0.910525 0.251636 0.242412
O O8 0.000000 0.307016 0.261880
O O9 0.703283 0.500000 0.770198
O O10 0.653236 0.283445 0.723631
O O11 0.683965 0.335399 0.000000
O O12 0.403042 0.774000 0.500000
O O13 0.431622 0.626350 0.729170
O O14 0.418212 0.874254 0.769154
O O15 0.500000 0.000000 0.255788
O O16 0.546719 0.000000 0.000000
O O17 0.121981 0.146088 0.500000
O O18 0.113322 0.000000 0.251423
O O19 0.500000 0.500000 0.848404
O O20 0.577183 0.500000 0.000000
#
# Coordination Sequence:
#
# PCOD8200573 Si02
#       7
#     8   8   8   8   4   8   4
#     4   9  19  35  55  79 108 140 180 230 282 337
#     4   8  13  20  31  52  86 128 173 217 262 317
#     4  11  24  41  60  82 112 147 186 230 281 342
#     4  12  25  41  64  92 121 153 194 241 284 333
#     4  11  25  45  67  91 123 161 195 231 282 339
#     4   8  14  25  40  61  91 128 169 216 269 323
#     4  11  23  41  65  91 123 161 195 231 282 339
#
# _framework density 19.193480000000001
#
# number of rings (size 3 to 8) (size 9 to 14) (size 15 to 20)
#    0.000    2.167    0.833    4.500    1.167    5.667 
#    0.000    3.333    0.000    0.000    0.000    0.000 
#    0.000    0.667    0.000    7.333    0.000   12.000 
#
# Total GULP energy -595114.621762 kJ/mol
# GULP energy per Si atom -12398.221287 kJ/mol
# Density = 1.914979 g / cm^3
# Si number density = 19.193480 Si / 1000 Ang^3
#
#
#
# Elastic Constant Matrix: (Units=GPa)
#
#
# Indices 1 2 3 4 5 6 
#
# 1 125.9885 78.4067 19.9173 0.0000 0.0000 0.0000
# 2 78.4067 142.4246 21.8240 0.0000 0.0000 0.0000
# 3 19.9173 21.8240 48.6607 0.0000 0.0000 0.0000
# 4 0.0000 0.0000 0.0000 14.3935 0.0000 0.0000
# 5 0.0000 0.0000 0.0000 0.0000 -3.8057 0.0000
# 6 0.0000 0.0000 0.0000 0.0000 0.0000 43.3086
#
#
#
# Elastic Compliance Matrix: (Units=1/GPa)
#
#
# Indices 1 2 3 4 5 6 
#
# 1 0.012278 -0.006431 -0.002141 0.000000 0.000000 0.000000
# 2 -0.006431 0.010908 -0.002260 0.000000 0.000000 0.000000
# 3 -0.002141 -0.002260 0.022440 0.000000 0.000000 0.000000
# 4 0.000000 0.000000 0.000000 0.069476 0.000000 0.000000
# 5 0.000000 0.000000 0.000000 0.000000 -0.262767 0.000000
# 6 0.000000 0.000000 0.000000 0.000000 0.000000 0.023090
#
#
# Mechanical properties :
#
#
# Convention : Reuss Voigt Hill
#
# Bulk Modulus (GPa) = 41.73257 61.92995 51.83126
# Shear Modulus (GPa) = -52.67422 23.90767 -14.38328
#
# Velocity S-wave (km/s) = -5.24437 3.53315 -2.74046
# Velocity P-wave (km/s) = 3.85758 6.99860 4.12914
#
# Compressibility (1/GPa) = 0.02396210
#
# Stress axis : x y z
#
# Youngs Moduli (GPa) = 81.44634 91.67621 44.56246
#
# Poissons Ratio (x) = 0.58958 0.09542
# Poissons Ratio (y) = 0.52379 0.10070
# Poissons Ratio (z) = 0.17439 0.20717
#
# Static dielectric constant tensor:
#      x y z
#    x 3.718140 0.000000 0.000000 
#    y 0.000000 3.594340 0.000000 
#    z 0.000000 0.000000 3.193200 
# 
# 
# High freq. dielectric constant tensor:
#      x y z
#    x 1.756380 0.000000 0.000000 
#    y 0.000000 1.757630 0.000000 
#    z 0.000000 0.000000 1.714030 
# 
# From -- ./inp_files/13853.got.cif
#   From: 2010.03.12/outbox.cif.g09.slc.cpg/sg47_7_cif.got.tgz:13853.got - 2010.04.14 03:12:58.
