data_PCOD8200575
_publ_section_title
;
Structure prediction by ZEFSAII (Michael W. Deem and Ramdas Pophale) SiO2 
 PCOD8200575
Probable space group: P M M M
;
_chemical_formula_sum "Si O2"
_cell_formula_units_Z 44
_cell_length_a 18.209004
_cell_length_b 7.807144
_cell_length_c 14.851900
_cell_angle_alpha 90.000000
_cell_angle_beta 90.000000
_cell_angle_gamma 90.000000
_cell_volume 2111.350802
_symmetry_space_group_name_H-M "P M M M"
_symmetry_group_IT_number 47
_symmetry_cell_setting 'orthorhombic'
loop_
_space_group_symop_operation_xyz
x,y,z
-x,-y,z
x,-y,-z
-x,y,-z
-x,-y,-z
x,y,-z
-x,y,z
x,-y,z
loop_
_atom_site_type_symbol
_atom_site_label
_atom_site_fract_x
_atom_site_fract_y
_atom_site_fract_z
Si Si1 0.189543 0.311646 0.753977
Si Si2 0.918468 0.797696 0.601131
Si Si3 0.345411 0.196107 0.220693
Si Si4 0.916809 0.804414 0.101904
Si Si5 0.413489 0.500000 0.106688
Si Si6 0.582298 0.203053 0.402160
O O1 0.223486 0.500000 0.745115
O O2 0.146441 0.270027 0.663021
O O3 0.257028 0.186814 0.776443
O O4 0.133328 0.312099 0.836486
O O5 0.904050 0.730460 0.500000
O O6 0.000000 0.735821 0.633351
O O7 0.916543 0.000000 0.603159
O O8 0.376944 0.326132 0.145929
O O9 0.369573 0.268127 0.318683
O O10 0.373178 0.000000 0.201670
O O11 0.000000 0.738502 0.109150
O O12 0.911900 0.000000 0.135819
O O13 0.888502 0.789180 0.000000
O O14 0.500000 0.500000 0.129156
O O15 0.399319 0.500000 0.000000
O O16 0.612841 0.267485 0.500000
O O17 0.500000 0.273542 0.388821
O O18 0.581850 0.000000 0.402208
#
# Coordination Sequence:
#
# PCOD8200575 Si02
#       6
#     8   8   8   8   4   8
#     4  12  24  37  55  86 126 164 205 257 313 370
#     4   9  19  37  60  85 117 165 224 275 316 367
#     4  11  23  42  66  94 130 171 211 255 315 381
#     4   9  19  37  60  84 110 147 199 253 305 366
#     4  11  26  48  71  97 128 159 205 265 317 382
#     4   8  15  31  59  93 123 154 196 244 296 360
#
# _framework density 20.839739000000002
#
# number of rings (size 3 to 8) (size 9 to 14) (size 15 to 20)
#    0.000    2.091    0.909    4.364    0.000    6.545 
#    0.000    5.000    0.000    1.636    0.000    0.000 
#    0.000    0.000    0.000    0.000    0.000    0.000 
#
# Total GULP energy -545391.086823 kJ/mol
# GULP energy per Si atom -12395.251973 kJ/mol
# Density = 2.079231 g / cm^3
# Si number density = 20.839739 Si / 1000 Ang^3
#
#
#
# Elastic Constant Matrix: (Units=GPa)
#
#
# Indices 1 2 3 4 5 6 
#
# 1 105.1764 27.4505 60.8813 0.0000 0.0000 0.0000
# 2 27.4505 80.4775 38.1439 0.0000 0.0000 0.0000
# 3 60.8813 38.1439 136.0668 0.0000 0.0000 0.0000
# 4 0.0000 0.0000 0.0000 424.6705 0.0000 0.0000
# 5 0.0000 0.0000 0.0000 0.0000 -4.0304 0.0000
# 6 0.0000 0.0000 0.0000 0.0000 0.0000 -288.6948
#
#
#
# Elastic Compliance Matrix: (Units=1/GPa)
#
#
# Indices 1 2 3 4 5 6 
#
# 1 0.013091 -0.001948 -0.005311 0.000000 0.000000 0.000000
# 2 -0.001948 0.014620 -0.003227 0.000000 0.000000 0.000000
# 3 -0.005311 -0.003227 0.010630 0.000000 0.000000 0.000000
# 4 0.000000 0.000000 0.000000 0.002355 0.000000 0.000000
# 5 0.000000 0.000000 0.000000 0.000000 -0.248117 0.000000
# 6 0.000000 0.000000 0.000000 0.000000 0.000000 -0.003464
#
#
# Mechanical properties :
#
#
# Convention : Reuss Voigt Hill
#
# Bulk Modulus (GPa) = 57.57409 63.85246 60.71327
# Shear Modulus (GPa) = -27.15551 39.40540 6.12495
#
# Velocity S-wave (km/s) = -3.61371 4.35314 1.71623
# Velocity P-wave (km/s) = 3.20549 7.48149 5.75534
#
# Compressibility (1/GPa) = 0.01736893
#
# Stress axis : x y z
#
# Youngs Moduli (GPa) = 76.39089 68.40115 94.07044
#
# Poissons Ratio (x) = 0.13323 0.49962
# Poissons Ratio (y) = 0.14879 0.30355
# Poissons Ratio (z) = 0.40573 0.22072
#
# Static dielectric constant tensor:
#      x y z
#    x 3.857990 0.000000 0.000000 
#    y 0.000000 3.543780 0.000000 
#    z 0.000000 0.000000 4.101190 
# 
# 
# High freq. dielectric constant tensor:
#      x y z
#    x 1.808640 0.000000 0.000000 
#    y 0.000000 1.802760 0.000000 
#    z 0.000000 0.000000 1.822610 
# 
# From -- ./inp_files/24329.got.cif
#   From: 2010.03.12/outbox.cif.g09.slc.cpg/sg47_13_cif.got.tgz:24329.got - 2010.04.14 03:12:58.
