data_PCOD8200511
_publ_section_title
;
Structure prediction by ZEFSAII (Michael W. Deem and Ramdas Pophale) SiO2 
 PCOD8200511
Probable space group: P M M M
;
_chemical_formula_sum "Si O2"
_cell_formula_units_Z 48
_cell_length_a 9.516224
_cell_length_b 8.630586
_cell_length_c 29.005181
_cell_angle_alpha 90.000000
_cell_angle_beta 90.000000
_cell_angle_gamma 90.000000
_cell_volume 2382.212618
_symmetry_space_group_name_H-M "P M M M"
_symmetry_group_IT_number 47
_symmetry_cell_setting 'orthorhombic'
loop_
_space_group_symop_operation_xyz
x,y,z
-x,-y,z
x,-y,-z
-x,y,-z
-x,-y,-z
x,y,-z
-x,y,z
x,-y,z
loop_
_atom_site_type_symbol
_atom_site_label
_atom_site_fract_x
_atom_site_fract_y
_atom_site_fract_z
Si Si1 0.662872 0.318587 0.295768
Si Si2 0.164528 0.818742 0.212943
Si Si3 0.736069 0.181115 0.391004
Si Si4 0.500000 0.678820 0.449988
Si Si5 0.336041 0.680821 0.130703
Si Si6 0.000000 0.181875 0.551567
Si Si7 0.160080 0.820411 0.946391
O O1 0.500000 0.267802 0.288625
O O2 0.671281 0.500000 0.305913
O O3 0.754854 0.279202 0.251439
O O4 0.733608 0.226287 0.337622
O O5 0.241631 0.781496 0.165246
O O6 0.000000 0.770555 0.210636
O O7 0.178817 0.000000 0.223918
O O8 0.628672 0.278667 0.419308
O O9 0.874952 0.235891 0.416276
O O10 0.705880 0.000000 0.395572
O O11 0.500000 0.500000 0.459813
O O12 0.500000 0.764859 0.500000
O O13 0.500000 0.730709 0.133006
O O14 0.321289 0.500000 0.142575
O O15 0.272747 0.715066 0.080332
O O16 0.000000 0.258741 0.500000
O O17 0.000000 0.000000 0.544190
O O18 0.000000 0.777257 0.932217
O O19 0.188146 0.000000 0.935085
O O20 0.183324 0.786485 0.000000
#
# Coordination Sequence:
#
# PCOD8200511 Si02
#       7
#     8   8   8   4   8   4   8
#     4  11  24  42  63  89 123 157 193 241 300 360
#     4  11  25  43  65  92 120 153 200 252 300 357
#     4  11  22  38  63  90 118 156 200 245 297 355
#     4  11  23  39  59  87 123 159 199 247 296 351
#     4  11  24  40  59  88 126 164 204 252 307 364
#     4   9  20  38  59  87 121 153 193 247 296 343
#     4   9  19  37  61  89 122 162 210 261 309 360
#
# _framework density 20.149335000000001
#
# number of rings (size 3 to 8) (size 9 to 14) (size 15 to 20)
#    0.000    1.500    0.833    4.250    1.167   10.000 
#    0.000    3.750    0.000    3.000    0.000    0.000 
#    0.000    0.000    0.000    0.000    0.000    0.000 
#
# Total GULP energy -595122.160145 kJ/mol
# GULP energy per Si atom -12398.378336 kJ/mol
# Density = 2.010347 g / cm^3
# Si number density = 20.149335 Si / 1000 Ang^3
#
#
#
# Elastic Constant Matrix: (Units=GPa)
#
#
# Indices 1 2 3 4 5 6 
#
# 1 158.4778 32.6837 57.8215 0.0000 0.0000 0.0000
# 2 32.6837 55.5843 16.0170 0.0000 0.0000 0.0000
# 3 57.8215 16.0170 108.0718 0.0000 0.0000 0.0000
# 4 0.0000 0.0000 0.0000 37.1561 0.0000 0.0000
# 5 0.0000 0.0000 0.0000 0.0000 38.6090 0.0000
# 6 0.0000 0.0000 0.0000 0.0000 0.0000 23.9006
#
#
#
# Elastic Compliance Matrix: (Units=1/GPa)
#
#
# Indices 1 2 3 4 5 6 
#
# 1 0.008575 -0.003886 -0.004012 0.000000 0.000000 0.000000
# 2 -0.003886 0.020554 -0.000967 0.000000 0.000000 0.000000
# 3 -0.004012 -0.000967 0.011543 0.000000 0.000000 0.000000
# 4 0.000000 0.000000 0.000000 0.026914 0.000000 0.000000
# 5 0.000000 0.000000 0.000000 0.000000 0.025901 0.000000
# 6 0.000000 0.000000 0.000000 0.000000 0.000000 0.041840
#
#
# Mechanical properties :
#
#
# Convention : Reuss Voigt Hill
#
# Bulk Modulus (GPa) = 43.58809 59.46425 51.52617
# Shear Modulus (GPa) = 31.11290 34.30724 32.71007
#
# Velocity S-wave (km/s) = 3.93379 4.13079 4.03349
# Velocity P-wave (km/s) = 6.50480 7.23375 6.87893
#
# Compressibility (1/GPa) = 0.02294205
#
# Stress axis : x y z
#
# Youngs Moduli (GPa) = 116.61351 48.65126 86.63244
#
# Poissons Ratio (x) = 0.18907 0.34758
# Poissons Ratio (y) = 0.45318 0.08378
# Poissons Ratio (z) = 0.46786 0.04705
#
# Static dielectric constant tensor:
#      x y z
#    x 3.819180 0.000000 0.000000 
#    y 0.000000 3.543220 0.000000 
#    z 0.000000 0.000000 4.165990 
# 
# 
# High freq. dielectric constant tensor:
#      x y z
#    x 1.797880 0.000000 0.000000 
#    y 0.000000 1.780440 0.000000 
#    z 0.000000 0.000000 1.803750 
# 
# From -- ./inp_files/34139.got.cif
#   From: 2010.03.12/outbox.cif.g09.slc.cpg/sg47_18_cif.got.tgz:34139.got - 2010.04.14 03:12:58.
