data_PCOD8200266
_publ_section_title
;
Structure prediction by ZEFSAII (Michael W. Deem and Ramdas Pophale) SiO2 
 PCOD8200266
Probable space group: P M M M
;
_chemical_formula_sum "Si O2"
_cell_formula_units_Z 52
_cell_length_a 26.893413
_cell_length_b 13.817857
_cell_length_c 8.834244
_cell_angle_alpha 90.000000
_cell_angle_beta 90.000000
_cell_angle_gamma 90.000000
_cell_volume 3282.887539
_symmetry_space_group_name_H-M "P M M M"
_symmetry_group_IT_number 47
_symmetry_cell_setting 'orthorhombic'
loop_
_space_group_symop_operation_xyz
x,y,z
-x,-y,z
x,-y,-z
-x,y,-z
-x,-y,-z
x,y,-z
-x,y,z
x,-y,z
loop_
_atom_site_type_symbol
_atom_site_label
_atom_site_fract_x
_atom_site_fract_y
_atom_site_fract_z
Si Si1 0.250662 0.890304 0.320792
Si Si2 0.209228 0.608773 0.322639
Si Si3 0.150966 0.790218 0.321700
Si Si4 0.054521 0.890458 0.680214
Si Si5 0.700137 0.286911 0.821549
Si Si6 0.500000 0.387936 0.324080
Si Si7 0.607694 0.386499 0.678964
O O1 0.255130 0.878216 0.500000
O O2 0.195402 0.860028 0.265725
O O3 0.290910 0.820325 0.244292
O O4 0.261125 0.000000 0.269244
O O5 0.220882 0.619924 0.500000
O O6 0.193382 0.500000 0.279863
O O7 0.163925 0.679718 0.274908
O O8 0.259211 0.636734 0.236341
O O9 0.146049 0.799991 0.500000
O O10 0.098182 0.822886 0.249431
O O11 0.055472 0.886838 0.500000
O O12 0.000000 0.855037 0.737623
O O13 0.064120 0.000000 0.734925
O O14 0.646456 0.322619 0.770299
O O15 0.702754 0.281775 0.000000
O O16 0.500000 0.500000 0.288681
O O17 0.500000 0.367953 0.500000
O O18 0.446960 0.348221 0.262539
O O19 0.614248 0.369631 0.500000
O O20 0.614905 0.500000 0.716172
#
# Coordination Sequence:
#
# PCOD8200266 Si02
#       7
#     8   8   8   8   8   4   8
#     4   9  17  30  47  63  80 107 143 177 207 244
#     4   9  17  29  43  57  76 107 146 181 210 243
#     4   8  13  22  37  56  77 103 136 170 203 243
#     4   8  12  17  28  50  79 106 129 158 203 257
#     4  11  21  29  40  62  90 115 138 168 210 255
#     4   7  12  24  43  65  84 107 142 179 209 236
#     4   9  16  28  46  65  87 115 146 177 206 240
#
# _framework density 15.839714000000001
#
# number of rings (size 3 to 8) (size 9 to 14) (size 15 to 20)
#    0.000    3.154    0.000    4.615    0.000    4.615 
#    0.000    0.385    0.000    1.846    0.000    3.769 
#    0.000   14.154    0.000   39.385    0.000   36.923 
#
# Total GULP energy -644260.380024 kJ/mol
# GULP energy per Si atom -12389.622693 kJ/mol
# Density = 1.580366 g / cm^3
# Si number density = 15.839714 Si / 1000 Ang^3
#
#
#
# Elastic Constant Matrix: (Units=GPa)
#
#
# Indices 1 2 3 4 5 6 
#
# 1 146.5351 74.7342 27.6333 0.0000 0.0000 0.0000
# 2 74.7342 122.7687 31.4380 0.0000 0.0000 0.0000
# 3 27.6333 31.4380 36.6277 0.0000 0.0000 0.0000
# 4 0.0000 0.0000 0.0000 6.4293 0.0000 0.0000
# 5 0.0000 0.0000 0.0000 0.0000 -0.3785 0.0000
# 6 0.0000 0.0000 0.0000 0.0000 0.0000 25.3478
#
#
#
# Elastic Compliance Matrix: (Units=1/GPa)
#
#
# Indices 1 2 3 4 5 6 
#
# 1 0.010151 -0.005406 -0.003018 0.000000 0.000000 0.000000
# 2 -0.005406 0.013320 -0.007354 0.000000 0.000000 0.000000
# 3 -0.003018 -0.007354 0.035890 0.000000 0.000000 0.000000
# 4 0.000000 0.000000 0.000000 0.155538 0.000000 0.000000
# 5 0.000000 0.000000 0.000000 0.000000 -2.641987 0.000000
# 6 0.000000 0.000000 0.000000 0.000000 0.000000 0.039451
#
#
# Mechanical properties :
#
#
# Convention : Reuss Voigt Hill
#
# Bulk Modulus (GPa) = 35.96474 63.72695 49.84585
# Shear Modulus (GPa) = -2.13055 17.75478 7.81212
#
# Velocity S-wave (km/s) = -1.16103 3.35162 2.22322
# Velocity P-wave (km/s) = 4.57793 7.43623 6.17474
#
# Compressibility (1/GPa) = 0.02780501
#
# Stress axis : x y z
#
# Youngs Moduli (GPa) = 98.51582 75.07779 27.86289
#
# Poissons Ratio (x) = 0.40590 0.08408
# Poissons Ratio (y) = 0.53261 0.20489
# Poissons Ratio (z) = 0.29729 0.55209
#
# Static dielectric constant tensor:
#      x y z
#    x 3.390420 0.000000 0.000000 
#    y 0.000000 3.031570 0.000000 
#    z 0.000000 0.000000 2.613570 
# 
# 
# High freq. dielectric constant tensor:
#      x y z
#    x 1.610310 0.000000 0.000000 
#    y 0.000000 1.590530 0.000000 
#    z 0.000000 0.000000 1.568310 
# 
# From -- ./inp_files/13384.got.cif
#   From: 2010.03.12/outbox.cif.g09.slc.cpg/sg47_7_cif.got.tgz:13384.got - 2010.04.14 03:12:58.
