data_PCOD8200663
_publ_section_title
;
Structure prediction by ZEFSAII (Michael W. Deem and Ramdas Pophale) SiO2 
 PCOD8200663
Probable space group: P M M M
;
_chemical_formula_sum "Si O2"
_cell_formula_units_Z 56
_cell_length_a 23.708041
_cell_length_b 7.737690
_cell_length_c 14.350240
_cell_angle_alpha 90.000000
_cell_angle_beta 90.000000
_cell_angle_gamma 90.000000
_cell_volume 2632.486547
_symmetry_space_group_name_H-M "P M M M"
_symmetry_group_IT_number 47
_symmetry_cell_setting 'orthorhombic'
loop_
_space_group_symop_operation_xyz
x,y,z
-x,-y,z
x,-y,-z
-x,y,-z
-x,-y,-z
x,y,-z
-x,y,z
x,-y,z
loop_
_atom_site_type_symbol
_atom_site_label
_atom_site_fract_x
_atom_site_fract_y
_atom_site_fract_z
Si Si1 0.562202 0.294708 0.775552
Si Si2 0.373713 0.696587 0.601581
Si Si3 0.934580 0.696231 0.780995
Si Si4 0.131668 0.206276 0.605658
Si Si5 0.745576 0.810470 0.610406
Si Si6 0.253513 0.000000 0.889107
Si Si7 0.875122 0.000000 0.889108
Si Si8 0.667960 0.304688 0.110086
O O1 0.500000 0.217850 0.797299
O O2 0.558996 0.500000 0.769155
O O3 0.584471 0.217299 0.676791
O O4 0.606474 0.241432 0.855160
O O5 0.379035 0.789983 0.500000
O O6 0.391279 0.500000 0.589199
O O7 0.309227 0.701055 0.640456
O O8 0.924408 0.500000 0.815838
O O9 0.913983 0.712747 0.674546
O O10 0.000000 0.744684 0.782760
O O11 0.903026 0.826446 0.849923
O O12 0.117897 0.266789 0.500000
O O13 0.194052 0.272518 0.638761
O O14 0.130289 0.000000 0.612101
O O15 0.747418 0.829020 0.500000
O O16 0.739075 0.000000 0.656553
O O17 0.189419 0.000000 0.854293
O O18 0.284347 0.826344 0.851309
O O19 0.255662 0.000000 0.000000
O O20 0.881053 0.000000 0.000000
O O21 0.681731 0.500000 0.145176
O O22 0.665508 0.298655 0.000000
#
# Coordination Sequence:
#
# PCOD8200663 Si02
#       8
#     8   8   8   8   8   4   4   8
#     4   9  18  32  49  73 106 144 189 232 274 336
#     4   9  17  29  46  69  99 138 183 233 287 335
#     4  11  25  43  64  94 129 166 212 256 298 359
#     4   9  18  35  60  90 126 167 206 248 303 364
#     4   8  15  29  49  74 106 144 186 231 282 342
#     4   9  20  39  63  92 119 145 184 234 296 366
#     4  11  25  46  70  93 122 161 205 259 317 366
#     4   9  18  35  59  85 115 147 178 225 289 351
#
# _framework density 21.272663000000001
#
# number of rings (size 3 to 8) (size 9 to 14) (size 15 to 20)
#    0.000    2.714    0.714    1.071    0.000    4.286 
#    1.286    9.643    0.000    1.286    0.000    2.000 
#    0.000    0.000    0.000    0.000    0.000    0.000 
#
# Total GULP energy -693980.401881 kJ/mol
# GULP energy per Si atom -12392.507176 kJ/mol
# Density = 2.122425 g / cm^3
# Si number density = 21.272663 Si / 1000 Ang^3
#
#
#
# Elastic Constant Matrix: (Units=GPa)
#
#
# Indices 1 2 3 4 5 6 
#
# 1 175.0711 59.6357 43.4433 0.0000 0.0000 0.0000
# 2 59.6357 82.5462 29.6241 0.0000 0.0000 0.0000
# 3 43.4433 29.6241 53.3428 0.0000 0.0000 0.0000
# 4 0.0000 0.0000 0.0000 15.5502 0.0000 0.0000
# 5 0.0000 0.0000 0.0000 0.0000 36.0240 0.0000
# 6 0.0000 0.0000 0.0000 0.0000 0.0000 19.6718
#
#
#
# Elastic Compliance Matrix: (Units=1/GPa)
#
#
# Indices 1 2 3 4 5 6 
#
# 1 0.008291 -0.004454 -0.004279 0.000000 0.000000 0.000000
# 2 -0.004454 0.017523 -0.006104 0.000000 0.000000 0.000000
# 3 -0.004279 -0.006104 0.025621 0.000000 0.000000 0.000000
# 4 0.000000 0.000000 0.000000 0.064308 0.000000 0.000000
# 5 0.000000 0.000000 0.000000 0.000000 0.027759 0.000000
# 6 0.000000 0.000000 0.000000 0.000000 0.000000 0.050834
#
#
# Mechanical properties :
#
#
# Convention : Reuss Voigt Hill
#
# Bulk Modulus (GPa) = 45.95257 64.04070 54.99664
# Shear Modulus (GPa) = 21.62036 26.13300 23.87668
#
# Velocity S-wave (km/s) = 3.19148 3.50877 3.35388
# Velocity P-wave (km/s) = 5.93543 6.82534 6.39588
#
# Compressibility (1/GPa) = 0.02176157
#
# Stress axis : x y z
#
# Youngs Moduli (GPa) = 120.61273 57.06786 39.03053
#
# Poissons Ratio (x) = 0.25420 0.16700
# Poissons Ratio (y) = 0.53725 0.23823
# Poissons Ratio (z) = 0.51605 0.34833
#
# Static dielectric constant tensor:
#      x y z
#    x 4.159750 0.000000 0.000000 
#    y 0.000000 3.779900 0.000000 
#    z 0.000000 0.000000 3.817790 
# 
# 
# High freq. dielectric constant tensor:
#      x y z
#    x 1.834650 0.000000 0.000000 
#    y 0.000000 1.813900 0.000000 
#    z 0.000000 0.000000 1.828610 
# 
# From -- ./inp_files/25247.got.cif
#   From: 2010.03.12/outbox.cif.g09.slc.cpg/sg47_13_cif.got.tgz:25247.got - 2010.04.14 03:12:58.
