data_PCOD8200350
_publ_section_title
;
Structure prediction by ZEFSAII (Michael W. Deem and Ramdas Pophale) SiO2 
 PCOD8200350
Probable space group: P M M M
;
_chemical_formula_sum "Si O2"
_cell_formula_units_Z 64
_cell_length_a 8.990167
_cell_length_b 28.125910
_cell_length_c 14.107229
_cell_angle_alpha 90.000000
_cell_angle_beta 90.000000
_cell_angle_gamma 90.000000
_cell_volume 3567.106354
_symmetry_space_group_name_H-M "P M M M"
_symmetry_group_IT_number 47
_symmetry_cell_setting 'orthorhombic'
loop_
_space_group_symop_operation_xyz
x,y,z
-x,-y,z
x,-y,-z
-x,y,-z
-x,-y,-z
x,y,-z
-x,y,z
x,-y,z
loop_
_atom_site_type_symbol
_atom_site_label
_atom_site_fract_x
_atom_site_fract_y
_atom_site_fract_z
Si Si1 0.824199 0.723081 0.272813
Si Si2 0.675316 0.197056 0.609064
Si Si3 0.824543 0.946155 0.105871
Si Si4 0.331127 0.131830 0.777933
Si Si5 0.670284 0.774602 0.891877
Si Si6 0.323340 0.552819 0.894273
Si Si7 0.165449 0.447111 0.611534
Si Si8 0.674116 0.377228 0.733661
O O1 0.756282 0.755158 0.356887
O O2 0.776043 0.741224 0.169504
O O3 0.766716 0.670025 0.283624
O O4 0.000000 0.724627 0.282196
O O5 0.717461 0.185774 0.500000
O O6 0.500000 0.205759 0.621882
O O7 0.725022 0.152945 0.676493
O O8 0.762340 0.913485 0.189806
O O9 0.000000 0.941907 0.108299
O O10 0.773876 0.000000 0.127285
O O11 0.767631 0.931468 0.000000
O O12 0.500000 0.114883 0.767819
O O13 0.313256 0.171264 0.859060
O O14 0.500000 0.757508 0.879234
O O15 0.722731 0.770730 0.000000
O O16 0.500000 0.552148 0.889842
O O17 0.264614 0.500000 0.865127
O O18 0.264239 0.594436 0.825836
O O19 0.267933 0.565166 0.000000
O O20 0.168364 0.446476 0.500000
O O21 0.202905 0.500000 0.648917
O O22 0.293212 0.411515 0.645741
O O23 0.000000 0.432019 0.647179
O O24 0.500000 0.365139 0.740238
#
# Coordination Sequence:
#
# PCOD8200350 Si02
#       8
#     8   8   8   8   8   8   8   8
#     4  11  23  36  50  73 104 133 165 206 252 304
#     4   9  19  38  60  77  97 128 167 213 263 313
#     4   9  18  31  46  69 106 149 184 211 245 293
#     4   9  17  30  51  79 103 126 165 214 260 303
#     4   9  18  34  54  74 100 134 170 209 252 299
#     4   8  15  29  49  73  98 123 156 198 239 280
#     4   9  19  36  55  74  98 127 156 190 240 299
#     4  11  21  33  52  76 100 129 165 202 244 294
#
# _framework density 17.941714000000001
#
# number of rings (size 3 to 8) (size 9 to 14) (size 15 to 20)
#    0.000    2.625    0.000    4.125    0.000    5.500 
#    0.000    2.500    0.000    1.500    0.000    7.000 
#    0.000    0.000    0.000    0.000    0.000    0.000 
#
# Total GULP energy -793360.536851 kJ/mol
# GULP energy per Si atom -12396.258388 kJ/mol
# Density = 1.790088 g / cm^3
# Si number density = 17.941714 Si / 1000 Ang^3
#
#
#
# Elastic Constant Matrix: (Units=GPa)
#
#
# Indices 1 2 3 4 5 6 
#
# 1 59.5269 43.3059 38.9415 0.0000 0.0000 0.0000
# 2 43.3059 116.4581 63.7486 0.0000 0.0000 0.0000
# 3 38.9415 63.7486 120.9751 0.0000 0.0000 0.0000
# 4 0.0000 0.0000 0.0000 69.5515 0.0000 0.0000
# 5 0.0000 0.0000 0.0000 0.0000 21.4870 0.0000
# 6 0.0000 0.0000 0.0000 0.0000 0.0000 28.5294
#
#
#
# Elastic Compliance Matrix: (Units=1/GPa)
#
#
# Indices 1 2 3 4 5 6 
#
# 1 0.024554 -0.006752 -0.004346 0.000000 0.000000 0.000000
# 2 -0.006752 0.013924 -0.005164 0.000000 0.000000 0.000000
# 3 -0.004346 -0.005164 0.012386 0.000000 0.000000 0.000000
# 4 0.000000 0.000000 0.000000 0.014378 0.000000 0.000000
# 5 0.000000 0.000000 0.000000 0.000000 0.046540 0.000000
# 6 0.000000 0.000000 0.000000 0.000000 0.000000 0.035052
#
#
# Mechanical properties :
#
#
# Convention : Reuss Voigt Hill
#
# Bulk Modulus (GPa) = 54.52242 65.43914 59.98078
# Shear Modulus (GPa) = 26.95836 33.97787 30.46811
#
# Velocity S-wave (km/s) = 3.88048 4.35649 4.12536
# Velocity P-wave (km/s) = 7.10860 7.86497 7.49633
#
# Compressibility (1/GPa) = 0.01834108
#
# Stress axis : x y z
#
# Youngs Moduli (GPa) = 40.72641 71.81706 80.73351
#
# Poissons Ratio (x) = 0.48488 0.35087
# Poissons Ratio (y) = 0.27497 0.41692
# Poissons Ratio (z) = 0.17700 0.37087
#
# Static dielectric constant tensor:
#      x y z
#    x 3.170420 0.000000 0.000000 
#    y 0.000000 3.306970 0.000000 
#    z 0.000000 0.000000 3.421500 
# 
# 
# High freq. dielectric constant tensor:
#      x y z
#    x 1.678030 0.000000 0.000000 
#    y 0.000000 1.687840 0.000000 
#    z 0.000000 0.000000 1.693670 
# 
# From -- ./inp_files/21960.got.cif
#   From: 2010.03.12/outbox.cif.g09.slc.cpg/sg47_11_cif.got.tgz:21960.got - 2010.04.14 03:12:58.
