data_PCOD8200348
_publ_section_title
;
Structure prediction by ZEFSAII (Michael W. Deem and Ramdas Pophale) SiO2 
 PCOD8200348
Probable space group: P M M M
;
_chemical_formula_sum "Si O2"
_cell_formula_units_Z 36
_cell_length_a 21.933289
_cell_length_b 8.128483
_cell_length_c 11.970247
_cell_angle_alpha 90.000000
_cell_angle_beta 90.000000
_cell_angle_gamma 90.000000
_cell_volume 2134.107906
_symmetry_space_group_name_H-M "P M M M"
_symmetry_group_IT_number 47
_symmetry_cell_setting 'orthorhombic'
loop_
_space_group_symop_operation_xyz
x,y,z
-x,-y,z
x,-y,-z
-x,y,-z
-x,-y,-z
x,y,-z
-x,y,z
x,-y,z
loop_
_atom_site_type_symbol
_atom_site_label
_atom_site_fract_x
_atom_site_fract_y
_atom_site_fract_z
Si Si1 0.610399 0.189667 0.235712
Si Si2 0.141649 0.682906 0.367674
Si Si3 0.719448 0.690981 0.373914
Si Si4 0.930587 0.000000 0.366837
Si Si5 0.500000 0.689343 0.379106
Si Si6 0.569458 0.195549 0.000000
O O1 0.677584 0.215735 0.285067
O O2 0.561042 0.271494 0.313954
O O3 0.594213 0.000000 0.231166
O O4 0.604644 0.262889 0.110026
O O5 0.135498 0.677241 0.500000
O O6 0.122135 0.500000 0.321721
O O7 0.211304 0.720369 0.334721
O O8 0.100657 0.832508 0.319120
O O9 0.709555 0.760027 0.500000
O O10 0.702708 0.500000 0.372285
O O11 0.925908 0.000000 0.500000
O O12 0.000000 0.000000 0.325390
O O13 0.500000 0.500000 0.403195
O O14 0.500000 0.780861 0.500000
O O15 0.500000 0.261864 0.000000
O O16 0.569551 0.000000 0.000000
#
# Coordination Sequence:
#
# PCOD8200348 Si02
#       6
#     8   8   8   4   4   4
#     4  11  21  33  52  70  85 114 153 192 232 281
#     4   8  15  27  41  58  87 125 158 192 233 274
#     4   9  18  32  47  66  94 123 151 189 238 282
#     4   9  16  24  38  62  90 122 163 200 224 262
#     4  11  23  36  47  64  94 119 140 185 240 281
#     4   9  18  36  52  64  88 116 144 187 240 285
#
# _framework density 16.868876
#
# number of rings (size 3 to 8) (size 9 to 14) (size 15 to 20)
#    0.000    2.556    1.111    3.000    1.556    4.444 
#    0.000    5.000    0.000    0.000    0.000    0.000 
#    0.000    0.000    0.000    2.000    0.000    9.778 
#
# Total GULP energy -446170.362331 kJ/mol
# GULP energy per Si atom -12393.621176 kJ/mol
# Density = 1.683048 g / cm^3
# Si number density = 16.868876 Si / 1000 Ang^3
#
#
#
# Elastic Constant Matrix: (Units=GPa)
#
#
# Indices 1 2 3 4 5 6 
#
# 1 108.7481 50.1980 43.1590 0.0000 0.0000 0.0000
# 2 50.1980 81.2144 28.2664 0.0000 0.0000 0.0000
# 3 43.1590 28.2664 94.1038 0.0000 0.0000 0.0000
# 4 0.0000 0.0000 0.0000 23.7163 0.0000 0.0000
# 5 0.0000 0.0000 0.0000 0.0000 2.2101 0.0000
# 6 0.0000 0.0000 0.0000 0.0000 0.0000 29.1507
#
#
#
# Elastic Compliance Matrix: (Units=1/GPa)
#
#
# Indices 1 2 3 4 5 6 
#
# 1 0.014308 -0.007326 -0.004362 0.000000 0.000000 0.000000
# 2 -0.007326 0.017501 -0.001897 0.000000 0.000000 0.000000
# 3 -0.004362 -0.001897 0.013197 0.000000 0.000000 0.000000
# 4 0.000000 0.000000 0.000000 0.042165 0.000000 0.000000
# 5 0.000000 0.000000 0.000000 0.000000 0.452477 0.000000
# 6 0.000000 0.000000 0.000000 0.000000 0.000000 0.034304
#
#
# Mechanical properties :
#
#
# Convention : Reuss Voigt Hill
#
# Bulk Modulus (GPa) = 56.06263 58.59036 57.32649
# Shear Modulus (GPa) = 8.23631 21.84494 15.04063
#
# Velocity S-wave (km/s) = 2.21205 3.60249 2.98924
# Velocity P-wave (km/s) = 6.31116 7.21888 6.78022
#
# Compressibility (1/GPa) = 0.01783719
#
# Stress axis : x y z
#
# Youngs Moduli (GPa) = 69.89037 57.13858 75.77567
#
# Poissons Ratio (x) = 0.41858 0.33051
# Poissons Ratio (y) = 0.51199 0.14376
# Poissons Ratio (z) = 0.30484 0.10840
#
# Static dielectric constant tensor:
#      x y z
#    x 3.193910 0.000000 0.000000 
#    y 0.000000 3.329130 0.000000 
#    z 0.000000 0.000000 3.085330 
# 
# 
# High freq. dielectric constant tensor:
#      x y z
#    x 1.642940 0.000000 0.000000 
#    y 0.000000 1.655450 0.000000 
#    z 0.000000 0.000000 1.602010 
# 
# From -- ./inp_files/18862.got.cif
#   From: 2010.03.12/outbox.cif.g09.slc.cpg/sg47_10_cif.got.tgz:18862.got - 2010.04.14 03:12:58.
