data_PCOD8200810
_publ_section_title
;
Structure prediction by ZEFSAII (Michael W. Deem and Ramdas Pophale) SiO2 
 PCOD8200810
Probable space group: P M M M
;
_chemical_formula_sum "Si O2"
_cell_formula_units_Z 56
_cell_length_a 9.826391
_cell_length_b 13.955241
_cell_length_c 29.052432
_cell_angle_alpha 90.000000
_cell_angle_beta 90.000000
_cell_angle_gamma 90.000000
_cell_volume 3983.949964
_symmetry_space_group_name_H-M "P M M M"
_symmetry_group_IT_number 47
_symmetry_cell_setting 'orthorhombic'
loop_
_space_group_symop_operation_xyz
x,y,z
-x,-y,z
x,-y,-z
-x,y,-z
-x,-y,-z
x,y,-z
-x,y,z
x,-y,z
loop_
_atom_site_type_symbol
_atom_site_label
_atom_site_fract_x
_atom_site_fract_y
_atom_site_fract_z
Si Si1 0.337479 0.287454 0.949137
Si Si2 0.340372 0.789139 0.805661
Si Si3 0.661499 0.394208 0.139478
Si Si4 0.339664 0.895299 0.898162
Si Si5 0.850135 0.886546 0.627973
Si Si6 0.347967 0.886066 0.551004
Si Si7 0.159533 0.110728 0.731993
O O1 0.500000 0.287290 0.949063
O O2 0.283323 0.362784 0.911087
O O3 0.283523 0.181417 0.935106
O O4 0.281519 0.313913 0.000000
O O5 0.500000 0.793070 0.792710
O O6 0.295877 0.681857 0.821335
O O7 0.305219 0.861944 0.846645
O O8 0.250239 0.818694 0.762395
O O9 0.500000 0.395912 0.136738
O O10 0.719561 0.500000 0.151360
O O11 0.500000 0.902231 0.903830
O O12 0.273079 0.000000 0.906881
O O13 0.748575 0.840856 0.590268
O O14 0.802908 0.861640 0.679590
O O15 0.000000 0.843609 0.618720
O O16 0.856003 0.000000 0.622419
O O17 0.296646 0.855485 0.500000
O O18 0.500000 0.846660 0.559285
O O19 0.348681 0.000000 0.554747
O O20 0.000000 0.127885 0.741608
O O21 0.197144 0.000000 0.741956
#
# Coordination Sequence:
#
# PCOD8200810 Si02
#       7
#     8   8   8   8   8   8   8
#     4   8  13  19  27  43  67  94 121 142 166 209
#     4   9  16  25  38  54  69  90 122 151 176 215
#     4   8  14  24  36  50  69  91 115 147 184 217
#     4   8  13  20  29  43  65  90 115 145 176 205
#     4   8  14  23  32  43  61  86 116 147 179 215
#     4   8  13  20  29  42  61  85 115 152 187 211
#     4   9  17  27  37  51  73  97 119 149 188 221
#
# _framework density 14.056402
#
# number of rings (size 3 to 8) (size 9 to 14) (size 15 to 20)
#    0.000    3.714    0.000    3.429    0.000    2.286 
#    0.000    5.714    0.000    0.429    0.000    0.000 
#    0.000    9.143    0.000   36.571    0.000   32.714 
#
# Total GULP energy -693762.483681 kJ/mol
# GULP energy per Si atom -12388.615780 kJ/mol
# Density = 1.402441 g / cm^3
# Si number density = 14.056402 Si / 1000 Ang^3
#
#
#
# Elastic Constant Matrix: (Units=GPa)
#
#
# Indices 1 2 3 4 5 6 
#
# 1 39.9096 21.1751 49.8002 0.0000 0.0000 0.0000
# 2 21.1751 76.9942 40.3536 0.0000 0.0000 0.0000
# 3 49.8002 40.3536 115.7585 0.0000 0.0000 0.0000
# 4 0.0000 0.0000 0.0000 8.0329 0.0000 0.0000
# 5 0.0000 0.0000 0.0000 0.0000 4.2498 0.0000
# 6 0.0000 0.0000 0.0000 0.0000 0.0000 6.5944
#
#
#
# Elastic Compliance Matrix: (Units=1/GPa)
#
#
# Indices 1 2 3 4 5 6 
#
# 1 0.054783 -0.003321 -0.022410 0.000000 0.000000 0.000000
# 2 -0.003321 0.016093 -0.004181 0.000000 0.000000 0.000000
# 3 -0.022410 -0.004181 0.019737 0.000000 0.000000 0.000000
# 4 0.000000 0.000000 0.000000 0.124488 0.000000 0.000000
# 5 0.000000 0.000000 0.000000 0.000000 0.235305 0.000000
# 6 0.000000 0.000000 0.000000 0.000000 0.000000 0.151644
#
#
# Mechanical properties :
#
#
# Convention : Reuss Voigt Hill
#
# Bulk Modulus (GPa) = 32.48033 50.59112 41.53572
# Shear Modulus (GPa) = 7.43895 11.86431 9.65163
#
# Velocity S-wave (km/s) = 2.30298 2.90841 2.62322
# Velocity P-wave (km/s) = 5.49808 6.88099 6.22804
#
# Compressibility (1/GPa) = 0.03078786
#
# Stress axis : x y z
#
# Youngs Moduli (GPa) = 18.25397 62.13965 50.66547
#
# Poissons Ratio (x) = 0.20636 1.13542
# Poissons Ratio (y) = 0.06062 0.21185
# Poissons Ratio (z) = 0.40908 0.25982
#
# Static dielectric constant tensor:
#      x y z
#    x 2.523640 0.000000 0.000000 
#    y 0.000000 2.806830 0.000000 
#    z 0.000000 0.000000 2.876680 
# 
# 
# High freq. dielectric constant tensor:
#      x y z
#    x 1.496830 0.000000 0.000000 
#    y 0.000000 1.496000 0.000000 
#    z 0.000000 0.000000 1.538130 
# 
# From -- ./inp_files/14210.got.cif
#   From: 2010.03.12/outbox.cif.g09.slc.cpg/sg47_8_cif.got.tgz:14210.got - 2010.04.14 03:12:58.
