data_PCOD8200231
_publ_section_title
;
Structure prediction by ZEFSAII (Michael W. Deem and Ramdas Pophale) SiO2 
 PCOD8200231
Probable space group: P M M M
;
_chemical_formula_sum "Si O2"
_cell_formula_units_Z 52
_cell_length_a 23.228223
_cell_length_b 14.750983
_cell_length_c 8.949915
_cell_angle_alpha 90.000000
_cell_angle_beta 90.000000
_cell_angle_gamma 90.000000
_cell_volume 3066.591023
_symmetry_space_group_name_H-M "P M M M"
_symmetry_group_IT_number 47
_symmetry_cell_setting 'orthorhombic'
loop_
_space_group_symop_operation_xyz
x,y,z
-x,-y,z
x,-y,-z
-x,y,-z
-x,-y,-z
x,y,-z
-x,y,z
x,-y,z
loop_
_atom_site_type_symbol
_atom_site_label
_atom_site_fract_x
_atom_site_fract_y
_atom_site_fract_z
Si Si1 0.163151 0.101564 0.322551
Si Si2 0.602695 0.217416 0.322389
Si Si3 0.935622 0.227090 0.675769
Si Si4 0.290025 0.898479 0.322815
Si Si5 0.931895 0.402007 0.165659
Si Si6 0.500000 0.893519 0.822913
Si Si7 0.567418 0.397460 0.173450
O O1 0.160879 0.109147 0.500000
O O2 0.111106 0.159514 0.251890
O O3 0.226560 0.133075 0.266459
O O4 0.152192 0.000000 0.268488
O O5 0.594313 0.214040 0.500000
O O6 0.663462 0.175109 0.269166
O O7 0.555165 0.155147 0.245572
O O8 0.600984 0.322093 0.269516
O O9 0.938136 0.216648 0.500000
O O10 0.912469 0.326982 0.715875
O O11 0.000000 0.208680 0.741990
O O12 0.289797 0.903976 0.500000
O O13 0.304315 0.000000 0.261054
O O14 0.906366 0.500000 0.214093
O O15 0.000000 0.408676 0.163305
O O16 0.909468 0.376270 0.000000
O O17 0.500000 0.000000 0.780266
O O18 0.500000 0.879233 0.000000
O O19 0.500000 0.383857 0.202638
O O20 0.585609 0.500000 0.221839
O O21 0.581837 0.382643 0.000000
#
# Coordination Sequence:
#
# PCOD8200231 Si02
#       7
#     8   8   8   8   8   4   8
#     4   8  14  26  43  62  88 122 153 180 218 270
#     4  11  20  30  49  75  96 116 150 198 237 263
#     4   9  16  24  39  67  94 112 140 186 231 265
#     4   8  15  28  45  65  90 121 154 185 221 268
#     4   8  14  25  40  57  80 113 147 174 209 264
#     4  11  23  35  46  65  98 133 155 176 220 281
#     4   9  18  33  51  69  94 128 158 183 220 277
#
# _framework density 16.956939999999999
#
# number of rings (size 3 to 8) (size 9 to 14) (size 15 to 20)
#    0.000    3.000    0.769    3.000    0.000    2.154 
#    0.000    3.846    0.000    3.231    0.000   12.923 
#    0.000    0.000    0.000    0.000    0.000    0.000 
#
# Total GULP energy -644276.641167 kJ/mol
# GULP energy per Si atom -12389.935407 kJ/mol
# Density = 1.691835 g / cm^3
# Si number density = 16.956940 Si / 1000 Ang^3
#
#
#
# Elastic Constant Matrix: (Units=GPa)
#
#
# Indices 1 2 3 4 5 6 
#
# 1 113.6997 83.4313 27.3238 0.0000 0.0000 0.0000
# 2 83.4313 141.4155 33.8583 0.0000 0.0000 0.0000
# 3 27.3238 33.8583 33.7504 0.0000 0.0000 0.0000
# 4 0.0000 0.0000 0.0000 17.3998 0.0000 0.0000
# 5 0.0000 0.0000 0.0000 0.0000 4.2311 0.0000
# 6 0.0000 0.0000 0.0000 0.0000 0.0000 15.6710
#
#
#
# Elastic Compliance Matrix: (Units=1/GPa)
#
#
# Indices 1 2 3 4 5 6 
#
# 1 0.016033 -0.008359 -0.004594 0.000000 0.000000 0.000000
# 2 -0.008359 0.013665 -0.006941 0.000000 0.000000 0.000000
# 3 -0.004594 -0.006941 0.040312 0.000000 0.000000 0.000000
# 4 0.000000 0.000000 0.000000 0.057472 0.000000 0.000000
# 5 0.000000 0.000000 0.000000 0.000000 0.236345 0.000000
# 6 0.000000 0.000000 0.000000 0.000000 0.000000 0.063812
#
#
# Mechanical properties :
#
#
# Convention : Reuss Voigt Hill
#
# Bulk Modulus (GPa) = 33.08971 64.23250 48.66110
# Shear Modulus (GPa) = 10.47118 17.07719 13.77419
#
# Velocity S-wave (km/s) = 2.48768 3.17691 2.85319
# Velocity P-wave (km/s) = 5.27330 7.17071 6.29392
#
# Compressibility (1/GPa) = 0.03022088
#
# Stress axis : x y z
#
# Youngs Moduli (GPa) = 62.37174 73.18050 24.80646
#
# Poissons Ratio (x) = 0.61172 0.11397
# Poissons Ratio (y) = 0.52137 0.17219
# Poissons Ratio (z) = 0.28655 0.50796
#
# Static dielectric constant tensor:
#      x y z
#    x 3.452740 0.000000 0.000000 
#    y 0.000000 3.538970 0.000000 
#    z 0.000000 0.000000 2.891510 
# 
# 
# High freq. dielectric constant tensor:
#      x y z
#    x 1.631710 0.000000 0.000000 
#    y 0.000000 1.661790 0.000000 
#    z 0.000000 0.000000 1.623170 
# 
# From -- ./inp_files/12506.got.cif
#   From: 2010.03.12/outbox.cif.g09.slc.cpg/sg47_7_cif.got.tgz:12506.got - 2010.04.14 03:12:58.
