data_PCOD8200576
_publ_section_title
;
Structure prediction by ZEFSAII (Michael W. Deem and Ramdas Pophale) SiO2 
 PCOD8200576
Probable space group: P M M M
;
_chemical_formula_sum "Si O2"
_cell_formula_units_Z 40
_cell_length_a 7.916879
_cell_length_b 29.368949
_cell_length_c 9.538233
_cell_angle_alpha 90.000000
_cell_angle_beta 90.000000
_cell_angle_gamma 90.000000
_cell_volume 2217.738519
_symmetry_space_group_name_H-M "P M M M"
_symmetry_group_IT_number 47
_symmetry_cell_setting 'orthorhombic'
loop_
_space_group_symop_operation_xyz
x,y,z
-x,-y,z
x,-y,-z
-x,y,-z
-x,-y,-z
x,y,-z
-x,y,z
x,-y,z
loop_
_atom_site_type_symbol
_atom_site_label
_atom_site_fract_x
_atom_site_fract_y
_atom_site_fract_z
Si Si1 0.186699 0.596381 0.833215
Si Si2 0.309590 0.500000 0.166882
Si Si3 0.197788 0.918246 0.154665
Si Si4 0.811681 0.816675 0.833280
Si Si5 0.500000 0.345093 0.832697
Si Si6 0.694727 0.000000 0.346966
Si Si7 0.500000 0.242152 0.167401
O O1 0.216511 0.545155 0.776508
O O2 0.331726 0.629933 0.774164
O O3 0.000000 0.612731 0.783803
O O4 0.197085 0.596241 0.000000
O O5 0.500000 0.500000 0.224086
O O6 0.309345 0.500000 0.000000
O O7 0.242098 0.867772 0.211547
O O8 0.000000 0.923318 0.138685
O O9 0.261652 0.954733 0.263788
O O10 0.279637 0.926324 0.000000
O O11 0.669687 0.782232 0.774193
O O12 0.000000 0.804203 0.774815
O O13 0.818527 0.814440 0.000000
O O14 0.500000 0.293637 0.775992
O O15 0.500000 0.346001 0.000000
O O16 0.500000 0.000000 0.374772
O O17 0.786269 0.000000 0.500000
O O18 0.500000 0.240584 0.000000
#
# Coordination Sequence:
#
# PCOD8200576 Si02
#       7
#     8   4   8   8   4   4   4
#     4   9  15  21  28  37  51  74 103 136 177 225
#     4   9  13  19  29  36  47  67  98 141 177 216
#     4   9  18  33  52  71  89 114 152 189 217 257
#     4   8  15  27  42  61  80  97 127 169 203 240
#     4   9  16  23  28  41  61  80 105 136 177 239
#     4  11  24  35  44  68 102 127 148 177 218 270
#     4   9  16  24  37  53  71  95 118 148 201 251
#
# _framework density 18.036390000000001
#
# number of rings (size 3 to 8) (size 9 to 14) (size 15 to 20)
#    0.000    3.000    1.000    2.100    1.400    4.400 
#    0.000    4.000    0.000    0.000    0.000    0.000 
#    0.000    0.000    0.000    0.000    0.000    0.000 
#
# Total GULP energy -495653.820387 kJ/mol
# GULP energy per Si atom -12391.345510 kJ/mol
# Density = 1.799534 g / cm^3
# Si number density = 18.036390 Si / 1000 Ang^3
#
#
#
# Elastic Constant Matrix: (Units=GPa)
#
#
# Indices 1 2 3 4 5 6 
#
# 1 136.4807 91.1589 16.6716 0.0000 0.0000 0.0000
# 2 91.1589 164.8044 28.5708 0.0000 0.0000 0.0000
# 3 16.6716 28.5708 30.8079 0.0000 0.0000 0.0000
# 4 0.0000 0.0000 0.0000 -1.6869 0.0000 0.0000
# 5 0.0000 0.0000 0.0000 0.0000 0.2610 0.0000
# 6 0.0000 0.0000 0.0000 0.0000 0.0000 25.4246
#
#
#
# Elastic Compliance Matrix: (Units=1/GPa)
#
#
# Indices 1 2 3 4 5 6 
#
# 1 0.011624 -0.006362 -0.000390 0.000000 0.000000 0.000000
# 2 -0.006362 0.010712 -0.006492 0.000000 0.000000 0.000000
# 3 -0.000390 -0.006492 0.038691 0.000000 0.000000 0.000000
# 4 0.000000 0.000000 0.000000 -0.592807 0.000000 0.000000
# 5 0.000000 0.000000 0.000000 0.000000 3.830726 0.000000
# 6 0.000000 0.000000 0.000000 0.000000 0.000000 0.039332
#
#
# Mechanical properties :
#
#
# Convention : Reuss Voigt Hill
#
# Bulk Modulus (GPa) = 28.95268 67.21062 48.08165
# Shear Modulus (GPa) = 1.48092 17.84588 9.66340
#
# Velocity S-wave (km/s) = 0.90711 3.14894 2.31719
# Velocity P-wave (km/s) = 4.14540 7.11097 5.82024
#
# Compressibility (1/GPa) = 0.03453912
#
# Stress axis : x y z
#
# Youngs Moduli (GPa) = 86.02854 93.35132 25.84607
#
# Poissons Ratio (x) = 0.59390 0.01009
# Poissons Ratio (y) = 0.54731 0.16778
# Poissons Ratio (z) = 0.03358 0.60600
#
# Static dielectric constant tensor:
#      x y z
#    x 3.646480 0.000000 0.000000 
#    y 0.000000 3.457240 0.000000 
#    z 0.000000 0.000000 2.245310 
# 
# 
# High freq. dielectric constant tensor:
#      x y z
#    x 1.713280 0.000000 0.000000 
#    y 0.000000 1.704480 0.000000 
#    z 0.000000 0.000000 1.601740 
# 
# From -- ./inp_files/1914.got.cif
#   From: 2010.03.12/outbox.cif.g09.slc.cpg/sg47_1_cif.got.tgz:1914.got - 2010.04.14 03:12:58.
