data_PCOD8200201
_publ_section_title
;
Structure prediction by ZEFSAII (Michael W. Deem and Ramdas Pophale) SiO2 
 PCOD8200201
Probable space group: P M M M
;
_chemical_formula_sum "Si O2"
_cell_formula_units_Z 56
_cell_length_a 21.217312
_cell_length_b 9.038320
_cell_length_c 18.366139
_cell_angle_alpha 90.000000
_cell_angle_beta 90.000000
_cell_angle_gamma 90.000000
_cell_volume 3522.053454
_symmetry_space_group_name_H-M "P M M M"
_symmetry_group_IT_number 47
_symmetry_cell_setting 'orthorhombic'
loop_
_space_group_symop_operation_xyz
x,y,z
-x,-y,z
x,-y,-z
-x,y,-z
-x,-y,-z
x,y,-z
-x,y,z
x,-y,z
loop_
_atom_site_type_symbol
_atom_site_label
_atom_site_fract_x
_atom_site_fract_y
_atom_site_fract_z
Si Si1 0.710698 0.673022 0.083127
Si Si2 0.760991 0.666321 0.295769
Si Si3 0.430727 0.825846 0.666789
Si Si4 0.821086 0.175218 0.832570
Si Si5 0.308258 0.174976 0.416529
Si Si6 0.926777 0.669963 0.916454
Si Si7 0.369632 0.336802 0.788975
O O1 0.727781 0.500000 0.094181
O O2 0.769195 0.769045 0.110235
O O3 0.646835 0.712289 0.128321
O O4 0.696459 0.712430 0.000000
O O5 0.785541 0.500000 0.310816
O O6 0.812060 0.754779 0.247793
O O7 0.748554 0.748373 0.372510
O O8 0.696637 0.663747 0.251818
O O9 0.500000 0.768874 0.641564
O O10 0.376832 0.767690 0.611746
O O11 0.417823 0.772888 0.749455
O O12 0.429971 0.000000 0.668441
O O13 0.888993 0.222957 0.862681
O O14 0.816931 0.000000 0.825393
O O15 0.301858 0.222595 0.500000
O O16 0.302703 0.000000 0.405856
O O17 0.907667 0.500000 0.901686
O O18 0.000000 0.694964 0.900147
O O19 0.911245 0.710728 0.000000
O O20 0.400019 0.500000 0.787275
#
# Coordination Sequence:
#
# PCOD8200201 Si02
#       7
#     8   8   8   8   8   8   8
#     4   9  17  29  44  61  82 108 139 177 221 267
#     4   9  17  30  46  62  83 113 147 179 212 255
#     4   9  17  28  42  60  82 111 144 172 203 251
#     4  11  20  28  42  65  91 116 146 184 222 259
#     4   9  17  29  45  66  92 116 137 170 216 259
#     4   9  18  32  47  62  86 124 163 192 220 256
#     4   8  15  27  42  59  77 101 135 176 218 254
#
# _framework density 15.899815
#
# number of rings (size 3 to 8) (size 9 to 14) (size 15 to 20)
#    0.000    2.857    0.000    3.429    0.000    6.857 
#    0.000    2.143    0.000    0.429    0.000    7.000 
#    0.000    0.571    0.000    6.000    0.000    2.571 
#
# Total GULP energy -694150.074020 kJ/mol
# GULP energy per Si atom -12395.537036 kJ/mol
# Density = 1.586363 g / cm^3
# Si number density = 15.899815 Si / 1000 Ang^3
#
#
#
# Elastic Constant Matrix: (Units=GPa)
#
#
# Indices 1 2 3 4 5 6 
#
# 1 52.9338 31.9120 45.7170 0.0000 0.0000 0.0000
# 2 31.9120 67.1316 44.0678 0.0000 0.0000 0.0000
# 3 45.7170 44.0678 123.8581 0.0000 0.0000 0.0000
# 4 0.0000 0.0000 0.0000 25.0258 0.0000 0.0000
# 5 0.0000 0.0000 0.0000 0.0000 20.2649 0.0000
# 6 0.0000 0.0000 0.0000 0.0000 0.0000 21.1686
#
#
#
# Elastic Compliance Matrix: (Units=1/GPa)
#
#
# Indices 1 2 3 4 5 6 
#
# 1 0.031947 -0.009715 -0.008336 0.000000 0.000000 0.000000
# 2 -0.009715 0.022390 -0.004380 0.000000 0.000000 0.000000
# 3 -0.008336 -0.004380 0.012709 0.000000 0.000000 0.000000
# 4 0.000000 0.000000 0.000000 0.039959 0.000000 0.000000
# 5 0.000000 0.000000 0.000000 0.000000 0.049346 0.000000
# 6 0.000000 0.000000 0.000000 0.000000 0.000000 0.047240
#
#
# Mechanical properties :
#
#
# Convention : Reuss Voigt Hill
#
# Bulk Modulus (GPa) = 45.07633 54.14636 49.61135
# Shear Modulus (GPa) = 19.54293 21.44030 20.49161
#
# Velocity S-wave (km/s) = 3.50970 3.67613 3.59387
# Velocity P-wave (km/s) = 6.69595 7.22130 6.96358
#
# Compressibility (1/GPa) = 0.02218459
#
# Stress axis : x y z
#
# Youngs Moduli (GPa) = 31.30146 44.66362 78.68497
#
# Poissons Ratio (x) = 0.43390 0.65588
# Poissons Ratio (y) = 0.30409 0.34466
# Poissons Ratio (z) = 0.26091 0.19564
#
# Static dielectric constant tensor:
#      x y z
#    x 2.888030 0.000000 0.000000 
#    y 0.000000 3.044620 0.000000 
#    z 0.000000 0.000000 3.159590 
# 
# 
# High freq. dielectric constant tensor:
#      x y z
#    x 1.577230 0.000000 0.000000 
#    y 0.000000 1.609460 0.000000 
#    z 0.000000 0.000000 1.601530 
# 
# From -- ./inp_files/9853.got.cif
#   From: 2010.03.12/outbox.cif.g09.slc.cpg/sg47_5_cif.got.tgz:9853.got - 2010.04.14 03:12:58.
