data_PCOD8200832
_publ_section_title
;
Structure prediction by ZEFSAII (Michael W. Deem and Ramdas Pophale) SiO2 
 PCOD8200832
Probable space group: P M M M
;
_chemical_formula_sum "Si O2"
_cell_formula_units_Z 52
_cell_length_a 13.139615
_cell_length_b 9.159940
_cell_length_c 23.572654
_cell_angle_alpha 90.000000
_cell_angle_beta 90.000000
_cell_angle_gamma 90.000000
_cell_volume 2837.159494
_symmetry_space_group_name_H-M "P M M M"
_symmetry_group_IT_number 47
_symmetry_cell_setting 'orthorhombic'
loop_
_space_group_symop_operation_xyz
x,y,z
-x,-y,z
x,-y,-z
-x,y,-z
-x,-y,-z
x,y,-z
-x,y,z
x,-y,z
loop_
_atom_site_type_symbol
_atom_site_label
_atom_site_fract_x
_atom_site_fract_y
_atom_site_fract_z
Si Si1 0.800560 0.670236 0.063661
Si Si2 0.689985 0.674167 0.436235
Si Si3 0.887972 0.326442 0.374392
Si Si4 0.500000 0.325426 0.765539
Si Si5 0.111864 0.326259 0.753589
Si Si6 0.500000 0.326143 0.363657
Si Si7 0.298964 0.671644 0.824688
Si Si8 0.000000 0.163039 0.067261
O O1 0.827966 0.500000 0.064143
O O2 0.709024 0.705012 0.107689
O O3 0.899567 0.752557 0.087368
O O4 0.768513 0.720372 0.000000
O O5 0.671878 0.731659 0.500000
O O6 0.690330 0.500000 0.435193
O O7 0.798481 0.736249 0.414270
O O8 0.599903 0.733536 0.395968
O O9 0.885148 0.500000 0.375632
O O10 0.868261 0.271766 0.310429
O O11 0.000000 0.272828 0.395413
O O12 0.500000 0.500000 0.766731
O O13 0.500000 0.267822 0.700907
O O14 0.598147 0.261017 0.798592
O O15 0.114174 0.500000 0.755505
O O16 0.200324 0.260123 0.793267
O O17 0.000000 0.271517 0.774231
O O18 0.500000 0.500000 0.363769
O O19 0.300681 0.500000 0.813491
O O20 0.000000 0.000000 0.092797
O O21 0.000000 0.158800 0.000000
#
# Coordination Sequence:
#
# PCOD8200832 Si02
#       8
#     8   8   8   4   8   4   8   4
#     4   9  17  28  42  62  88 115 141 172 213 257
#     4   9  15  20  26  36  49  69 102 146 197 245
#     4   8  13  20  27  35  50  72 100 138 187 240
#     4   9  16  25  35  49  68  96 129 163 204 253
#     4   8  13  20  30  44  61  84 115 151 195 248
#     4   9  15  22  31  39  54  78 109 151 200 243
#     4   9  16  24  36  53  75 100 131 165 205 254
#     4   9  17  29  45  65  89 117 145 171 204 249
#
# _framework density 18.328188999999998
#
# number of rings (size 3 to 8) (size 9 to 14) (size 15 to 20)
#    0.000    3.308    0.000    2.308    1.077    5.846 
#    0.000    1.923    0.000    2.308    0.000    0.538 
#    0.000    2.462    0.000    0.000    0.000    0.000 
#
# Total GULP energy -644344.266728 kJ/mol
# GULP energy per Si atom -12391.235899 kJ/mol
# Density = 1.828647 g / cm^3
# Si number density = 18.328189 Si / 1000 Ang^3
#
#
#
# Elastic Constant Matrix: (Units=GPa)
#
#
# Indices 1 2 3 4 5 6 
#
# 1 171.9786 7.8926 98.5860 0.0000 0.0000 0.0000
# 2 7.8926 10.9733 9.5820 0.0000 0.0000 0.0000
# 3 98.5860 9.5820 138.9676 0.0000 0.0000 0.0000
# 4 0.0000 0.0000 0.0000 1.8764 0.0000 0.0000
# 5 0.0000 0.0000 0.0000 0.0000 35.5097 0.0000
# 6 0.0000 0.0000 0.0000 0.0000 0.0000 1.0147
#
#
#
# Elastic Compliance Matrix: (Units=1/GPa)
#
#
# Indices 1 2 3 4 5 6 
#
# 1 0.009811 -0.001042 -0.006888 0.000000 0.000000 0.000000
# 2 -0.001042 0.097080 -0.005955 0.000000 0.000000 0.000000
# 3 -0.006888 -0.005955 0.012493 0.000000 0.000000 0.000000
# 4 0.000000 0.000000 0.000000 0.532947 0.000000 0.000000
# 5 0.000000 0.000000 0.000000 0.000000 0.028161 0.000000
# 6 0.000000 0.000000 0.000000 0.000000 0.000000 0.985551
#
#
# Mechanical properties :
#
#
# Convention : Reuss Voigt Hill
#
# Bulk Modulus (GPa) = 10.91532 61.56008 36.23770
# Shear Modulus (GPa) = 2.89964 21.40407 12.15185
#
# Velocity S-wave (km/s) = 1.25917 3.42105 2.57770
# Velocity P-wave (km/s) = 2.84296 7.01893 5.35480
#
# Compressibility (1/GPa) = 0.09161435
#
# Stress axis : x y z
#
# Youngs Moduli (GPa) = 101.92374 10.30082 80.04303
#
# Poissons Ratio (x) = 0.01073 0.55137
# Poissons Ratio (y) = 0.10618 0.47663
# Poissons Ratio (z) = 0.70210 0.06134
#
# Static dielectric constant tensor:
#      x y z
#    x 3.725270 0.000000 0.000000 
#    y 0.000000 2.537880 0.000000 
#    z 0.000000 0.000000 3.550770 
# 
# 
# High freq. dielectric constant tensor:
#      x y z
#    x 1.715470 0.000000 0.000000 
#    y 0.000000 1.608340 0.000000 
#    z 0.000000 0.000000 1.719060 
# 
# From -- ./inp_files/33659.got.cif
#   From: 2010.03.12/outbox.cif.g09.slc.cpg/sg47_17_cif.got.tgz:33659.got - 2010.04.14 03:12:58.
