data_PCOD8200745
_publ_section_title
;
Structure prediction by ZEFSAII (Michael W. Deem and Ramdas Pophale) SiO2 
 PCOD8200745
Probable space group: P M M M
;
_chemical_formula_sum "Si O2"
_cell_formula_units_Z 56
_cell_length_a 13.539566
_cell_length_b 29.570257
_cell_length_c 9.754145
_cell_angle_alpha 90.000000
_cell_angle_beta 90.000000
_cell_angle_gamma 90.000000
_cell_volume 3905.251879
_symmetry_space_group_name_H-M "P M M M"
_symmetry_group_IT_number 47
_symmetry_cell_setting 'orthorhombic'
loop_
_space_group_symop_operation_xyz
x,y,z
-x,-y,z
x,-y,-z
-x,y,-z
-x,-y,-z
x,y,-z
-x,y,z
x,-y,z
loop_
_atom_site_type_symbol
_atom_site_label
_atom_site_fract_x
_atom_site_fract_y
_atom_site_fract_z
Si Si1 0.889513 0.047877 0.337184
Si Si2 0.110052 0.605580 0.344267
Si Si3 0.885484 0.774186 0.841798
Si Si4 0.389475 0.374324 0.843315
Si Si5 0.299938 0.551607 0.659212
Si Si6 0.881948 0.855317 0.654390
Si Si7 0.801195 0.678998 0.158665
O O1 0.894808 0.050078 0.500000
O O2 0.839562 0.095660 0.291086
O O3 0.000000 0.045983 0.277019
O O4 0.835928 0.000000 0.292131
O O5 0.124443 0.622577 0.500000
O O6 0.186688 0.565579 0.310609
O O7 0.125654 0.648242 0.246425
O O8 0.000000 0.586204 0.320988
O O9 0.843482 0.815866 0.753472
O O10 0.819596 0.730937 0.801319
O O11 0.000000 0.763750 0.808190
O O12 0.872072 0.787145 0.000000
O O13 0.500000 0.355568 0.818315
O O14 0.373225 0.417706 0.747551
O O15 0.312545 0.334151 0.808291
O O16 0.375210 0.390269 0.000000
O O17 0.326740 0.558089 0.500000
O O18 0.313800 0.500000 0.705219
O O19 0.844991 0.844954 0.500000
O O20 0.000000 0.857892 0.657355
O O21 0.827684 0.671002 0.000000
#
# Coordination Sequence:
#
# PCOD8200745 Si02
#       7
#     8   8   8   8   8   8   8
#     4   7   9  14  25  40  57  79 111 150 184 208
#     4   9  17  28  42  60  80 101 125 152 178 204
#     4   9  16  24  34  49  70  95 119 143 174 212
#     4   9  18  32  48  63  77  94 119 153 188 218
#     4   9  18  31  45  62  83 104 124 145 173 213
#     4   8  13  20  30  45  64  87 117 151 182 208
#     4   9  17  29  43  57  74  97 124 151 182 222
#
# _framework density 14.339665
#
# number of rings (size 3 to 8) (size 9 to 14) (size 15 to 20)
#    0.000    3.429    0.000    1.714    0.000    2.571 
#    0.000    4.286    0.000    0.429    0.000    7.000 
#    0.000    0.000    0.000    0.000    0.000    0.714 
#
# Total GULP energy -693799.546005 kJ/mol
# GULP energy per Si atom -12389.277607 kJ/mol
# Density = 1.430703 g / cm^3
# Si number density = 14.339665 Si / 1000 Ang^3
#
#
#
# Elastic Constant Matrix: (Units=GPa)
#
#
# Indices 1 2 3 4 5 6 
#
# 1 52.5723 30.3344 18.6623 0.0000 0.0000 0.0000
# 2 30.3344 132.4714 47.0109 0.0000 0.0000 0.0000
# 3 18.6623 47.0109 42.7128 0.0000 0.0000 0.0000
# 4 0.0000 0.0000 0.0000 15.8967 0.0000 0.0000
# 5 0.0000 0.0000 0.0000 0.0000 13.3135 0.0000
# 6 0.0000 0.0000 0.0000 0.0000 0.0000 8.7699
#
#
#
# Elastic Compliance Matrix: (Units=1/GPa)
#
#
# Indices 1 2 3 4 5 6 
#
# 1 0.023132 -0.002806 -0.007018 0.000000 0.000000 0.000000
# 2 -0.002806 0.012727 -0.012782 0.000000 0.000000 0.000000
# 3 -0.007018 -0.012782 0.040547 0.000000 0.000000 0.000000
# 4 0.000000 0.000000 0.000000 0.062906 0.000000 0.000000
# 5 0.000000 0.000000 0.000000 0.000000 0.075112 0.000000
# 6 0.000000 0.000000 0.000000 0.000000 0.000000 0.114026
#
#
# Mechanical properties :
#
#
# Convention : Reuss Voigt Hill
#
# Bulk Modulus (GPa) = 32.05830 46.64130 39.34980
# Shear Modulus (GPa) = 13.01876 16.37928 14.69902
#
# Velocity S-wave (km/s) = 3.01638 3.38336 3.20513
# Velocity P-wave (km/s) = 5.87676 6.91806 6.41856
#
# Compressibility (1/GPa) = 0.03119317
#
# Stress axis : x y z
#
# Youngs Moduli (GPa) = 43.23007 78.57028 24.66285
#
# Poissons Ratio (x) = 0.22050 0.17309
# Poissons Ratio (y) = 0.12132 0.31524
# Poissons Ratio (z) = 0.30340 1.00429
#
# Static dielectric constant tensor:
#      x y z
#    x 2.531440 0.000000 0.000000 
#    y 0.000000 3.069560 0.000000 
#    z 0.000000 0.000000 2.773860 
# 
# 
# High freq. dielectric constant tensor:
#      x y z
#    x 1.500060 0.000000 0.000000 
#    y 0.000000 1.549840 0.000000 
#    z 0.000000 0.000000 1.539560 
# 
# From -- ./inp_files/8118.got.cif
#   From: 2010.03.12/outbox.cif.g09.slc.cpg/sg47_5_cif.got.tgz:8118.got - 2010.04.14 03:12:58.
