data_PCOD8200402
_publ_section_title
;
Structure prediction by ZEFSAII (Michael W. Deem and Ramdas Pophale) SiO2 
 PCOD8200402
Probable space group: P M M M
;
_chemical_formula_sum "Si O2"
_cell_formula_units_Z 48
_cell_length_a 20.571207
_cell_length_b 13.956145
_cell_length_c 8.740979
_cell_angle_alpha 90.000000
_cell_angle_beta 90.000000
_cell_angle_gamma 90.000000
_cell_volume 2509.489161
_symmetry_space_group_name_H-M "P M M M"
_symmetry_group_IT_number 47
_symmetry_cell_setting 'orthorhombic'
loop_
_space_group_symop_operation_xyz
x,y,z
-x,-y,z
x,-y,-z
-x,y,-z
-x,-y,-z
x,y,-z
-x,y,z
x,-y,z
loop_
_atom_site_type_symbol
_atom_site_label
_atom_site_fract_x
_atom_site_fract_y
_atom_site_fract_z
Si Si1 0.000000 0.107733 0.181206
Si Si2 0.327860 0.391777 0.677186
Si Si3 0.500000 0.892108 0.680553
Si Si4 0.823059 0.608477 0.322659
Si Si5 0.131603 0.207076 0.820022
Si Si6 0.377374 0.209710 0.821958
Si Si7 0.255532 0.887026 0.324939
O O1 0.063246 0.164919 0.237873
O O2 0.000000 0.000000 0.249862
O O3 0.000000 0.102185 0.000000
O O4 0.345378 0.378571 0.500000
O O5 0.342794 0.500000 0.730126
O O6 0.252428 0.367111 0.704948
O O7 0.372242 0.321381 0.776851
O O8 0.500000 0.895682 0.500000
O O9 0.563730 0.837531 0.733242
O O10 0.500000 0.000000 0.747813
O O11 0.840684 0.621565 0.500000
O O12 0.838314 0.500000 0.270087
O O13 0.866119 0.680228 0.221220
O O14 0.186208 0.150129 0.728906
O O15 0.141720 0.192542 0.000000
O O16 0.311143 0.156396 0.780510
O O17 0.391193 0.200609 0.000000
O O18 0.267345 0.854799 0.500000
O O19 0.257126 0.000000 0.307549
#
# Coordination Sequence:
#
# PCOD8200402 Si02
#       7
#     4   8   4   8   8   8   8
#     4   9  20  38  56  77 114 158 193 233 294 359
#     4   9  18  35  60  87 118 157 195 233 284 346
#     4  11  25  45  66  85 114 161 205 240 286 345
#     4   9  18  34  57  84 116 153 190 233 288 347
#     4  11  21  35  58  86 113 148 193 243 295 345
#     4  12  24  38  60  91 122 152 190 242 295 344
#     4  11  23  38  57  82 114 151 193 241 289 344
#
# _framework density 19.127400000000002
#
# number of rings (size 3 to 8) (size 9 to 14) (size 15 to 20)
#    0.000    1.667    1.667    4.750    0.000    5.333 
#    0.000    4.167    0.000    8.000    0.000    0.000 
#    0.000    0.000    0.000    0.000    0.000    0.000 
#
# Total GULP energy -595364.425173 kJ/mol
# GULP energy per Si atom -12403.425524 kJ/mol
# Density = 1.908386 g / cm^3
# Si number density = 19.127400 Si / 1000 Ang^3
#
#
#
# Elastic Constant Matrix: (Units=GPa)
#
#
# Indices 1 2 3 4 5 6 
#
# 1 103.9082 56.1825 17.8686 0.0000 0.0000 0.0000
# 2 56.1825 128.3592 40.2381 0.0000 0.0000 0.0000
# 3 17.8686 40.2381 56.6622 0.0000 0.0000 0.0000
# 4 0.0000 0.0000 0.0000 24.4783 0.0000 0.0000
# 5 0.0000 0.0000 0.0000 0.0000 30.2527 0.0000
# 6 0.0000 0.0000 0.0000 0.0000 0.0000 31.0446
#
#
#
# Elastic Compliance Matrix: (Units=1/GPa)
#
#
# Indices 1 2 3 4 5 6 
#
# 1 0.012608 -0.005495 -0.000073 0.000000 0.000000 0.000000
# 2 -0.005495 0.012417 -0.007085 0.000000 0.000000 0.000000
# 3 -0.000073 -0.007085 0.022703 0.000000 0.000000 0.000000
# 4 0.000000 0.000000 0.000000 0.040852 0.000000 0.000000
# 5 0.000000 0.000000 0.000000 0.000000 0.033055 0.000000
# 6 0.000000 0.000000 0.000000 0.000000 0.000000 0.032212
#
#
# Mechanical properties :
#
#
# Convention : Reuss Voigt Hill
#
# Bulk Modulus (GPa) = 44.60233 57.50091 51.05162
# Shear Modulus (GPa) = 26.79138 28.79781 27.79460
#
# Velocity S-wave (km/s) = 3.74663 3.88439 3.81613
# Velocity P-wave (km/s) = 6.48733 7.08839 6.79451
#
# Compressibility (1/GPa) = 0.02242035
#
# Stress axis : x y z
#
# Youngs Moduli (GPa) = 79.31572 80.53539 44.04752
#
# Poissons Ratio (x) = 0.44258 0.00323
# Poissons Ratio (y) = 0.43587 0.31207
# Poissons Ratio (z) = 0.00582 0.57057
#
# Static dielectric constant tensor:
#      x y z
#    x 0.360260 0.000000 0.000000 
#    y 0.000000 3.788880 0.000000 
#    z 0.000000 0.000000 3.401600 
# 
# 
# High freq. dielectric constant tensor:
#      x y z
#    x 1.728640 0.000000 0.000000 
#    y 0.000000 1.765590 0.000000 
#    z 0.000000 0.000000 1.737170 
# 
# From -- ./inp_files/9140.got.cif
#   From: 2010.03.12/outbox.cif.g09.slc.cpg/sg47_5_cif.got.tgz:9140.got - 2010.04.14 03:12:58.
