data_PCOD8200567
_publ_section_title
;
Structure prediction by ZEFSAII (Michael W. Deem and Ramdas Pophale) SiO2 
 PCOD8200567
Probable space group: P M M M
;
_chemical_formula_sum "Si O2"
_cell_formula_units_Z 48
_cell_length_a 17.885653
_cell_length_b 8.532933
_cell_length_c 15.941779
_cell_angle_alpha 90.000000
_cell_angle_beta 90.000000
_cell_angle_gamma 90.000000
_cell_volume 2432.987740
_symmetry_space_group_name_H-M "P M M M"
_symmetry_group_IT_number 47
_symmetry_cell_setting 'orthorhombic'
loop_
_space_group_symop_operation_xyz
x,y,z
-x,-y,z
x,-y,-z
-x,y,-z
-x,-y,-z
x,y,-z
-x,y,z
x,-y,z
loop_
_atom_site_type_symbol
_atom_site_label
_atom_site_fract_x
_atom_site_fract_y
_atom_site_fract_z
Si Si1 0.832360 0.823774 0.154764
Si Si2 0.083776 0.187853 0.000000
Si Si3 0.844207 0.811994 0.337654
Si Si4 0.315957 0.684714 0.650693
Si Si5 0.412874 0.184959 0.500000
Si Si6 0.585698 0.184642 0.000000
Si Si7 0.337481 0.822602 0.833298
Si Si8 0.000000 0.827458 0.597487
O O1 0.847410 0.743240 0.243675
O O2 0.745984 0.821472 0.131780
O O3 0.862897 0.000000 0.162399
O O4 0.877503 0.736562 0.081606
O O5 0.000000 0.245176 0.000000
O O6 0.093300 0.000000 0.000000
O O7 0.766630 0.747741 0.376147
O O8 0.921193 0.744162 0.378238
O O9 0.839518 0.000000 0.344537
O O10 0.313919 0.500000 0.645506
O O11 0.375311 0.748067 0.583997
O O12 0.342863 0.732272 0.744639
O O13 0.500000 0.233615 0.500000
O O14 0.402790 0.000000 0.500000
O O15 0.617372 0.254679 0.911670
O O16 0.500000 0.228163 0.000000
O O17 0.602907 0.000000 0.000000
O O18 0.365116 0.000000 0.815508
O O19 0.000000 0.844563 0.500000
O O20 0.000000 0.000000 0.640273
#
# Coordination Sequence:
#
# PCOD8200567 Si02
#       8
#     8   4   8   8   4   4   8   4
#     4   8  14  24  39  62  94 134 173 216 270 325
#     4   9  15  19  31  60  96 128 164 221 286 331
#     4   9  18  33  54  78 109 147 190 237 285 334
#     4  11  23  39  60  87 120 155 194 236 286 346
#     4  11  25  45  69  92 113 144 187 235 290 349
#     4   9  17  29  52  85 114 142 183 236 285 332
#     4   9  17  33  55  79 110 148 191 235 282 335
#     4   9  18  30  49  80 108 138 184 238 287 330
#
# _framework density 19.728831
#
# number of rings (size 3 to 8) (size 9 to 14) (size 15 to 20)
#    0.000    2.667    0.000    3.250    2.333    3.333 
#    0.000    2.500    0.000    1.000    0.000    0.000 
#    0.000    3.333    0.000    0.000    0.000    0.000 
#
# Total GULP energy -594630.992583 kJ/mol
# GULP energy per Si atom -12388.145679 kJ/mol
# Density = 1.968393 g / cm^3
# Si number density = 19.728831 Si / 1000 Ang^3
#
#
#
# Elastic Constant Matrix: (Units=GPa)
#
#
# Indices 1 2 3 4 5 6 
#
# 1 152.9879 37.3642 88.7349 0.0000 0.0000 0.0000
# 2 37.3642 59.1095 30.2891 0.0000 0.0000 0.0000
# 3 88.7349 30.2891 127.5419 0.0000 0.0000 0.0000
# 4 0.0000 0.0000 0.0000 6.8352 0.0000 0.0000
# 5 0.0000 0.0000 0.0000 0.0000 37.8951 0.0000
# 6 0.0000 0.0000 0.0000 0.0000 0.0000 5.3834
#
#
#
# Elastic Compliance Matrix: (Units=1/GPa)
#
#
# Indices 1 2 3 4 5 6 
#
# 1 0.011609 -0.003643 -0.007212 0.000000 0.000000 0.000000
# 2 -0.003643 0.020405 -0.002311 0.000000 0.000000 0.000000
# 3 -0.007212 -0.002311 0.013407 0.000000 0.000000 0.000000
# 4 0.000000 0.000000 0.000000 0.146302 0.000000 0.000000
# 5 0.000000 0.000000 0.000000 0.000000 0.026389 0.000000
# 6 0.000000 0.000000 0.000000 0.000000 0.000000 0.185755
#
#
# Mechanical properties :
#
#
# Convention : Reuss Voigt Hill
#
# Bulk Modulus (GPa) = 52.38619 72.49063 62.43841
# Shear Modulus (GPa) = 11.45317 22.23948 16.84633
#
# Velocity S-wave (km/s) = 2.41203 3.36111 2.92532
# Velocity P-wave (km/s) = 5.86242 7.20319 6.56711
#
# Compressibility (1/GPa) = 0.01908900
#
# Stress axis : x y z
#
# Youngs Moduli (GPa) = 86.14012 49.00787 74.58888
#
# Poissons Ratio (x) = 0.17853 0.53791
# Poissons Ratio (y) = 0.31380 0.17240
# Poissons Ratio (z) = 0.62121 0.11328
#
# Static dielectric constant tensor:
#      x y z
#    x 3.767730 0.000000 0.000000 
#    y 0.000000 3.083710 0.000000 
#    z 0.000000 0.000000 3.804420 
# 
# 
# High freq. dielectric constant tensor:
#      x y z
#    x 1.775250 0.000000 0.000000 
#    y 0.000000 1.707670 0.000000 
#    z 0.000000 0.000000 1.784400 
# 
# From -- ./inp_files/24526.got.cif
#   From: 2010.03.12/outbox.cif.g09.slc.cpg/sg47_13_cif.got.tgz:24526.got - 2010.04.14 03:12:58.
