data_PCOD8200723
_publ_section_title
;
Structure prediction by ZEFSAII (Michael W. Deem and Ramdas Pophale) SiO2 
 PCOD8200723
Probable space group: P M M M
;
_chemical_formula_sum "Si O2"
_cell_formula_units_Z 52
_cell_length_a 9.584362
_cell_length_b 33.893211
_cell_length_c 9.411765
_cell_angle_alpha 90.000000
_cell_angle_beta 90.000000
_cell_angle_gamma 90.000000
_cell_volume 3057.362953
_symmetry_space_group_name_H-M "P M M M"
_symmetry_group_IT_number 47
_symmetry_cell_setting 'orthorhombic'
loop_
_space_group_symop_operation_xyz
x,y,z
-x,-y,z
x,-y,-z
-x,y,-z
-x,-y,-z
x,y,-z
-x,y,z
x,-y,z
loop_
_atom_site_type_symbol
_atom_site_label
_atom_site_fract_x
_atom_site_fract_y
_atom_site_fract_z
Si Si1 0.665793 0.267424 0.660770
Si Si2 0.337576 0.192022 0.835022
Si Si3 0.156473 0.415501 0.169745
Si Si4 0.160768 0.883049 0.165758
Si Si5 0.336849 0.657438 0.165009
Si Si6 0.834235 0.956714 0.659853
Si Si7 0.834405 0.500000 0.155534
O O1 0.724470 0.267488 0.500000
O O2 0.500000 0.267824 0.661116
O O3 0.718565 0.228620 0.742761
O O4 0.720746 0.305765 0.744461
O O5 0.500000 0.183513 0.806764
O O6 0.250707 0.154220 0.784011
O O7 0.310347 0.201832 0.000000
O O8 0.259507 0.381432 0.223501
O O9 0.207108 0.458475 0.232487
O O10 0.000000 0.405545 0.222563
O O11 0.158839 0.418388 0.000000
O O12 0.223930 0.921948 0.240793
O O13 0.000000 0.875363 0.208065
O O14 0.177506 0.890454 0.000000
O O15 0.500000 0.650699 0.189039
O O16 0.302859 0.665626 0.000000
O O17 0.781971 0.948843 0.500000
O O18 0.000000 0.956478 0.665691
O O19 0.780701 0.000000 0.711393
O O20 0.000000 0.500000 0.138197
O O21 0.763729 0.500000 0.000000
#
# Coordination Sequence:
#
# PCOD8200723 Si02
#       7
#     8   8   8   8   8   8   4
#     4   9  17  29  45  63  81 105 139 172 200 238
#     4   9  17  30  47  64  83 109 139 169 203 245
#     4   8  13  22  37  57  81 109 138 165 197 240
#     4   9  17  28  43  65  89 109 133 169 209 244
#     4   9  16  26  41  61  83 105 131 166 206 242
#     4   8  14  25  41  61  85 113 143 172 203 241
#     4   7  10  18  33  53  78 107 136 164 194 233
#
# _framework density 17.008120000000002
#
# number of rings (size 3 to 8) (size 9 to 14) (size 15 to 20)
#    0.000    3.462    0.000    1.846    0.000    2.769 
#    0.000    2.692    0.000    7.846    0.000    3.769 
#    0.000    4.308    0.000    0.000    0.000    0.000 
#
# Total GULP energy -644370.187905 kJ/mol
# GULP energy per Si atom -12391.734383 kJ/mol
# Density = 1.696941 g / cm^3
# Si number density = 17.008120 Si / 1000 Ang^3
#
#
#
# Elastic Constant Matrix: (Units=GPa)
#
#
# Indices 1 2 3 4 5 6 
#
# 1 36.3056 52.8331 23.4531 0.0000 0.0000 0.0000
# 2 52.8331 205.8640 72.5829 0.0000 0.0000 0.0000
# 3 23.4531 72.5829 61.0593 0.0000 0.0000 0.0000
# 4 0.0000 0.0000 0.0000 8.1895 0.0000 0.0000
# 5 0.0000 0.0000 0.0000 0.0000 9.2683 0.0000
# 6 0.0000 0.0000 0.0000 0.0000 0.0000 23.0082
#
#
#
# Elastic Compliance Matrix: (Units=1/GPa)
#
#
# Indices 1 2 3 4 5 6 
#
# 1 0.045269 -0.009447 -0.006159 0.000000 0.000000 0.000000
# 2 -0.009447 0.010334 -0.008655 0.000000 0.000000 0.000000
# 3 -0.006159 -0.008655 0.029032 0.000000 0.000000 0.000000
# 4 0.000000 0.000000 0.000000 0.122108 0.000000 0.000000
# 5 0.000000 0.000000 0.000000 0.000000 0.107894 0.000000
# 6 0.000000 0.000000 0.000000 0.000000 0.000000 0.043463
#
#
# Mechanical properties :
#
#
# Convention : Reuss Voigt Hill
#
# Bulk Modulus (GPa) = 27.69042 66.77414 47.23228
# Shear Modulus (GPa) = 11.94288 18.38384 15.16336
#
# Velocity S-wave (km/s) = 2.65276 3.29125 2.98910
# Velocity P-wave (km/s) = 5.06941 7.33406 6.30426
#
# Compressibility (1/GPa) = 0.03611357
#
# Stress axis : x y z
#
# Youngs Moduli (GPa) = 22.09001 96.77113 34.44457
#
# Poissons Ratio (x) = 0.91415 0.21214
# Poissons Ratio (y) = 0.20867 0.29813
# Poissons Ratio (z) = 0.13605 0.83760
#
# Static dielectric constant tensor:
#      x y z
#    x 2.823610 0.000000 0.000000 
#    y 0.000000 3.662260 0.000000 
#    z 0.000000 0.000000 3.001810 
# 
# 
# High freq. dielectric constant tensor:
#      x y z
#    x 1.609370 0.000000 0.000000 
#    y 0.000000 1.676900 0.000000 
#    z 0.000000 0.000000 1.625030 
# 
# From -- ./inp_files/4794.got.cif
#   From: 2010.03.12/outbox.cif.g09.slc.cpg/sg47_3_cif.got.tgz:4794.got - 2010.04.14 03:12:58.
