data_PCOD8200308
_publ_section_title
;
Structure prediction by ZEFSAII (Michael W. Deem and Ramdas Pophale) SiO2 
 PCOD8200308
Probable space group: P M M M
;
_chemical_formula_sum "Si O2"
_cell_formula_units_Z 52
_cell_length_a 8.998822
_cell_length_b 18.564999
_cell_length_c 18.947761
_cell_angle_alpha 90.000000
_cell_angle_beta 90.000000
_cell_angle_gamma 90.000000
_cell_volume 3165.472097
_symmetry_space_group_name_H-M "P M M M"
_symmetry_group_IT_number 47
_symmetry_cell_setting 'orthorhombic'
loop_
_space_group_symop_operation_xyz
x,y,z
-x,-y,z
x,-y,-z
-x,y,-z
-x,-y,-z
x,y,-z
-x,y,z
x,-y,z
loop_
_atom_site_type_symbol
_atom_site_label
_atom_site_fract_x
_atom_site_fract_y
_atom_site_fract_z
Si Si1 0.672037 0.578232 0.296874
Si Si2 0.325706 0.716615 0.783910
Si Si3 0.671343 0.324213 0.420324
Si Si4 0.673432 0.643638 0.920919
Si Si5 0.327771 0.083807 0.580150
Si Si6 0.833586 0.500000 0.083718
Si Si7 0.175413 0.202014 0.333023
O O1 0.500000 0.570174 0.278771
O O2 0.749867 0.500000 0.284193
O O3 0.737289 0.641334 0.247784
O O4 0.695276 0.601263 0.378404
O O5 0.500000 0.726058 0.767588
O O6 0.293760 0.711153 0.868266
O O7 0.240838 0.782357 0.745759
O O8 0.721176 0.338352 0.500000
O O9 0.500000 0.298746 0.415010
O O10 0.772351 0.262009 0.388006
O O11 0.500000 0.625819 0.921565
O O12 0.751420 0.572074 0.890198
O O13 0.729144 0.664026 0.000000
O O14 0.283678 0.106271 0.500000
O O15 0.500000 0.101635 0.592809
O O16 0.230809 0.125433 0.638070
O O17 0.295587 0.000000 0.591558
O O18 0.000000 0.500000 0.114162
O O19 0.832277 0.500000 0.000000
O O20 0.000000 0.201006 0.327077
#
# Coordination Sequence:
#
# PCOD8200308 Si02
#       7
#     8   8   8   8   8   4   8
#     4   8  14  24  39  59  79 102 140 186 227 267
#     4   9  18  31  47  63  85 118 153 189 231 279
#     4   9  17  29  44  60  80 111 150 189 230 273
#     4   9  17  29  46  67  88 112 150 199 241 277
#     4   9  18  33  53  75  98 125 155 185 219 262
#     4   9  17  27  39  59  89 121 146 175 228 293
#     4  11  21  31  45  66  94 122 151 185 222 267
#
# _framework density 16.427249
#
# number of rings (size 3 to 8) (size 9 to 14) (size 15 to 20)
#    0.000    2.846    0.000    3.462    1.077    4.615 
#    0.000    2.308    0.000    4.154    0.000    4.308 
#    0.000    0.615    0.000    7.077    0.000    2.000 
#
# Total GULP energy -644429.147695 kJ/mol
# GULP energy per Si atom -12392.868225 kJ/mol
# Density = 1.638986 g / cm^3
# Si number density = 16.427249 Si / 1000 Ang^3
#
#
#
# Elastic Constant Matrix: (Units=GPa)
#
#
# Indices 1 2 3 4 5 6 
#
# 1 70.6516 33.3050 35.7567 0.0000 0.0000 0.0000
# 2 33.3050 68.2948 35.3286 0.0000 0.0000 0.0000
# 3 35.7567 35.3286 98.6885 0.0000 0.0000 0.0000
# 4 0.0000 0.0000 0.0000 24.7504 0.0000 0.0000
# 5 0.0000 0.0000 0.0000 0.0000 12.8296 0.0000
# 6 0.0000 0.0000 0.0000 0.0000 0.0000 7.2439
#
#
#
# Elastic Compliance Matrix: (Units=1/GPa)
#
#
# Indices 1 2 3 4 5 6 
#
# 1 0.019944 -0.007349 -0.004595 0.000000 0.000000 0.000000
# 2 -0.007349 0.020678 -0.004740 0.000000 0.000000 0.000000
# 3 -0.004595 -0.004740 0.013495 0.000000 0.000000 0.000000
# 4 0.000000 0.000000 0.000000 0.040403 0.000000 0.000000
# 5 0.000000 0.000000 0.000000 0.000000 0.077945 0.000000
# 6 0.000000 0.000000 0.000000 0.000000 0.000000 0.138048
#
#
# Mechanical properties :
#
#
# Convention : Reuss Voigt Hill
#
# Bulk Modulus (GPa) = 48.19555 49.60171 48.89863
# Shear Modulus (GPa) = 14.25329 17.84774 16.05051
#
# Velocity S-wave (km/s) = 2.94880 3.29974 3.12920
# Velocity P-wave (km/s) = 6.40284 6.69164 6.54883
#
# Compressibility (1/GPa) = 0.02074880
#
# Stress axis : x y z
#
# Youngs Moduli (GPa) = 50.14076 48.36058 74.10373
#
# Poissons Ratio (x) = 0.35539 0.34053
# Poissons Ratio (y) = 0.36847 0.35123
# Poissons Ratio (z) = 0.23041 0.22922
#
# Static dielectric constant tensor:
#      x y z
#    x 2.895740 0.000000 0.000000 
#    y 0.000000 2.980450 0.000000 
#    z 0.000000 0.000000 3.266380 
# 
# 
# High freq. dielectric constant tensor:
#      x y z
#    x 1.610060 0.000000 0.000000 
#    y 0.000000 1.599800 0.000000 
#    z 0.000000 0.000000 1.630300 
# 
# From -- ./inp_files/29901.got.cif
#   From: 2010.03.12/outbox.cif.g09.slc.cpg/sg47_15_cif.got.tgz:29901.got - 2010.04.14 03:12:58.
