data_PCOD8200928
_publ_section_title
;
Structure prediction by ZEFSAII (Michael W. Deem and Ramdas Pophale) SiO2 
 PCOD8200928
Probable space group: P M M M
;
_chemical_formula_sum "Si O2"
_cell_formula_units_Z 44
_cell_length_a 9.382363
_cell_length_b 9.671893
_cell_length_c 28.531030
_cell_angle_alpha 90.000000
_cell_angle_beta 90.000000
_cell_angle_gamma 90.000000
_cell_volume 2589.054338
_symmetry_space_group_name_H-M "P M M M"
_symmetry_group_IT_number 47
_symmetry_cell_setting 'orthorhombic'
loop_
_space_group_symop_operation_xyz
x,y,z
-x,-y,z
x,-y,-z
-x,y,-z
-x,-y,-z
x,y,-z
-x,y,z
x,-y,z
loop_
_atom_site_type_symbol
_atom_site_label
_atom_site_fract_x
_atom_site_fract_y
_atom_site_fract_z
Si Si1 0.169562 0.344604 0.416431
Si Si2 0.169225 0.654662 0.687458
Si Si3 0.339602 0.164724 0.138119
Si Si4 0.166318 0.839298 0.228085
Si Si5 0.170298 0.843572 0.500000
Si Si6 0.839998 0.164456 0.948110
O O1 0.222365 0.500000 0.428685
O O2 0.223873 0.301774 0.364412
O O3 0.230203 0.235760 0.454150
O O4 0.000000 0.342633 0.417699
O O5 0.222564 0.500000 0.699362
O O6 0.227743 0.759581 0.726562
O O7 0.000000 0.659149 0.687492
O O8 0.500000 0.222727 0.140908
O O9 0.251524 0.216228 0.183084
O O10 0.266007 0.225439 0.091143
O O11 0.339191 0.000000 0.136503
O O12 0.000000 0.809261 0.219266
O O13 0.194684 0.000000 0.237117
O O14 0.000000 0.843663 0.500000
O O15 0.229382 0.000000 0.500000
O O16 0.000000 0.218498 0.938122
O O17 0.839768 0.000000 0.945679
O O18 0.789749 0.212816 0.000000
#
# Coordination Sequence:
#
# PCOD8200928 Si02
#       6
#     8   8   8   8   4   8
#     4   8  13  21  31  42  60  89 123 156 191 232
#     4   8  14  24  37  52  69  92 126 166 202 236
#     4   9  16  24  34  50  74 103 132 162 198 241
#     4   9  16  25  38  55  74  98 128 162 200 239
#     4   9  15  19  25  41  65  93 124 157 192 231
#     4   8  13  21  33  49  71 101 135 168 200 234
#
# _framework density 16.994622
#
# number of rings (size 3 to 8) (size 9 to 14) (size 15 to 20)
#    0.000    3.545    0.000    2.455    0.000    4.364 
#    0.000    5.455    0.000    0.545    0.000    0.000 
#    0.000    0.727    0.000    9.182    0.000   28.182 
#
# Total GULP energy -545248.453625 kJ/mol
# GULP energy per Si atom -12392.010310 kJ/mol
# Density = 1.695594 g / cm^3
# Si number density = 16.994622 Si / 1000 Ang^3
#
#
#
# Elastic Constant Matrix: (Units=GPa)
#
#
# Indices 1 2 3 4 5 6 
#
# 1 50.6195 22.5442 53.5395 0.0000 0.0000 0.0000
# 2 22.5442 61.5151 69.0318 0.0000 0.0000 0.0000
# 3 53.5395 69.0318 186.2316 0.0000 0.0000 0.0000
# 4 0.0000 0.0000 0.0000 9.4486 0.0000 0.0000
# 5 0.0000 0.0000 0.0000 0.0000 3.0919 0.0000
# 6 0.0000 0.0000 0.0000 0.0000 0.0000 3.5836
#
#
#
# Elastic Compliance Matrix: (Units=1/GPa)
#
#
# Indices 1 2 3 4 5 6 
#
# 1 0.028551 -0.002144 -0.007413 0.000000 0.000000 0.000000
# 2 -0.002144 0.027996 -0.009761 0.000000 0.000000 0.000000
# 3 -0.007413 -0.009761 0.011119 0.000000 0.000000 0.000000
# 4 0.000000 0.000000 0.000000 0.105836 0.000000 0.000000
# 5 0.000000 0.000000 0.000000 0.000000 0.323429 0.000000
# 6 0.000000 0.000000 0.000000 0.000000 0.000000 0.279045
#
#
# Mechanical properties :
#
#
# Convention : Reuss Voigt Hill
#
# Bulk Modulus (GPa) = 34.44861 65.39969 49.92415
# Shear Modulus (GPa) = 6.06584 13.44155 9.75369
#
# Velocity S-wave (km/s) = 1.89130 2.81540 2.39828
# Velocity P-wave (km/s) = 5.00836 7.00962 6.09173
#
# Compressibility (1/GPa) = 0.02902875
#
# Stress axis : x y z
#
# Youngs Moduli (GPa) = 35.02481 35.71996 89.93626
#
# Poissons Ratio (x) = 0.07660 0.66672
# Poissons Ratio (y) = 0.07511 0.87785
# Poissons Ratio (z) = 0.25965 0.34866
#
# Static dielectric constant tensor:
#      x y z
#    x 2.788490 0.000000 0.000000 
#    y 0.000000 2.907870 0.000000 
#    z 0.000000 0.000000 3.643670 
# 
# 
# High freq. dielectric constant tensor:
#      x y z
#    x 1.600490 0.000000 0.000000 
#    y 0.000000 1.609790 0.000000 
#    z 0.000000 0.000000 1.675590 
# 
# From -- ./inp_files/13649.got.cif
#   From: 2010.03.12/outbox.cif.g09.slc.cpg/sg47_7_cif.got.tgz:13649.got - 2010.04.14 03:12:58.
