data_PCOD8200687
_publ_section_title
;
Structure prediction by ZEFSAII (Michael W. Deem and Ramdas Pophale) SiO2 
 PCOD8200687
Probable space group: P M M M
;
_chemical_formula_sum "Si O2"
_cell_formula_units_Z 44
_cell_length_a 28.722250
_cell_length_b 9.539457
_cell_length_c 9.355840
_cell_angle_alpha 90.000000
_cell_angle_beta 90.000000
_cell_angle_gamma 90.000000
_cell_volume 2563.450282
_symmetry_space_group_name_H-M "P M M M"
_symmetry_group_IT_number 47
_symmetry_cell_setting 'orthorhombic'
loop_
_space_group_symop_operation_xyz
x,y,z
-x,-y,z
x,-y,-z
-x,y,-z
-x,-y,-z
x,y,-z
-x,y,z
x,-y,z
loop_
_atom_site_type_symbol
_atom_site_label
_atom_site_fract_x
_atom_site_fract_y
_atom_site_fract_z
Si Si1 0.772370 0.161855 0.332925
Si Si2 0.684915 0.658610 0.329839
Si Si3 0.500000 0.833984 0.656128
Si Si4 0.136387 0.162514 0.165953
Si Si5 0.400007 0.841963 0.671337
Si Si6 0.948777 0.657677 0.830133
O O1 0.781248 0.184389 0.500000
O O2 0.730030 0.256825 0.276234
O O3 0.818148 0.212921 0.250362
O O4 0.760542 0.000000 0.298849
O O5 0.683554 0.659404 0.500000
O O6 0.686478 0.500000 0.270382
O O7 0.638997 0.736114 0.269096
O O8 0.500000 0.762174 0.500000
O O9 0.451010 0.792851 0.733290
O O10 0.500000 0.000000 0.637259
O O11 0.091621 0.242536 0.230722
O O12 0.126748 0.000000 0.191677
O O13 0.144328 0.197609 0.000000
O O14 0.401944 0.839365 0.500000
O O15 0.387916 0.000000 0.722536
O O16 0.938823 0.500000 0.777339
O O17 0.000000 0.706585 0.775259
O O18 0.948414 0.664149 0.000000
#
# Coordination Sequence:
#
# PCOD8200687 Si02
#       6
#     8   8   4   8   8   8
#     4   9  17  29  43  57  76 105 136 161 191 235
#     4   9  16  24  34  50  71  95 127 165 198 228
#     4   7  10  16  27  43  61  85 120 157 190 229
#     4   9  17  28  43  64  85 102 126 164 202 229
#     4   8  12  19  31  45  63  90 124 159 194 233
#     4   8  14  25  41  61  84 108 132 157 188 230
#
# _framework density 17.164368
#
# number of rings (size 3 to 8) (size 9 to 14) (size 15 to 20)
#    0.000    3.545    0.000    2.182    0.000    3.273 
#    0.000    2.273    0.000    3.273    0.000    3.818 
#    0.000    0.000    0.000    0.818    0.000   19.636 
#
# Total GULP energy -545178.996378 kJ/mol
# GULP energy per Si atom -12390.431736 kJ/mol
# Density = 1.712530 g / cm^3
# Si number density = 17.164368 Si / 1000 Ang^3
#
#
#
# Elastic Constant Matrix: (Units=GPa)
#
#
# Indices 1 2 3 4 5 6 
#
# 1 206.7702 97.7428 25.7925 0.0000 0.0000 0.0000
# 2 97.7428 98.4085 14.7630 0.0000 0.0000 0.0000
# 3 25.7925 14.7630 11.7804 0.0000 0.0000 0.0000
# 4 0.0000 0.0000 0.0000 8.1067 0.0000 0.0000
# 5 0.0000 0.0000 0.0000 0.0000 -0.9837 0.0000
# 6 0.0000 0.0000 0.0000 0.0000 0.0000 19.5046
#
#
#
# Elastic Compliance Matrix: (Units=1/GPa)
#
#
# Indices 1 2 3 4 5 6 
#
# 1 0.010337 -0.008463 -0.012027 0.000000 0.000000 0.000000
# 2 -0.008463 0.019443 -0.005837 0.000000 0.000000 0.000000
# 3 -0.012027 -0.005837 0.118533 0.000000 0.000000 0.000000
# 4 0.000000 0.000000 0.000000 0.123355 0.000000 0.000000
# 5 0.000000 0.000000 0.000000 0.000000 -1.016562 0.000000
# 6 0.000000 0.000000 0.000000 0.000000 0.000000 0.051270
#
#
# Mechanical properties :
#
#
# Convention : Reuss Voigt Hill
#
# Bulk Modulus (GPa) = 10.45362 65.95063 38.20212
# Shear Modulus (GPa) = -8.20904 17.23624 4.51360
#
# Velocity S-wave (km/s) = -2.18929 3.17233 1.62337
# Velocity P-wave (km/s) = 0.53584 7.20587 5.08122
#
# Compressibility (1/GPa) = 0.09566065
#
# Stress axis : x y z
#
# Youngs Moduli (GPa) = 96.73984 51.43256 8.43645
#
# Poissons Ratio (x) = 0.43527 0.10146
# Poissons Ratio (y) = 0.81870 0.04924
# Poissons Ratio (z) = 1.16347 0.30019
#
# Static dielectric constant tensor:
#      x y z
#    x 3.725080 0.000000 0.000000 
#    y 0.000000 3.224530 0.000000 
#    z 0.000000 0.000000 2.524620 
# 
# 
# High freq. dielectric constant tensor:
#      x y z
#    x 1.685430 0.000000 0.000000 
#    y 0.000000 1.651000 0.000000 
#    z 0.000000 0.000000 1.581240 
# 
# From -- ./inp_files/19751.got.cif
#   From: 2010.03.12/outbox.cif.g09.slc.cpg/sg47_10_cif.got.tgz:19751.got - 2010.04.14 03:12:58.
