data_PCOD8200056
_publ_section_title
;
Structure prediction by ZEFSAII (Michael W. Deem and Ramdas Pophale) SiO2 
 PCOD8200056
Probable space group: P M M M
;
_chemical_formula_sum "Si O2"
_cell_formula_units_Z 48
_cell_length_a 8.638392
_cell_length_b 14.994153
_cell_length_c 18.988348
_cell_angle_alpha 90.000000
_cell_angle_beta 90.000000
_cell_angle_gamma 90.000000
_cell_volume 2459.472825
_symmetry_space_group_name_H-M "P M M M"
_symmetry_group_IT_number 47
_symmetry_cell_setting 'orthorhombic'
loop_
_space_group_symop_operation_xyz
x,y,z
-x,-y,z
x,-y,-z
-x,y,-z
-x,-y,-z
x,y,-z
-x,y,z
x,-y,z
loop_
_atom_site_type_symbol
_atom_site_label
_atom_site_fract_x
_atom_site_fract_y
_atom_site_fract_z
Si Si1 0.318875 0.850336 0.174252
Si Si2 0.182251 0.000000 0.078965
Si Si3 0.321954 0.602225 0.319191
Si Si4 0.183824 0.500000 0.079008
Si Si5 0.319754 0.102697 0.330957
Si Si6 0.818330 0.660782 0.824625
Si Si7 0.819864 0.256632 0.581383
O O1 0.500000 0.866499 0.167764
O O2 0.261386 0.876735 0.252145
O O3 0.276364 0.749048 0.157586
O O4 0.236642 0.911279 0.117447
O O5 0.000000 0.000000 0.077176
O O6 0.250538 0.000000 0.000000
O O7 0.500000 0.620056 0.298268
O O8 0.294460 0.500000 0.341125
O O9 0.214225 0.626995 0.253815
O O10 0.277633 0.663204 0.385081
O O11 0.242151 0.587371 0.120039
O O12 0.000000 0.500000 0.077524
O O13 0.252476 0.500000 0.000000
O O14 0.500000 0.127106 0.338305
O O15 0.221938 0.161936 0.384463
O O16 0.288179 0.000000 0.349550
O O17 0.000000 0.679625 0.832305
O O18 0.774669 0.251775 0.500000
O O19 0.000000 0.276135 0.592785
#
# Coordination Sequence:
#
# PCOD8200056 Si02
#       7
#     8   4   8   4   8   8   8
#     4  11  22  39  63  92 125 161 204 253 309 370
#     4  11  25  43  63  91 126 165 210 259 311 366
#     4  11  23  39  62  90 121 159 205 254 304 365
#     4   9  20  38  59  87 124 161 198 247 303 356
#     4  10  21  39  63  90 120 158 202 247 297 362
#     4  11  21  36  62  93 122 159 207 254 302 363
#     4  11  25  42  61  90 126 160 199 251 308 365
#
# _framework density 19.516378
#
# number of rings (size 3 to 8) (size 9 to 14) (size 15 to 20)
#    0.000    1.333    3.333    2.250    0.000    5.333 
#    0.000    5.000    0.000    3.500    0.000    0.000 
#    0.000    0.000    0.000    0.000    0.000    0.000 
#
# Total GULP energy -595484.947418 kJ/mol
# GULP energy per Si atom -12405.936405 kJ/mol
# Density = 1.947196 g / cm^3
# Si number density = 19.516378 Si / 1000 Ang^3
#
#
#
# Elastic Constant Matrix: (Units=GPa)
#
#
# Indices 1 2 3 4 5 6 
#
# 1 39.3579 18.4919 26.6972 0.0000 0.0000 0.0000
# 2 18.4919 139.7131 62.4528 0.0000 0.0000 0.0000
# 3 26.6972 62.4528 144.9081 0.0000 0.0000 0.0000
# 4 0.0000 0.0000 0.0000 -56.6686 0.0000 0.0000
# 5 0.0000 0.0000 0.0000 0.0000 19.3039 0.0000
# 6 0.0000 0.0000 0.0000 0.0000 0.0000 34.7803
#
#
#
# Elastic Compliance Matrix: (Units=1/GPa)
#
#
# Indices 1 2 3 4 5 6 
#
# 1 0.029406 -0.001821 -0.004633 0.000000 0.000000 0.000000
# 2 -0.001821 0.008978 -0.003534 0.000000 0.000000 0.000000
# 3 -0.004633 -0.003534 0.009278 0.000000 0.000000 0.000000
# 4 0.000000 0.000000 0.000000 -0.017646 0.000000 0.000000
# 5 0.000000 0.000000 0.000000 0.000000 0.051803 0.000000
# 6 0.000000 0.000000 0.000000 0.000000 0.000000 0.028752
#
#
# Mechanical properties :
#
#
# Convention : Reuss Voigt Hill
#
# Bulk Modulus (GPa) = 36.11927 59.91809 48.01868
# Shear Modulus (GPa) = 35.77184 13.90560 24.83872
#
# Velocity S-wave (km/s) = 4.28590 2.67218 3.57138
# Velocity P-wave (km/s) = 6.56043 6.34735 6.45477
#
# Compressibility (1/GPa) = 0.02768605
#
# Stress axis : x y z
#
# Youngs Moduli (GPa) = 34.00665 111.38002 107.78762
#
# Poissons Ratio (x) = 0.20285 0.49935
# Poissons Ratio (y) = 0.06193 0.38092
# Poissons Ratio (z) = 0.15754 0.39361
#
# Static dielectric constant tensor:
#      x y z
#    x 3.509010 0.000000 0.000000 
#    y 0.000000 3.736500 0.000000 
#    z 0.000000 0.000000 3.647570 
# 
# 
# High freq. dielectric constant tensor:
#      x y z
#    x 1.758640 0.000000 0.000000 
#    y 0.000000 1.777640 0.000000 
#    z 0.000000 0.000000 1.757740 
# 
# From -- ./inp_files/21149.got.cif
#   From: 2010.03.12/outbox.cif.g09.slc.cpg/sg47_11_cif.got.tgz:21149.got - 2010.04.14 03:12:58.
