data_PCOD8200628
_publ_section_title
;
Structure prediction by ZEFSAII (Michael W. Deem and Ramdas Pophale) SiO2 
 PCOD8200628
Probable space group: P M M M
;
_chemical_formula_sum "Si O2"
_cell_formula_units_Z 48
_cell_length_a 8.084902
_cell_length_b 31.706318
_cell_length_c 9.115155
_cell_angle_alpha 90.000000
_cell_angle_beta 90.000000
_cell_angle_gamma 90.000000
_cell_volume 2336.601382
_symmetry_space_group_name_H-M "P M M M"
_symmetry_group_IT_number 47
_symmetry_cell_setting 'orthorhombic'
loop_
_space_group_symop_operation_xyz
x,y,z
-x,-y,z
x,-y,-z
-x,y,-z
-x,-y,-z
x,y,-z
-x,y,z
x,-y,z
loop_
_atom_site_type_symbol
_atom_site_label
_atom_site_fract_x
_atom_site_fract_y
_atom_site_fract_z
Si Si1 0.000000 0.950225 0.831256
Si Si2 0.310817 0.908666 0.672896
Si Si3 0.189618 0.421224 0.836862
Si Si4 0.810392 0.265097 0.834143
Si Si5 0.691098 0.811743 0.665655
Si Si6 0.310633 0.500000 0.340906
Si Si7 0.689548 0.656971 0.333864
O O1 0.830111 0.934573 0.756633
O O2 0.000000 0.000000 0.817123
O O3 0.000000 0.935395 0.000000
O O4 0.288892 0.916047 0.500000
O O5 0.500000 0.921945 0.718341
O O6 0.282374 0.859908 0.713608
O O7 0.275093 0.458027 0.748031
O O8 0.205993 0.376447 0.757871
O O9 0.000000 0.433392 0.848775
O O10 0.267757 0.418222 0.000000
O O11 0.794709 0.217708 0.773842
O O12 0.704918 0.296775 0.735176
O O13 0.000000 0.279291 0.828727
O O14 0.742727 0.266475 0.000000
O O15 0.755378 0.805086 0.500000
O O16 0.500000 0.799143 0.676443
O O17 0.500000 0.500000 0.376809
O O18 0.217133 0.500000 0.500000
O O19 0.756861 0.658266 0.500000
O O20 0.500000 0.642684 0.330689
#
# Coordination Sequence:
#
# PCOD8200628 Si02
#       7
#     4   8   8   8   8   4   8
#     4  11  25  41  59  89 129 169 209 257 317 384
#     4   9  20  40  65  92 122 160 210 265 317 373
#     4  11  24  41  62  89 119 150 188 235 287 344
#     4  11  24  38  54  83 120 155 194 238 286 346
#     4   9  19  37  60  86 115 149 193 244 297 353
#     4  11  24  41  62  90 120 151 192 235 278 338
#     4  11  24  41  61  85 113 149 195 242 288 343
#
# _framework density 20.542656999999998
#
# number of rings (size 3 to 8) (size 9 to 14) (size 15 to 20)
#    0.000    1.667    0.000    4.750    1.167   14.000 
#    0.000    3.333    0.000    0.000    0.000    0.000 
#    0.000    0.000    0.000    0.000    0.000    0.000 
#
# Total GULP energy -595270.377792 kJ/mol
# GULP energy per Si atom -12401.466204 kJ/mol
# Density = 2.049590 g / cm^3
# Si number density = 20.542657 Si / 1000 Ang^3
#
#
#
# Elastic Constant Matrix: (Units=GPa)
#
#
# Indices 1 2 3 4 5 6 
#
# 1 85.6093 37.1140 48.2797 0.0000 0.0000 0.0000
# 2 37.1140 106.6100 64.0831 0.0000 0.0000 0.0000
# 3 48.2797 64.0831 160.5809 0.0000 0.0000 0.0000
# 4 0.0000 0.0000 0.0000 49.8596 0.0000 0.0000
# 5 0.0000 0.0000 0.0000 0.0000 27.9172 0.0000
# 6 0.0000 0.0000 0.0000 0.0000 0.0000 38.3767
#
#
#
# Elastic Compliance Matrix: (Units=1/GPa)
#
#
# Indices 1 2 3 4 5 6 
#
# 1 0.014889 -0.003279 -0.003168 0.000000 0.000000 0.000000
# 2 -0.003279 0.013062 -0.004227 0.000000 0.000000 0.000000
# 3 -0.003168 -0.004227 0.008867 0.000000 0.000000 0.000000
# 4 0.000000 0.000000 0.000000 0.020056 0.000000 0.000000
# 5 0.000000 0.000000 0.000000 0.000000 0.035820 0.000000
# 6 0.000000 0.000000 0.000000 0.000000 0.000000 0.026057
#
#
# Mechanical properties :
#
#
# Convention : Reuss Voigt Hill
#
# Bulk Modulus (GPa) = 64.64014 72.41710 68.52862
# Shear Modulus (GPa) = 34.42181 36.78559 35.60370
#
# Velocity S-wave (km/s) = 4.09788 4.23625 4.16764
# Velocity P-wave (km/s) = 7.34335 7.69781 7.52267
#
# Compressibility (1/GPa) = 0.01547026
#
# Stress axis : x y z
#
# Youngs Moduli (GPa) = 67.16316 76.55612 112.78183
#
# Poissons Ratio (x) = 0.25104 0.35728
# Poissons Ratio (y) = 0.22023 0.47672
# Poissons Ratio (z) = 0.21277 0.32360
#
# Static dielectric constant tensor:
#      x y z
#    x 3.663890 0.000000 0.000000 
#    y 0.000000 3.687330 0.000000 
#    z 0.000000 0.000000 3.948150 
# 
# 
# High freq. dielectric constant tensor:
#      x y z
#    x 1.805370 0.000000 0.000000 
#    y 0.000000 1.805730 0.000000 
#    z 0.000000 0.000000 1.811740 
# 
# From -- ./inp_files/2628.got.cif
#   From: 2010.03.12/outbox.cif.g09.slc.cpg/sg47_2_cif.got.tgz:2628.got - 2010.04.14 03:12:58.
