data_PCOD8200920
_publ_section_title
;
Structure prediction by ZEFSAII (Michael W. Deem and Ramdas Pophale) SiO2 
 PCOD8200920
Probable space group: P M M M
;
_chemical_formula_sum "Si O2"
_cell_formula_units_Z 52
_cell_length_a 28.109791
_cell_length_b 9.496630
_cell_length_c 15.230715
_cell_angle_alpha 90.000000
_cell_angle_beta 90.000000
_cell_angle_gamma 90.000000
_cell_volume 4065.813241
_symmetry_space_group_name_H-M "P M M M"
_symmetry_group_IT_number 47
_symmetry_cell_setting 'orthorhombic'
loop_
_space_group_symop_operation_xyz
x,y,z
-x,-y,z
x,-y,-z
-x,y,-z
-x,-y,-z
x,y,-z
-x,y,z
x,-y,z
loop_
_atom_site_type_symbol
_atom_site_label
_atom_site_fract_x
_atom_site_fract_y
_atom_site_fract_z
Si Si1 0.000000 0.839332 0.104524
Si Si2 0.718299 0.842247 0.104209
Si Si3 0.630686 0.335663 0.100264
Si Si4 0.176556 0.158585 0.104487
Si Si5 0.556508 0.158349 0.403504
Si Si6 0.445641 0.664324 0.758608
Si Si7 0.089530 0.659805 0.895292
O O1 0.954106 0.754497 0.139449
O O2 0.000000 0.000000 0.141011
O O3 0.000000 0.843788 0.000000
O O4 0.677292 0.739955 0.140422
O O5 0.770778 0.795836 0.137976
O O6 0.707103 0.000000 0.136757
O O7 0.718444 0.835822 0.000000
O O8 0.640998 0.500000 0.106703
O O9 0.584752 0.291411 0.156506
O O10 0.620450 0.289495 0.000000
O O11 0.137916 0.268917 0.141366
O O12 0.164640 0.000000 0.137182
O O13 0.175246 0.159651 0.000000
O O14 0.575115 0.207090 0.500000
O O15 0.500000 0.164608 0.403676
O O16 0.576115 0.259285 0.327118
O O17 0.574053 0.000000 0.384232
O O18 0.500000 0.709933 0.777529
O O19 0.441956 0.500000 0.739374
O O20 0.085551 0.500000 0.859004
O O21 0.089378 0.657076 0.000000
#
# Coordination Sequence:
#
# PCOD8200920 Si02
#       7
#     4   8   8   8   8   8   8
#     4   9  15  21  27  33  45  67  89 107 133 173
#     4   8  14  24  36  47  58  74  98 128 159 190
#     4   9  17  27  37  49  66  88 112 137 164 193
#     4   8  13  21  31  41  52  66  86 113 146 183
#     4   8  14  25  40  56  72  88 105 127 157 191
#     4   9  17  27  38  53  71  90 112 135 159 191
#     4   9  15  20  26  37  51  65  83 109 140 175
#
# _framework density 12.789569
#
# number of rings (size 3 to 8) (size 9 to 14) (size 15 to 20)
#    0.000    3.462    0.000    2.077    0.000    4.615 
#    0.000    6.154    0.000    0.000    0.000    4.308 
#    0.000    0.000    0.000    0.000    0.000    0.000 
#
# Total GULP energy -644362.554155 kJ/mol
# GULP energy per Si atom -12391.587580 kJ/mol
# Density = 1.276046 g / cm^3
# Si number density = 12.789569 Si / 1000 Ang^3
#
#
#
# Elastic Constant Matrix: (Units=GPa)
#
#
# Indices 1 2 3 4 5 6 
#
# 1 92.4442 53.8361 29.7345 0.0000 0.0000 0.0000
# 2 53.8361 75.2065 27.0552 0.0000 0.0000 0.0000
# 3 29.7345 27.0552 38.8062 0.0000 0.0000 0.0000
# 4 0.0000 0.0000 0.0000 11.3030 0.0000 0.0000
# 5 0.0000 0.0000 0.0000 0.0000 0.5655 0.0000
# 6 0.0000 0.0000 0.0000 0.0000 0.0000 23.8452
#
#
#
# Elastic Compliance Matrix: (Units=1/GPa)
#
#
# Indices 1 2 3 4 5 6 
#
# 1 0.019917 -0.011702 -0.007102 0.000000 0.000000 0.000000
# 2 -0.011702 0.024624 -0.008201 0.000000 0.000000 0.000000
# 3 -0.007102 -0.008201 0.036928 0.000000 0.000000 0.000000
# 4 0.000000 0.000000 0.000000 0.088472 0.000000 0.000000
# 5 0.000000 0.000000 0.000000 0.000000 1.768291 0.000000
# 6 0.000000 0.000000 0.000000 0.000000 0.000000 0.041937
#
#
# Mechanical properties :
#
#
# Convention : Reuss Voigt Hill
#
# Bulk Modulus (GPa) = 36.41845 47.52316 41.97081
# Shear Modulus (GPa) = 2.44698 13.53149 7.98924
#
# Velocity S-wave (km/s) = 1.38471 3.25624 2.50205
# Velocity P-wave (km/s) = 5.57615 7.16769 6.42142
#
# Compressibility (1/GPa) = 0.02745861
#
# Stress axis : x y z
#
# Youngs Moduli (GPa) = 50.20909 40.61089 27.07947
#
# Poissons Ratio (x) = 0.47524 0.19232
# Poissons Ratio (y) = 0.58756 0.22207
# Poissons Ratio (z) = 0.35659 0.33304
#
# Static dielectric constant tensor:
#      x y z
#    x 2.754300 0.000000 0.000000 
#    y 0.000000 2.753870 0.000000 
#    z 0.000000 0.000000 2.240890 
# 
# 
# High freq. dielectric constant tensor:
#      x y z
#    x 1.480410 0.000000 0.000000 
#    y 0.000000 1.495400 0.000000 
#    z 0.000000 0.000000 1.413420 
# 
# From -- ./inp_files/25714.got.cif
#   From: 2010.03.12/outbox.cif.g09.slc.cpg/sg47_13_cif.got.tgz:25714.got - 2010.04.14 03:12:58.
