data_PCOD8200583
_publ_section_title
;
Structure prediction by ZEFSAII (Michael W. Deem and Ramdas Pophale) SiO2 
 PCOD8200583
Probable space group: P M M M
;
_chemical_formula_sum "Si O2"
_cell_formula_units_Z 36
_cell_length_a 9.530614
_cell_length_b 24.741245
_cell_length_c 8.047797
_cell_angle_alpha 90.000000
_cell_angle_beta 90.000000
_cell_angle_gamma 90.000000
_cell_volume 1897.664545
_symmetry_space_group_name_H-M "P M M M"
_symmetry_group_IT_number 47
_symmetry_cell_setting 'orthorhombic'
loop_
_space_group_symop_operation_xyz
x,y,z
-x,-y,z
x,-y,-z
-x,y,-z
-x,-y,-z
x,y,-z
-x,y,z
x,-y,z
loop_
_atom_site_type_symbol
_atom_site_label
_atom_site_fract_x
_atom_site_fract_y
_atom_site_fract_z
Si Si1 0.343675 0.656701 0.809508
Si Si2 0.167276 0.938657 0.000000
Si Si3 0.840748 0.561617 0.694372
Si Si4 0.833206 0.129283 0.687565
Si Si5 0.152588 0.248214 0.307448
O O1 0.500000 0.651569 0.732891
O O2 0.264920 0.599888 0.791389
O O3 0.263029 0.704856 0.721456
O O4 0.352907 0.672191 0.000000
O O5 0.225711 0.911051 0.829878
O O6 0.000000 0.935352 0.000000
O O7 0.221263 0.000000 0.000000
O O8 0.825783 0.572941 0.500000
O O9 0.800949 0.500000 0.736980
O O10 0.000000 0.573728 0.751119
O O11 0.774421 0.115850 0.500000
O O12 0.789280 0.189628 0.749525
O O13 0.000000 0.125738 0.679701
O O14 0.125051 0.243099 0.500000
O O15 0.000000 0.261306 0.222996
#
# Coordination Sequence:
#
# PCOD8200583 Si02
#       5
#     8   4   8   8   8
#     4  11  24  36  47  72 107 136 164 203 253 307
#     4   9  16  24  38  64  97 135 172 203 248 307
#     4   9  19  37  59  79  98 125 166 211 250 296
#     4   8  15  27  42  64  94 127 167 213 255 301
#     4   9  18  33  53  74  95 126 171 216 255 300
#
# _framework density 18.970686000000001
#
# number of rings (size 3 to 8) (size 9 to 14) (size 15 to 20)
#    0.000    2.778    0.000    3.333    1.556    6.667 
#    0.000    5.556    0.000    0.000    0.000    0.000 
#    0.000    1.778    0.000    4.889    0.000    4.889 
#
# Total GULP energy -446129.790984 kJ/mol
# GULP energy per Si atom -12392.494194 kJ/mol
# Density = 1.892751 g / cm^3
# Si number density = 18.970686 Si / 1000 Ang^3
#
#
#
# Elastic Constant Matrix: (Units=GPa)
#
#
# Indices 1 2 3 4 5 6 
#
# 1 72.4662 49.9261 14.8666 0.0000 0.0000 0.0000
# 2 49.9261 140.2017 40.8381 0.0000 0.0000 0.0000
# 3 14.8666 40.8381 60.0599 0.0000 0.0000 0.0000
# 4 0.0000 0.0000 0.0000 33.4885 0.0000 0.0000
# 5 0.0000 0.0000 0.0000 0.0000 16.3422 0.0000
# 6 0.0000 0.0000 0.0000 0.0000 0.0000 -1.4073
#
#
#
# Elastic Compliance Matrix: (Units=1/GPa)
#
#
# Indices 1 2 3 4 5 6 
#
# 1 0.018286 -0.006476 -0.000123 0.000000 0.000000 0.000000
# 2 -0.006476 0.011188 -0.006004 0.000000 0.000000 0.000000
# 3 -0.000123 -0.006004 0.020763 0.000000 0.000000 0.000000
# 4 0.000000 0.000000 0.000000 0.029861 0.000000 0.000000
# 5 0.000000 0.000000 0.000000 0.000000 0.061191 0.000000
# 6 0.000000 0.000000 0.000000 0.000000 0.000000 -0.710567
#
#
# Mechanical properties :
#
#
# Convention : Reuss Voigt Hill
#
# Bulk Modulus (GPa) = 39.95072 53.77659 46.86365
# Shear Modulus (GPa) = -9.33310 20.82448 5.74569
#
# Velocity S-wave (km/s) = -2.22046 3.31678 1.74221
# Velocity P-wave (km/s) = 3.81195 6.56329 5.36692
#
# Compressibility (1/GPa) = 0.02503084
#
# Stress axis : x y z
#
# Youngs Moduli (GPa) = 54.68519 89.38490 48.16263
#
# Poissons Ratio (x) = 0.57886 0.00593
# Poissons Ratio (y) = 0.35414 0.28917
# Poissons Ratio (z) = 0.00673 0.53667
#
# Static dielectric constant tensor:
#      x y z
#    x 3.391490 0.000000 0.000000 
#    y 0.000000 3.663640 0.000000 
#    z 0.000000 0.000000 3.562280 
# 
# 
# High freq. dielectric constant tensor:
#      x y z
#    x 1.688710 0.000000 0.000000 
#    y 0.000000 1.742550 0.000000 
#    z 0.000000 0.000000 1.736700 
# 
# From -- ./inp_files/1464.got.cif
#   From: 2010.03.12/outbox.cif.g09.slc.cpg/sg47_1_cif.got.tgz:1464.got - 2010.04.14 03:12:58.
