data_PCOD8200551
_publ_section_title
;
Structure prediction by ZEFSAII (Michael W. Deem and Ramdas Pophale) SiO2 
 PCOD8200551
Probable space group: P M M M
;
_chemical_formula_sum "Si O2"
_cell_formula_units_Z 36
_cell_length_a 21.779246
_cell_length_b 11.875599
_cell_length_c 8.198994
_cell_angle_alpha 90.000000
_cell_angle_beta 90.000000
_cell_angle_gamma 90.000000
_cell_volume 2120.600861
_symmetry_space_group_name_H-M "P M M M"
_symmetry_group_IT_number 47
_symmetry_cell_setting 'orthorhombic'
loop_
_space_group_symop_operation_xyz
x,y,z
-x,-y,z
x,-y,-z
-x,y,-z
-x,-y,-z
x,y,-z
-x,y,z
x,-y,z
loop_
_atom_site_type_symbol
_atom_site_label
_atom_site_fract_x
_atom_site_fract_y
_atom_site_fract_z
Si Si1 0.930908 0.500000 0.690899
Si Si2 0.359189 0.133349 0.681473
Si Si3 0.570018 0.134116 0.000000
Si Si4 0.110353 0.732946 0.813317
Si Si5 0.781092 0.872147 0.311353
Si Si6 0.000000 0.122305 0.311580
O O1 0.938274 0.500000 0.500000
O O2 0.891608 0.392306 0.742883
O O3 0.000000 0.500000 0.768456
O O4 0.379761 0.178945 0.500000
O O5 0.399050 0.182300 0.832913
O O6 0.288853 0.166883 0.714408
O O7 0.365641 0.000000 0.676810
O O8 0.500000 0.174990 0.000000
O O9 0.575441 0.000000 0.000000
O O10 0.177491 0.785907 0.789715
O O11 0.060819 0.810354 0.727717
O O12 0.092884 0.726673 0.000000
O O13 0.799768 0.866012 0.500000
O O14 0.790461 0.000000 0.246962
O O15 0.000000 0.099671 0.500000
O O16 0.000000 0.000000 0.222030
#
# Coordination Sequence:
#
# PCOD8200551 Si02
#       6
#     4   8   4   8   8   4
#     4  11  23  41  61  71  88 126 164 195 242 309
#     4   8  15  27  42  61  90 128 167 206 244 287
#     4   9  16  24  38  62  92 128 169 206 240 284
#     4  12  24  35  53  77  98 121 156 206 255 297
#     4   9  18  33  51  71  97 131 169 204 245 299
#     4  11  23  38  53  70  97 129 161 197 240 295
#
# _framework density 16.976320999999999
#
# number of rings (size 3 to 8) (size 9 to 14) (size 15 to 20)
#    0.000    2.111    1.111    4.667    1.556    4.889 
#    0.000    2.222    0.000    0.000    0.000    0.000 
#    0.000    0.000    0.000    2.000    0.000   12.889 
#
# Total GULP energy -446266.124920 kJ/mol
# GULP energy per Si atom -12396.281248 kJ/mol
# Density = 1.693768 g / cm^3
# Si number density = 16.976321 Si / 1000 Ang^3
#
#
#
# Elastic Constant Matrix: (Units=GPa)
#
#
# Indices 1 2 3 4 5 6 
#
# 1 101.5612 35.6530 52.0188 0.0000 0.0000 0.0000
# 2 35.6530 86.0336 27.4988 0.0000 0.0000 0.0000
# 3 52.0188 27.4988 104.3383 0.0000 0.0000 0.0000
# 4 0.0000 0.0000 0.0000 20.0176 0.0000 0.0000
# 5 0.0000 0.0000 0.0000 0.0000 27.3910 0.0000
# 6 0.0000 0.0000 0.0000 0.0000 0.0000 -3.9115
#
#
#
# Elastic Compliance Matrix: (Units=1/GPa)
#
#
# Indices 1 2 3 4 5 6 
#
# 1 0.014385 -0.004007 -0.006116 0.000000 0.000000 0.000000
# 2 -0.004007 0.013808 -0.001642 0.000000 0.000000 0.000000
# 3 -0.006116 -0.001642 0.013066 0.000000 0.000000 0.000000
# 4 0.000000 0.000000 0.000000 0.049956 0.000000 0.000000
# 5 0.000000 0.000000 0.000000 0.000000 0.036508 0.000000
# 6 0.000000 0.000000 0.000000 0.000000 0.000000 -0.255656
#
#
# Mechanical properties :
#
#
# Convention : Reuss Voigt Hill
#
# Bulk Modulus (GPa) = 56.39761 58.03048 57.21405
# Shear Modulus (GPa) = -50.76527 20.48358 -15.14084
#
# Velocity S-wave (km/s) = -5.47435 3.47738 -2.98968
# Velocity P-wave (km/s) = 2.58158 7.09791 4.67524
#
# Compressibility (1/GPa) = 0.01773125
#
# Stress axis : x y z
#
# Youngs Moduli (GPa) = 69.51520 72.41932 76.53396
#
# Poissons Ratio (x) = 0.29015 0.46808
# Poissons Ratio (y) = 0.27852 0.12565
# Poissons Ratio (z) = 0.42515 0.11890
#
# Static dielectric constant tensor:
#      x y z
#    x 3.226470 0.000000 0.000000 
#    y 0.000000 2.861180 0.000000 
#    z 0.000000 0.000000 3.477190 
# 
# 
# High freq. dielectric constant tensor:
#      x y z
#    x 1.647510 0.000000 0.000000 
#    y 0.000000 1.604100 0.000000 
#    z 0.000000 0.000000 1.670970 
# 
# From -- ./inp_files/10604.got.cif
#   From: 2010.03.12/outbox.cif.g09.slc.cpg/sg47_6_cif.got.tgz:10604.got - 2010.04.14 03:12:58.
