data_PCOD8200247
_publ_section_title
;
Structure prediction by ZEFSAII (Michael W. Deem and Ramdas Pophale) SiO2 
 PCOD8200247
Probable space group: P M M M
;
_chemical_formula_sum "Si O2"
_cell_formula_units_Z 52
_cell_length_a 8.922303
_cell_length_b 27.270535
_cell_length_c 11.980190
_cell_angle_alpha 90.000000
_cell_angle_beta 90.000000
_cell_angle_gamma 90.000000
_cell_volume 2914.971625
_symmetry_space_group_name_H-M "P M M M"
_symmetry_group_IT_number 47
_symmetry_cell_setting 'orthorhombic'
loop_
_space_group_symop_operation_xyz
x,y,z
-x,-y,z
x,-y,-z
-x,y,-z
-x,-y,-z
x,y,-z
-x,y,z
x,-y,z
loop_
_atom_site_type_symbol
_atom_site_label
_atom_site_fract_x
_atom_site_fract_y
_atom_site_fract_z
Si Si1 0.321230 0.913727 0.269158
Si Si2 0.677671 0.177148 0.123715
Si Si3 0.178782 0.555397 0.000000
Si Si4 0.175178 0.380257 0.795882
Si Si5 0.327832 0.285840 0.870063
Si Si6 0.668803 0.445275 0.631122
Si Si7 0.823304 0.057708 0.500000
Si Si8 0.175782 0.000000 0.131989
O O1 0.500000 0.920207 0.276474
O O2 0.272366 0.861358 0.218004
O O3 0.250901 0.918014 0.391617
O O4 0.253639 0.953083 0.185051
O O5 0.500000 0.179096 0.115013
O O6 0.735782 0.231377 0.157448
O O7 0.740129 0.162594 0.000000
O O8 0.240690 0.584767 0.106949
O O9 0.243666 0.500000 0.000000
O O10 0.000000 0.553668 0.000000
O O11 0.239008 0.325492 0.798561
O O12 0.218876 0.405179 0.679903
O O13 0.000000 0.375445 0.807454
O O14 0.500000 0.289489 0.835024
O O15 0.305152 0.297338 0.000000
O O16 0.676331 0.439831 0.500000
O O17 0.500000 0.435398 0.673618
O O18 0.719776 0.500000 0.666915
O O19 0.000000 0.068079 0.500000
O O20 0.788692 0.000000 0.500000
O O21 0.000000 0.000000 0.162048
O O22 0.203626 0.000000 0.000000
#
# Coordination Sequence:
#
# PCOD8200247 Si02
#       8
#     8   8   4   8   8   8   4   4
#     4  11  21  35  59  85 108 138 186 234 266 308
#     4   8  16  32  55  83 110 135 169 220 273 313
#     4   9  18  30  43  67 107 145 169 200 253 306
#     4  11  20  31  50  76 108 140 173 213 258 311
#     4   9  17  32  54  77 105 141 177 213 260 316
#     4   9  19  36  55  74  98 130 171 217 262 311
#     4  11  23  39  57  77 112 154 184 216 269 330
#     4  11  23  36  51  78 119 155 179 209 266 331
#
# _framework density 17.838939
#
# number of rings (size 3 to 8) (size 9 to 14) (size 15 to 20)
#    0.000    2.231    1.538    3.692    0.000    2.769 
#    0.000    2.308    1.692    3.692    0.000    0.000 
#    0.000    0.000    0.000    0.000    0.000    0.000 
#
# Total GULP energy -644711.616562 kJ/mol
# GULP energy per Si atom -12398.300319 kJ/mol
# Density = 1.779834 g / cm^3
# Si number density = 17.838939 Si / 1000 Ang^3
#
#
#
# Elastic Constant Matrix: (Units=GPa)
#
#
# Indices 1 2 3 4 5 6 
#
# 1 65.9995 49.0931 42.1427 0.0000 0.0000 0.0000
# 2 49.0931 153.3614 70.6209 0.0000 0.0000 0.0000
# 3 42.1427 70.6209 99.0568 0.0000 0.0000 0.0000
# 4 0.0000 0.0000 0.0000 29.4475 0.0000 0.0000
# 5 0.0000 0.0000 0.0000 0.0000 25.1834 0.0000
# 6 0.0000 0.0000 0.0000 0.0000 0.0000 13.4118
#
#
#
# Elastic Compliance Matrix: (Units=1/GPa)
#
#
# Indices 1 2 3 4 5 6 
#
# 1 0.022448 -0.004151 -0.006591 0.000000 0.000000 0.000000
# 2 -0.004151 0.010475 -0.005702 0.000000 0.000000 0.000000
# 3 -0.006591 -0.005702 0.016964 0.000000 0.000000 0.000000
# 4 0.000000 0.000000 0.000000 0.033959 0.000000 0.000000
# 5 0.000000 0.000000 0.000000 0.000000 0.039709 0.000000
# 6 0.000000 0.000000 0.000000 0.000000 0.000000 0.074561
#
#
# Mechanical properties :
#
#
# Convention : Reuss Voigt Hill
#
# Bulk Modulus (GPa) = 58.82490 71.34789 65.08639
# Shear Modulus (GPa) = 21.12649 24.04594 22.58621
#
# Velocity S-wave (km/s) = 3.44509 3.67542 3.56212
# Velocity P-wave (km/s) = 6.99085 7.62195 7.31321
#
# Compressibility (1/GPa) = 0.01699960
#
# Stress axis : x y z
#
# Youngs Moduli (GPa) = 44.54812 95.46540 58.94680
#
# Poissons Ratio (x) = 0.39626 0.38851
# Poissons Ratio (y) = 0.18491 0.33612
# Poissons Ratio (z) = 0.29361 0.54435
#
# Static dielectric constant tensor:
#      x y z
#    x 3.145870 0.000000 0.000000 
#    y 0.000000 3.563010 0.000000 
#    z 0.000000 0.000000 3.237840 
# 
# 
# High freq. dielectric constant tensor:
#      x y z
#    x 1.675160 0.000000 0.000000 
#    y 0.000000 1.696970 0.000000 
#    z 0.000000 0.000000 1.680650 
# 
# From -- ./inp_files/15495.got.cif
#   From: 2010.03.12/outbox.cif.g09.slc.cpg/sg47_8_cif.got.tgz:15495.got - 2010.04.14 03:12:58.
