data_PCOD8200888
_publ_section_title
;
Structure prediction by ZEFSAII (Michael W. Deem and Ramdas Pophale) SiO2 
 PCOD8200888
Probable space group: P M M M
;
_chemical_formula_sum "Si O2"
_cell_formula_units_Z 64
_cell_length_a 20.383236
_cell_length_b 19.705554
_cell_length_c 9.959306
_cell_angle_alpha 90.000000
_cell_angle_beta 90.000000
_cell_angle_gamma 90.000000
_cell_volume 4000.284305
_symmetry_space_group_name_H-M "P M M M"
_symmetry_group_IT_number 47
_symmetry_cell_setting 'orthorhombic'
loop_
_space_group_symop_operation_xyz
x,y,z
-x,-y,z
x,-y,-z
-x,y,-z
-x,-y,-z
x,y,-z
-x,y,z
x,-y,z
loop_
_atom_site_type_symbol
_atom_site_label
_atom_site_fract_x
_atom_site_fract_y
_atom_site_fract_z
Si Si1 0.681793 0.341274 0.148395
Si Si2 0.319760 0.179993 0.850628
Si Si3 0.426841 0.657892 0.349541
Si Si4 0.926660 0.924368 0.159781
Si Si5 0.427067 0.819354 0.649746
Si Si6 0.075232 0.579545 0.347605
Si Si7 0.824576 0.816275 0.840196
Si Si8 0.169818 0.662995 0.841429
O O1 0.675382 0.260704 0.143597
O O2 0.628527 0.373093 0.250933
O O3 0.755802 0.360618 0.191702
O O4 0.666921 0.370684 0.000000
O O5 0.374716 0.148550 0.752609
O O6 0.247960 0.160384 0.793390
O O7 0.331062 0.150063 0.000000
O O8 0.412955 0.631019 0.500000
O O9 0.500000 0.635052 0.303215
O O10 0.422785 0.738606 0.348178
O O11 0.876998 0.869017 0.221756
O O12 0.000000 0.907137 0.210386
O O13 0.906458 0.000000 0.207827
O O14 0.924543 0.921172 0.000000
O O15 0.411181 0.845815 0.500000
O O16 0.500000 0.842664 0.693130
O O17 0.094564 0.599873 0.500000
O O18 0.085078 0.500000 0.326583
O O19 0.120427 0.617007 0.240966
O O20 0.000000 0.599932 0.319696
O O21 0.841187 0.740335 0.791726
O O22 0.825220 0.816466 0.000000
O O23 0.155582 0.655654 0.000000
#
# Coordination Sequence:
#
# PCOD8200888 Si02
#       8
#     8   8   8   8   8   8   8   8
#     4   8  14  23  33  49  75 103 130 161 198 239
#     4   8  13  21  32  46  69 101 130 157 194 238
#     4   8  13  20  30  46  69  99 135 168 195 229
#     4   8  13  21  34  53  78 109 141 168 198 242
#     4   8  13  20  29  43  66  95 126 161 197 231
#     4   9  19  35  50  63  83 110 137 168 207 248
#     4   8  14  24  36  54  83 112 136 168 208 243
#     4   9  17  28  43  64  87 110 138 172 208 247
#
# _framework density 15.998863
#
# number of rings (size 3 to 8) (size 9 to 14) (size 15 to 20)
#    0.000    3.750    0.000    3.000    0.000    2.000 
#    0.000    6.250    0.000    0.000    0.000    0.000 
#    0.000    3.000    0.000   18.625    0.000   22.250 
#
# Total GULP energy -792999.603775 kJ/mol
# GULP energy per Si atom -12390.618809 kJ/mol
# Density = 1.596245 g / cm^3
# Si number density = 15.998863 Si / 1000 Ang^3
#
#
#
# Elastic Constant Matrix: (Units=GPa)
#
#
# Indices 1 2 3 4 5 6 
#
# 1 145.8654 45.7527 76.0189 0.0000 0.0000 0.0000
# 2 45.7527 34.1160 28.5675 0.0000 0.0000 0.0000
# 3 76.0189 28.5675 75.3549 0.0000 0.0000 0.0000
# 4 0.0000 0.0000 0.0000 6.6062 0.0000 0.0000
# 5 0.0000 0.0000 0.0000 0.0000 27.1157 0.0000
# 6 0.0000 0.0000 0.0000 0.0000 0.0000 0.3701
#
#
#
# Elastic Compliance Matrix: (Units=1/GPa)
#
#
# Indices 1 2 3 4 5 6 
#
# 1 0.017586 -0.012789 -0.012893 0.000000 0.000000 0.000000
# 2 -0.012789 0.052244 -0.006905 0.000000 0.000000 0.000000
# 3 -0.012893 -0.006905 0.028895 0.000000 0.000000 0.000000
# 4 0.000000 0.000000 0.000000 0.151372 0.000000 0.000000
# 5 0.000000 0.000000 0.000000 0.000000 0.036879 0.000000
# 6 0.000000 0.000000 0.000000 0.000000 0.000000 2.701990
#
#
# Mechanical properties :
#
#
# Convention : Reuss Voigt Hill
#
# Bulk Modulus (GPa) = 29.80405 61.77938 45.79172
# Shear Modulus (GPa) = 1.63115 13.81822 7.72469
#
# Velocity S-wave (km/s) = 1.01082 2.94207 2.19972
# Velocity P-wave (km/s) = 4.47567 7.08800 5.92753
#
# Compressibility (1/GPa) = 0.03355248
#
# Stress axis : x y z
#
# Youngs Moduli (GPa) = 56.86267 19.14085 34.60838
#
# Poissons Ratio (x) = 0.24479 0.44620
# Poissons Ratio (y) = 0.72720 0.23896
# Poissons Ratio (z) = 0.73313 0.13216
#
# Static dielectric constant tensor:
#      x y z
#    x 3.377750 0.000000 0.000000 
#    y 0.000000 2.637130 0.000000 
#    z 0.000000 0.000000 3.033370 
# 
# 
# High freq. dielectric constant tensor:
#      x y z
#    x 1.627320 0.000000 0.000000 
#    y 0.000000 1.556900 0.000000 
#    z 0.000000 0.000000 1.591210 
# 
# From -- ./inp_files/11867.got.cif
#   From: 2010.03.12/outbox.cif.g09.slc.cpg/sg47_6_cif.got.tgz:11867.got - 2010.04.14 03:12:58.
