data_PCOD8200283
_publ_section_title
;
Structure prediction by ZEFSAII (Michael W. Deem and Ramdas Pophale) SiO2 
 PCOD8200283
Probable space group: P M M M
;
_chemical_formula_sum "Si O2"
_cell_formula_units_Z 52
_cell_length_a 13.765656
_cell_length_b 9.093173
_cell_length_c 27.542097
_cell_angle_alpha 90.000000
_cell_angle_beta 90.000000
_cell_angle_gamma 90.000000
_cell_volume 3447.540444
_symmetry_space_group_name_H-M "P M M M"
_symmetry_group_IT_number 47
_symmetry_cell_setting 'orthorhombic'
loop_
_space_group_symop_operation_xyz
x,y,z
-x,-y,z
x,-y,-z
-x,y,-z
-x,-y,-z
x,y,-z
-x,y,z
x,-y,z
loop_
_atom_site_type_symbol
_atom_site_label
_atom_site_fract_x
_atom_site_fract_y
_atom_site_fract_z
Si Si1 0.709791 0.831506 0.786062
Si Si2 0.888207 0.830845 0.556060
Si Si3 0.607030 0.334718 0.131806
Si Si4 0.109787 0.169263 0.724659
Si Si5 0.500000 0.826565 0.944110
Si Si6 0.215527 0.326007 0.360336
Si Si7 0.389050 0.171892 0.686457
O O1 0.686480 0.733406 0.832553
O O2 0.821130 0.799783 0.770765
O O3 0.639630 0.788317 0.741566
O O4 0.693481 0.000000 0.800959
O O5 0.863552 0.802753 0.500000
O O6 0.818833 0.725605 0.586851
O O7 0.000000 0.791209 0.566858
O O8 0.868371 0.000000 0.569988
O O9 0.500000 0.333967 0.157324
O O10 0.639856 0.500000 0.118926
O O11 0.596767 0.241198 0.081692
O O12 0.138900 0.269223 0.679363
O O13 0.000000 0.205405 0.740467
O O14 0.121902 0.000000 0.708048
O O15 0.500000 0.000000 0.937083
O O16 0.500000 0.779736 0.000000
O O17 0.219763 0.500000 0.358377
O O18 0.322926 0.262752 0.350714
O O19 0.500000 0.217131 0.677363
O O20 0.370954 0.000000 0.677110
#
# Coordination Sequence:
#
# PCOD8200283 Si02
#       7
#     8   8   8   8   4   8   8
#     4   9  16  27  44  64  85 113 150 188 221 254
#     4   9  18  33  52  70  87 111 144 180 217 261
#     4   9  18  27  39  61  89 120 146 176 219 265
#     4   9  18  32  47  62  85 120 157 188 217 255
#     4   9  17  29  45  63  85 117 155 191 222 255
#     4  11  21  30  44  68  95 119 141 174 223 270
#     4   9  18  32  49  66  85 116 155 188 215 251
#
# _framework density 15.083216999999999
#
# number of rings (size 3 to 8) (size 9 to 14) (size 15 to 20)
#    0.462    2.231    0.000    4.154    0.000    6.769 
#    0.000    0.769    0.000    0.462    0.000    3.231 
#    0.000    0.615    0.000    7.077    0.000    2.000 
#
# Total GULP energy -644637.732372 kJ/mol
# GULP energy per Si atom -12396.879469 kJ/mol
# Density = 1.504889 g / cm^3
# Si number density = 15.083217 Si / 1000 Ang^3
#
#
#
# Elastic Constant Matrix: (Units=GPa)
#
#
# Indices 1 2 3 4 5 6 
#
# 1 104.5665 48.1477 51.2947 0.0000 0.0000 0.0000
# 2 48.1477 94.1155 57.6468 0.0000 0.0000 0.0000
# 3 51.2947 57.6468 95.3244 0.0000 0.0000 0.0000
# 4 0.0000 0.0000 0.0000 10.8664 0.0000 0.0000
# 5 0.0000 0.0000 0.0000 0.0000 20.4135 0.0000
# 6 0.0000 0.0000 0.0000 0.0000 0.0000 11.8129
#
#
#
# Elastic Compliance Matrix: (Units=1/GPa)
#
#
# Indices 1 2 3 4 5 6 
#
# 1 0.013886 -0.004014 -0.005045 0.000000 0.000000 0.000000
# 2 -0.004014 0.018037 -0.008748 0.000000 0.000000 0.000000
# 3 -0.005045 -0.008748 0.018495 0.000000 0.000000 0.000000
# 4 0.000000 0.000000 0.000000 0.092026 0.000000 0.000000
# 5 0.000000 0.000000 0.000000 0.000000 0.048987 0.000000
# 6 0.000000 0.000000 0.000000 0.000000 0.000000 0.084653
#
#
# Mechanical properties :
#
#
# Convention : Reuss Voigt Hill
#
# Bulk Modulus (GPa) = 67.54335 67.57608 67.55971
# Shear Modulus (GPa) = 15.79115 17.74639 16.76877
#
# Velocity S-wave (km/s) = 3.23915 3.43383 3.33791
# Velocity P-wave (km/s) = 7.67249 7.78595 7.72943
#
# Compressibility (1/GPa) = 0.01480531
#
# Stress axis : x y z
#
# Youngs Moduli (GPa) = 72.01376 55.44241 54.06780
#
# Poissons Ratio (x) = 0.22254 0.27277
# Poissons Ratio (y) = 0.28905 0.47297
# Poissons Ratio (z) = 0.36330 0.48499
#
# Static dielectric constant tensor:
#      x y z
#    x 2.896410 0.000000 0.000000 
#    y 0.000000 2.862230 0.000000 
#    z 0.000000 0.000000 2.671980 
# 
# 
# High freq. dielectric constant tensor:
#      x y z
#    x 1.562190 0.000000 0.000000 
#    y 0.000000 1.580950 0.000000 
#    z 0.000000 0.000000 1.553630 
# 
# From -- ./inp_files/33781.got.cif
#   From: 2010.03.12/outbox.cif.g09.slc.cpg/sg47_17_cif.got.tgz:33781.got - 2010.04.14 03:12:58.
