data_PCOD8200451
_publ_section_title
;
Structure prediction by ZEFSAII (Michael W. Deem and Ramdas Pophale) SiO2 
 PCOD8200451
Probable space group: P M M M
;
_chemical_formula_sum "Si O2"
_cell_formula_units_Z 44
_cell_length_a 9.044400
_cell_length_b 14.913852
_cell_length_c 16.989226
_cell_angle_alpha 90.000000
_cell_angle_beta 90.000000
_cell_angle_gamma 90.000000
_cell_volume 2291.623061
_symmetry_space_group_name_H-M "P M M M"
_symmetry_group_IT_number 47
_symmetry_cell_setting 'orthorhombic'
loop_
_space_group_symop_operation_xyz
x,y,z
-x,-y,z
x,-y,-z
-x,y,-z
-x,-y,-z
x,y,-z
-x,y,z
x,-y,z
loop_
_atom_site_type_symbol
_atom_site_label
_atom_site_fract_x
_atom_site_fract_y
_atom_site_fract_z
Si Si1 0.169272 0.829911 0.688003
Si Si2 0.325154 0.102727 0.000000
Si Si3 0.326359 0.652551 0.655275
Si Si4 0.167556 0.790442 0.865289
Si Si5 0.160091 0.601724 0.500000
Si Si6 0.174423 0.000000 0.411000
Si Si7 0.171002 0.401322 0.192300
O O1 0.285733 0.755709 0.663942
O O2 0.178591 0.841920 0.782073
O O3 0.000000 0.804840 0.664921
O O4 0.226496 0.915496 0.640031
O O5 0.272112 0.155871 0.923501
O O6 0.500000 0.102340 0.000000
O O7 0.264955 0.000000 0.000000
O O8 0.500000 0.638399 0.653253
O O9 0.258050 0.621009 0.574825
O O10 0.261868 0.595298 0.727243
O O11 0.219732 0.684973 0.860120
O O12 0.000000 0.793562 0.897397
O O13 0.117022 0.500000 0.500000
O O14 0.000000 0.654013 0.500000
O O15 0.242567 0.000000 0.500000
O O16 0.000000 0.000000 0.418172
O O17 0.193087 0.500000 0.150714
O O18 0.000000 0.386062 0.214866
#
# Coordination Sequence:
#
# PCOD8200451 Si02
#       7
#     8   4   8   8   4   4   8
#     4   9  19  36  58  83 111 147 190 232 279 338
#     4  11  25  41  58  83 116 152 191 235 292 351
#     4  11  22  34  51  78 112 146 184 230 283 339
#     4   9  19  36  60  88 115 147 190 235 280 334
#     4  11  23  37  53  72  99 140 189 239 286 331
#     4   9  18  32  55  86 111 140 189 242 284 328
#     4   9  18  36  61  86 113 147 187 228 274 335
#
# _framework density 19.200365999999999
#
# number of rings (size 3 to 8) (size 9 to 14) (size 15 to 20)
#    0.000    2.273    0.000    3.818    2.545    6.909 
#    0.000    0.909    0.000    3.273    0.000    0.000 
#    0.000    0.000    0.000    0.000    0.000    0.000 
#
# Total GULP energy -545294.780229 kJ/mol
# GULP energy per Si atom -12393.063187 kJ/mol
# Density = 1.915666 g / cm^3
# Si number density = 19.200366 Si / 1000 Ang^3
#
#
#
# Elastic Constant Matrix: (Units=GPa)
#
#
# Indices 1 2 3 4 5 6 
#
# 1 93.4412 32.1724 40.0190 0.0000 0.0000 0.0000
# 2 32.1724 133.9015 61.3039 0.0000 0.0000 0.0000
# 3 40.0190 61.3039 98.2674 0.0000 0.0000 0.0000
# 4 0.0000 0.0000 0.0000 29.0256 0.0000 0.0000
# 5 0.0000 0.0000 0.0000 0.0000 -19.1976 0.0000
# 6 0.0000 0.0000 0.0000 0.0000 0.0000 29.3863
#
#
#
# Elastic Compliance Matrix: (Units=1/GPa)
#
#
# Indices 1 2 3 4 5 6 
#
# 1 0.013055 -0.000984 -0.004703 0.000000 0.000000 0.000000
# 2 -0.000984 0.010528 -0.006167 0.000000 0.000000 0.000000
# 3 -0.004703 -0.006167 0.015939 0.000000 0.000000 0.000000
# 4 0.000000 0.000000 0.000000 0.034452 0.000000 0.000000
# 5 0.000000 0.000000 0.000000 0.000000 -0.052090 0.000000
# 6 0.000000 0.000000 0.000000 0.000000 0.000000 0.034029
#
#
# Mechanical properties :
#
#
# Convention : Reuss Voigt Hill
#
# Bulk Modulus (GPa) = 63.23419 65.84452 64.53935
# Shear Modulus (GPa) = 58.89772 20.65051 39.77411
#
# Velocity S-wave (km/s) = 5.54454 3.28308 4.55634
# Velocity P-wave (km/s) = 8.60201 6.98135 7.83370
#
# Compressibility (1/GPa) = 0.01581423
#
# Stress axis : x y z
#
# Youngs Moduli (GPa) = 76.60062 94.98398 62.73890
#
# Poissons Ratio (x) = 0.09342 0.29506
# Poissons Ratio (y) = 0.07534 0.38694
# Poissons Ratio (z) = 0.36025 0.58580
#
# Static dielectric constant tensor:
#      x y z
#    x 3.310990 0.000000 0.000000 
#    y 0.000000 3.828840 0.000000 
#    z 0.000000 0.000000 3.676720 
# 
# 
# High freq. dielectric constant tensor:
#      x y z
#    x 1.730390 0.000000 0.000000 
#    y 0.000000 1.757570 0.000000 
#    z 0.000000 0.000000 1.735490 
# 
# From -- ./inp_files/26437.got.cif
#   From: 2010.03.12/outbox.cif.g09.slc.cpg/sg47_14_cif.got.tgz:26437.got - 2010.04.14 03:12:58.
