data_PCOD8200749
_publ_section_title
;
Structure prediction by ZEFSAII (Michael W. Deem and Ramdas Pophale) SiO2 
 PCOD8200749
Probable space group: P M M M
;
_chemical_formula_sum "Si O2"
_cell_formula_units_Z 52
_cell_length_a 9.090546
_cell_length_b 9.697583
_cell_length_c 34.360344
_cell_angle_alpha 90.000000
_cell_angle_beta 90.000000
_cell_angle_gamma 90.000000
_cell_volume 3029.081630
_symmetry_space_group_name_H-M "P M M M"
_symmetry_group_IT_number 47
_symmetry_cell_setting 'orthorhombic'
loop_
_space_group_symop_operation_xyz
x,y,z
-x,-y,z
x,-y,-z
-x,y,-z
-x,-y,-z
x,y,-z
-x,y,z
x,-y,z
loop_
_atom_site_type_symbol
_atom_site_label
_atom_site_fract_x
_atom_site_fract_y
_atom_site_fract_z
Si Si1 0.664622 0.336220 0.041197
Si Si2 0.324064 0.344634 0.875467
Si Si3 0.166308 0.835609 0.423955
Si Si4 0.672414 0.159445 0.804942
Si Si5 0.834042 0.835866 0.727774
Si Si6 0.333662 0.835587 0.500000
Si Si7 0.333706 0.835506 0.347878
O O1 0.500000 0.275877 0.039564
O O2 0.657133 0.500000 0.043072
O O3 0.738844 0.289820 0.082319
O O4 0.744468 0.290934 0.000000
O O5 0.500000 0.341988 0.877504
O O6 0.268914 0.500000 0.866623
O O7 0.266005 0.244325 0.841736
O O8 0.250286 0.778995 0.461929
O O9 0.248995 0.779225 0.385769
O O10 0.000000 0.778870 0.424114
O O11 0.166059 0.000000 0.424008
O O12 0.500000 0.183335 0.798420
O O13 0.754372 0.216186 0.766792
O O14 0.708684 0.000000 0.812674
O O15 0.747490 0.777341 0.690407
O O16 0.000000 0.778724 0.726945
O O17 0.832686 0.000000 0.726567
O O18 0.500000 0.778907 0.500000
O O19 0.333899 0.000000 0.500000
O O20 0.500000 0.779067 0.348472
O O21 0.333328 0.000000 0.347666
#
# Coordination Sequence:
#
# PCOD8200749 Si02
#       7
#     8   8   8   8   8   4   8
#     4   7   9  14  26  45  68  93 121 151 180 212
#     4   8  13  21  34  52  73  98 127 155 183 220
#     4   9  15  21  28  38  53  74 101 135 177 223
#     4   9  16  25  37  53  73  96 121 151 188 226
#     4   9  16  25  36  49  65  86 113 144 178 218
#     4   9  15  21  27  35  49  71 101 137 178 223
#     4   9  15  22  32  45  60  78 103 138 179 219
#
# _framework density 17.166920000000001
#
# number of rings (size 3 to 8) (size 9 to 14) (size 15 to 20)
#    0.000    3.462    0.000    3.000    0.000    6.462 
#    0.000    0.000    0.000    0.923    0.000    3.231 
#    0.000    0.615    0.000    7.692    0.000    7.077 
#
# Total GULP energy -644204.553725 kJ/mol
# GULP energy per Si atom -12388.549110 kJ/mol
# Density = 1.712785 g / cm^3
# Si number density = 17.166920 Si / 1000 Ang^3
#
#
#
# Elastic Constant Matrix: (Units=GPa)
#
#
# Indices 1 2 3 4 5 6 
#
# 1 100.8325 13.4984 77.4798 0.0000 0.0000 0.0000
# 2 13.4984 17.7522 31.5504 0.0000 0.0000 0.0000
# 3 77.4798 31.5504 220.8025 0.0000 0.0000 0.0000
# 4 0.0000 0.0000 0.0000 2.2336 0.0000 0.0000
# 5 0.0000 0.0000 0.0000 0.0000 8.0044 0.0000
# 6 0.0000 0.0000 0.0000 0.0000 0.0000 2.9983
#
#
#
# Elastic Compliance Matrix: (Units=1/GPa)
#
#
# Indices 1 2 3 4 5 6 
#
# 1 0.013661 -0.002504 -0.004436 0.000000 0.000000 0.000000
# 2 -0.002504 0.075965 -0.009976 0.000000 0.000000 0.000000
# 3 -0.004436 -0.009976 0.007511 0.000000 0.000000 0.000000
# 4 0.000000 0.000000 0.000000 0.447712 0.000000 0.000000
# 5 0.000000 0.000000 0.000000 0.000000 0.124931 0.000000
# 6 0.000000 0.000000 0.000000 0.000000 0.000000 0.333520
#
#
# Mechanical properties :
#
#
# Convention : Reuss Voigt Hill
#
# Bulk Modulus (GPa) = 15.79641 64.93825 40.36733
# Shear Modulus (GPa) = 4.72485 17.10450 10.91468
#
# Velocity S-wave (km/s) = 1.66081 3.15995 2.52424
# Velocity P-wave (km/s) = 3.59156 7.15705 5.66227
#
# Compressibility (1/GPa) = 0.06330552
#
# Stress axis : x y z
#
# Youngs Moduli (GPa) = 73.19993 13.16397 133.13840
#
# Poissons Ratio (x) = 0.03296 0.59060
# Poissons Ratio (y) = 0.18328 1.32819
# Poissons Ratio (z) = 0.32471 0.13132
#
# Static dielectric constant tensor:
#      x y z
#    x 3.035950 0.000000 0.000000 
#    y 0.000000 2.468200 0.000000 
#    z 0.000000 0.000000 3.762550 
# 
# 
# High freq. dielectric constant tensor:
#      x y z
#    x 1.636000 0.000000 0.000000 
#    y 0.000000 1.569710 0.000000 
#    z 0.000000 0.000000 1.693800 
# 
# From -- ./inp_files/34276.got.cif
#   From: 2010.03.12/outbox.cif.g09.slc.cpg/sg47_18_cif.got.tgz:34276.got - 2010.04.14 03:12:58.
