data_PCOD8200374
_publ_section_title
;
Structure prediction by ZEFSAII (Michael W. Deem and Ramdas Pophale) SiO2 
 PCOD8200374
Probable space group: P M M M
;
_chemical_formula_sum "Si O2"
_cell_formula_units_Z 52
_cell_length_a 9.124006
_cell_length_b 11.930879
_cell_length_c 28.492708
_cell_angle_alpha 90.000000
_cell_angle_beta 90.000000
_cell_angle_gamma 90.000000
_cell_volume 3101.642442
_symmetry_space_group_name_H-M "P M M M"
_symmetry_group_IT_number 47
_symmetry_cell_setting 'orthorhombic'
loop_
_space_group_symop_operation_xyz
x,y,z
-x,-y,z
x,-y,-z
-x,y,-z
-x,-y,-z
x,y,-z
-x,y,z
x,-y,z
loop_
_atom_site_type_symbol
_atom_site_label
_atom_site_fract_x
_atom_site_fract_y
_atom_site_fract_z
Si Si1 0.176149 0.260441 0.447832
Si Si2 0.328427 0.132624 0.000000
Si Si3 0.842116 0.500000 0.445035
Si Si4 0.827089 0.500000 0.947469
Si Si5 0.673156 0.870224 0.166143
Si Si6 0.174669 0.257037 0.084804
Si Si7 0.338784 0.132714 0.729012
Si Si8 0.167228 0.131480 0.359320
O O1 0.232033 0.224242 0.500000
O O2 0.240539 0.383477 0.433085
O O3 0.236337 0.176552 0.408057
O O4 0.000000 0.264182 0.448806
O O5 0.251588 0.183099 0.954612
O O6 0.500000 0.163491 0.000000
O O7 0.305162 0.000000 0.000000
O O8 0.871338 0.500000 0.500000
O O9 0.000000 0.500000 0.418964
O O10 0.777070 0.387441 0.920315
O O11 0.000000 0.500000 0.952121
O O12 0.758638 0.500000 0.000000
O O13 0.500000 0.850018 0.158723
O O14 0.768445 0.787627 0.134417
O O15 0.721872 0.838734 0.219197
O O16 0.710342 0.000000 0.154767
O O17 0.000000 0.243184 0.080844
O O18 0.500000 0.184650 0.723222
O O19 0.241211 0.184056 0.687167
O O20 0.346332 0.000000 0.724148
O O21 0.000000 0.168247 0.356205
O O22 0.188644 0.000000 0.360409
#
# Coordination Sequence:
#
# PCOD8200374 Si02
#       8
#     8   4   4   4   8   8   8   8
#     4   8  13  21  34  54  81 111 141 175 218 264
#     4  11  23  36  49  70 104 135 154 183 228 271
#     4   7  10  18  32  49  71 102 140 175 204 244
#     4   9  18  36  54  69  96 131 161 192 228 264
#     4   9  18  33  51  72  98 123 149 188 239 284
#     4  11  21  34  54  75  96 125 160 194 228 269
#     4   8  15  29  47  63  84 119 153 177 212 268
#     4   9  16  24  37  61  89 112 138 177 220 260
#
# _framework density 16.765309999999999
#
# number of rings (size 3 to 8) (size 9 to 14) (size 15 to 20)
#    0.000    3.000    0.769    3.000    0.000    3.692 
#    0.000    5.000    0.000    1.385    0.000    7.000 
#    0.000    1.846    0.000    0.000    0.000    0.000 
#
# Total GULP energy -644215.503958 kJ/mol
# GULP energy per Si atom -12388.759692 kJ/mol
# Density = 1.672715 g / cm^3
# Si number density = 16.765310 Si / 1000 Ang^3
#
#
#
# Elastic Constant Matrix: (Units=GPa)
#
#
# Indices 1 2 3 4 5 6 
#
# 1 51.5305 38.8350 49.5516 0.0000 0.0000 0.0000
# 2 38.8350 67.5261 55.6831 0.0000 0.0000 0.0000
# 3 49.5516 55.6831 148.1838 0.0000 0.0000 0.0000
# 4 0.0000 0.0000 0.0000 6.0069 0.0000 0.0000
# 5 0.0000 0.0000 0.0000 0.0000 14.6237 0.0000
# 6 0.0000 0.0000 0.0000 0.0000 0.0000 4.7275
#
#
#
# Elastic Compliance Matrix: (Units=1/GPa)
#
#
# Indices 1 2 3 4 5 6 
#
# 1 0.038180 -0.016562 -0.006544 0.000000 0.000000 0.000000
# 2 -0.016562 0.028642 -0.005225 0.000000 0.000000 0.000000
# 3 -0.006544 -0.005225 0.010900 0.000000 0.000000 0.000000
# 4 0.000000 0.000000 0.000000 0.166476 0.000000 0.000000
# 5 0.000000 0.000000 0.000000 0.000000 0.068382 0.000000
# 6 0.000000 0.000000 0.000000 0.000000 0.000000 0.211530
#
#
# Mechanical properties :
#
#
# Convention : Reuss Voigt Hill
#
# Bulk Modulus (GPa) = 47.47955 61.70887 54.59421
# Shear Modulus (GPa) = 8.50643 13.28299 10.89471
#
# Velocity S-wave (km/s) = 2.25496 2.81782 2.55195
# Velocity P-wave (km/s) = 5.92970 6.89015 6.42789
#
# Compressibility (1/GPa) = 0.02106170
#
# Stress axis : x y z
#
# Youngs Moduli (GPa) = 26.19197 34.91331 91.74403
#
# Poissons Ratio (x) = 0.57822 0.60034
# Poissons Ratio (y) = 0.43378 0.47935
# Poissons Ratio (z) = 0.17139 0.18242
#
# Static dielectric constant tensor:
#      x y z
#    x 2.966170 0.000000 0.000000 
#    y 0.000000 3.264460 0.000000 
#    z 0.000000 0.000000 3.464470 
# 
# 
# High freq. dielectric constant tensor:
#      x y z
#    x 1.614090 0.000000 0.000000 
#    y 0.000000 1.627030 0.000000 
#    z 0.000000 0.000000 1.650640 
# 
# From -- ./inp_files/34314.got.cif
#   From: 2010.03.12/outbox.cif.g09.slc.cpg/sg47_18_cif.got.tgz:34314.got - 2010.04.14 03:12:58.
