data_PCOD8200867
_publ_section_title
;
Structure prediction by ZEFSAII (Michael W. Deem and Ramdas Pophale) SiO2 
 PCOD8200867
Probable space group: P M M M
;
_chemical_formula_sum "Si O2"
_cell_formula_units_Z 36
_cell_length_a 11.928158
_cell_length_b 9.484047
_cell_length_c 20.802519
_cell_angle_alpha 90.000000
_cell_angle_beta 90.000000
_cell_angle_gamma 90.000000
_cell_volume 2353.330958
_symmetry_space_group_name_H-M "P M M M"
_symmetry_group_IT_number 47
_symmetry_cell_setting 'orthorhombic'
loop_
_space_group_symop_operation_xyz
x,y,z
-x,-y,z
x,-y,-z
-x,y,-z
-x,-y,-z
x,y,-z
-x,y,z
x,-y,z
loop_
_atom_site_type_symbol
_atom_site_label
_atom_site_fract_x
_atom_site_fract_y
_atom_site_fract_z
Si Si1 0.133283 0.842765 0.382657
Si Si2 0.874345 0.168050 0.000000
Si Si3 0.133892 0.341255 0.500000
Si Si4 0.874504 0.832053 0.240914
Si Si5 0.263861 0.168049 0.121353
Si Si6 0.500000 0.832050 0.926876
O O1 0.180971 0.737735 0.436776
O O2 0.167910 0.785672 0.311872
O O3 0.000000 0.850072 0.386278
O O4 0.181903 0.000000 0.394895
O O5 0.811404 0.225414 0.062914
O O6 0.000000 0.228326 0.000000
O O7 0.874927 0.000000 0.000000
O O8 0.180772 0.500000 0.500000
O O9 0.000000 0.340688 0.500000
O O10 0.787850 0.772252 0.187874
O O11 0.000000 0.773297 0.226983
O O12 0.879246 0.000000 0.238424
O O13 0.390724 0.223342 0.111413
O O14 0.262143 0.000000 0.121909
O O15 0.500000 0.000000 0.929772
O O16 0.500000 0.773815 0.000000
#
# Coordination Sequence:
#
# PCOD8200867 Si02
#       6
#     8   4   4   8   8   4
#     4   8  13  21  32  45  64  92 122 148 175 208
#     4   9  14  17  23  35  51  74 106 144 177 202
#     4   9  15  21  31  49  71  94 119 144 170 207
#     4   8  13  20  29  41  57  80 113 149 177 202
#     4   9  14  19  26  36  53  78 111 145 175 209
#     4   9  14  20  26  34  52  81 113 142 174 215
#
# _framework density 15.297466
#
# number of rings (size 3 to 8) (size 9 to 14) (size 15 to 20)
#    0.000    3.444    1.111    2.333    0.000    4.000 
#    0.000    0.000    0.000    0.000    0.000    0.000 
#    0.000    0.889    0.000   13.333    0.000   28.667 
#
# Total GULP energy -446080.892730 kJ/mol
# GULP energy per Si atom -12391.135909 kJ/mol
# Density = 1.526265 g / cm^3
# Si number density = 15.297466 Si / 1000 Ang^3
#
#
#
# Elastic Constant Matrix: (Units=GPa)
#
#
# Indices 1 2 3 4 5 6 
#
# 1 90.9732 13.5915 62.5740 0.0000 0.0000 0.0000
# 2 13.5915 31.6096 35.6112 0.0000 0.0000 0.0000
# 3 62.5740 35.6112 165.8026 0.0000 0.0000 0.0000
# 4 0.0000 0.0000 0.0000 1.4059 0.0000 0.0000
# 5 0.0000 0.0000 0.0000 0.0000 7.6883 0.0000
# 6 0.0000 0.0000 0.0000 0.0000 0.0000 2.1302
#
#
#
# Elastic Compliance Matrix: (Units=1/GPa)
#
#
# Indices 1 2 3 4 5 6 
#
# 1 0.014846 -0.000094 -0.005583 0.000000 0.000000 0.000000
# 2 -0.000094 0.041735 -0.008928 0.000000 0.000000 0.000000
# 3 -0.005583 -0.008928 0.010056 0.000000 0.000000 0.000000
# 4 0.000000 0.000000 0.000000 0.711294 0.000000 0.000000
# 5 0.000000 0.000000 0.000000 0.000000 0.130067 0.000000
# 6 0.000000 0.000000 0.000000 0.000000 0.000000 0.469438
#
#
# Mechanical properties :
#
#
# Convention : Reuss Voigt Hill
#
# Bulk Modulus (GPa) = 26.71891 56.88209 41.80050
# Shear Modulus (GPa) = 3.52330 14.01881 8.77105
#
# Velocity S-wave (km/s) = 1.51927 3.03052 2.39710
# Velocity P-wave (km/s) = 4.53671 7.03634 5.91996
#
# Compressibility (1/GPa) = 0.03742668
#
# Stress axis : x y z
#
# Youngs Moduli (GPa) = 67.35680 23.96072 99.44458
#
# Poissons Ratio (x) = 0.00225 0.55518
# Poissons Ratio (y) = 0.00634 0.88788
# Poissons Ratio (z) = 0.37604 0.21393
#
# Static dielectric constant tensor:
#      x y z
#    x 2.800670 0.000000 0.000000 
#    y 0.000000 2.400430 0.000000 
#    z 0.000000 0.000000 3.342390 
# 
# 
# High freq. dielectric constant tensor:
#      x y z
#    x 1.543420 0.000000 0.000000 
#    y 0.000000 1.515050 0.000000 
#    z 0.000000 0.000000 1.602270 
# 
# From -- ./inp_files/32280.got.cif
#   From: 2010.03.12/outbox.cif.g09.slc.cpg/sg47_17_cif.got.tgz:32280.got - 2010.04.14 03:12:58.
