data_PCOD8200662
_publ_section_title
;
Structure prediction by ZEFSAII (Michael W. Deem and Ramdas Pophale) SiO2 
 PCOD8200662
Probable space group: P M M M
;
_chemical_formula_sum "Si O2"
_cell_formula_units_Z 40
_cell_length_a 9.467301
_cell_length_b 27.383721
_cell_length_c 7.716404
_cell_angle_alpha 90.000000
_cell_angle_beta 90.000000
_cell_angle_gamma 90.000000
_cell_volume 2000.477191
_symmetry_space_group_name_H-M "P M M M"
_symmetry_group_IT_number 47
_symmetry_cell_setting 'orthorhombic'
loop_
_space_group_symop_operation_xyz
x,y,z
-x,-y,z
x,-y,-z
-x,y,-z
-x,-y,-z
x,y,-z
-x,y,z
x,-y,z
loop_
_atom_site_type_symbol
_atom_site_label
_atom_site_fract_x
_atom_site_fract_y
_atom_site_fract_z
Si Si1 0.342160 0.410718 0.293190
Si Si2 0.841207 0.500000 0.293123
Si Si3 0.167044 0.109122 0.202006
Si Si4 0.665801 0.303414 0.696290
Si Si5 0.848901 0.216105 0.196909
Si Si6 0.337708 0.057737 0.500000
O O1 0.343948 0.410252 0.500000
O O2 0.500000 0.422540 0.225535
O O3 0.236587 0.451793 0.220413
O O4 0.293230 0.356997 0.227637
O O5 0.838410 0.500000 0.500000
O O6 0.000000 0.500000 0.221142
O O7 0.204777 0.164261 0.271228
O O8 0.258107 0.074332 0.324964
O O9 0.000000 0.099189 0.226828
O O10 0.209936 0.100475 0.000000
O O11 0.717716 0.299623 0.500000
O O12 0.500000 0.296174 0.712372
O O13 0.738630 0.259980 0.797580
O O14 0.000000 0.231482 0.282978
O O15 0.878853 0.203540 0.000000
O O16 0.500000 0.077026 0.500000
O O17 0.335597 0.000000 0.500000
#
# Coordination Sequence:
#
# PCOD8200662 Si02
#       6
#     8   4   8   8   8   4
#     4   8  14  25  38  54  83 122 158 194 243 302
#     4   9  15  21  33  55  82 113 154 203 248 296
#     4   9  20  40  63  86 115 153 198 242 282 335
#     4   9  18  30  45  70 101 130 165 208 253 308
#     4   9  19  35  53  75 103 135 172 213 259 311
#     4  11  25  41  59  89 125 157 191 236 291 344
#
# _framework density 19.995228999999998
#
# number of rings (size 3 to 8) (size 9 to 14) (size 15 to 20)
#    0.000    3.000    0.000    3.000    1.400    5.200 
#    0.000    6.000    0.000    0.000    0.000    0.700 
#    0.000    5.600    0.000    0.000    0.000    0.000 
#
# Total GULP energy -495594.250754 kJ/mol
# GULP energy per Si atom -12389.856269 kJ/mol
# Density = 1.994972 g / cm^3
# Si number density = 19.995229 Si / 1000 Ang^3
#
#
#
# Elastic Constant Matrix: (Units=GPa)
#
#
# Indices 1 2 3 4 5 6 
#
# 1 97.2119 68.4781 33.4542 0.0000 0.0000 0.0000
# 2 68.4781 130.4232 29.8206 0.0000 0.0000 0.0000
# 3 33.4542 29.8206 58.0579 0.0000 0.0000 0.0000
# 4 0.0000 0.0000 0.0000 -104.2737 0.0000 0.0000
# 5 0.0000 0.0000 0.0000 0.0000 17.1353 0.0000
# 6 0.0000 0.0000 0.0000 0.0000 0.0000 33.2945
#
#
#
# Elastic Compliance Matrix: (Units=1/GPa)
#
#
# Indices 1 2 3 4 5 6 
#
# 1 0.018157 -0.008091 -0.006306 0.000000 0.000000 0.000000
# 2 -0.008091 0.012293 -0.001652 0.000000 0.000000 0.000000
# 3 -0.006306 -0.001652 0.021707 0.000000 0.000000 0.000000
# 4 0.000000 0.000000 0.000000 -0.009590 0.000000 0.000000
# 5 0.000000 0.000000 0.000000 0.000000 0.058359 0.000000
# 6 0.000000 0.000000 0.000000 0.000000 0.000000 0.030035
#
#
# Mechanical properties :
#
#
# Convention : Reuss Voigt Hill
#
# Bulk Modulus (GPa) = 49.85655 61.02208 55.43931
# Shear Modulus (GPa) = 29.45594 -0.50610 14.47492
#
# Velocity S-wave (km/s) = 3.84233 -0.50365 2.69349
# Velocity P-wave (km/s) = 6.68378 5.49967 6.12043
#
# Compressibility (1/GPa) = 0.02005754
#
# Stress axis : x y z
#
# Youngs Moduli (GPa) = 55.07634 81.34532 46.06903
#
# Poissons Ratio (x) = 0.65818 0.29053
# Poissons Ratio (y) = 0.44563 0.07610
# Poissons Ratio (z) = 0.34733 0.13438
#
# Static dielectric constant tensor:
#      x y z
#    x 3.611250 0.000000 0.000000 
#    y 0.000000 3.750840 0.000000 
#    z 0.000000 0.000000 3.362240 
# 
# 
# High freq. dielectric constant tensor:
#      x y z
#    x 1.770330 0.000000 0.000000 
#    y 0.000000 1.787570 0.000000 
#    z 0.000000 0.000000 1.754720 
# 
# From -- ./inp_files/1754.got.cif
#   From: 2010.03.12/outbox.cif.g09.slc.cpg/sg47_1_cif.got.tgz:1754.got - 2010.04.14 03:12:58.
