data_PCOD8200903
_publ_section_title
;
Structure prediction by ZEFSAII (Michael W. Deem and Ramdas Pophale) SiO2 
 PCOD8200903
Probable space group: P M M M
;
_chemical_formula_sum "Si O2"
_cell_formula_units_Z 52
_cell_length_a 9.070390
_cell_length_b 24.129464
_cell_length_c 13.080037
_cell_angle_alpha 90.000000
_cell_angle_beta 90.000000
_cell_angle_gamma 90.000000
_cell_volume 2862.744626
_symmetry_space_group_name_H-M "P M M M"
_symmetry_group_IT_number 47
_symmetry_cell_setting 'orthorhombic'
loop_
_space_group_symop_operation_xyz
x,y,z
-x,-y,z
x,-y,-z
-x,y,-z
-x,-y,-z
x,y,-z
-x,y,z
x,-y,z
loop_
_atom_site_type_symbol
_atom_site_label
_atom_site_fract_x
_atom_site_fract_y
_atom_site_fract_z
Si Si1 0.824850 0.562278 0.886494
Si Si2 0.825137 0.360520 0.294660
Si Si3 0.171566 0.765274 0.701163
Si Si4 0.176237 0.063726 0.000000
Si Si5 0.334535 0.769156 0.500000
Si Si6 0.173311 0.873025 0.803407
Si Si7 0.333422 0.362499 0.500000
Si Si8 0.175423 0.062538 0.611303
O O1 0.769912 0.500000 0.862008
O O2 0.762833 0.603794 0.800383
O O3 0.000000 0.564089 0.884961
O O4 0.769219 0.580171 0.000000
O O5 0.778427 0.296969 0.270980
O O6 0.750624 0.383435 0.398300
O O7 0.000000 0.366472 0.307597
O O8 0.252640 0.789727 0.601643
O O9 0.206265 0.806728 0.796471
O O10 0.000000 0.766166 0.673620
O O11 0.241649 0.097410 0.902968
O O12 0.000000 0.064269 0.000000
O O13 0.232792 0.000000 0.000000
O O14 0.500000 0.792400 0.500000
O O15 0.331822 0.703127 0.500000
O O16 0.242909 0.900462 0.701811
O O17 0.000000 0.883905 0.806450
O O18 0.500000 0.385932 0.500000
O O19 0.231554 0.083963 0.500000
O O20 0.000000 0.064924 0.613635
O O21 0.229692 0.000000 0.629016
#
# Coordination Sequence:
#
# PCOD8200903 Si02
#       8
#     8   8   8   4   4   8   4   8
#     4   8  14  26  45  68  91 117 154 196 230 263
#     4   9  16  28  45  67  92 120 150 186 229 271
#     4   9  17  27  41  65  94 119 143 176 223 269
#     4   9  16  26  38  52  81 123 154 176 210 259
#     4   9  17  29  45  64  87 120 154 181 212 259
#     4   9  16  24  35  54  81 115 146 174 210 257
#     4   9  17  29  46  66  91 123 155 184 218 269
#     4   8  13  20  30  46  70 100 134 170 205 244
#
# _framework density 18.164387000000001
#
# number of rings (size 3 to 8) (size 9 to 14) (size 15 to 20)
#    0.000    3.308    0.000    1.846    1.077    3.692 
#    1.385    0.385    0.000    3.231    0.000    1.615 
#    0.000    5.538    0.000    0.000    0.000    0.000 
#
# Total GULP energy -644337.849299 kJ/mol
# GULP energy per Si atom -12391.112487 kJ/mol
# Density = 1.812304 g / cm^3
# Si number density = 18.164387 Si / 1000 Ang^3
#
#
#
# Elastic Constant Matrix: (Units=GPa)
#
#
# Indices 1 2 3 4 5 6 
#
# 1 25.5468 15.9290 22.5544 0.0000 0.0000 0.0000
# 2 15.9290 100.4674 90.5797 0.0000 0.0000 0.0000
# 3 22.5544 90.5797 173.3179 0.0000 0.0000 0.0000
# 4 0.0000 0.0000 0.0000 36.6166 0.0000 0.0000
# 5 0.0000 0.0000 0.0000 0.0000 3.2841 0.0000
# 6 0.0000 0.0000 0.0000 0.0000 0.0000 5.0095
#
#
#
# Elastic Compliance Matrix: (Units=1/GPa)
#
#
# Indices 1 2 3 4 5 6 
#
# 1 0.044865 -0.003497 -0.004011 0.000000 0.000000 0.000000
# 2 -0.003497 0.019095 -0.009524 0.000000 0.000000 0.000000
# 3 -0.004011 -0.009524 0.011269 0.000000 0.000000 0.000000
# 4 0.000000 0.000000 0.000000 0.027310 0.000000 0.000000
# 5 0.000000 0.000000 0.000000 0.000000 0.304502 0.000000
# 6 0.000000 0.000000 0.000000 0.000000 0.000000 0.199620
#
#
# Mechanical properties :
#
#
# Convention : Reuss Voigt Hill
#
# Bulk Modulus (GPa) = 24.29253 61.93981 43.11617
# Shear Modulus (GPa) = 7.64003 20.33329 13.98666
#
# Velocity S-wave (km/s) = 2.05309 3.34938 2.77791
# Velocity P-wave (km/s) = 4.36153 7.00938 5.83757
#
# Compressibility (1/GPa) = 0.04116491
#
# Stress axis : x y z
#
# Youngs Moduli (GPa) = 22.28885 52.36995 88.73699
#
# Poissons Ratio (x) = 0.18316 0.35589
# Poissons Ratio (y) = 0.07795 0.84516
# Poissons Ratio (z) = 0.08939 0.49879
#
# Static dielectric constant tensor:
#      x y z
#    x 2.781750 0.000000 0.000000 
#    y 0.000000 3.429470 0.000000 
#    z 0.000000 0.000000 3.700470 
# 
# 
# High freq. dielectric constant tensor:
#      x y z
#    x 1.634780 0.000000 0.000000 
#    y 0.000000 1.698700 0.000000 
#    z 0.000000 0.000000 1.706730 
# 
# From -- ./inp_files/15586.got.cif
#   From: 2010.03.12/outbox.cif.g09.slc.cpg/sg47_8_cif.got.tgz:15586.got - 2010.04.14 03:12:58.
