data_PCOD8200870
_publ_section_title
;
Structure prediction by ZEFSAII (Michael W. Deem and Ramdas Pophale) SiO2 
 PCOD8200870
Probable space group: P M M M
;
_chemical_formula_sum "Si O2"
_cell_formula_units_Z 60
_cell_length_a 28.358453
_cell_length_b 20.681670
_cell_length_c 9.224996
_cell_angle_alpha 90.000000
_cell_angle_beta 90.000000
_cell_angle_gamma 90.000000
_cell_volume 5410.461691
_symmetry_space_group_name_H-M "P M M M"
_symmetry_group_IT_number 47
_symmetry_cell_setting 'orthorhombic'
loop_
_space_group_symop_operation_xyz
x,y,z
-x,-y,z
x,-y,-z
-x,y,-z
-x,-y,-z
x,y,-z
-x,y,z
x,-y,z
loop_
_atom_site_type_symbol
_atom_site_label
_atom_site_fract_x
_atom_site_fract_y
_atom_site_fract_z
Si Si1 0.443987 0.929460 0.662184
Si Si2 0.817240 0.577100 0.164571
Si Si3 0.366127 0.574786 0.169618
Si Si4 0.091356 0.577034 0.335352
Si Si5 0.273420 0.423122 0.663927
Si Si6 0.447649 0.668893 0.827202
Si Si7 0.444009 0.189518 0.159926
Si Si8 0.000000 0.422951 0.835298
O O1 0.424194 0.924529 0.500000
O O2 0.500000 0.923188 0.661213
O O3 0.421476 0.869774 0.750250
O O4 0.429804 0.000000 0.728232
O O5 0.816906 0.500000 0.162668
O O6 0.862681 0.603016 0.251346
O O7 0.771072 0.604131 0.246498
O O8 0.818183 0.603677 0.000000
O O9 0.376863 0.500000 0.202305
O O10 0.320892 0.600151 0.257010
O O11 0.410975 0.615089 0.226964
O O12 0.356448 0.586116 0.000000
O O13 0.091123 0.603750 0.500000
O O14 0.091245 0.500000 0.337920
O O15 0.045761 0.603188 0.249625
O O16 0.272122 0.395918 0.500000
O O17 0.271368 0.500000 0.662346
O O18 0.500000 0.651192 0.768106
O O19 0.431808 0.740202 0.770676
O O20 0.449410 0.671456 0.000000
O O21 0.500000 0.182802 0.152063
O O22 0.422009 0.184334 0.000000
O O23 0.000000 0.500000 0.837819
O O24 0.000000 0.396284 0.000000
#
# Coordination Sequence:
#
# PCOD8200870 Si02
#       8
#     8   8   8   8   8   8   8   4
#     4   8  13  20  29  42  60  78  93 110 130 148
#     4   9  15  22  32  44  55  66  82 103 126 155
#     4   9  16  25  37  50  60  71  89 112 138 169
#     4   9  15  21  28  38  52  69  87 105 126 151
#     4   9  16  25  35  45  57  70  82 101 132 166
#     4   8  14  24  36  49  63  76  91 113 138 162
#     4   8  13  21  32  44  58  76  95 112 129 151
#     4   9  15  21  27  35  49  69  91 111 127 143
#
# _framework density 11.089627
#
# number of rings (size 3 to 8) (size 9 to 14) (size 15 to 20)
#    0.000    3.400    0.000    2.600    0.000    6.133 
#    0.000    3.333    0.000    1.200    0.000    1.867 
#    0.000    0.000    0.000    0.000    0.000    0.000 
#
# Total GULP energy -743512.603637 kJ/mol
# GULP energy per Si atom -12391.876727 kJ/mol
# Density = 1.106439 g / cm^3
# Si number density = 11.089627 Si / 1000 Ang^3
#
#
#
# Elastic Constant Matrix: (Units=GPa)
#
#
# Indices 1 2 3 4 5 6 
#
# 1 81.3174 28.3314 41.8824 0.0000 0.0000 0.0000
# 2 28.3314 39.9179 22.3249 0.0000 0.0000 0.0000
# 3 41.8824 22.3249 73.9932 0.0000 0.0000 0.0000
# 4 0.0000 0.0000 0.0000 6.0438 0.0000 0.0000
# 5 0.0000 0.0000 0.0000 0.0000 13.6827 0.0000
# 6 0.0000 0.0000 0.0000 0.0000 0.0000 0.2707
#
#
#
# Elastic Compliance Matrix: (Units=1/GPa)
#
#
# Indices 1 2 3 4 5 6 
#
# 1 0.019925 -0.009425 -0.008435 0.000000 0.000000 0.000000
# 2 -0.009425 0.034594 -0.005103 0.000000 0.000000 0.000000
# 3 -0.008435 -0.005103 0.019829 0.000000 0.000000 0.000000
# 4 0.000000 0.000000 0.000000 0.165459 0.000000 0.000000
# 5 0.000000 0.000000 0.000000 0.000000 0.073085 0.000000
# 6 0.000000 0.000000 0.000000 0.000000 0.000000 3.694343
#
#
# Mechanical properties :
#
#
# Convention : Reuss Voigt Hill
#
# Bulk Modulus (GPa) = 35.18193 42.25619 38.71906
# Shear Modulus (GPa) = 1.23073 10.84543 6.03808
#
# Velocity S-wave (km/s) = 1.05461 3.13066 2.33594
# Velocity P-wave (km/s) = 5.76861 7.15926 6.50123
#
# Compressibility (1/GPa) = 0.02842369
#
# Stress axis : x y z
#
# Youngs Moduli (GPa) = 50.18725 28.90638 50.43162
#
# Poissons Ratio (x) = 0.27243 0.42538
# Poissons Ratio (y) = 0.47299 0.25736
# Poissons Ratio (z) = 0.42332 0.14751
#
# Static dielectric constant tensor:
#      x y z
#    x 2.320790 0.000000 0.000000 
#    y 0.000000 2.139700 0.000000 
#    z 0.000000 0.000000 2.492040 
# 
# 
# High freq. dielectric constant tensor:
#      x y z
#    x 1.397530 0.000000 0.000000 
#    y 0.000000 1.363330 0.000000 
#    z 0.000000 0.000000 1.424110 
# 
# From -- ./inp_files/13520.got.cif
#   From: 2010.03.12/outbox.cif.g09.slc.cpg/sg47_7_cif.got.tgz:13520.got - 2010.04.14 03:12:58.
