data_PCOD8200894
_publ_section_title
;
Structure prediction by ZEFSAII (Michael W. Deem and Ramdas Pophale) SiO2 
 PCOD8200894
Probable space group: P M M M
;
_chemical_formula_sum "Si O2"
_cell_formula_units_Z 44
_cell_length_a 9.630350
_cell_length_b 28.617622
_cell_length_c 9.359452
_cell_angle_alpha 90.000000
_cell_angle_beta 90.000000
_cell_angle_gamma 90.000000
_cell_volume 2579.443594
_symmetry_space_group_name_H-M "P M M M"
_symmetry_group_IT_number 47
_symmetry_cell_setting 'orthorhombic'
loop_
_space_group_symop_operation_xyz
x,y,z
-x,-y,z
x,-y,-z
-x,y,-z
-x,-y,-z
x,y,-z
-x,y,z
x,-y,z
loop_
_atom_site_type_symbol
_atom_site_label
_atom_site_fract_x
_atom_site_fract_y
_atom_site_fract_z
Si Si1 0.154334 0.366728 0.829630
Si Si2 0.160708 0.912807 0.167515
Si Si3 0.834281 0.264134 0.840443
Si Si4 0.342190 0.000000 0.169547
Si Si5 0.164997 0.177947 0.339662
Si Si6 0.655490 0.551553 0.830114
O O1 0.213151 0.315530 0.785385
O O2 0.249005 0.407780 0.763369
O O3 0.000000 0.374073 0.767551
O O4 0.150249 0.369313 0.000000
O O5 0.212625 0.867193 0.251111
O O6 0.000000 0.925055 0.201442
O O7 0.257952 0.954728 0.223060
O O8 0.180128 0.903231 0.000000
O O9 0.774143 0.224473 0.735373
O O10 0.000000 0.262997 0.844621
O O11 0.776773 0.254434 0.000000
O O12 0.500000 0.000000 0.230620
O O13 0.345512 0.000000 0.000000
O O14 0.224898 0.174868 0.500000
O O15 0.000000 0.180638 0.341708
O O16 0.500000 0.558966 0.771993
O O17 0.710100 0.500000 0.784003
O O18 0.656102 0.555173 0.000000
#
# Coordination Sequence:
#
# PCOD8200894 Si02
#       6
#     8   8   8   4   8   8
#     4   8  13  20  31  48  69  95 127 158 187 226
#     4   9  16  27  45  67  88 110 137 168 201 236
#     4   8  13  22  36  54  77 104 133 165 201 239
#     4   9  17  29  46  67  88 110 138 171 202 234
#     4   9  16  25  39  61  86 109 135 168 203 238
#     4   8  13  20  29  43  67  98 126 153 191 236
#
# _framework density 17.057943000000002
#
# number of rings (size 3 to 8) (size 9 to 14) (size 15 to 20)
#    0.000    3.545    0.000    2.455    0.000    3.636 
#    0.000    2.273    0.000    4.364    0.000    5.091 
#    0.000    0.727    0.000    9.091    0.000   10.545 
#
# Total GULP energy -545250.769577 kJ/mol
# GULP energy per Si atom -12392.062945 kJ/mol
# Density = 1.701912 g / cm^3
# Si number density = 17.057943 Si / 1000 Ang^3
#
#
#
# Elastic Constant Matrix: (Units=GPa)
#
#
# Indices 1 2 3 4 5 6 
#
# 1 58.2334 65.6247 19.7807 0.0000 0.0000 0.0000
# 2 65.6247 194.2550 52.6601 0.0000 0.0000 0.0000
# 3 19.7807 52.6601 50.0661 0.0000 0.0000 0.0000
# 4 0.0000 0.0000 0.0000 2.9056 0.0000 0.0000
# 5 0.0000 0.0000 0.0000 0.0000 5.0537 0.0000
# 6 0.0000 0.0000 0.0000 0.0000 0.0000 6.4345
#
#
#
# Elastic Compliance Matrix: (Units=1/GPa)
#
#
# Indices 1 2 3 4 5 6 
#
# 1 0.027814 -0.008977 -0.001547 0.000000 0.000000 0.000000
# 2 -0.008977 0.010098 -0.007075 0.000000 0.000000 0.000000
# 3 -0.001547 -0.007075 0.028026 0.000000 0.000000 0.000000
# 4 0.000000 0.000000 0.000000 0.344160 0.000000 0.000000
# 5 0.000000 0.000000 0.000000 0.000000 0.197877 0.000000
# 6 0.000000 0.000000 0.000000 0.000000 0.000000 0.155413
#
#
# Mechanical properties :
#
#
# Convention : Reuss Voigt Hill
#
# Bulk Modulus (GPa) = 32.52987 64.29840 48.41414
# Shear Modulus (GPa) = 6.18174 13.84469 10.01321
#
# Velocity S-wave (km/s) = 1.90574 2.85200 2.42546
# Velocity P-wave (km/s) = 4.89429 6.97289 6.02392
#
# Compressibility (1/GPa) = 0.03074098
#
# Stress axis : x y z
#
# Youngs Moduli (GPa) = 35.95289 99.02480 35.68069
#
# Poissons Ratio (x) = 0.88895 0.05520
# Poissons Ratio (y) = 0.32275 0.25244
# Poissons Ratio (z) = 0.05562 0.70060
#
# Static dielectric constant tensor:
#      x y z
#    x 2.993630 0.000000 0.000000 
#    y 0.000000 3.583200 0.000000 
#    z 0.000000 0.000000 2.823560 
# 
# 
# High freq. dielectric constant tensor:
#      x y z
#    x 1.612680 0.000000 0.000000 
#    y 0.000000 1.678590 0.000000 
#    z 0.000000 0.000000 1.604160 
# 
# From -- ./inp_files/2083.got.cif
#   From: 2010.03.12/outbox.cif.g09.slc.cpg/sg47_2_cif.got.tgz:2083.got - 2010.04.14 03:12:58.
