data_PCOD8200863
_publ_section_title
;
Structure prediction by ZEFSAII (Michael W. Deem and Ramdas Pophale) SiO2 
 PCOD8200863
Probable space group: P M M M
;
_chemical_formula_sum "Si O2"
_cell_formula_units_Z 44
_cell_length_a 9.288844
_cell_length_b 9.129085
_cell_length_c 28.676048
_cell_angle_alpha 90.000000
_cell_angle_beta 90.000000
_cell_angle_gamma 90.000000
_cell_volume 2431.690055
_symmetry_space_group_name_H-M "P M M M"
_symmetry_group_IT_number 47
_symmetry_cell_setting 'orthorhombic'
loop_
_space_group_symop_operation_xyz
x,y,z
-x,-y,z
x,-y,-z
-x,y,-z
-x,-y,-z
x,y,-z
-x,y,z
x,-y,z
loop_
_atom_site_type_symbol
_atom_site_label
_atom_site_fract_x
_atom_site_fract_y
_atom_site_fract_z
Si Si1 0.161659 0.674193 0.448473
Si Si2 0.671837 0.665597 0.000000
Si Si3 0.837404 0.325650 0.727301
Si Si4 0.337796 0.325054 0.361361
Si Si5 0.667037 0.671099 0.182360
Si Si6 0.671334 0.165192 0.909699
O O1 0.212738 0.726486 0.500000
O O2 0.162117 0.500000 0.446494
O O3 0.267975 0.737305 0.409053
O O4 0.000000 0.731157 0.438555
O O5 0.732220 0.747912 0.045652
O O6 0.730584 0.500000 0.000000
O O7 0.500000 0.666460 0.000000
O O8 0.837210 0.500000 0.726082
O O9 0.753222 0.264230 0.682301
O O10 0.757078 0.270372 0.773659
O O11 0.000000 0.264467 0.726785
O O12 0.500000 0.264983 0.357676
O O13 0.336939 0.500000 0.361327
O O14 0.500000 0.704371 0.192331
O O15 0.692153 0.500000 0.173282
O O16 0.725350 0.756322 0.137217
O O17 0.500000 0.166282 0.911103
O O18 0.731218 0.000000 0.910951
#
# Coordination Sequence:
#
# PCOD8200863 Si02
#       6
#     8   4   8   8   8   8
#     4   8  13  20  28  38  56  86 124 164 205 250
#     4   9  15  23  37  59  88 119 148 177 210 248
#     4   9  16  25  37  52  70  94 126 165 208 253
#     4   9  15  21  30  45  65  89 120 162 210 255
#     4   9  16  26  40  58  80 105 135 172 211 249
#     4   9  16  25  38  58  85 115 144 174 210 252
#
# _framework density 18.094411000000001
#
# number of rings (size 3 to 8) (size 9 to 14) (size 15 to 20)
#    0.000    3.182    0.000    2.455    0.000    8.000 
#    0.000    1.818    0.000    0.545    0.000    0.636 
#    0.000    5.091    0.000    0.000    0.000    0.909 
#
# Total GULP energy -545435.264582 kJ/mol
# GULP energy per Si atom -12396.256013 kJ/mol
# Density = 1.805323 g / cm^3
# Si number density = 18.094411 Si / 1000 Ang^3
#
#
#
# Elastic Constant Matrix: (Units=GPa)
#
#
# Indices 1 2 3 4 5 6 
#
# 1 98.1184 21.2989 83.3522 0.0000 0.0000 0.0000
# 2 21.2989 49.5405 46.2740 0.0000 0.0000 0.0000
# 3 83.3522 46.2740 207.3187 0.0000 0.0000 0.0000
# 4 0.0000 0.0000 0.0000 2.1966 0.0000 0.0000
# 5 0.0000 0.0000 0.0000 0.0000 14.5529 0.0000
# 6 0.0000 0.0000 0.0000 0.0000 0.0000 3.5055
#
#
#
# Elastic Compliance Matrix: (Units=1/GPa)
#
#
# Indices 1 2 3 4 5 6 
#
# 1 0.015523 -0.001067 -0.006003 0.000000 0.000000 0.000000
# 2 -0.001067 0.025576 -0.005280 0.000000 0.000000 0.000000
# 3 -0.006003 -0.005280 0.008415 0.000000 0.000000 0.000000
# 4 0.000000 0.000000 0.000000 0.455250 0.000000 0.000000
# 5 0.000000 0.000000 0.000000 0.000000 0.068715 0.000000
# 6 0.000000 0.000000 0.000000 0.000000 0.000000 0.285267
#
#
# Mechanical properties :
#
#
# Convention : Reuss Voigt Hill
#
# Bulk Modulus (GPa) = 40.29758 72.98088 56.63923
# Shear Modulus (GPa) = 5.60717 17.65450 11.63084
#
# Velocity S-wave (km/s) = 1.76226 3.12699 2.53807
# Velocity P-wave (km/s) = 5.14391 7.31152 6.32132
#
# Compressibility (1/GPa) = 0.02481539
#
# Stress axis : x y z
#
# Youngs Moduli (GPa) = 64.42158 39.09970 118.83044
#
# Poissons Ratio (x) = 0.04171 0.71332
# Poissons Ratio (y) = 0.06872 0.62739
# Poissons Ratio (z) = 0.38671 0.20643
#
# Static dielectric constant tensor:
#      x y z
#    x 3.168640 0.000000 0.000000 
#    y 0.000000 2.790280 0.000000 
#    z 0.000000 0.000000 3.675200 
# 
# 
# High freq. dielectric constant tensor:
#      x y z
#    x 1.669910 0.000000 0.000000 
#    y 0.000000 1.635470 0.000000 
#    z 0.000000 0.000000 1.722830 
# 
# From -- ./inp_files/2081.got.cif
#   From: 2010.03.12/outbox.cif.g09.slc.cpg/sg47_2_cif.got.tgz:2081.got - 2010.04.14 03:12:58.
