data_PCOD8200060
_publ_section_title
;
Structure prediction by ZEFSAII (Michael W. Deem and Ramdas Pophale) SiO2 
 PCOD8200060
Probable space group: P M M M
;
_chemical_formula_sum "Si O2"
_cell_formula_units_Z 36
_cell_length_a 8.990445
_cell_length_b 7.724727
_cell_length_c 25.270129
_cell_angle_alpha 90.000000
_cell_angle_beta 90.000000
_cell_angle_gamma 90.000000
_cell_volume 1754.978448
_symmetry_space_group_name_H-M "P M M M"
_symmetry_group_IT_number 47
_symmetry_cell_setting 'orthorhombic'
loop_
_space_group_symop_operation_xyz
x,y,z
-x,-y,z
x,-y,-z
-x,y,-z
-x,-y,-z
x,y,-z
-x,y,z
x,-y,z
loop_
_atom_site_type_symbol
_atom_site_label
_atom_site_fract_x
_atom_site_fract_y
_atom_site_fract_z
Si Si1 0.334855 0.199231 0.832206
Si Si2 0.828822 0.500000 0.562463
Si Si3 0.675630 0.200400 0.374740
Si Si4 0.670590 0.296353 0.056472
Si Si5 0.834839 0.204996 0.267802
O O1 0.500000 0.285691 0.832742
O O2 0.255251 0.220560 0.889979
O O3 0.236116 0.285301 0.785898
O O4 0.351611 0.000000 0.818244
O O5 0.814094 0.500000 0.500000
O O6 0.750669 0.675266 0.582427
O O7 0.000000 0.500000 0.580907
O O8 0.500000 0.226976 0.376283
O O9 0.733250 0.258753 0.317208
O O10 0.718293 0.000000 0.386965
O O11 0.500000 0.235694 0.056323
O O12 0.684836 0.500000 0.059165
O O13 0.742162 0.231710 0.000000
O O14 0.000000 0.283447 0.275060
O O15 0.845013 0.000000 0.263231
#
# Coordination Sequence:
#
# PCOD8200060 Si02
#       5
#     8   4   8   8   8
#     4   9  16  26  43  68  95 122 159 211 265 318
#     4  11  25  43  63  91 127 163 200 241 284 339
#     4  10  21  39  64  91 120 157 200 246 295 343
#     4   8  14  25  40  59  86 120 158 203 257 316
#     4   9  17  31  52  76 105 141 177 218 274 338
#
# _framework density 20.513071
#
# number of rings (size 3 to 8) (size 9 to 14) (size 15 to 20)
#    0.000    2.778    0.000    2.333    0.000    5.778 
#    2.000    4.444    0.000    0.667    0.000    4.667 
#    0.000    0.000    0.000    0.000    0.000    0.000 
#
# Total GULP energy -446045.889817 kJ/mol
# GULP energy per Si atom -12390.163606 kJ/mol
# Density = 2.046638 g / cm^3
# Si number density = 20.513071 Si / 1000 Ang^3
#
#
#
# Elastic Constant Matrix: (Units=GPa)
#
#
# Indices 1 2 3 4 5 6 
#
# 1 108.7312 35.0201 64.9964 0.0000 0.0000 0.0000
# 2 35.0201 57.7620 42.1669 0.0000 0.0000 0.0000
# 3 64.9964 42.1669 154.1145 0.0000 0.0000 0.0000
# 4 0.0000 0.0000 0.0000 -40.7811 0.0000 0.0000
# 5 0.0000 0.0000 0.0000 0.0000 16.8533 0.0000
# 6 0.0000 0.0000 0.0000 0.0000 0.0000 16.1912
#
#
#
# Elastic Compliance Matrix: (Units=1/GPa)
#
#
# Indices 1 2 3 4 5 6 
#
# 1 0.013353 -0.004979 -0.004269 0.000000 0.000000 0.000000
# 2 -0.004979 0.023490 -0.004327 0.000000 0.000000 0.000000
# 3 -0.004269 -0.004327 0.009473 0.000000 0.000000 0.000000
# 4 0.000000 0.000000 0.000000 -0.024521 0.000000 0.000000
# 5 0.000000 0.000000 0.000000 0.000000 0.059336 0.000000
# 6 0.000000 0.000000 0.000000 0.000000 0.000000 0.061762
#
#
# Mechanical properties :
#
#
# Convention : Reuss Voigt Hill
#
# Bulk Modulus (GPa) = 52.17796 67.21938 59.69867
# Shear Modulus (GPa) = 28.33974 10.34763 19.34368
#
# Velocity S-wave (km/s) = 3.72095 2.24841 3.07415
# Velocity P-wave (km/s) = 6.62965 6.29132 6.46270
#
# Compressibility (1/GPa) = 0.01916518
#
# Stress axis : x y z
#
# Youngs Moduli (GPa) = 74.89225 42.57135 105.56244
#
# Poissons Ratio (x) = 0.21196 0.45065
# Poissons Ratio (y) = 0.37288 0.45679
# Poissons Ratio (z) = 0.31972 0.18422
#
# Static dielectric constant tensor:
#      x y z
#    x 3.669470 0.000000 0.000000 
#    y 0.000000 3.440690 0.000000 
#    z 0.000000 0.000000 4.026340 
# 
# 
# High freq. dielectric constant tensor:
#      x y z
#    x 1.767770 0.000000 0.000000 
#    y 0.000000 1.779830 0.000000 
#    z 0.000000 0.000000 1.819210 
# 
# From -- ./inp_files/31660.got.cif
#   From: 2010.03.12/outbox.cif.g09.slc.cpg/sg47_16_cif.got.tgz:31660.got - 2010.04.14 03:12:58.
