data_PCOD8200960
_publ_section_title
;
Structure prediction by ZEFSAII (Michael W. Deem and Ramdas Pophale) SiO2 
 PCOD8200960
Probable space group: P M M M
;
_chemical_formula_sum "Si O2"
_cell_formula_units_Z 64
_cell_length_a 40.985214
_cell_length_b 9.701174
_cell_length_c 9.469430
_cell_angle_alpha 90.000000
_cell_angle_beta 90.000000
_cell_angle_gamma 90.000000
_cell_volume 3765.089803
_symmetry_space_group_name_H-M "P M M M"
_symmetry_group_IT_number 47
_symmetry_cell_setting 'orthorhombic'
loop_
_space_group_symop_operation_xyz
x,y,z
-x,-y,z
x,-y,-z
-x,y,-z
-x,-y,-z
x,y,-z
-x,y,z
x,-y,z
loop_
_atom_site_type_symbol
_atom_site_label
_atom_site_fract_x
_atom_site_fract_y
_atom_site_fract_z
Si Si1 0.963805 0.163967 0.158450
Si Si2 0.342479 0.840774 0.663796
Si Si3 0.157561 0.840152 0.836223
Si Si4 0.904502 0.835919 0.341032
Si Si5 0.536026 0.345254 0.832223
Si Si6 0.281769 0.341231 0.336098
Si Si7 0.218722 0.658530 0.836272
Si Si8 0.405591 0.159436 0.164514
O O1 0.936842 0.224886 0.265285
O O2 0.000000 0.212181 0.206826
O O3 0.962061 0.000000 0.158598
O O4 0.956518 0.217754 0.000000
O O5 0.350177 0.814429 0.500000
O O6 0.311984 0.750630 0.715466
O O7 0.373634 0.791570 0.752419
O O8 0.334204 0.000000 0.693830
O O9 0.127140 0.786538 0.744867
O O10 0.188616 0.752187 0.787548
O O11 0.165253 0.000000 0.806692
O O12 0.149074 0.815122 0.000000
O O13 0.902907 0.777284 0.500000
O O14 0.905976 0.000000 0.342058
O O15 0.500000 0.300898 0.776892
O O16 0.544046 0.500000 0.780651
O O17 0.563538 0.242641 0.773036
O O18 0.535991 0.339182 0.000000
O O19 0.274308 0.316324 0.500000
O O20 0.290283 0.500000 0.304205
O O21 0.250137 0.292764 0.250581
O O22 0.209954 0.500000 0.803386
O O23 0.226706 0.681258 0.000000
O O24 0.413030 0.000000 0.192413
O O25 0.399749 0.190513 0.000000
#
# Coordination Sequence:
#
# PCOD8200960 Si02
#       8
#     8   8   8   8   8   8   8   8
#     4   8  13  21  33  49  72 106 144 176 210 256
#     4   9  18  32  47  63  87 118 146 172 208 254
#     4   9  17  29  44  61  83 112 142 170 205 251
#     4   9  16  24  35  54  80 108 139 177 216 250
#     4   8  14  25  41  62  88 115 142 175 216 258
#     4   9  18  32  48  65  85 110 140 172 207 249
#     4   9  18  32  48  66  88 112 139 174 214 252
#     4   9  17  28  43  65  89 111 140 178 214 247
#
# _framework density 16.998266999999998
#
# number of rings (size 3 to 8) (size 9 to 14) (size 15 to 20)
#    0.000    3.250    0.000    1.125    0.000    4.000 
#    0.000    2.500    0.000    0.375    0.000    2.625 
#    0.000    0.500    0.000    5.750    0.000    7.375 
#
# Total GULP energy -793463.479299 kJ/mol
# GULP energy per Si atom -12397.866864 kJ/mol
# Density = 1.695958 g / cm^3
# Si number density = 16.998267 Si / 1000 Ang^3
#
#
#
# Elastic Constant Matrix: (Units=GPa)
#
#
# Indices 1 2 3 4 5 6 
#
# 1 189.4584 70.0022 78.3351 0.0000 0.0000 0.0000
# 2 70.0022 50.5334 32.2902 0.0000 0.0000 0.0000
# 3 78.3351 32.2902 69.8031 0.0000 0.0000 0.0000
# 4 0.0000 0.0000 0.0000 13.3263 0.0000 0.0000
# 5 0.0000 0.0000 0.0000 0.0000 12.8259 0.0000
# 6 0.0000 0.0000 0.0000 0.0000 0.0000 7.9589
#
#
#
# Elastic Compliance Matrix: (Units=1/GPa)
#
#
# Indices 1 2 3 4 5 6 
#
# 1 0.014384 -0.013644 -0.009831 0.000000 0.000000 0.000000
# 2 -0.013644 0.041035 -0.003670 0.000000 0.000000 0.000000
# 3 -0.009831 -0.003670 0.027056 0.000000 0.000000 0.000000
# 4 0.000000 0.000000 0.000000 0.075040 0.000000 0.000000
# 5 0.000000 0.000000 0.000000 0.000000 0.077967 0.000000
# 6 0.000000 0.000000 0.000000 0.000000 0.000000 0.125646
#
#
# Mechanical properties :
#
#
# Convention : Reuss Voigt Hill
#
# Bulk Modulus (GPa) = 35.48011 74.56110 55.02060
# Shear Modulus (GPa) = 11.76985 15.43338 13.60162
#
# Velocity S-wave (km/s) = 2.63423 3.01647 2.83181
# Velocity P-wave (km/s) = 5.49275 7.48941 6.56741
#
# Compressibility (1/GPa) = 0.02818481
#
# Stress axis : x y z
#
# Youngs Moduli (GPa) = 69.52019 24.36929 36.96003
#
# Poissons Ratio (x) = 0.33250 0.36334
# Poissons Ratio (y) = 0.94856 0.13566
# Poissons Ratio (z) = 0.68344 0.08944
#
# Static dielectric constant tensor:
#      x y z
#    x 3.410050 0.000000 0.000000 
#    y 0.000000 2.947170 0.000000 
#    z 0.000000 0.000000 3.111120 
# 
# 
# High freq. dielectric constant tensor:
#      x y z
#    x 1.665930 0.000000 0.000000 
#    y 0.000000 1.622510 0.000000 
#    z 0.000000 0.000000 1.640290 
# 
# From -- ./inp_files/14190.got.cif
#   From: 2010.03.12/outbox.cif.g09.slc.cpg/sg47_8_cif.got.tgz:14190.got - 2010.04.14 03:12:58.
