data_PCOD8200010
_publ_section_title
;
Structure prediction by ZEFSAII (Michael W. Deem and Ramdas Pophale) SiO2 
 PCOD8200010
Probable space group: P M M M
;
_chemical_formula_sum "Si O2"
_cell_formula_units_Z 48
_cell_length_a 7.484909
_cell_length_b 9.003243
_cell_length_c 34.770129
_cell_angle_alpha 90.000000
_cell_angle_beta 90.000000
_cell_angle_gamma 90.000000
_cell_volume 2343.105258
_symmetry_space_group_name_H-M "P M M M"
_symmetry_group_IT_number 47
_symmetry_cell_setting 'orthorhombic'
loop_
_space_group_symop_operation_xyz
x,y,z
-x,-y,z
x,-y,-z
-x,y,-z
-x,-y,-z
x,y,-z
-x,y,z
x,-y,z
loop_
_atom_site_type_symbol
_atom_site_label
_atom_site_fract_x
_atom_site_fract_y
_atom_site_fract_z
Si Si1 0.287685 0.166926 0.178057
Si Si2 0.711952 0.166918 0.328302
Si Si3 0.703784 0.325362 0.898887
Si Si4 0.000000 0.828507 0.545355
Si Si5 0.713158 0.667538 0.253169
Si Si6 0.000000 0.323993 0.042710
Si Si7 0.707669 0.674686 0.405832
O O1 0.500000 0.167880 0.179525
O O2 0.221994 0.246482 0.139299
O O3 0.211032 0.253623 0.214952
O O4 0.212274 0.000000 0.178704
O O5 0.500000 0.163583 0.326176
O O6 0.788920 0.245778 0.290246
O O7 0.774665 0.259250 0.365334
O O8 0.789000 0.000000 0.330825
O O9 0.500000 0.279949 0.907991
O O10 0.722057 0.500000 0.891774
O O11 0.822831 0.271247 0.934763
O O12 0.821360 0.749726 0.560590
O O13 0.000000 0.810800 0.500000
O O14 0.000000 0.000000 0.558084
O O15 0.500000 0.668917 0.253226
O O16 0.786070 0.500000 0.254269
O O17 0.000000 0.500000 0.039397
O O18 0.000000 0.252839 0.000000
O O19 0.500000 0.711446 0.413369
O O20 0.743220 0.500000 0.405273
#
# Coordination Sequence:
#
# PCOD8200010 Si02
#       7
#     8   8   8   4   8   4   8
#     4   9  16  26  42  66  97 133 172 212 255 303
#     4   9  16  27  46  74 109 148 188 228 272 323
#     4   9  17  30  49  72  98 129 164 202 247 299
#     4  11  25  43  63  88 117 150 189 235 289 348
#     4   9  15  23  39  67 103 140 180 223 263 308
#     4   9  18  32  51  76 101 124 157 203 251 300
#     4  10  21  38  61  88 118 153 193 237 286 340
#
# _framework density 20.485634999999998
#
# number of rings (size 3 to 8) (size 9 to 14) (size 15 to 20)
#    0.000    2.667    0.000    2.250    0.000    8.333 
#    0.000    3.750    0.000    2.000    0.000    8.167 
#    0.000    0.000    0.000    0.000    0.000    0.000 
#
# Total GULP energy -595204.636328 kJ/mol
# GULP energy per Si atom -12400.096590 kJ/mol
# Density = 2.043901 g / cm^3
# Si number density = 20.485635 Si / 1000 Ang^3
#
#
#
# Elastic Constant Matrix: (Units=GPa)
#
#
# Indices 1 2 3 4 5 6 
#
# 1 70.6144 36.0844 51.9548 0.0000 0.0000 0.0000
# 2 36.0844 144.6113 82.2090 0.0000 0.0000 0.0000
# 3 51.9548 82.2090 174.7812 0.0000 0.0000 0.0000
# 4 0.0000 0.0000 0.0000 26.3336 0.0000 0.0000
# 5 0.0000 0.0000 0.0000 0.0000 -38.5872 0.0000
# 6 0.0000 0.0000 0.0000 0.0000 0.0000 9.9894
#
#
#
# Elastic Compliance Matrix: (Units=1/GPa)
#
#
# Indices 1 2 3 4 5 6 
#
# 1 0.018556 -0.002040 -0.004556 0.000000 0.000000 0.000000
# 2 -0.002040 0.009663 -0.003939 0.000000 0.000000 0.000000
# 3 -0.004556 -0.003939 0.008928 0.000000 0.000000 0.000000
# 4 0.000000 0.000000 0.000000 0.037974 0.000000 0.000000
# 5 0.000000 0.000000 0.000000 0.000000 -0.025915 0.000000
# 6 0.000000 0.000000 0.000000 0.000000 0.000000 0.100106
#
#
# Mechanical properties :
#
#
# Convention : Reuss Voigt Hill
#
# Bulk Modulus (GPa) = 62.19835 81.16703 71.68269
# Shear Modulus (GPa) = 28.45071 14.19773 21.32422
#
# Velocity S-wave (km/s) = 3.73072 2.63546 3.22985
# Velocity P-wave (km/s) = 6.99897 6.99773 6.99835
#
# Compressibility (1/GPa) = 0.01607760
#
# Stress axis : x y z
#
# Youngs Moduli (GPa) = 53.89002 103.48507 112.00140
#
# Poissons Ratio (x) = 0.21111 0.51033
# Poissons Ratio (y) = 0.10994 0.44114
# Poissons Ratio (z) = 0.24555 0.40760
#
# Static dielectric constant tensor:
#      x y z
#    x 3.419460 0.000000 0.000000 
#    y 0.000000 3.777990 0.000000 
#    z 0.000000 0.000000 3.842490 
# 
# 
# High freq. dielectric constant tensor:
#      x y z
#    x 1.781390 0.000000 0.000000 
#    y 0.000000 1.799020 0.000000 
#    z 0.000000 0.000000 1.802010 
# 
# From -- ./inp_files/34114.got.cif
#   From: 2010.03.12/outbox.cif.g09.slc.cpg/sg47_18_cif.got.tgz:34114.got - 2010.04.14 03:12:58.
