data_PCOD8200155
_publ_section_title
;
Structure prediction by ZEFSAII (Michael W. Deem and Ramdas Pophale) SiO2 
 PCOD8200155
Probable space group: P M M M
;
_chemical_formula_sum "Si O2"
_cell_formula_units_Z 40
_cell_length_a 7.609388
_cell_length_b 29.727947
_cell_length_c 8.952747
_cell_angle_alpha 90.000000
_cell_angle_beta 90.000000
_cell_angle_gamma 90.000000
_cell_volume 2025.214177
_symmetry_space_group_name_H-M "P M M M"
_symmetry_group_IT_number 47
_symmetry_cell_setting 'orthorhombic'
loop_
_space_group_symop_operation_xyz
x,y,z
-x,-y,z
x,-y,-z
-x,y,-z
-x,-y,-z
x,y,-z
-x,y,z
x,-y,z
loop_
_atom_site_type_symbol
_atom_site_label
_atom_site_fract_x
_atom_site_fract_y
_atom_site_fract_z
Si Si1 0.500000 0.757769 0.321894
Si Si2 0.500000 0.656025 0.323224
Si Si3 0.705358 0.000000 0.666480
Si Si4 0.208365 0.500000 0.167258
Si Si5 0.797552 0.095215 0.334149
Si Si6 0.206374 0.183782 0.825353
Si Si7 0.200174 0.590162 0.676404
O O1 0.500000 0.761427 0.500000
O O2 0.500000 0.706654 0.262243
O O3 0.321120 0.779442 0.260278
O O4 0.500000 0.656961 0.500000
O O5 0.675985 0.630715 0.266904
O O6 0.767372 0.953590 0.745221
O O7 0.500000 0.000000 0.661286
O O8 0.788839 0.000000 0.500000
O O9 0.274845 0.455523 0.251352
O O10 0.000000 0.500000 0.167442
O O11 0.284859 0.500000 0.000000
O O12 0.707385 0.096269 0.500000
O O13 0.724120 0.134894 0.229940
O O14 0.000000 0.104484 0.354230
O O15 0.000000 0.191843 0.790281
O O16 0.244672 0.186996 0.000000
O O17 0.211236 0.583764 0.500000
O O18 0.000000 0.600761 0.726834
#
# Coordination Sequence:
#
# PCOD8200155 Si02
#       7
#     4   4   4   4   8   8   8
#     4  11  23  39  62  87 112 142 184 240 292 339
#     4   9  20  36  54  81 107 133 176 226 275 325
#     4   9  17  27  44  75 110 140 174 217 267 321
#     4   9  17  30  49  76 109 143 180 219 257 302
#     4   9  17  31  52  77 105 140 181 223 268 321
#     4  10  22  40  60  83 113 149 187 229 281 339
#     4   9  17  32  54  77 105 141 177 215 262 316
#
# _framework density 19.750997999999999
#
# number of rings (size 3 to 8) (size 9 to 14) (size 15 to 20)
#    0.000    2.600    0.000    1.500    1.400    4.800 
#    0.000    7.000    0.000    5.400    0.000    0.000 
#    0.000    0.000    0.000    0.000    0.000    0.000 
#
# Total GULP energy -495785.095521 kJ/mol
# GULP energy per Si atom -12394.627388 kJ/mol
# Density = 1.970604 g / cm^3
# Si number density = 19.750998 Si / 1000 Ang^3
#
#
#
# Elastic Constant Matrix: (Units=GPa)
#
#
# Indices 1 2 3 4 5 6 
#
# 1 87.2082 70.3390 35.6846 0.0000 0.0000 0.0000
# 2 70.3390 205.0879 56.8067 0.0000 0.0000 0.0000
# 3 35.6846 56.8067 72.6204 0.0000 0.0000 0.0000
# 4 0.0000 0.0000 0.0000 5.9120 0.0000 0.0000
# 5 0.0000 0.0000 0.0000 0.0000 18.9584 0.0000
# 6 0.0000 0.0000 0.0000 0.0000 0.0000 33.1674
#
#
#
# Elastic Compliance Matrix: (Units=1/GPa)
#
#
# Indices 1 2 3 4 5 6 
#
# 1 0.017103 -0.004517 -0.004871 0.000000 0.000000 0.000000
# 2 -0.004517 0.007417 -0.003583 0.000000 0.000000 0.000000
# 3 -0.004871 -0.003583 0.018966 0.000000 0.000000 0.000000
# 4 0.000000 0.000000 0.000000 0.169148 0.000000 0.000000
# 5 0.000000 0.000000 0.000000 0.000000 0.052747 0.000000
# 6 0.000000 0.000000 0.000000 0.000000 0.000000 0.030150
#
#
# Mechanical properties :
#
#
# Convention : Reuss Voigt Hill
#
# Bulk Modulus (GPa) = 56.99360 76.73077 66.86218
# Shear Modulus (GPa) = 15.27552 25.07996 20.17774
#
# Velocity S-wave (km/s) = 2.78403 3.56730 3.19972
# Velocity P-wave (km/s) = 6.26523 7.47669 6.89761
#
# Compressibility (1/GPa) = 0.01754583
#
# Stress axis : x y z
#
# Youngs Moduli (GPa) = 58.46970 134.81815 52.72467
#
# Poissons Ratio (x) = 0.60891 0.25683
# Poissons Ratio (y) = 0.26408 0.18890
# Poissons Ratio (z) = 0.28481 0.48303
#
# Static dielectric constant tensor:
#      x y z
#    x 3.546020 0.000000 0.000000 
#    y 0.000000 3.978970 0.000000 
#    z 0.000000 0.000000 3.492330 
# 
# 
# High freq. dielectric constant tensor:
#      x y z
#    x 1.770190 0.000000 0.000000 
#    y 0.000000 1.775710 0.000000 
#    z 0.000000 0.000000 1.738050 
# 
# From -- ./inp_files/1900.got.cif
#   From: 2010.03.12/outbox.cif.g09.slc.cpg/sg47_1_cif.got.tgz:1900.got - 2010.04.14 03:12:58.
