data_PCOD8200507
_publ_section_title
;
Structure prediction by ZEFSAII (Michael W. Deem and Ramdas Pophale) SiO2 
 PCOD8200507
Probable space group: P M M M
;
_chemical_formula_sum "Si O2"
_cell_formula_units_Z 48
_cell_length_a 8.986372
_cell_length_b 28.662094
_cell_length_c 10.008311
_cell_angle_alpha 90.000000
_cell_angle_beta 90.000000
_cell_angle_gamma 90.000000
_cell_volume 2577.823039
_symmetry_space_group_name_H-M "P M M M"
_symmetry_group_IT_number 47
_symmetry_cell_setting 'orthorhombic'
loop_
_space_group_symop_operation_xyz
x,y,z
-x,-y,z
x,-y,-z
-x,y,-z
-x,-y,-z
x,y,-z
-x,y,z
x,-y,z
loop_
_atom_site_type_symbol
_atom_site_label
_atom_site_fract_x
_atom_site_fract_y
_atom_site_fract_z
Si Si1 0.824761 0.699559 0.344404
Si Si2 0.323189 0.395614 0.264531
Si Si3 0.824162 0.948069 0.649561
Si Si4 0.833899 0.445328 0.500000
Si Si5 0.328239 0.878878 0.150493
Si Si6 0.323922 0.552571 0.000000
Si Si7 0.672355 0.229379 0.846807
O O1 0.779654 0.705728 0.500000
O O2 0.742195 0.655637 0.280841
O O3 0.774566 0.744075 0.259264
O O4 0.000000 0.692704 0.329872
O O5 0.500000 0.392911 0.276697
O O6 0.258713 0.430116 0.373261
O O7 0.269032 0.417738 0.125938
O O8 0.766631 0.936849 0.500000
O O9 0.764855 0.909713 0.749393
O O10 0.000000 0.946065 0.652719
O O11 0.770053 0.000000 0.691709
O O12 0.849152 0.500000 0.500000
O O13 0.000000 0.422522 0.500000
O O14 0.500000 0.890781 0.170690
O O15 0.297876 0.824838 0.179975
O O16 0.278355 0.890948 0.000000
O O17 0.255422 0.500000 0.000000
O O18 0.500000 0.548105 0.000000
O O19 0.500000 0.241952 0.821955
O O20 0.714979 0.242352 0.000000
#
# Coordination Sequence:
#
# PCOD8200507 Si02
#       7
#     8   8   8   4   8   4   8
#     4  11  24  40  57  82 117 149 182 229 283 335
#     4  11  22  38  62  87 112 148 190 230 276 332
#     4   9  19  35  53  76 110 151 192 233 278 332
#     4  11  23  39  59  85 119 153 185 229 280 327
#     4   9  19  36  56  81 112 144 182 233 286 334
#     4   9  20  38  59  87 117 141 179 233 276 319
#     4   9  20  39  61  83 110 145 187 232 279 335
#
# _framework density 18.620363000000001
#
# number of rings (size 3 to 8) (size 9 to 14) (size 15 to 20)
#    0.000    2.167    0.833    3.250    1.167    5.333 
#    0.000    8.750    0.000    3.000    0.000    0.000 
#    0.000    0.000    0.000    0.000    0.000    0.000 
#
# Total GULP energy -595183.012367 kJ/mol
# GULP energy per Si atom -12399.646091 kJ/mol
# Density = 1.857798 g / cm^3
# Si number density = 18.620363 Si / 1000 Ang^3
#
#
#
# Elastic Constant Matrix: (Units=GPa)
#
#
# Indices 1 2 3 4 5 6 
#
# 1 69.5184 44.7114 54.4881 0.0000 0.0000 0.0000
# 2 44.7114 99.1166 74.4806 0.0000 0.0000 0.0000
# 3 54.4881 74.4806 152.7384 0.0000 0.0000 0.0000
# 4 0.0000 0.0000 0.0000 57.7721 0.0000 0.0000
# 5 0.0000 0.0000 0.0000 0.0000 29.6565 0.0000
# 6 0.0000 0.0000 0.0000 0.0000 0.0000 30.3687
#
#
#
# Elastic Compliance Matrix: (Units=1/GPa)
#
#
# Indices 1 2 3 4 5 6 
#
# 1 0.022302 -0.006443 -0.004814 0.000000 0.000000 0.000000
# 2 -0.006443 0.017785 -0.006374 0.000000 0.000000 0.000000
# 3 -0.004814 -0.006374 0.011373 0.000000 0.000000 0.000000
# 4 0.000000 0.000000 0.000000 0.017309 0.000000 0.000000
# 5 0.000000 0.000000 0.000000 0.000000 0.033719 0.000000
# 6 0.000000 0.000000 0.000000 0.000000 0.000000 0.032929
#
#
# Mechanical properties :
#
#
# Convention : Reuss Voigt Hill
#
# Bulk Modulus (GPa) = 61.73816 74.30373 68.02094
# Shear Modulus (GPa) = 28.39625 33.40567 30.90096
#
# Velocity S-wave (km/s) = 3.90937 4.24021 4.07815
# Velocity P-wave (km/s) = 7.32160 7.99773 7.66712
#
# Compressibility (1/GPa) = 0.01619744
#
# Stress axis : x y z
#
# Youngs Moduli (GPa) = 44.83956 56.22580 87.92738
#
# Poissons Ratio (x) = 0.36224 0.42331
# Poissons Ratio (y) = 0.28888 0.56049
# Poissons Ratio (z) = 0.21587 0.35841
#
# Static dielectric constant tensor:
#      x y z
#    x 3.366770 0.000000 0.000000 
#    y 0.000000 3.595190 0.000000 
#    z 0.000000 0.000000 3.330530 
# 
# 
# High freq. dielectric constant tensor:
#      x y z
#    x 1.715860 0.000000 0.000000 
#    y 0.000000 1.731680 0.000000 
#    z 0.000000 0.000000 1.733420 
# 
# From -- ./inp_files/2537.got.cif
#   From: 2010.03.12/outbox.cif.g09.slc.cpg/sg47_2_cif.got.tgz:2537.got - 2010.04.14 03:12:58.
