data_PCOD8200480
_publ_section_title
;
Structure prediction by ZEFSAII (Michael W. Deem and Ramdas Pophale) SiO2 
 PCOD8200480
Probable space group: P M M M
;
_chemical_formula_sum "Si O2"
_cell_formula_units_Z 44
_cell_length_a 16.870340
_cell_length_b 8.768844
_cell_length_c 14.840645
_cell_angle_alpha 90.000000
_cell_angle_beta 90.000000
_cell_angle_gamma 90.000000
_cell_volume 2195.426772
_symmetry_space_group_name_H-M "P M M M"
_symmetry_group_IT_number 47
_symmetry_cell_setting 'orthorhombic'
loop_
_space_group_symop_operation_xyz
x,y,z
-x,-y,z
x,-y,-z
-x,y,-z
-x,-y,-z
x,y,-z
-x,y,z
x,-y,z
loop_
_atom_site_type_symbol
_atom_site_label
_atom_site_fract_x
_atom_site_fract_y
_atom_site_fract_z
Si Si1 0.303965 0.176438 0.738059
Si Si2 0.588701 0.181179 0.899080
Si Si3 0.861605 0.322679 0.722453
Si Si4 0.592487 0.329549 0.398899
Si Si5 0.093468 0.830400 0.900645
Si Si6 0.000000 0.180616 0.395512
O O1 0.343806 0.241409 0.830405
O O2 0.227817 0.270735 0.706115
O O3 0.367808 0.198451 0.660005
O O4 0.281030 0.000000 0.747902
O O5 0.500000 0.242023 0.873772
O O6 0.586812 0.000000 0.894246
O O7 0.611081 0.236026 0.000000
O O8 0.871201 0.500000 0.703219
O O9 0.878850 0.289915 0.827128
O O10 0.921415 0.238143 0.655036
O O11 0.625198 0.314673 0.500000
O O12 0.500000 0.298177 0.396943
O O13 0.611467 0.500000 0.362024
O O14 0.000000 0.837458 0.901128
O O15 0.126809 0.000000 0.877547
O O16 0.124252 0.780431 0.000000
O O17 0.000000 0.235614 0.500000
O O18 0.000000 0.000000 0.389894
#
# Coordination Sequence:
#
# PCOD8200480 Si02
#       6
#     8   8   8   8   8   4
#     4  11  22  35  56  86 118 154 197 245 291 341
#     4   8  15  30  53  82 116 154 197 242 286 333
#     4  12  25  40  60  88 122 157 193 240 296 357
#     4   9  19  37  59  82 112 150 188 232 294 361
#     4   9  18  35  61  88 115 150 190 234 283 335
#     4  11  25  47  72  91 110 143 191 246 302 363
#
# _framework density 20.04166
#
# number of rings (size 3 to 8) (size 9 to 14) (size 15 to 20)
#    0.000    2.091    0.909    4.636    0.000    4.000 
#    0.000    3.636    0.000    1.636    0.000    6.364 
#    0.000    0.000    0.000    0.000    0.000    0.000 
#
# Total GULP energy -545434.913446 kJ/mol
# GULP energy per Si atom -12396.248033 kJ/mol
# Density = 1.999604 g / cm^3
# Si number density = 20.041660 Si / 1000 Ang^3
#
#
#
# Elastic Constant Matrix: (Units=GPa)
#
#
# Indices 1 2 3 4 5 6 
#
# 1 92.8686 27.8145 57.3081 0.0000 0.0000 0.0000
# 2 27.8145 65.8776 35.3460 0.0000 0.0000 0.0000
# 3 57.3081 35.3460 126.7229 0.0000 0.0000 0.0000
# 4 0.0000 0.0000 0.0000 3.2674 0.0000 0.0000
# 5 0.0000 0.0000 0.0000 0.0000 9.8021 0.0000
# 6 0.0000 0.0000 0.0000 0.0000 0.0000 26.8050
#
#
#
# Elastic Compliance Matrix: (Units=1/GPa)
#
#
# Indices 1 2 3 4 5 6 
#
# 1 0.015515 -0.003276 -0.006102 0.000000 0.000000 0.000000
# 2 -0.003276 0.018543 -0.003690 0.000000 0.000000 0.000000
# 3 -0.006102 -0.003690 0.011680 0.000000 0.000000 0.000000
# 4 0.000000 0.000000 0.000000 0.306053 0.000000 0.000000
# 5 0.000000 0.000000 0.000000 0.000000 0.102019 0.000000
# 6 0.000000 0.000000 0.000000 0.000000 0.000000 0.037307
#
#
# Mechanical properties :
#
#
# Convention : Reuss Voigt Hill
#
# Bulk Modulus (GPa) = 51.02112 58.48960 54.75536
# Shear Modulus (GPa) = 9.54583 18.97491 14.26037
#
# Velocity S-wave (km/s) = 2.18480 3.08031 2.67036
# Velocity P-wave (km/s) = 5.64599 6.47290 6.07354
#
# Compressibility (1/GPa) = 0.01959973
#
# Stress axis : x y z
#
# Youngs Moduli (GPa) = 64.45386 53.92852 85.61413
#
# Poissons Ratio (x) = 0.17669 0.52246
# Poissons Ratio (y) = 0.21118 0.31595
# Poissons Ratio (z) = 0.39333 0.19902
#
# Static dielectric constant tensor:
#      x y z
#    x 3.689310 0.000000 0.000000 
#    y 0.000000 3.427370 0.000000 
#    z 0.000000 0.000000 4.346250 
# 
# 
# High freq. dielectric constant tensor:
#      x y z
#    x 1.781600 0.000000 0.000000 
#    y 0.000000 1.756570 0.000000 
#    z 0.000000 0.000000 1.790520 
# 
# From -- ./inp_files/24306.got.cif
#   From: 2010.03.12/outbox.cif.g09.slc.cpg/sg47_13_cif.got.tgz:24306.got - 2010.04.14 03:12:58.
