data_PCOD8200435
_publ_section_title
;
Structure prediction by ZEFSAII (Michael W. Deem and Ramdas Pophale) SiO2 
 PCOD8200435
Probable space group: P M M M
;
_chemical_formula_sum "Si O2"
_cell_formula_units_Z 64
_cell_length_a 14.177417
_cell_length_b 25.445869
_cell_length_c 9.473998
_cell_angle_alpha 90.000000
_cell_angle_beta 90.000000
_cell_angle_gamma 90.000000
_cell_volume 3417.808214
_symmetry_space_group_name_H-M "P M M M"
_symmetry_group_IT_number 47
_symmetry_cell_setting 'orthorhombic'
loop_
_space_group_symop_operation_xyz
x,y,z
-x,-y,z
x,-y,-z
-x,y,-z
-x,-y,-z
x,y,-z
-x,y,z
x,-y,z
loop_
_atom_site_type_symbol
_atom_site_label
_atom_site_fract_x
_atom_site_fract_y
_atom_site_fract_z
Si Si1 0.391729 0.090983 0.835224
Si Si2 0.395358 0.303418 0.661454
Si Si3 0.793821 0.352019 0.664002
Si Si4 0.110524 0.739230 0.161917
Si Si5 0.388104 0.208125 0.846162
Si Si6 0.224596 0.058505 0.662075
Si Si7 0.891463 0.439353 0.838307
Si Si8 0.888493 0.858064 0.160151
O O1 0.500000 0.083486 0.787824
O O2 0.352926 0.150060 0.805670
O O3 0.325894 0.054802 0.739571
O O4 0.381205 0.076721 0.000000
O O5 0.402953 0.286973 0.500000
O O6 0.500000 0.320097 0.718087
O O7 0.320154 0.350127 0.682969
O O8 0.353638 0.252032 0.738041
O O9 0.822456 0.352916 0.500000
O O10 0.838986 0.300925 0.734063
O O11 0.826775 0.405504 0.735959
O O12 0.147593 0.798565 0.191785
O O13 0.000000 0.736028 0.192147
O O14 0.131413 0.723311 0.000000
O O15 0.500000 0.205125 0.851237
O O16 0.348325 0.224056 0.000000
O O17 0.239432 0.075194 0.500000
O O18 0.155925 0.100252 0.734094
O O19 0.179849 0.000000 0.671987
O O20 0.875061 0.500000 0.800234
O O21 0.000000 0.423620 0.814071
O O22 0.863226 0.428274 0.000000
O O23 0.000000 0.859705 0.179908
O O24 0.860799 0.873461 0.000000
#
# Coordination Sequence:
#
# PCOD8200435 Si02
#       8
#     8   8   8   8   8   8   8   8
#     4   9  19  36  57  80 105 135 175 223 270 318
#     4   9  19  34  48  68 106 150 185 217 257 309
#     4  11  22  32  50  83 115 145 183 224 266 313
#     4   9  19  36  56  79 109 142 173 209 261 324
#     4   8  15  29  49  73  98 126 167 216 261 306
#     4  11  25  40  54  77 108 140 175 218 271 333
#     4   9  19  37  59  81 108 145 186 225 269 323
#     4   9  20  40  63  83 103 134 178 224 270 323
#
# _framework density 18.725452000000001
#
# number of rings (size 3 to 8) (size 9 to 14) (size 15 to 20)
#    0.000    2.625    0.000    3.000    1.750    6.250 
#    0.000    5.625    0.000    0.375    0.000    2.625 
#    0.000    0.000    0.000    0.000    0.000    0.000 
#
# Total GULP energy -793400.259519 kJ/mol
# GULP energy per Si atom -12396.879055 kJ/mol
# Density = 1.868283 g / cm^3
# Si number density = 18.725452 Si / 1000 Ang^3
#
#
#
# Elastic Constant Matrix: (Units=GPa)
#
#
# Indices 1 2 3 4 5 6 
#
# 1 52.6768 43.6716 47.6795 0.0000 0.0000 0.0000
# 2 43.6716 98.6245 63.1900 0.0000 0.0000 0.0000
# 3 47.6795 63.1900 106.6777 0.0000 0.0000 0.0000
# 4 0.0000 0.0000 0.0000 55.7953 0.0000 0.0000
# 5 0.0000 0.0000 0.0000 0.0000 25.9269 0.0000
# 6 0.0000 0.0000 0.0000 0.0000 0.0000 27.3758
#
#
#
# Elastic Compliance Matrix: (Units=1/GPa)
#
#
# Indices 1 2 3 4 5 6 
#
# 1 0.036395 -0.009176 -0.010831 0.000000 0.000000 0.000000
# 2 -0.009176 0.018655 -0.006949 0.000000 0.000000 0.000000
# 3 -0.010831 -0.006949 0.018331 0.000000 0.000000 0.000000
# 4 0.000000 0.000000 0.000000 0.017923 0.000000 0.000000
# 5 0.000000 0.000000 0.000000 0.000000 0.038570 0.000000
# 6 0.000000 0.000000 0.000000 0.000000 0.000000 0.036529
#
#
# Mechanical properties :
#
#
# Convention : Reuss Voigt Hill
#
# Bulk Modulus (GPa) = 51.36513 63.00679 57.18596
# Shear Modulus (GPa) = 22.04543 28.71545 25.38044
#
# Velocity S-wave (km/s) = 3.43490 3.92024 3.68557
# Velocity P-wave (km/s) = 6.57431 7.36286 6.97973
#
# Compressibility (1/GPa) = 0.01946846
#
# Stress axis : x y z
#
# Youngs Moduli (GPa) = 27.47643 53.60482 54.55191
#
# Poissons Ratio (x) = 0.49189 0.59086
# Poissons Ratio (y) = 0.25213 0.37908
# Poissons Ratio (z) = 0.29760 0.37250
#
# Static dielectric constant tensor:
#      x y z
#    x 3.486310 0.000000 0.000000 
#    y 0.000000 3.339230 0.000000 
#    z 0.000000 0.000000 3.448530 
# 
# 
# High freq. dielectric constant tensor:
#      x y z
#    x 1.730100 0.000000 0.000000 
#    y 0.000000 1.712560 0.000000 
#    z 0.000000 0.000000 1.723280 
# 
# From -- ./inp_files/7780.got.cif
#   From: 2010.03.12/outbox.cif.g09.slc.cpg/sg47_4_cif.got.tgz:7780.got - 2010.04.14 03:12:58.
