data_PCOD8200122
_publ_section_title
;
Structure prediction by ZEFSAII (Michael W. Deem and Ramdas Pophale) SiO2 
 PCOD8200122
Probable space group: P M M M
;
_chemical_formula_sum "Si O2"
_cell_formula_units_Z 52
_cell_length_a 11.574366
_cell_length_b 8.803041
_cell_length_c 28.296293
_cell_angle_alpha 90.000000
_cell_angle_beta 90.000000
_cell_angle_gamma 90.000000
_cell_volume 2883.098497
_symmetry_space_group_name_H-M "P M M M"
_symmetry_group_IT_number 47
_symmetry_cell_setting 'orthorhombic'
loop_
_space_group_symop_operation_xyz
x,y,z
-x,-y,z
x,-y,-z
-x,y,-z
-x,-y,-z
x,y,-z
-x,y,z
x,-y,z
loop_
_atom_site_type_symbol
_atom_site_label
_atom_site_fract_x
_atom_site_fract_y
_atom_site_fract_z
Si Si1 0.000000 0.680029 0.705620
Si Si2 0.000000 0.319408 0.400891
Si Si3 0.363767 0.671594 0.500000
Si Si4 0.367729 0.822725 0.319857
Si Si5 0.137028 0.830244 0.049972
Si Si6 0.867828 0.818619 0.151867
Si Si7 0.238695 0.819836 0.585757
Si Si8 0.225598 0.679735 0.241775
O O1 0.000000 0.741548 0.652604
O O2 0.887332 0.743506 0.731540
O O3 0.000000 0.500000 0.705948
O O4 0.885915 0.252897 0.425306
O O5 0.000000 0.500000 0.405211
O O6 0.313749 0.500000 0.500000
O O7 0.500000 0.668369 0.500000
O O8 0.325054 0.760996 0.546280
O O9 0.500000 0.784436 0.332371
O O10 0.287916 0.766263 0.363311
O O11 0.335578 0.735815 0.271535
O O12 0.349917 0.000000 0.310892
O O13 0.174733 0.755208 0.100053
O O14 0.000000 0.838987 0.051799
O O15 0.187846 0.000000 0.048203
O O16 0.175316 0.747451 0.000000
O O17 0.778005 0.749117 0.189292
O O18 0.000000 0.765180 0.162511
O O19 0.861514 0.000000 0.152658
O O20 0.230126 0.000000 0.582993
O O21 0.228434 0.500000 0.237917
#
# Coordination Sequence:
#
# PCOD8200122 Si02
#       8
#     4   4   4   8   8   8   8   8
#     4   9  18  31  48  72 104 138 169 205 248 294
#     4  11  21  38  60  85 117 146 177 214 258 308
#     4  11  25  44  65  88 113 145 183 219 260 311
#     4  10  22  39  57  78 104 134 170 212 257 303
#     4   7  10  18  33  54  83 120 162 206 248 292
#     4   9  16  25  40  65  94 127 168 210 253 299
#     4  11  23  40  63  89 114 141 175 216 263 310
#     4  11  20  32  49  72 102 136 172 209 252 303
#
# _framework density 18.036152000000001
#
# number of rings (size 3 to 8) (size 9 to 14) (size 15 to 20)
#    0.000    2.231    2.308    3.231    0.000    2.462 
#    0.000    1.538    0.000    0.462    0.000    2.154 
#    0.000    0.615    0.000    7.077    0.000    2.308 
#
# Total GULP energy -644453.595161 kJ/mol
# GULP energy per Si atom -12393.338368 kJ/mol
# Density = 1.799510 g / cm^3
# Si number density = 18.036152 Si / 1000 Ang^3
#
#
#
# Elastic Constant Matrix: (Units=GPa)
#
#
# Indices 1 2 3 4 5 6 
#
# 1 69.5338 27.4963 31.1328 0.0000 0.0000 0.0000
# 2 27.4963 58.6311 39.4658 0.0000 0.0000 0.0000
# 3 31.1328 39.4658 137.6328 0.0000 0.0000 0.0000
# 4 0.0000 0.0000 0.0000 15.3850 0.0000 0.0000
# 5 0.0000 0.0000 0.0000 0.0000 48.1379 0.0000
# 6 0.0000 0.0000 0.0000 0.0000 0.0000 21.8487
#
#
#
# Elastic Compliance Matrix: (Units=1/GPa)
#
#
# Indices 1 2 3 4 5 6 
#
# 1 0.018115 -0.007109 -0.002059 0.000000 0.000000 0.000000
# 2 -0.007109 0.023925 -0.005252 0.000000 0.000000 0.000000
# 3 -0.002059 -0.005252 0.009238 0.000000 0.000000 0.000000
# 4 0.000000 0.000000 0.000000 0.064998 0.000000 0.000000
# 5 0.000000 0.000000 0.000000 0.000000 0.020774 0.000000
# 6 0.000000 0.000000 0.000000 0.000000 0.000000 0.045769
#
#
# Mechanical properties :
#
#
# Convention : Reuss Voigt Hill
#
# Bulk Modulus (GPa) = 44.57082 51.33196 47.95139
# Shear Modulus (GPa) = 22.81656 28.25450 25.53553
#
# Velocity S-wave (km/s) = 3.56061 3.96226 3.76679
# Velocity P-wave (km/s) = 6.45519 7.03243 6.74998
#
# Compressibility (1/GPa) = 0.02243620
#
# Stress axis : x y z
#
# Youngs Moduli (GPa) = 55.20381 41.79667 108.25364
#
# Poissons Ratio (x) = 0.29715 0.22290
# Poissons Ratio (y) = 0.39246 0.56859
# Poissons Ratio (z) = 0.11367 0.21953
#
# Static dielectric constant tensor:
#      x y z
#    x 3.068230 0.000000 0.000000 
#    y 0.000000 3.071810 0.000000 
#    z 0.000000 0.000000 3.778160 
# 
# 
# High freq. dielectric constant tensor:
#      x y z
#    x 1.659810 0.000000 0.000000 
#    y 0.000000 1.677510 0.000000 
#    z 0.000000 0.000000 1.714780 
# 
# From -- ./inp_files/33609.got.cif
#   From: 2010.03.12/outbox.cif.g09.slc.cpg/sg47_17_cif.got.tgz:33609.got - 2010.04.14 03:12:58.
