data_PCOD8200389
_publ_section_title
;
Structure prediction by ZEFSAII (Michael W. Deem and Ramdas Pophale) SiO2 
 PCOD8200389
Probable space group: P M M M
;
_chemical_formula_sum "Si O2"
_cell_formula_units_Z 40
_cell_length_a 19.057529
_cell_length_b 12.538709
_cell_length_c 9.044372
_cell_angle_alpha 90.000000
_cell_angle_beta 90.000000
_cell_angle_gamma 90.000000
_cell_volume 2161.214285
_symmetry_space_group_name_H-M "P M M M"
_symmetry_group_IT_number 47
_symmetry_cell_setting 'orthorhombic'
loop_
_space_group_symop_operation_xyz
x,y,z
-x,-y,z
x,-y,-z
-x,y,-z
-x,-y,-z
x,y,-z
-x,y,z
x,-y,z
loop_
_atom_site_type_symbol
_atom_site_label
_atom_site_fract_x
_atom_site_fract_y
_atom_site_fract_z
Si Si1 0.808188 0.880906 0.824804
Si Si2 0.582807 0.000000 0.666917
Si Si3 0.580528 0.623085 0.670499
Si Si4 0.083357 0.500000 0.333859
Si Si5 0.919588 0.288435 0.174170
Si Si6 0.343922 0.807605 0.825105
O O1 0.873537 0.810714 0.767732
O O2 0.735990 0.826214 0.773479
O O3 0.813901 0.000000 0.756822
O O4 0.810362 0.888593 0.000000
O O5 0.607270 0.895221 0.751118
O O6 0.500000 0.000000 0.665052
O O7 0.612638 0.000000 0.500000
O O8 0.592160 0.654631 0.500000
O O9 0.500000 0.645254 0.715241
O O10 0.599436 0.500000 0.696870
O O11 0.632097 0.691134 0.772902
O O12 0.113133 0.500000 0.500000
O O13 0.110471 0.605228 0.250675
O O14 0.000000 0.500000 0.331609
O O15 0.000000 0.265264 0.218864
O O16 0.911840 0.305397 0.000000
O O17 0.351683 0.817242 0.000000
#
# Coordination Sequence:
#
# PCOD8200389 Si02
#       6
#     8   4   8   4   8   8
#     4   9  18  34  53  75 108 141 170 213 267 311
#     4  11  23  37  55  79 106 139 180 222 263 311
#     4   9  19  37  58  78 105 141 177 217 265 316
#     4   9  17  31  51  75 107 139 166 211 268 309
#     4   9  17  31  55  82 104 135 180 219 253 306
#     4  11  21  35  55  79 109 142 175 218 269 319
#
# _framework density 18.508113999999999
#
# number of rings (size 3 to 8) (size 9 to 14) (size 15 to 20)
#    0.000    2.400    1.000    2.400    0.000    5.600 
#    1.800    5.000    0.000    0.000    0.000    2.800 
#    0.000    0.000    0.000    0.000    0.000    0.000 
#
# Total GULP energy -496029.801822 kJ/mol
# GULP energy per Si atom -12400.745046 kJ/mol
# Density = 1.846599 g / cm^3
# Si number density = 18.508114 Si / 1000 Ang^3
#
#
#
# Elastic Constant Matrix: (Units=GPa)
#
#
# Indices 1 2 3 4 5 6 
#
# 1 101.4247 77.2608 38.5148 0.0000 0.0000 0.0000
# 2 77.2608 150.3174 49.1277 0.0000 0.0000 0.0000
# 3 38.5148 49.1277 67.3242 0.0000 0.0000 0.0000
# 4 0.0000 0.0000 0.0000 16.5763 0.0000 0.0000
# 5 0.0000 0.0000 0.0000 0.0000 11.3341 0.0000
# 6 0.0000 0.0000 0.0000 0.0000 0.0000 26.3401
#
#
#
# Elastic Compliance Matrix: (Units=1/GPa)
#
#
# Indices 1 2 3 4 5 6 
#
# 1 0.017158 -0.007368 -0.004439 0.000000 0.000000 0.000000
# 2 -0.007368 0.011900 -0.004469 0.000000 0.000000 0.000000
# 3 -0.004439 -0.004469 0.020654 0.000000 0.000000 0.000000
# 4 0.000000 0.000000 0.000000 0.060327 0.000000 0.000000
# 5 0.000000 0.000000 0.000000 0.000000 0.088229 0.000000
# 6 0.000000 0.000000 0.000000 0.000000 0.000000 0.037965
#
#
# Mechanical properties :
#
#
# Convention : Reuss Voigt Hill
#
# Bulk Modulus (GPa) = 58.27390 72.09698 65.18544
# Shear Modulus (GPa) = 18.21462 21.12764 19.67113
#
# Velocity S-wave (km/s) = 3.14051 3.38232 3.26366
# Velocity P-wave (km/s) = 6.68613 7.36833 7.03550
#
# Compressibility (1/GPa) = 0.01716034
#
# Stress axis : x y z
#
# Youngs Moduli (GPa) = 58.28230 84.03267 48.41721
#
# Poissons Ratio (x) = 0.61916 0.21493
# Poissons Ratio (y) = 0.42943 0.21636
# Poissons Ratio (z) = 0.25872 0.37551
#
# Static dielectric constant tensor:
#      x y z
#    x 3.382690 0.000000 0.000000 
#    y 0.000000 3.666330 0.000000 
#    z 0.000000 0.000000 3.280070 
# 
# 
# High freq. dielectric constant tensor:
#      x y z
#    x 1.708050 0.000000 0.000000 
#    y 0.000000 1.730200 0.000000 
#    z 0.000000 0.000000 1.699640 
# 
# From -- ./inp_files/10698.got.cif
#   From: 2010.03.12/outbox.cif.g09.slc.cpg/sg47_6_cif.got.tgz:10698.got - 2010.04.14 03:12:58.
