data_PCOD8200709
_publ_section_title
;
Structure prediction by ZEFSAII (Michael W. Deem and Ramdas Pophale) SiO2 
 PCOD8200709
Probable space group: P M M M
;
_chemical_formula_sum "Si O2"
_cell_formula_units_Z 52
_cell_length_a 24.027457
_cell_length_b 10.045669
_cell_length_c 17.702420
_cell_angle_alpha 90.000000
_cell_angle_beta 90.000000
_cell_angle_gamma 90.000000
_cell_volume 4272.866395
_symmetry_space_group_name_H-M "P M M M"
_symmetry_group_IT_number 47
_symmetry_cell_setting 'orthorhombic'
loop_
_space_group_symop_operation_xyz
x,y,z
-x,-y,z
x,-y,-z
-x,y,-z
-x,-y,-z
x,y,-z
-x,y,z
x,-y,z
loop_
_atom_site_type_symbol
_atom_site_label
_atom_site_fract_x
_atom_site_fract_y
_atom_site_fract_z
Si Si1 0.563887 0.000000 0.590195
Si Si2 0.063972 0.848050 0.709546
Si Si3 0.630170 0.746529 0.410046
Si Si4 0.154421 0.151933 0.587274
Si Si5 0.939347 0.657322 0.000000
Si Si6 0.933462 0.350272 0.837820
Si Si7 0.438532 0.500000 0.590093
Si Si8 0.748648 0.347837 0.410171
O O1 0.599613 0.876734 0.621773
O O2 0.500000 0.000000 0.620934
O O3 0.561474 0.000000 0.500000
O O4 0.098091 0.822300 0.633270
O O5 0.088155 0.752665 0.775017
O O6 0.000000 0.813673 0.691012
O O7 0.070349 0.000000 0.737395
O O8 0.631278 0.750661 0.500000
O O9 0.593240 0.627105 0.378729
O O10 0.692763 0.724123 0.379331
O O11 0.140245 0.178911 0.500000
O O12 0.200457 0.255853 0.617365
O O13 0.176009 0.000000 0.598563
O O14 0.908816 0.694902 0.920567
O O15 0.947539 0.500000 0.000000
O O16 0.000000 0.726798 0.000000
O O17 0.913473 0.500000 0.816833
O O18 0.000000 0.346908 0.843035
O O19 0.500000 0.500000 0.624378
O O20 0.440108 0.500000 0.500000
O O21 0.746452 0.352539 0.500000
O O22 0.754093 0.500000 0.379294
#
# Coordination Sequence:
#
# PCOD8200709 Si02
#       8
#     4   8   8   8   4   8   4   8
#     4   9  16  22  28  42  62  80  97 117 143 180
#     4   9  17  28  39  52  70  87 104 132 171 211
#     4   9  15  22  31  43  58  77  97 119 149 186
#     4   9  18  29  40  51  61  79 108 140 174 213
#     4   7  10  18  33  53  73  91 111 129 141 167
#     4   8  13  22  37  54  71  91 111 127 147 183
#     4   9  14  20  30  42  58  78  97 115 141 184
#     4   9  16  26  37  48  60  74  97 131 168 201
#
# _framework density 12.169816000000001
#
# number of rings (size 3 to 8) (size 9 to 14) (size 15 to 20)
#    0.000    3.308    0.769    1.385    1.077    2.769 
#    0.000    1.923    0.000    2.308    0.000    4.308 
#    0.000    0.000    0.000    0.000    0.000    0.000 
#
# Total GULP energy -644215.618459 kJ/mol
# GULP energy per Si atom -12388.761893 kJ/mol
# Density = 1.214212 g / cm^3
# Si number density = 12.169816 Si / 1000 Ang^3
#
#
#
# Elastic Constant Matrix: (Units=GPa)
#
#
# Indices 1 2 3 4 5 6 
#
# 1 69.3088 45.5413 26.2887 0.0000 0.0000 0.0000
# 2 45.5413 93.6000 30.0139 0.0000 0.0000 0.0000
# 3 26.2887 30.0139 42.5884 0.0000 0.0000 0.0000
# 4 0.0000 0.0000 0.0000 11.8613 0.0000 0.0000
# 5 0.0000 0.0000 0.0000 0.0000 0.6278 0.0000
# 6 0.0000 0.0000 0.0000 0.0000 0.0000 20.3152
#
#
#
# Elastic Compliance Matrix: (Units=1/GPa)
#
#
# Indices 1 2 3 4 5 6 
#
# 1 0.023251 -0.008670 -0.008242 0.000000 0.000000 0.000000
# 2 -0.008670 0.017036 -0.006654 0.000000 0.000000 0.000000
# 3 -0.008242 -0.006654 0.033258 0.000000 0.000000 0.000000
# 4 0.000000 0.000000 0.000000 0.084308 0.000000 0.000000
# 5 0.000000 0.000000 0.000000 0.000000 1.592777 0.000000
# 6 0.000000 0.000000 0.000000 0.000000 0.000000 0.049224
#
#
# Mechanical properties :
#
#
# Convention : Reuss Voigt Hill
#
# Bulk Modulus (GPa) = 37.86146 45.46501 41.66323
# Shear Modulus (GPa) = 2.69427 13.47108 8.08268
#
# Velocity S-wave (km/s) = 1.48953 3.33066 2.57992
# Velocity P-wave (km/s) = 5.84267 7.22710 6.57144
#
# Compressibility (1/GPa) = 0.02641208
#
# Stress axis : x y z
#
# Youngs Moduli (GPa) = 43.00824 58.69951 30.06816
#
# Poissons Ratio (x) = 0.50893 0.24783
# Poissons Ratio (y) = 0.37288 0.20008
# Poissons Ratio (z) = 0.35449 0.39060
#
# Static dielectric constant tensor:
#      x y z
#    x 2.446330 0.000000 0.000000 
#    y 0.000000 2.659050 0.000000 
#    z 0.000000 0.000000 2.245650 
# 
# 
# High freq. dielectric constant tensor:
#      x y z
#    x 1.443100 0.000000 0.000000 
#    y 0.000000 1.472440 0.000000 
#    z 0.000000 0.000000 1.402140 
# 
# From -- ./inp_files/25327.got.cif
#   From: 2010.03.12/outbox.cif.g09.slc.cpg/sg47_13_cif.got.tgz:25327.got - 2010.04.14 03:12:58.
