data_PCOD8200384
_publ_section_title
;
Structure prediction by ZEFSAII (Michael W. Deem and Ramdas Pophale) SiO2 
 PCOD8200384
Probable space group: P M M M
;
_chemical_formula_sum "Si O2"
_cell_formula_units_Z 40
_cell_length_a 8.699164
_cell_length_b 16.499761
_cell_length_c 14.537615
_cell_angle_alpha 90.000000
_cell_angle_beta 90.000000
_cell_angle_gamma 90.000000
_cell_volume 2086.643876
_symmetry_space_group_name_H-M "P M M M"
_symmetry_group_IT_number 47
_symmetry_cell_setting 'orthorhombic'
loop_
_space_group_symop_operation_xyz
x,y,z
-x,-y,z
x,-y,-z
-x,y,-z
-x,-y,-z
x,y,-z
-x,y,z
x,-y,z
loop_
_atom_site_type_symbol
_atom_site_label
_atom_site_fract_x
_atom_site_fract_y
_atom_site_fract_z
Si Si1 0.174326 0.000000 0.653548
Si Si2 0.817214 0.408563 0.896545
Si Si3 0.326428 0.163066 0.899819
Si Si4 0.822310 0.272483 0.239416
Si Si5 0.676494 0.171025 0.395326
Si Si6 0.176650 0.000000 0.129669
O O1 0.249274 0.917351 0.616980
O O2 0.186955 0.000000 0.761620
O O3 0.000000 0.000000 0.618636
O O4 0.763940 0.500000 0.874372
O O5 0.751212 0.351499 0.813933
O O6 0.000000 0.401562 0.896044
O O7 0.758880 0.384298 0.000000
O O8 0.500000 0.168244 0.858909
O O9 0.200795 0.200364 0.832196
O O10 0.271596 0.072567 0.913242
O O11 0.322319 0.205744 0.000000
O O12 0.742531 0.245368 0.334217
O O13 0.000000 0.285528 0.261869
O O14 0.700422 0.199219 0.500000
O O15 0.500000 0.160572 0.369031
O O16 0.000000 0.000000 0.096129
#
# Coordination Sequence:
#
# PCOD8200384 Si02
#       6
#     4   8   8   8   8   4
#     4  11  22  37  58  83 106 135 180 235 287 325
#     4   8  15  30  54  85 118 147 175 212 262 320
#     4  11  23  36  51  73 105 146 184 218 263 318
#     4  11  21  34  56  84 110 139 178 225 274 320
#     4  11  24  40  58  79 106 144 185 226 277 333
#     4  11  22  35  52  75 102 137 180 227 273 315
#
# _framework density 19.169537999999999
#
# number of rings (size 3 to 8) (size 9 to 14) (size 15 to 20)
#    0.000    1.600    2.000    4.200    0.000    7.200 
#    0.000    0.000    0.000    3.000    0.000   11.200 
#    0.000    0.000    0.000    0.000    0.000    0.000 
#
# Total GULP energy -495635.279363 kJ/mol
# GULP energy per Si atom -12390.881984 kJ/mol
# Density = 1.912591 g / cm^3
# Si number density = 19.169538 Si / 1000 Ang^3
#
#
#
# Elastic Constant Matrix: (Units=GPa)
#
#
# Indices 1 2 3 4 5 6 
#
# 1 82.4478 26.4754 40.4068 0.0000 0.0000 0.0000
# 2 26.4754 114.7460 55.9292 0.0000 0.0000 0.0000
# 3 40.4068 55.9292 127.4866 0.0000 0.0000 0.0000
# 4 0.0000 0.0000 0.0000 -28.4717 0.0000 0.0000
# 5 0.0000 0.0000 0.0000 0.0000 36.9619 0.0000
# 6 0.0000 0.0000 0.0000 0.0000 0.0000 0.7483
#
#
#
# Elastic Compliance Matrix: (Units=1/GPa)
#
#
# Indices 1 2 3 4 5 6 
#
# 1 0.014536 -0.001410 -0.003989 0.000000 0.000000 0.000000
# 2 -0.001410 0.011222 -0.004476 0.000000 0.000000 0.000000
# 3 -0.003989 -0.004476 0.011072 0.000000 0.000000 0.000000
# 4 0.000000 0.000000 0.000000 -0.035123 0.000000 0.000000
# 5 0.000000 0.000000 0.000000 0.000000 0.027055 0.000000
# 6 0.000000 0.000000 0.000000 0.000000 0.000000 1.336357
#
#
# Mechanical properties :
#
#
# Convention : Reuss Voigt Hill
#
# Bulk Modulus (GPa) = 58.54600 63.36703 60.95652
# Shear Modulus (GPa) = 3.59567 15.30563 9.45065
#
# Velocity S-wave (km/s) = 1.37105 2.82873 2.22278
# Velocity P-wave (km/s) = 5.75446 6.61791 6.20124
#
# Compressibility (1/GPa) = 0.01708059
#
# Stress axis : x y z
#
# Youngs Moduli (GPa) = 68.79242 89.11040 90.31766
#
# Poissons Ratio (x) = 0.12563 0.36026
# Poissons Ratio (y) = 0.09698 0.40429
# Poissons Ratio (z) = 0.27440 0.39889
#
# Static dielectric constant tensor:
#      x y z
#    x 3.421060 0.000000 0.000000 
#    y 0.000000 3.643970 0.000000 
#    z 0.000000 0.000000 3.650910 
# 
# 
# High freq. dielectric constant tensor:
#      x y z
#    x 1.735520 0.000000 0.000000 
#    y 0.000000 1.728590 0.000000 
#    z 0.000000 0.000000 1.750230 
# 
# From -- ./inp_files/20706.got.cif
#   From: 2010.03.12/outbox.cif.g09.slc.cpg/sg47_11_cif.got.tgz:20706.got - 2010.04.14 03:12:58.
