data_PCOD8200858
_publ_section_title
;
Structure prediction by ZEFSAII (Michael W. Deem and Ramdas Pophale) SiO2 
 PCOD8200858
Probable space group: P M M M
;
_chemical_formula_sum "Si O2"
_cell_formula_units_Z 44
_cell_length_a 9.408032
_cell_length_b 28.516317
_cell_length_c 9.310544
_cell_angle_alpha 90.000000
_cell_angle_beta 90.000000
_cell_angle_gamma 90.000000
_cell_volume 2497.855302
_symmetry_space_group_name_H-M "P M M M"
_symmetry_group_IT_number 47
_symmetry_cell_setting 'orthorhombic'
loop_
_space_group_symop_operation_xyz
x,y,z
-x,-y,z
x,-y,-z
-x,y,-z
-x,-y,-z
x,y,-z
-x,y,z
x,-y,z
loop_
_atom_site_type_symbol
_atom_site_label
_atom_site_fract_x
_atom_site_fract_y
_atom_site_fract_z
Si Si1 0.665307 0.681403 0.166257
Si Si2 0.669022 0.051844 0.661268
Si Si3 0.830916 0.500000 0.662254
Si Si4 0.165313 0.589924 0.166417
Si Si5 0.330811 0.771804 0.662279
Si Si6 0.669752 0.139236 0.838102
O O1 0.500000 0.671912 0.194919
O O2 0.750389 0.635754 0.216962
O O3 0.722907 0.724933 0.258883
O O4 0.694246 0.693090 0.000000
O O5 0.724160 0.062014 0.500000
O O6 0.500000 0.053796 0.661763
O O7 0.730154 0.091338 0.767930
O O8 0.719896 0.000000 0.711723
O O9 0.772618 0.500000 0.500000
O O10 0.774489 0.546215 0.742997
O O11 0.000000 0.500000 0.666644
O O12 0.000000 0.598873 0.197103
O O13 0.193245 0.578668 0.000000
O O14 0.271562 0.772665 0.500000
O O15 0.500000 0.773095 0.662722
O O16 0.271185 0.816839 0.747353
O O17 0.500000 0.139296 0.837399
O O18 0.728086 0.142811 0.000000
#
# Coordination Sequence:
#
# PCOD8200858 Si02
#       6
#     8   8   4   8   8   8
#     4   9  17  29  44  62  84 108 135 169 206 241
#     4   8  13  20  28  38  55  81 114 154 199 243
#     4   9  17  29  46  67  88 110 138 171 202 234
#     4   9  17  30  48  67  86 110 139 168 200 241
#     4   9  16  25  37  52  71  97 128 161 198 241
#     4   9  15  21  30  44  62  86 119 159 199 239
#
# _framework density 17.615110999999999
#
# number of rings (size 3 to 8) (size 9 to 14) (size 15 to 20)
#    0.000    3.182    0.000    1.909    0.000    6.545 
#    0.000    2.273    0.000    2.727    0.000    0.000 
#    0.000    0.000    0.000    0.000    0.000    0.909 
#
# Total GULP energy -545472.440126 kJ/mol
# GULP energy per Si atom -12397.100912 kJ/mol
# Density = 1.757502 g / cm^3
# Si number density = 17.615111 Si / 1000 Ang^3
#
#
#
# Elastic Constant Matrix: (Units=GPa)
#
#
# Indices 1 2 3 4 5 6 
#
# 1 13.3827 26.3973 17.1224 0.0000 0.0000 0.0000
# 2 26.3973 199.1605 110.0973 0.0000 0.0000 0.0000
# 3 17.1224 110.0973 138.0017 0.0000 0.0000 0.0000
# 4 0.0000 0.0000 0.0000 38.0311 0.0000 0.0000
# 5 0.0000 0.0000 0.0000 0.0000 7.7718 0.0000
# 6 0.0000 0.0000 0.0000 0.0000 0.0000 -0.4818
#
#
#
# Elastic Compliance Matrix: (Units=1/GPa)
#
#
# Indices 1 2 3 4 5 6 
#
# 1 0.102031 -0.011674 -0.003346 0.000000 0.000000 0.000000
# 2 -0.011674 0.010318 -0.006784 0.000000 0.000000 0.000000
# 3 -0.003346 -0.006784 0.013073 0.000000 0.000000 0.000000
# 4 0.000000 0.000000 0.000000 0.026294 0.000000 0.000000
# 5 0.000000 0.000000 0.000000 0.000000 0.128671 0.000000
# 6 0.000000 0.000000 0.000000 0.000000 0.000000 -2.075733
#
#
# Mechanical properties :
#
#
# Convention : Reuss Voigt Hill
#
# Bulk Modulus (GPa) = 12.22252 73.08655 42.65453
# Shear Modulus (GPa) = -2.89945 22.19275 9.64665
#
# Velocity S-wave (km/s) = -1.28436 3.55332 2.34270
# Velocity P-wave (km/s) = 2.18043 7.64301 5.62005
#
# Compressibility (1/GPa) = 0.08181619
#
# Stress axis : x y z
#
# Youngs Moduli (GPa) = 9.80090 96.91488 76.49160
#
# Poissons Ratio (x) = 1.13136 0.25595
# Poissons Ratio (y) = 0.11441 0.51888
# Poissons Ratio (z) = 0.03280 0.65742
#
# Static dielectric constant tensor:
#      x y z
#    x 2.552720 0.000000 0.000000 
#    y 0.000000 3.563710 0.000000 
#    z 0.000000 0.000000 3.427980 
# 
# 
# High freq. dielectric constant tensor:
#      x y z
#    x 1.597020 0.000000 0.000000 
#    y 0.000000 1.699580 0.000000 
#    z 0.000000 0.000000 1.686420 
# 
# From -- ./inp_files/2263.got.cif
#   From: 2010.03.12/outbox.cif.g09.slc.cpg/sg47_2_cif.got.tgz:2263.got - 2010.04.14 03:12:58.
