data_PCOD8200501
_publ_section_title
;
Structure prediction by ZEFSAII (Michael W. Deem and Ramdas Pophale) SiO2 
 PCOD8200501
Probable space group: P M M M
;
_chemical_formula_sum "Si O2"
_cell_formula_units_Z 40
_cell_length_a 8.819191
_cell_length_b 15.659389
_cell_length_c 14.376390
_cell_angle_alpha 90.000000
_cell_angle_beta 90.000000
_cell_angle_gamma 90.000000
_cell_volume 1985.424637
_symmetry_space_group_name_H-M "P M M M"
_symmetry_group_IT_number 47
_symmetry_cell_setting 'orthorhombic'
loop_
_space_group_symop_operation_xyz
x,y,z
-x,-y,z
x,-y,-z
-x,y,-z
-x,-y,-z
x,y,-z
-x,y,z
x,-y,z
loop_
_atom_site_type_symbol
_atom_site_label
_atom_site_fract_x
_atom_site_fract_y
_atom_site_fract_z
Si Si1 0.175847 0.599254 0.105142
Si Si2 0.680375 0.500000 0.395105
Si Si3 0.820105 0.161517 0.294107
Si Si4 0.678702 0.335517 0.716183
Si Si5 0.326623 0.000000 0.390085
Si Si6 0.179854 0.095660 0.899319
O O1 0.214358 0.500000 0.118163
O O2 0.275365 0.654244 0.176001
O O3 0.000000 0.617294 0.125937
O O4 0.215573 0.627806 0.000000
O O5 0.500000 0.500000 0.394885
O O6 0.744202 0.500000 0.500000
O O7 0.741005 0.583816 0.342116
O O8 0.753823 0.251475 0.329079
O O9 0.755976 0.084490 0.354384
O O10 0.764160 0.152605 0.186690
O O11 0.000000 0.161094 0.303873
O O12 0.500000 0.326638 0.707934
O O13 0.500000 0.000000 0.355644
O O14 0.315931 0.000000 0.500000
O O15 0.000000 0.091797 0.897801
O O16 0.244317 0.000000 0.886059
O O17 0.234752 0.132501 0.000000
#
# Coordination Sequence:
#
# PCOD8200501 Si02
#       6
#     8   4   8   8   4   8
#     4   9  18  34  57  84 117 159 203 247 299 357
#     4   9  20  40  62  81 108 150 197 243 296 359
#     4  11  22  38  62  92 122 156 197 243 296 356
#     4  11  22  37  59  89 120 155 199 247 301 360
#     4  11  25  45  66  87 116 156 199 249 308 362
#     4   8  14  28  53  83 113 148 190 230 272 330
#
# _framework density 20.146823000000001
#
# number of rings (size 3 to 8) (size 9 to 14) (size 15 to 20)
#    0.000    2.200    2.000    2.700    0.000    2.800 
#    0.000    5.000    0.000    6.600    0.000    0.000 
#    0.000    0.000    0.000    0.000    0.000    0.000 
#
# Total GULP energy -495912.287549 kJ/mol
# GULP energy per Si atom -12397.807189 kJ/mol
# Density = 2.010097 g / cm^3
# Si number density = 20.146823 Si / 1000 Ang^3
#
#
#
# Elastic Constant Matrix: (Units=GPa)
#
#
# Indices 1 2 3 4 5 6 
#
# 1 75.8192 51.3230 37.0300 0.0000 0.0000 0.0000
# 2 51.3230 156.1753 58.8852 0.0000 0.0000 0.0000
# 3 37.0300 58.8852 103.9347 0.0000 0.0000 0.0000
# 4 0.0000 0.0000 0.0000 8.5689 0.0000 0.0000
# 5 0.0000 0.0000 0.0000 0.0000 26.0876 0.0000
# 6 0.0000 0.0000 0.0000 0.0000 0.0000 31.7264
#
#
#
# Elastic Compliance Matrix: (Units=1/GPa)
#
#
# Indices 1 2 3 4 5 6 
#
# 1 0.018139 -0.004482 -0.003924 0.000000 0.000000 0.000000
# 2 -0.004482 0.009250 -0.003644 0.000000 0.000000 0.000000
# 3 -0.003924 -0.003644 0.013084 0.000000 0.000000 0.000000
# 4 0.000000 0.000000 0.000000 0.116702 0.000000 0.000000
# 5 0.000000 0.000000 0.000000 0.000000 0.038332 0.000000
# 6 0.000000 0.000000 0.000000 0.000000 0.000000 0.031519
#
#
# Mechanical properties :
#
#
# Convention : Reuss Voigt Hill
#
# Bulk Modulus (GPa) = 61.06979 70.04507 65.55743
# Shear Modulus (GPa) = 19.48691 25.85597 22.67144
#
# Velocity S-wave (km/s) = 3.11343 3.58631 3.35820
# Velocity P-wave (km/s) = 6.58048 7.21052 6.90269
#
# Compressibility (1/GPa) = 0.01637471
#
# Stress axis : x y z
#
# Youngs Moduli (GPa) = 55.12922 108.11150 76.43070
#
# Poissons Ratio (x) = 0.48451 0.29988
# Poissons Ratio (y) = 0.24707 0.27850
# Poissons Ratio (z) = 0.21630 0.39394
#
# Static dielectric constant tensor:
#      x y z
#    x 3.338480 0.000000 0.000000 
#    y 0.000000 3.709030 0.000000 
#    z 0.000000 0.000000 3.891950 
# 
# 
# High freq. dielectric constant tensor:
#      x y z
#    x 1.755430 0.000000 0.000000 
#    y 0.000000 1.791340 0.000000 
#    z 0.000000 0.000000 1.788960 
# 
# From -- ./inp_files/5708.got.cif
#   From: 2010.03.12/outbox.cif.g09.slc.cpg/sg47_3_cif.got.tgz:5708.got - 2010.04.14 03:12:58.
