data_PCOD8200629
_publ_section_title
;
Structure prediction by ZEFSAII (Michael W. Deem and Ramdas Pophale) SiO2 
 PCOD8200629
Probable space group: P M M M
;
_chemical_formula_sum "Si O2"
_cell_formula_units_Z 48
_cell_length_a 8.801726
_cell_length_b 31.052714
_cell_length_c 9.268782
_cell_angle_alpha 90.000000
_cell_angle_beta 90.000000
_cell_angle_gamma 90.000000
_cell_volume 2533.320141
_symmetry_space_group_name_H-M "P M M M"
_symmetry_group_IT_number 47
_symmetry_cell_setting 'orthorhombic'
loop_
_space_group_symop_operation_xyz
x,y,z
-x,-y,z
x,-y,-z
-x,y,-z
-x,-y,-z
x,y,-z
-x,y,z
x,-y,z
loop_
_atom_site_type_symbol
_atom_site_label
_atom_site_fract_x
_atom_site_fract_y
_atom_site_fract_z
Si Si1 0.818354 0.500000 0.160879
Si Si2 0.175708 0.676124 0.669494
Si Si3 0.676916 0.752300 0.167526
Si Si4 0.334703 0.000000 0.829720
Si Si5 0.681452 0.092777 0.836786
Si Si6 0.819887 0.420235 0.659323
Si Si7 0.821670 0.169661 0.334518
O O1 0.753246 0.542967 0.236759
O O2 0.000000 0.500000 0.163479
O O3 0.754210 0.500000 0.000000
O O4 0.203409 0.683666 0.500000
O O5 0.282950 0.706767 0.761783
O O6 0.222825 0.627537 0.714225
O O7 0.000000 0.685293 0.707304
O O8 0.500000 0.762110 0.189185
O O9 0.772316 0.789209 0.244009
O O10 0.721200 0.751117 0.000000
O O11 0.252404 0.954670 0.789353
O O12 0.500000 0.000000 0.754335
O O13 0.357980 0.000000 0.000000
O O14 0.500000 0.091897 0.830672
O O15 0.743390 0.127035 0.724968
O O16 0.734150 0.104455 0.000000
O O17 0.751670 0.427910 0.500000
O O18 0.000000 0.423884 0.651008
O O19 0.772094 0.176381 0.500000
O O20 0.000000 0.163873 0.319708
#
# Coordination Sequence:
#
# PCOD8200629 Si02
#       7
#     4   8   8   4   8   8   8
#     4   9  15  21  33  59  94 129 166 205 242 284
#     4   9  18  33  53  77 103 132 168 208 251 301
#     4  11  24  39  55  77 102 129 165 208 254 306
#     4   7  12  26  50  79 108 136 168 209 252 293
#     4   9  17  32  56  83 108 136 173 214 254 298
#     4   8  14  25  41  62  92 129 164 199 242 291
#     4  11  24  39  54  75 104 137 172 210 254 303
#
# _framework density 18.947467
#
# number of rings (size 3 to 8) (size 9 to 14) (size 15 to 20)
#    0.000    2.667    0.000    4.250    0.000    9.000 
#    0.000    2.500    0.000    4.000    0.000    0.583 
#    0.000    4.667    0.000    0.000    0.000    0.000 
#
# Total GULP energy -594951.125476 kJ/mol
# GULP energy per Si atom -12394.815114 kJ/mol
# Density = 1.890434 g / cm^3
# Si number density = 18.947467 Si / 1000 Ang^3
#
#
#
# Elastic Constant Matrix: (Units=GPa)
#
#
# Indices 1 2 3 4 5 6 
#
# 1 25.1583 17.2953 22.0941 0.0000 0.0000 0.0000
# 2 17.2953 151.3985 64.5110 0.0000 0.0000 0.0000
# 3 22.0941 64.5110 97.6317 0.0000 0.0000 0.0000
# 4 0.0000 0.0000 0.0000 27.7744 0.0000 0.0000
# 5 0.0000 0.0000 0.0000 0.0000 23.2266 0.0000
# 6 0.0000 0.0000 0.0000 0.0000 0.0000 21.3942
#
#
#
# Elastic Compliance Matrix: (Units=1/GPa)
#
#
# Indices 1 2 3 4 5 6 
#
# 1 0.049772 -0.001234 -0.010448 0.000000 0.000000 0.000000
# 2 -0.001234 0.009224 -0.005816 0.000000 0.000000 0.000000
# 3 -0.010448 -0.005816 0.016450 0.000000 0.000000 0.000000
# 4 0.000000 0.000000 0.000000 0.036004 0.000000 0.000000
# 5 0.000000 0.000000 0.000000 0.000000 0.043054 0.000000
# 6 0.000000 0.000000 0.000000 0.000000 0.000000 0.046742
#
#
# Mechanical properties :
#
#
# Convention : Reuss Voigt Hill
#
# Bulk Modulus (GPa) = 24.72147 53.55435 39.13791
# Shear Modulus (GPa) = 20.02201 25.83159 22.92680
#
# Velocity S-wave (km/s) = 3.25424 3.69633 3.48231
# Velocity P-wave (km/s) = 5.21496 6.82225 6.07202
#
# Compressibility (1/GPa) = 0.04045067
#
# Stress axis : x y z
#
# Youngs Moduli (GPa) = 20.09151 108.41158 60.79107
#
# Poissons Ratio (x) = 0.13376 0.63516
# Poissons Ratio (y) = 0.02479 0.35354
# Poissons Ratio (z) = 0.20992 0.63049
#
# Static dielectric constant tensor:
#      x y z
#    x 3.046410 0.000000 0.000000 
#    y 0.000000 3.869160 0.000000 
#    z 0.000000 0.000000 3.520350 
# 
# 
# High freq. dielectric constant tensor:
#      x y z
#    x 1.692660 0.000000 0.000000 
#    y 0.000000 1.759860 0.000000 
#    z 0.000000 0.000000 1.727590 
# 
# From -- ./inp_files/2573.got.cif
#   From: 2010.03.12/outbox.cif.g09.slc.cpg/sg47_2_cif.got.tgz:2573.got - 2010.04.14 03:12:58.
