data_PCOD8200846
_publ_section_title
;
Structure prediction by ZEFSAII (Michael W. Deem and Ramdas Pophale) SiO2 
 PCOD8200846
Probable space group: P M M M
;
_chemical_formula_sum "Si O2"
_cell_formula_units_Z 40
_cell_length_a 7.862636
_cell_length_b 10.087924
_cell_length_c 29.323865
_cell_angle_alpha 90.000000
_cell_angle_beta 90.000000
_cell_angle_gamma 90.000000
_cell_volume 2325.900776
_symmetry_space_group_name_H-M "P M M M"
_symmetry_group_IT_number 47
_symmetry_cell_setting 'orthorhombic'
loop_
_space_group_symop_operation_xyz
x,y,z
-x,-y,z
x,-y,-z
-x,y,-z
-x,-y,-z
x,y,-z
-x,y,z
x,-y,z
loop_
_atom_site_type_symbol
_atom_site_label
_atom_site_fract_x
_atom_site_fract_y
_atom_site_fract_z
Si Si1 0.188792 0.342418 0.448736
Si Si2 0.802128 0.355414 0.125962
Si Si3 0.190658 0.657584 0.226073
Si Si4 0.500000 0.341648 0.389440
Si Si5 0.500000 0.658277 0.713631
Si Si6 0.299283 0.147331 0.949263
O O1 0.226922 0.291617 0.500000
O O2 0.195459 0.500000 0.448291
O O3 0.331739 0.285339 0.414665
O O4 0.000000 0.294928 0.433176
O O5 0.718342 0.500000 0.114774
O O6 0.741578 0.301758 0.175448
O O7 0.766332 0.252357 0.086518
O O8 0.000000 0.377574 0.130569
O O9 0.182274 0.500000 0.228793
O O10 0.328857 0.713358 0.261986
O O11 0.000000 0.714715 0.236452
O O12 0.500000 0.500000 0.390214
O O13 0.500000 0.287969 0.337921
O O14 0.500000 0.500000 0.715125
O O15 0.500000 0.147198 0.948655
O O16 0.231871 0.000000 0.936620
O O17 0.234134 0.185966 0.000000
#
# Coordination Sequence:
#
# PCOD8200846 Si02
#       6
#     8   8   8   4   4   8
#     4   8  13  20  28  37  52  78 111 148 192 237
#     4   9  18  31  47  67  87 110 143 179 213 254
#     4   8  15  27  39  54  77  99 125 164 203 245
#     4   9  15  20  27  42  60  78 110 151 190 243
#     4   9  16  23  34  51  68  94 123 150 204 261
#     4   9  19  34  48  65  91 118 142 171 211 259
#
# _framework density 17.197638000000001
#
# number of rings (size 3 to 8) (size 9 to 14) (size 15 to 20)
#    0.000    3.400    0.000    2.700    1.400    3.600 
#    0.000    7.000    0.000    0.000    0.000    0.000 
#    0.000    0.000    0.000    0.000    0.000    0.000 
#
# Total GULP energy -495556.182487 kJ/mol
# GULP energy per Si atom -12388.904562 kJ/mol
# Density = 1.715849 g / cm^3
# Si number density = 17.197638 Si / 1000 Ang^3
#
#
#
# Elastic Constant Matrix: (Units=GPa)
#
#
# Indices 1 2 3 4 5 6 
#
# 1 99.0316 17.8284 74.3489 0.0000 0.0000 0.0000
# 2 17.8284 31.1313 37.9257 0.0000 0.0000 0.0000
# 3 74.3489 37.9257 156.2057 0.0000 0.0000 0.0000
# 4 0.0000 0.0000 0.0000 -2.9231 0.0000 0.0000
# 5 0.0000 0.0000 0.0000 0.0000 20.0673 0.0000
# 6 0.0000 0.0000 0.0000 0.0000 0.0000 5.5683
#
#
#
# Elastic Compliance Matrix: (Units=1/GPa)
#
#
# Indices 1 2 3 4 5 6 
#
# 1 0.015713 0.000160 -0.007518 0.000000 0.000000 0.000000
# 2 0.000160 0.045615 -0.011151 0.000000 0.000000 0.000000
# 3 -0.007518 -0.011151 0.012687 0.000000 0.000000 0.000000
# 4 0.000000 0.000000 0.000000 -0.342108 0.000000 0.000000
# 5 0.000000 0.000000 0.000000 0.000000 0.049832 0.000000
# 6 0.000000 0.000000 0.000000 0.000000 0.000000 0.179588
#
#
# Mechanical properties :
#
#
# Convention : Reuss Voigt Hill
#
# Bulk Modulus (GPa) = 27.02866 60.73051 43.87958
# Shear Modulus (GPa) = 468.19510 14.96022 241.57766
#
# Velocity S-wave (km/s) = 16.51771 2.95261 11.86492
# Velocity P-wave (km/s) = 19.48154 6.85666 14.60384
#
# Compressibility (1/GPa) = 0.03699777
#
# Stress axis : x y z
#
# Youngs Moduli (GPa) = 63.64165 21.92240 78.81819
#
# Poissons Ratio (x) = -0.00350 0.59253
# Poissons Ratio (y) = -0.01017 0.87892
# Poissons Ratio (z) = 0.47844 0.24446
#
# Static dielectric constant tensor:
#      x y z
#    x 3.471830 0.000000 0.000000 
#    y 0.000000 2.366190 0.000000 
#    z 0.000000 0.000000 27.210870 
# 
# 
# High freq. dielectric constant tensor:
#      x y z
#    x 1.673950 0.000000 0.000000 
#    y 0.000000 1.580360 0.000000 
#    z 0.000000 0.000000 1.667810 
# 
# From -- ./inp_files/1857.got.cif
#   From: 2010.03.12/outbox.cif.g09.slc.cpg/sg47_1_cif.got.tgz:1857.got - 2010.04.14 03:12:58.
