data_PCOD8200118
_publ_section_title
;
Structure prediction by ZEFSAII (Michael W. Deem and Ramdas Pophale) SiO2 
 PCOD8200118
Probable space group: P M M M
;
_chemical_formula_sum "Si O2"
_cell_formula_units_Z 56
_cell_length_a 13.856981
_cell_length_b 22.408276
_cell_length_c 9.929751
_cell_angle_alpha 90.000000
_cell_angle_beta 90.000000
_cell_angle_gamma 90.000000
_cell_volume 3083.297457
_symmetry_space_group_name_H-M "P M M M"
_symmetry_group_IT_number 47
_symmetry_cell_setting 'orthorhombic'
loop_
_space_group_symop_operation_xyz
x,y,z
-x,-y,z
x,-y,-z
-x,y,-z
-x,-y,-z
x,y,-z
-x,y,z
x,-y,z
loop_
_atom_site_type_symbol
_atom_site_label
_atom_site_fract_x
_atom_site_fract_y
_atom_site_fract_z
Si Si1 0.109865 0.850847 0.346987
Si Si2 0.789857 0.373671 0.753861
Si Si3 0.391359 0.568161 0.655715
Si Si4 0.787945 0.239011 0.158058
Si Si5 0.106668 0.430058 0.000000
Si Si6 0.389924 0.157617 0.846068
Si Si7 0.114297 0.568606 0.500000
Si Si8 0.712515 0.068673 0.345127
O O1 0.123907 0.826384 0.500000
O O2 0.134590 0.800142 0.238745
O O3 0.178954 0.907463 0.322342
O O4 0.000000 0.871859 0.323854
O O5 0.677236 0.390013 0.743182
O O6 0.796546 0.303820 0.778498
O O7 0.849372 0.393881 0.625403
O O8 0.834121 0.410714 0.872771
O O9 0.361667 0.573607 0.500000
O O10 0.500000 0.590733 0.678582
O O11 0.380708 0.500000 0.703301
O O12 0.679926 0.213867 0.182040
O O13 0.814734 0.239710 0.000000
O O14 0.095314 0.500000 0.000000
O O15 0.000000 0.400472 0.000000
O O16 0.500000 0.177732 0.817891
O O17 0.363386 0.103193 0.748252
O O18 0.377246 0.135685 0.000000
O O19 0.154170 0.500000 0.500000
O O20 0.000000 0.567060 0.500000
O O21 0.680426 0.077184 0.500000
O O22 0.711239 0.000000 0.302073
#
# Coordination Sequence:
#
# PCOD8200118 Si02
#       8
#     8   8   8   8   4   8   4   8
#     4   9  19  35  56  80 108 145 188 232 272 315
#     4  12  22  38  60  83 111 148 185 231 286 340
#     4   9  18  34  57  83 108 136 173 219 275 337
#     4  10  22  39  54  78 109 143 184 228 277 332
#     4  11  24  40  57  81 115 149 183 228 286 346
#     4   9  19  37  59  78 106 148 188 228 270 314
#     4  11  24  40  59  83 109 143 189 232 276 340
#     4   9  18  33  54  83 119 150 180 222 272 326
#
# _framework density 18.162374
#
# number of rings (size 3 to 8) (size 9 to 14) (size 15 to 20)
#    0.000    2.143    1.429    2.143    1.000    4.286 
#    0.000    3.214    0.000    1.286    0.000    4.000 
#    0.000    0.000    0.000    0.000    0.000    0.000 
#
# Total GULP energy -694387.031322 kJ/mol
# GULP energy per Si atom -12399.768416 kJ/mol
# Density = 1.812104 g / cm^3
# Si number density = 18.162374 Si / 1000 Ang^3
#
#
#
# Elastic Constant Matrix: (Units=GPa)
#
#
# Indices 1 2 3 4 5 6 
#
# 1 99.1847 26.7074 43.4339 0.0000 0.0000 0.0000
# 2 26.7074 101.1697 50.6734 0.0000 0.0000 0.0000
# 3 43.4339 50.6734 108.3638 0.0000 0.0000 0.0000
# 4 0.0000 0.0000 0.0000 29.6994 0.0000 0.0000
# 5 0.0000 0.0000 0.0000 0.0000 37.4695 0.0000
# 6 0.0000 0.0000 0.0000 0.0000 0.0000 -1.9749
#
#
#
# Elastic Compliance Matrix: (Units=1/GPa)
#
#
# Indices 1 2 3 4 5 6 
#
# 1 0.012308 -0.001016 -0.004458 0.000000 0.000000 0.000000
# 2 -0.001016 0.012992 -0.005668 0.000000 0.000000 0.000000
# 3 -0.004458 -0.005668 0.013665 0.000000 0.000000 0.000000
# 4 0.000000 0.000000 0.000000 0.033671 0.000000 0.000000
# 5 0.000000 0.000000 0.000000 0.000000 0.026688 0.000000
# 6 0.000000 0.000000 0.000000 0.000000 0.000000 -0.506354
#
#
# Mechanical properties :
#
#
# Convention : Reuss Voigt Hill
#
# Bulk Modulus (GPa) = 59.94908 61.14974 60.54941
# Shear Modulus (GPa) = -13.18618 25.56570 6.18976
#
# Velocity S-wave (km/s) = -2.69739 3.75590 1.84808
# Velocity P-wave (km/s) = 4.83505 7.24917 6.16150
#
# Compressibility (1/GPa) = 0.01668082
#
# Stress axis : x y z
#
# Youngs Moduli (GPa) = 81.24754 76.97329 73.17735
#
# Poissons Ratio (x) = 0.07822 0.32623
# Poissons Ratio (y) = 0.08257 0.41476
# Poissons Ratio (z) = 0.36221 0.43627
#
# Static dielectric constant tensor:
#      x y z
#    x 3.517690 0.000000 0.000000 
#    y 0.000000 3.245130 0.000000 
#    z 0.000000 0.000000 3.397880 
# 
# 
# High freq. dielectric constant tensor:
#      x y z
#    x 1.714970 0.000000 0.000000 
#    y 0.000000 1.692440 0.000000 
#    z 0.000000 0.000000 1.708160 
# 
# From -- ./inp_files/7461.got.cif
#   From: 2010.03.12/outbox.cif.g09.slc.cpg/sg47_4_cif.got.tgz:7461.got - 2010.04.14 03:12:58.
