data_PCOD8200906
_publ_section_title
;
Structure prediction by ZEFSAII (Michael W. Deem and Ramdas Pophale) SiO2 
 PCOD8200906
Probable space group: P M M M
;
_chemical_formula_sum "Si O2"
_cell_formula_units_Z 52
_cell_length_a 14.416256
_cell_length_b 9.323192
_cell_length_c 26.152206
_cell_angle_alpha 90.000000
_cell_angle_beta 90.000000
_cell_angle_gamma 90.000000
_cell_volume 3515.000915
_symmetry_space_group_name_H-M "P M M M"
_symmetry_group_IT_number 47
_symmetry_cell_setting 'orthorhombic'
loop_
_space_group_symop_operation_xyz
x,y,z
-x,-y,z
x,-y,-z
-x,y,-z
-x,-y,-z
x,y,-z
-x,y,z
x,-y,z
loop_
_atom_site_type_symbol
_atom_site_label
_atom_site_fract_x
_atom_site_fract_y
_atom_site_fract_z
Si Si1 0.389709 0.339252 0.651032
Si Si2 0.604899 0.829381 0.055916
Si Si3 0.104628 0.833341 0.900990
Si Si4 0.110001 0.338660 0.000000
Si Si5 0.715191 0.832355 0.151517
Si Si6 0.389688 0.161023 0.443465
Si Si7 0.392258 0.168063 0.750560
O O1 0.500000 0.341159 0.648176
O O2 0.349762 0.500000 0.654657
O O3 0.348262 0.265682 0.599859
O O4 0.357570 0.250024 0.700269
O O5 0.500000 0.778183 0.065266
O O6 0.667056 0.763403 0.101309
O O7 0.610374 0.000000 0.056524
O O8 0.639517 0.773876 0.000000
O O9 0.173993 0.802772 0.853242
O O10 0.000000 0.788803 0.884847
O O11 0.108631 0.000000 0.916688
O O12 0.142642 0.745028 0.949423
O O13 0.150782 0.500000 0.000000
O O14 0.000000 0.342076 0.000000
O O15 0.670946 0.768885 0.203306
O O16 0.692766 0.000000 0.152564
O O17 0.358085 0.213791 0.500000
O O18 0.500000 0.160625 0.440359
O O19 0.352885 0.000000 0.433490
O O20 0.500000 0.199648 0.763143
O O21 0.376287 0.000000 0.741016
#
# Coordination Sequence:
#
# PCOD8200906 Si02
#       7
#     8   8   8   4   8   8   8
#     4   9  16  24  34  49  70  96 125 157 192 225
#     4   8  13  20  30  47  71  93 112 141 181 217
#     4   9  17  28  42  60  79  95 112 139 178 223
#     4   9  17  29  43  57  74  95 116 138 167 209
#     4   9  16  24  37  55  73  93 118 147 182 222
#     4   8  13  21  33  49  69  94 125 159 192 223
#     4   9  16  26  39  53  70  93 124 160 190 216
#
# _framework density 14.793737999999999
#
# number of rings (size 3 to 8) (size 9 to 14) (size 15 to 20)
#    0.000    3.308    0.000    2.077    1.077    4.923 
#    0.000    2.308    0.000    0.000    0.000    0.000 
#    0.000    1.231    0.000    0.000    0.000    0.769 
#
# Total GULP energy -644355.148433 kJ/mol
# GULP energy per Si atom -12391.445162 kJ/mol
# Density = 1.476007 g / cm^3
# Si number density = 14.793738 Si / 1000 Ang^3
#
#
#
# Elastic Constant Matrix: (Units=GPa)
#
#
# Indices 1 2 3 4 5 6 
#
# 1 45.9938 18.6223 44.7951 0.0000 0.0000 0.0000
# 2 18.6223 56.1182 48.8995 0.0000 0.0000 0.0000
# 3 44.7951 48.8995 139.8150 0.0000 0.0000 0.0000
# 4 0.0000 0.0000 0.0000 7.3797 0.0000 0.0000
# 5 0.0000 0.0000 0.0000 0.0000 7.4207 0.0000
# 6 0.0000 0.0000 0.0000 0.0000 0.0000 4.8582
#
#
#
# Elastic Compliance Matrix: (Units=1/GPa)
#
#
# Indices 1 2 3 4 5 6 
#
# 1 0.031829 -0.002411 -0.009354 0.000000 0.000000 0.000000
# 2 -0.002411 0.025813 -0.008256 0.000000 0.000000 0.000000
# 3 -0.009354 -0.008256 0.013037 0.000000 0.000000 0.000000
# 4 0.000000 0.000000 0.000000 0.135508 0.000000 0.000000
# 5 0.000000 0.000000 0.000000 0.000000 0.134759 0.000000
# 6 0.000000 0.000000 0.000000 0.000000 0.000000 0.205839
#
#
# Mechanical properties :
#
#
# Convention : Reuss Voigt Hill
#
# Bulk Modulus (GPa) = 32.64048 51.84009 42.24028
# Shear Modulus (GPa) = 8.37468 12.57237 10.47353
#
# Velocity S-wave (km/s) = 2.38186 2.91837 2.66366
# Velocity P-wave (km/s) = 5.44756 6.81717 6.17049
#
# Compressibility (1/GPa) = 0.03063680
#
# Stress axis : x y z
#
# Youngs Moduli (GPa) = 31.41812 38.73982 76.70680
#
# Poissons Ratio (x) = 0.09340 0.71754
# Poissons Ratio (y) = 0.07575 0.63326
# Poissons Ratio (z) = 0.29389 0.31982
#
# Static dielectric constant tensor:
#      x y z
#    x 2.576930 0.000000 0.000000 
#    y 0.000000 2.742440 0.000000 
#    z 0.000000 0.000000 3.073070 
# 
# 
# High freq. dielectric constant tensor:
#      x y z
#    x 1.516030 0.000000 0.000000 
#    y 0.000000 1.539990 0.000000 
#    z 0.000000 0.000000 1.563590 
# 
# From -- ./inp_files/25707.got.cif
#   From: 2010.03.12/outbox.cif.g09.slc.cpg/sg47_13_cif.got.tgz:25707.got - 2010.04.14 03:12:58.
