data_PCOD8200244
_publ_section_title
;
Structure prediction by ZEFSAII (Michael W. Deem and Ramdas Pophale) SiO2 
 PCOD8200244
Probable space group: P M M M
;
_chemical_formula_sum "Si O2"
_cell_formula_units_Z 52
_cell_length_a 12.126293
_cell_length_b 27.239358
_cell_length_c 9.256329
_cell_angle_alpha 90.000000
_cell_angle_beta 90.000000
_cell_angle_gamma 90.000000
_cell_volume 3057.480583
_symmetry_space_group_name_H-M "P M M M"
_symmetry_group_IT_number 47
_symmetry_cell_setting 'orthorhombic'
loop_
_space_group_symop_operation_xyz
x,y,z
-x,-y,z
x,-y,-z
-x,y,-z
-x,-y,-z
x,y,-z
-x,y,z
x,-y,z
loop_
_atom_site_type_symbol
_atom_site_label
_atom_site_fract_x
_atom_site_fract_y
_atom_site_fract_z
Si Si1 0.629051 0.709279 0.665975
Si Si2 0.375658 0.000000 0.327924
Si Si3 0.129452 0.555435 0.336897
Si Si4 0.706555 0.618030 0.829095
Si Si5 0.000000 0.055970 0.672103
Si Si6 0.500000 0.444851 0.828361
Si Si7 0.234430 0.091507 0.327832
Si Si8 0.376993 0.819179 0.328202
O O1 0.663950 0.701775 0.500000
O O2 0.500000 0.699163 0.686337
O O3 0.697951 0.672396 0.764619
O O4 0.657919 0.764375 0.719133
O O5 0.311268 0.047609 0.270033
O O6 0.500000 0.000000 0.266037
O O7 0.378326 0.000000 0.500000
O O8 0.169962 0.566348 0.500000
O O9 0.162268 0.500000 0.292844
O O10 0.181659 0.593367 0.225135
O O11 0.000000 0.562595 0.326431
O O12 0.606733 0.584110 0.772012
O O13 0.707962 0.622435 0.000000
O O14 0.890784 0.084220 0.729600
O O15 0.000000 0.054881 0.500000
O O16 0.000000 0.000000 0.730022
O O17 0.500000 0.500000 0.763794
O O18 0.500000 0.447026 0.000000
O O19 0.233716 0.091402 0.500000
O O20 0.286700 0.142282 0.267854
O O21 0.381829 0.821563 0.500000
O O22 0.500000 0.831870 0.268971
#
# Coordination Sequence:
#
# PCOD8200244 Si02
#       8
#     8   4   8   8   4   4   8   8
#     4   9  17  30  47  65  89 123 160 197 238 284
#     4   9  14  17  25  43  67  94 126 170 217 260
#     4   9  19  36  55  74  98 128 161 197 236 279
#     4  11  20  31  50  74 101 130 160 196 238 285
#     4   9  14  20  28  42  68 104 137 167 210 269
#     4   9  18  30  43  67 103 131 149 180 229 278
#     4   9  14  20  30  45  68  98 135 175 216 266
#     4   8  14  24  38  54  71  99 143 190 228 263
#
# _framework density 17.007466000000001
#
# number of rings (size 3 to 8) (size 9 to 14) (size 15 to 20)
#    0.000    2.846    1.538    2.769    0.000    3.077 
#    0.000    0.769    1.692    1.846    0.000    0.000 
#    0.000    0.000    0.000    0.692    0.000    9.231 
#
# Total GULP energy -644605.949869 kJ/mol
# GULP energy per Si atom -12396.268267 kJ/mol
# Density = 1.696876 g / cm^3
# Si number density = 17.007466 Si / 1000 Ang^3
#
#
#
# Elastic Constant Matrix: (Units=GPa)
#
#
# Indices 1 2 3 4 5 6 
#
# 1 108.5503 74.2229 25.0238 0.0000 0.0000 0.0000
# 2 74.2229 151.3076 34.7333 0.0000 0.0000 0.0000
# 3 25.0238 34.7333 35.6829 0.0000 0.0000 0.0000
# 4 0.0000 0.0000 0.0000 5.7261 0.0000 0.0000
# 5 0.0000 0.0000 0.0000 0.0000 13.2007 0.0000
# 6 0.0000 0.0000 0.0000 0.0000 0.0000 28.3064
#
#
#
# Elastic Compliance Matrix: (Units=1/GPa)
#
#
# Indices 1 2 3 4 5 6 
#
# 1 0.014319 -0.006077 -0.004126 0.000000 0.000000 0.000000
# 2 -0.006077 0.011090 -0.006533 0.000000 0.000000 0.000000
# 3 -0.004126 -0.006533 0.037278 0.000000 0.000000 0.000000
# 4 0.000000 0.000000 0.000000 0.174638 0.000000 0.000000
# 5 0.000000 0.000000 0.000000 0.000000 0.075754 0.000000
# 6 0.000000 0.000000 0.000000 0.000000 0.000000 0.035328
#
#
# Mechanical properties :
#
#
# Convention : Reuss Voigt Hill
#
# Bulk Modulus (GPa) = 34.23069 62.61121 48.42095
# Shear Modulus (GPa) = 12.76763 20.21734 16.49248
#
# Velocity S-wave (km/s) = 2.74288 3.45154 3.11741
# Velocity P-wave (km/s) = 5.49561 7.26485 6.44126
#
# Compressibility (1/GPa) = 0.02921355
#
# Stress axis : x y z
#
# Youngs Moduli (GPa) = 69.83935 90.17463 26.82572
#
# Poissons Ratio (x) = 0.54796 0.11070
# Poissons Ratio (y) = 0.42439 0.17525
# Poissons Ratio (z) = 0.28819 0.58911
#
# Static dielectric constant tensor:
#      x y z
#    x 3.243320 0.000000 0.000000 
#    y 0.000000 3.378450 0.000000 
#    z 0.000000 0.000000 2.618360 
# 
# 
# High freq. dielectric constant tensor:
#      x y z
#    x 1.649960 0.000000 0.000000 
#    y 0.000000 1.663200 0.000000 
#    z 0.000000 0.000000 1.596230 
# 
# From -- ./inp_files/4667.got.cif
#   From: 2010.03.12/outbox.cif.g09.slc.cpg/sg47_3_cif.got.tgz:4667.got - 2010.04.14 03:12:58.
