data_PCOD8200915
_publ_section_title
;
Structure prediction by ZEFSAII (Michael W. Deem and Ramdas Pophale) SiO2 
 PCOD8200915
Probable space group: P M M M
;
_chemical_formula_sum "Si O2"
_cell_formula_units_Z 52
_cell_length_a 9.962585
_cell_length_b 33.577148
_cell_length_c 9.588904
_cell_angle_alpha 90.000000
_cell_angle_beta 90.000000
_cell_angle_gamma 90.000000
_cell_volume 3207.634053
_symmetry_space_group_name_H-M "P M M M"
_symmetry_group_IT_number 47
_symmetry_cell_setting 'orthorhombic'
loop_
_space_group_symop_operation_xyz
x,y,z
-x,-y,z
x,-y,-z
-x,y,-z
-x,-y,-z
x,y,-z
-x,y,z
x,-y,z
loop_
_atom_site_type_symbol
_atom_site_label
_atom_site_fract_x
_atom_site_fract_y
_atom_site_fract_z
Si Si1 0.349757 0.274337 0.334039
Si Si2 0.159334 0.043904 0.156309
Si Si3 0.159699 0.428184 0.655609
Si Si4 0.349805 0.185724 0.665652
Si Si5 0.155426 0.117081 0.336329
Si Si6 0.149480 0.340183 0.333920
Si Si7 0.160279 0.500000 0.157462
O O1 0.343546 0.275758 0.500000
O O2 0.500000 0.284725 0.283189
O O3 0.309716 0.230006 0.281736
O O4 0.247768 0.306732 0.269530
O O5 0.212354 0.077413 0.262155
O O6 0.000000 0.043415 0.159933
O O7 0.212683 0.000000 0.201495
O O8 0.209536 0.053851 0.000000
O O9 0.216757 0.436795 0.500000
O O10 0.202857 0.384163 0.708459
O O11 0.216072 0.460985 0.762859
O O12 0.000000 0.429954 0.648902
O O13 0.347922 0.185386 0.500000
O O14 0.500000 0.174766 0.718355
O O15 0.241674 0.154114 0.722641
O O16 0.176056 0.110820 0.500000
O O17 0.000000 0.125350 0.299698
O O18 0.145109 0.337637 0.500000
O O19 0.000000 0.332648 0.273843
O O20 0.000000 0.500000 0.157211
O O21 0.216397 0.500000 0.000000
#
# Coordination Sequence:
#
# PCOD8200915 Si02
#       7
#     8   8   8   8   8   8   4
#     4   8  13  21  33  50  73 100 127 153 183 221
#     4   8  14  25  40  57  78 104 130 155 189 233
#     4   8  13  21  32  47  70  98 123 148 183 224
#     4   8  14  24  36  51  76 108 132 151 186 234
#     4   9  16  24  37  60  83 100 126 164 195 218
#     4   8  13  20  31  49  72  97 124 153 186 223
#     4   9  15  21  31  49  72  97 124 152 182 219
#
# _framework density 16.211326
#
# number of rings (size 3 to 8) (size 9 to 14) (size 15 to 20)
#    0.000    3.769    0.000    2.538    0.000    1.846 
#    0.000    4.615    0.000    0.923    0.000    4.846 
#    0.000   11.077    0.000    0.000    0.000    0.000 
#
# Total GULP energy -644286.887971 kJ/mol
# GULP energy per Si atom -12390.132461 kJ/mol
# Density = 1.617443 g / cm^3
# Si number density = 16.211326 Si / 1000 Ang^3
#
#
#
# Elastic Constant Matrix: (Units=GPa)
#
#
# Indices 1 2 3 4 5 6 
#
# 1 55.7271 67.7961 21.2762 0.0000 0.0000 0.0000
# 2 67.7961 173.9873 49.0690 0.0000 0.0000 0.0000
# 3 21.2762 49.0690 41.7387 0.0000 0.0000 0.0000
# 4 0.0000 0.0000 0.0000 3.7491 0.0000 0.0000
# 5 0.0000 0.0000 0.0000 0.0000 4.7074 0.0000
# 6 0.0000 0.0000 0.0000 0.0000 0.0000 7.0735
#
#
#
# Elastic Compliance Matrix: (Units=1/GPa)
#
#
# Indices 1 2 3 4 5 6 
#
# 1 0.034313 -0.012623 -0.002652 0.000000 0.000000 0.000000
# 2 -0.012623 0.013242 -0.009133 0.000000 0.000000 0.000000
# 3 -0.002652 -0.009133 0.036047 0.000000 0.000000 0.000000
# 4 0.000000 0.000000 0.000000 0.266731 0.000000 0.000000
# 5 0.000000 0.000000 0.000000 0.000000 0.212431 0.000000
# 6 0.000000 0.000000 0.000000 0.000000 0.000000 0.141372
#
#
# Mechanical properties :
#
#
# Convention : Reuss Voigt Hill
#
# Bulk Modulus (GPa) = 28.74568 60.85951 44.80260
# Shear Modulus (GPa) = 6.53982 11.99347 9.26665
#
# Velocity S-wave (km/s) = 2.01069 2.72291 2.39344
# Velocity P-wave (km/s) = 4.81257 6.89264 5.94430
#
# Compressibility (1/GPa) = 0.03478783
#
# Stress axis : x y z
#
# Youngs Moduli (GPa) = 29.14306 75.51766 27.74134
#
# Poissons Ratio (x) = 0.95325 0.07356
# Poissons Ratio (y) = 0.36787 0.25336
# Poissons Ratio (z) = 0.07727 0.68971
#
# Static dielectric constant tensor:
#      x y z
#    x 2.885600 0.000000 0.000000 
#    y 0.000000 3.578260 0.000000 
#    z 0.000000 0.000000 2.714060 
# 
# 
# High freq. dielectric constant tensor:
#      x y z
#    x 1.580000 0.000000 0.000000 
#    y 0.000000 1.640180 0.000000 
#    z 0.000000 0.000000 1.570690 
# 
# From -- ./inp_files/4804.got.cif
#   From: 2010.03.12/outbox.cif.g09.slc.cpg/sg47_3_cif.got.tgz:4804.got - 2010.04.14 03:12:58.
