data_PCOD8200738
_publ_section_title
;
Structure prediction by ZEFSAII (Michael W. Deem and Ramdas Pophale) SiO2 
 PCOD8200738
Probable space group: P M M M
;
_chemical_formula_sum "Si O2"
_cell_formula_units_Z 64
_cell_length_a 27.267092
_cell_length_b 18.135747
_cell_length_c 9.301862
_cell_angle_alpha 90.000000
_cell_angle_beta 90.000000
_cell_angle_gamma 90.000000
_cell_volume 4599.855238
_symmetry_space_group_name_H-M "P M M M"
_symmetry_group_IT_number 47
_symmetry_cell_setting 'orthorhombic'
loop_
_space_group_symop_operation_xyz
x,y,z
-x,-y,z
x,-y,-z
-x,y,-z
-x,-y,-z
x,y,-z
-x,y,z
x,-y,z
loop_
_atom_site_type_symbol
_atom_site_label
_atom_site_fract_x
_atom_site_fract_y
_atom_site_fract_z
Si Si1 0.551897 0.412448 0.160938
Si Si2 0.798814 0.797020 0.662726
Si Si3 0.945116 0.178979 0.164914
Si Si4 0.342923 0.583033 0.827857
Si Si5 0.844683 0.584375 0.166134
Si Si6 0.103561 0.298893 0.338200
Si Si7 0.147341 0.084690 0.168263
Si Si8 0.251679 0.323056 0.832358
O O1 0.500000 0.388006 0.238889
O O2 0.554096 0.500000 0.154216
O O3 0.603800 0.387608 0.232575
O O4 0.549912 0.380390 0.000000
O O5 0.782144 0.814226 0.500000
O O6 0.847102 0.747982 0.665967
O O7 0.810006 0.873252 0.744973
O O8 0.755888 0.752574 0.744383
O O9 0.938553 0.252684 0.258627
O O10 0.906519 0.115719 0.209303
O O11 0.000000 0.147913 0.190118
O O12 0.936682 0.201873 0.000000
O O13 0.331779 0.500000 0.771713
O O14 0.301130 0.638658 0.773448
O O15 0.344138 0.581588 0.000000
O O16 0.842205 0.500000 0.215397
O O17 0.887130 0.624090 0.257542
O O18 0.791868 0.619594 0.196620
O O19 0.858948 0.592332 0.000000
O O20 0.086398 0.315434 0.500000
O O21 0.148624 0.000000 0.215405
O O22 0.157926 0.094890 0.000000
O O23 0.255238 0.302754 0.000000
#
# Coordination Sequence:
#
# PCOD8200738 Si02
#       8
#     8   8   8   8   8   8   8   8
#     4   7   9  13  21  35  59  91 123 155 193 233
#     4   9  17  28  40  54  74 100 126 148 173 210
#     4   9  17  29  45  63  81 100 119 139 167 203
#     4   8  12  17  27  45  68  94 126 163 199 231
#     4   9  16  25  38  55  73  93 118 150 188 226
#     4   9  17  28  41  56  74  97 123 148 174 208
#     4   9  17  29  45  64  83 100 119 143 168 197
#     4   9  15  23  36  53  73  96 123 155 189 223
#
# _framework density 13.913481000000001
#
# number of rings (size 3 to 8) (size 9 to 14) (size 15 to 20)
#    0.000    3.375    0.000    2.250    0.000    5.500 
#    0.000    1.250    0.000    1.500    0.000    6.125 
#    0.000    0.500    0.000    3.125    0.000    3.125 
#
# Total GULP energy -792985.548343 kJ/mol
# GULP energy per Si atom -12390.399193 kJ/mol
# Density = 1.388181 g / cm^3
# Si number density = 13.913481 Si / 1000 Ang^3
#
#
#
# Elastic Constant Matrix: (Units=GPa)
#
#
# Indices 1 2 3 4 5 6 
#
# 1 79.8653 49.2433 28.8592 0.0000 0.0000 0.0000
# 2 49.2433 90.4695 41.2836 0.0000 0.0000 0.0000
# 3 28.8592 41.2836 51.8672 0.0000 0.0000 0.0000
# 4 0.0000 0.0000 0.0000 10.5908 0.0000 0.0000
# 5 0.0000 0.0000 0.0000 0.0000 6.1380 0.0000
# 6 0.0000 0.0000 0.0000 0.0000 0.0000 11.9520
#
#
#
# Elastic Compliance Matrix: (Units=1/GPa)
#
#
# Indices 1 2 3 4 5 6 
#
# 1 0.019295 -0.008800 -0.003732 0.000000 0.000000 0.000000
# 2 -0.008800 0.021371 -0.012114 0.000000 0.000000 0.000000
# 3 -0.003732 -0.012114 0.030999 0.000000 0.000000 0.000000
# 4 0.000000 0.000000 0.000000 0.094422 0.000000 0.000000
# 5 0.000000 0.000000 0.000000 0.000000 0.162919 0.000000
# 6 0.000000 0.000000 0.000000 0.000000 0.000000 0.083668
#
#
# Mechanical properties :
#
#
# Convention : Reuss Voigt Hill
#
# Bulk Modulus (GPa) = 44.69538 51.21938 47.95738
# Shear Modulus (GPa) = 10.65135 12.59054 11.62095
#
# Velocity S-wave (km/s) = 2.76984 3.01145 2.89317
# Velocity P-wave (km/s) = 6.51329 6.99889 6.76045
#
# Compressibility (1/GPa) = 0.02237368
#
# Stress axis : x y z
#
# Youngs Moduli (GPa) = 51.82618 46.79203 32.25929
#
# Poissons Ratio (x) = 0.41175 0.12039
# Poissons Ratio (y) = 0.45605 0.39080
# Poissons Ratio (z) = 0.19342 0.56685
#
# Static dielectric constant tensor:
#      x y z
#    x 2.905470 0.000000 0.000000 
#    y 0.000000 2.586100 0.000000 
#    z 0.000000 0.000000 2.626510 
# 
# 
# High freq. dielectric constant tensor:
#      x y z
#    x 1.513780 0.000000 0.000000 
#    y 0.000000 1.500070 0.000000 
#    z 0.000000 0.000000 1.511190 
# 
# From -- ./inp_files/10260.got.cif
#   From: 2010.03.12/outbox.cif.g09.slc.cpg/sg47_6_cif.got.tgz:10260.got - 2010.04.14 03:12:58.
