data_PCOD8200546
_publ_section_title
;
Structure prediction by ZEFSAII (Michael W. Deem and Ramdas Pophale) SiO2 
 PCOD8200546
Probable space group: P M M M
;
_chemical_formula_sum "Si O2"
_cell_formula_units_Z 28
_cell_length_a 7.777875
_cell_length_b 9.072593
_cell_length_c 19.137175
_cell_angle_alpha 90.000000
_cell_angle_beta 90.000000
_cell_angle_gamma 90.000000
_cell_volume 1350.424213
_symmetry_space_group_name_H-M "P M M M"
_symmetry_group_IT_number 47
_symmetry_cell_setting 'orthorhombic'
loop_
_space_group_symop_operation_xyz
x,y,z
-x,-y,z
x,-y,-z
-x,y,-z
-x,-y,-z
x,y,-z
-x,y,z
x,-y,z
loop_
_atom_site_type_symbol
_atom_site_label
_atom_site_fract_x
_atom_site_fract_y
_atom_site_fract_z
Si Si1 0.000000 0.330136 0.917622
Si Si2 0.306246 0.829639 0.841036
Si Si3 0.195479 0.665899 0.710594
Si Si4 0.701993 0.167738 0.421392
O O1 0.826236 0.256541 0.889674
O O2 0.000000 0.500000 0.894204
O O3 0.000000 0.311618 0.000000
O O4 0.500000 0.810633 0.870766
O O5 0.305502 0.767577 0.762215
O O6 0.252147 0.000000 0.839012
O O7 0.269024 0.500000 0.711765
O O8 0.201267 0.726103 0.631938
O O9 0.000000 0.668116 0.737540
O O10 0.753278 0.214758 0.500000
O O11 0.500000 0.184047 0.410208
O O12 0.759814 0.000000 0.407667
#
# Coordination Sequence:
#
# PCOD8200546 Si02
#       4
#     4   8   8   8
#     4  11  25  45  69  99 134 169 206 251 307 371
#     4  11  24  42  67  97 128 167 214 261 310 367
#     4  11  23  37  56  85 121 160 204 257 315 373
#     4   9  19  36  56  79 110 151 202 258 314 373
#
# _framework density 20.734224999999999
#
# number of rings (size 3 to 8) (size 9 to 14) (size 15 to 20)
#    0.000    1.571    1.429    3.857    0.000   10.857 
#    0.000    7.143    0.000    0.000    0.000    0.000 
#    0.000    0.000    0.000    0.000    0.000    0.000 
#
# Total GULP energy -347300.687896 kJ/mol
# GULP energy per Si atom -12403.595996 kJ/mol
# Density = 2.068703 g / cm^3
# Si number density = 20.734225 Si / 1000 Ang^3
#
#
#
# Elastic Constant Matrix: (Units=GPa)
#
#
# Indices 1 2 3 4 5 6 
#
# 1 96.5828 62.4615 41.2337 0.0000 0.0000 0.0000
# 2 62.4615 168.4943 72.2594 0.0000 0.0000 0.0000
# 3 41.2337 72.2594 102.3762 0.0000 0.0000 0.0000
# 4 0.0000 0.0000 0.0000 39.2452 0.0000 0.0000
# 5 0.0000 0.0000 0.0000 0.0000 26.8961 0.0000
# 6 0.0000 0.0000 0.0000 0.0000 0.0000 10.2640
#
#
#
# Elastic Compliance Matrix: (Units=1/GPa)
#
#
# Indices 1 2 3 4 5 6 
#
# 1 0.014184 -0.004027 -0.002870 0.000000 0.000000 0.000000
# 2 -0.004027 0.009655 -0.005192 0.000000 0.000000 0.000000
# 3 -0.002870 -0.005192 0.014589 0.000000 0.000000 0.000000
# 4 0.000000 0.000000 0.000000 0.025481 0.000000 0.000000
# 5 0.000000 0.000000 0.000000 0.000000 0.037180 0.000000
# 6 0.000000 0.000000 0.000000 0.000000 0.000000 0.097428
#
#
# Mechanical properties :
#
#
# Convention : Reuss Voigt Hill
#
# Bulk Modulus (GPa) = 70.18781 79.92916 75.05848
# Shear Modulus (GPa) = 21.98339 28.04763 25.01551
#
# Velocity S-wave (km/s) = 3.25968 3.68193 3.47722
# Velocity P-wave (km/s) = 6.93484 7.53051 7.23880
#
# Compressibility (1/GPa) = 0.01424749
#
# Stress axis : x y z
#
# Youngs Moduli (GPa) = 70.50445 103.57837 68.54505
#
# Poissons Ratio (x) = 0.41710 0.19675
# Poissons Ratio (y) = 0.28392 0.35592
# Poissons Ratio (z) = 0.20237 0.53783
#
# Static dielectric constant tensor:
#      x y z
#    x 3.637700 0.000000 0.000000 
#    y 0.000000 3.824000 0.000000 
#    z 0.000000 0.000000 3.720910 
# 
# 
# High freq. dielectric constant tensor:
#      x y z
#    x 1.813530 0.000000 0.000000 
#    y 0.000000 1.817120 0.000000 
#    z 0.000000 0.000000 1.811110 
# 
# From -- ./inp_files/843.got.cif
#   From: 2010.03.12/outbox.cif.g09.slc.cpg/sg47_1_cif.got.tgz:843.got - 2010.04.14 03:12:58.
