data_PCOD8200997
_publ_section_title
;
Structure prediction by ZEFSAII (Michael W. Deem and Ramdas Pophale) SiO2 
 PCOD8200997
Probable space group: P M M M
;
_chemical_formula_sum "Si O2"
_cell_formula_units_Z 48
_cell_length_a 9.199983
_cell_length_b 17.894587
_cell_length_c 23.185526
_cell_angle_alpha 90.000000
_cell_angle_beta 90.000000
_cell_angle_gamma 90.000000
_cell_volume 3817.030739
_symmetry_space_group_name_H-M "P M M M"
_symmetry_group_IT_number 47
_symmetry_cell_setting 'orthorhombic'
loop_
_space_group_symop_operation_xyz
x,y,z
-x,-y,z
x,-y,-z
-x,y,-z
-x,-y,-z
x,y,-z
-x,y,z
x,-y,z
loop_
_atom_site_type_symbol
_atom_site_label
_atom_site_fract_x
_atom_site_fract_y
_atom_site_fract_z
Si Si1 0.662351 0.500000 0.931085
Si Si2 0.170256 0.086378 0.836692
Si Si3 0.335744 0.911144 0.723013
Si Si4 0.164859 0.089119 0.611919
Si Si5 0.173099 0.804549 0.935984
Si Si6 0.335135 0.910968 0.500000
Si Si7 0.838851 0.359715 0.931550
O O1 0.500000 0.500000 0.906961
O O2 0.739013 0.425610 0.906257
O O3 0.665502 0.500000 0.000000
O O4 0.256238 0.115817 0.780993
O O5 0.228485 0.133192 0.891332
O O6 0.000000 0.099178 0.825326
O O7 0.203998 0.000000 0.849752
O O8 0.500000 0.879702 0.721631
O O9 0.246934 0.879571 0.668367
O O10 0.337039 0.000000 0.720523
O O11 0.250760 0.119224 0.556123
O O12 0.000000 0.119817 0.610965
O O13 0.163418 0.000000 0.612302
O O14 0.226021 0.722078 0.915522
O O15 0.000000 0.803524 0.938725
O O16 0.234413 0.823566 0.000000
O O17 0.500000 0.880065 0.500000
O O18 0.337224 0.000000 0.500000
O O19 0.000000 0.369881 0.905235
O O20 0.847730 0.365881 0.000000
#
# Coordination Sequence:
#
# PCOD8200997 Si02
#       7
#     4   8   8   8   8   4   8
#     4   9  15  21  31  49  69  83  97 119 145 176
#     4   9  16  25  37  51  64  79 103 136 171 203
#     4   9  16  25  35  45  58  77 101 129 161 196
#     4   9  15  22  32  45  60  77  98 124 153 185
#     4   8  14  24  37  52  67  82 103 132 164 199
#     4   9  15  21  29  43  63  83  99 115 143 186
#     4   8  13  22  35  48  63  84 105 121 143 182
#
# _framework density 12.57522
#
# number of rings (size 3 to 8) (size 9 to 14) (size 15 to 20)
#    0.000    3.333    0.000    2.500    0.000    6.333 
#    0.000    2.500    0.000    1.500    0.000    2.333 
#    0.000    0.000    0.000    0.000    0.000    0.000 
#
# Total GULP energy -594910.013371 kJ/mol
# GULP energy per Si atom -12393.958612 kJ/mol
# Density = 1.254660 g / cm^3
# Si number density = 12.575220 Si / 1000 Ang^3
#
#
#
# Elastic Constant Matrix: (Units=GPa)
#
#
# Indices 1 2 3 4 5 6 
#
# 1 83.5199 27.8557 46.2229 0.0000 0.0000 0.0000
# 2 27.8557 48.5114 36.5133 0.0000 0.0000 0.0000
# 3 46.2229 36.5133 92.6618 0.0000 0.0000 0.0000
# 4 0.0000 0.0000 0.0000 0.5120 0.0000 0.0000
# 5 0.0000 0.0000 0.0000 0.0000 13.6287 0.0000
# 6 0.0000 0.0000 0.0000 0.0000 0.0000 5.3550
#
#
#
# Elastic Compliance Matrix: (Units=1/GPa)
#
#
# Indices 1 2 3 4 5 6 
#
# 1 0.017320 -0.004894 -0.006711 0.000000 0.000000 0.000000
# 2 -0.004894 0.030688 -0.009652 0.000000 0.000000 0.000000
# 3 -0.006711 -0.009652 0.017943 0.000000 0.000000 0.000000
# 4 0.000000 0.000000 0.000000 1.953279 0.000000 0.000000
# 5 0.000000 0.000000 0.000000 0.000000 0.073374 0.000000
# 6 0.000000 0.000000 0.000000 0.000000 0.000000 0.186740
#
#
# Mechanical properties :
#
#
# Convention : Reuss Voigt Hill
#
# Bulk Modulus (GPa) = 42.66617 49.54186 46.10402
# Shear Modulus (GPa) = 2.14623 11.50589 6.82606
#
# Velocity S-wave (km/s) = 1.30783 3.02812 2.33237
# Velocity P-wave (km/s) = 6.02354 7.19083 6.63291
#
# Compressibility (1/GPa) = 0.02343777
#
# Stress axis : x y z
#
# Youngs Moduli (GPa) = 57.73811 32.58583 55.73234
#
# Poissons Ratio (x) = 0.15947 0.37403
# Poissons Ratio (y) = 0.28255 0.53790
# Poissons Ratio (z) = 0.38749 0.31450
#
# Static dielectric constant tensor:
#      x y z
#    x 2.642030 0.000000 0.000000 
#    y 0.000000 2.342110 0.000000 
#    z 0.000000 0.000000 2.538270 
# 
# 
# High freq. dielectric constant tensor:
#      x y z
#    x 1.478830 0.000000 0.000000 
#    y 0.000000 1.424550 0.000000 
#    z 0.000000 0.000000 1.455900 
# 
# From -- ./inp_files/29838.got.cif
#   From: 2010.03.12/outbox.cif.g09.slc.cpg/sg47_15_cif.got.tgz:29838.got - 2010.04.14 03:12:58.
