data_PCOD8200307
_publ_section_title
;
Structure prediction by ZEFSAII (Michael W. Deem and Ramdas Pophale) SiO2 
 PCOD8200307
Probable space group: P M M M
;
_chemical_formula_sum "Si O2"
_cell_formula_units_Z 52
_cell_length_a 9.118226
_cell_length_b 17.887878
_cell_length_c 18.068481
_cell_angle_alpha 90.000000
_cell_angle_beta 90.000000
_cell_angle_gamma 90.000000
_cell_volume 2947.072499
_symmetry_space_group_name_H-M "P M M M"
_symmetry_group_IT_number 47
_symmetry_cell_setting 'orthorhombic'
loop_
_space_group_symop_operation_xyz
x,y,z
-x,-y,z
x,-y,-z
-x,y,-z
-x,-y,-z
x,y,-z
-x,y,z
x,-y,z
loop_
_atom_site_type_symbol
_atom_site_label
_atom_site_fract_x
_atom_site_fract_y
_atom_site_fract_z
Si Si1 0.328860 0.351636 0.084432
Si Si2 0.327154 0.081099 0.267313
Si Si3 0.171726 0.287207 0.651040
Si Si4 0.328812 0.845477 0.417673
Si Si5 0.327844 0.765088 0.793803
Si Si6 0.167212 0.500000 0.087915
Si Si7 0.663264 0.416116 0.586516
O O1 0.500000 0.370125 0.090719
O O2 0.289183 0.275455 0.128843
O O3 0.244938 0.424205 0.117327
O O4 0.281851 0.335838 0.000000
O O5 0.500000 0.073752 0.265835
O O6 0.276780 0.099237 0.351860
O O7 0.279368 0.146778 0.209646
O O8 0.258293 0.000000 0.244943
O O9 0.241861 0.231687 0.590817
O O10 0.238679 0.277552 0.731759
O O11 0.209809 0.370710 0.627075
O O12 0.000000 0.273989 0.654102
O O13 0.296494 0.878963 0.500000
O O14 0.500000 0.827498 0.408680
O O15 0.500000 0.758977 0.776111
O O16 0.000000 0.500000 0.115643
O O17 0.179419 0.500000 0.000000
O O18 0.693364 0.414059 0.500000
O O19 0.500000 0.384263 0.603979
O O20 0.674728 0.500000 0.616792
#
# Coordination Sequence:
#
# PCOD8200307 Si02
#       7
#     8   8   8   8   8   4   8
#     4   9  17  31  52  75  98 127 164 199 231 278
#     4   8  14  26  46  71  96 123 159 201 239 279
#     4  11  21  31  45  66  93 122 155 196 240 284
#     4   9  17  29  46  67  91 122 159 197 239 288
#     4   9  18  33  51  70  94 126 161 194 235 287
#     4   9  17  29  47  73 103 129 152 185 232 279
#     4   9  18  33  51  67  85 116 158 199 238 282
#
# _framework density 17.644628000000001
#
# number of rings (size 3 to 8) (size 9 to 14) (size 15 to 20)
#    0.000    2.846    0.000    3.462    0.000    4.615 
#    1.385    2.308    0.000    7.846    0.000    7.538 
#    0.000    0.000    0.000    9.385    0.000   10.154 
#
# Total GULP energy -644392.153559 kJ/mol
# GULP energy per Si atom -12392.156799 kJ/mol
# Density = 1.760447 g / cm^3
# Si number density = 17.644628 Si / 1000 Ang^3
#
#
#
# Elastic Constant Matrix: (Units=GPa)
#
#
# Indices 1 2 3 4 5 6 
#
# 1 56.4066 36.2288 25.1499 0.0000 0.0000 0.0000
# 2 36.2288 147.0129 60.6282 0.0000 0.0000 0.0000
# 3 25.1499 60.6282 70.5371 0.0000 0.0000 0.0000
# 4 0.0000 0.0000 0.0000 21.8431 0.0000 0.0000
# 5 0.0000 0.0000 0.0000 0.0000 8.3122 0.0000
# 6 0.0000 0.0000 0.0000 0.0000 0.0000 5.5828
#
#
#
# Elastic Compliance Matrix: (Units=1/GPa)
#
#
# Indices 1 2 3 4 5 6 
#
# 1 0.022129 -0.003407 -0.004961 0.000000 0.000000 0.000000
# 2 -0.003407 0.011062 -0.008293 0.000000 0.000000 0.000000
# 3 -0.004961 -0.008293 0.023074 0.000000 0.000000 0.000000
# 4 0.000000 0.000000 0.000000 0.045781 0.000000 0.000000
# 5 0.000000 0.000000 0.000000 0.000000 0.120304 0.000000
# 6 0.000000 0.000000 0.000000 0.000000 0.000000 0.179123
#
#
# Mechanical properties :
#
#
# Convention : Reuss Voigt Hill
#
# Bulk Modulus (GPa) = 43.58943 57.55226 50.57084
# Shear Modulus (GPa) = 11.30087 17.27760 14.28924
#
# Velocity S-wave (km/s) = 2.53350 3.13261 2.84885
# Velocity P-wave (km/s) = 5.77199 6.76554 6.28842
#
# Compressibility (1/GPa) = 0.02294134
#
# Stress axis : x y z
#
# Youngs Moduli (GPa) = 45.18966 90.40096 43.33875
#
# Poissons Ratio (x) = 0.30801 0.21502
# Poissons Ratio (y) = 0.15397 0.35941
# Poissons Ratio (z) = 0.22421 0.74970
#
# Static dielectric constant tensor:
#      x y z
#    x 3.051990 0.000000 0.000000 
#    y 0.000000 3.698020 0.000000 
#    z 0.000000 0.000000 3.153490 
# 
# 
# High freq. dielectric constant tensor:
#      x y z
#    x 1.656930 0.000000 0.000000 
#    y 0.000000 1.683380 0.000000 
#    z 0.000000 0.000000 1.656230 
# 
# From -- ./inp_files/9563.got.cif
#   From: 2010.03.12/outbox.cif.g09.slc.cpg/sg47_5_cif.got.tgz:9563.got - 2010.04.14 03:12:58.
