data_PCOD8200316
_publ_section_title
;
Structure prediction by ZEFSAII (Michael W. Deem and Ramdas Pophale) SiO2 
 PCOD8200316
Probable space group: P M M M
;
_chemical_formula_sum "Si O2"
_cell_formula_units_Z 56
_cell_length_a 14.589018
_cell_length_b 23.316194
_cell_length_c 9.179028
_cell_angle_alpha 90.000000
_cell_angle_beta 90.000000
_cell_angle_gamma 90.000000
_cell_volume 3122.341597
_symmetry_space_group_name_H-M "P M M M"
_symmetry_group_IT_number 47
_symmetry_cell_setting 'orthorhombic'
loop_
_space_group_symop_operation_xyz
x,y,z
-x,-y,z
x,-y,-z
-x,y,-z
-x,-y,-z
x,y,-z
-x,y,z
x,-y,z
loop_
_atom_site_type_symbol
_atom_site_label
_atom_site_fract_x
_atom_site_fract_y
_atom_site_fract_z
Si Si1 0.275565 0.937237 0.171608
Si Si2 0.393470 0.706426 0.829035
Si Si3 0.895483 0.759152 0.669878
Si Si4 0.101925 0.872250 0.169504
Si Si5 0.397873 0.835073 0.173283
Si Si6 0.229289 0.346309 0.327517
Si Si7 0.103832 0.567297 0.832729
O O1 0.168809 0.925058 0.205628
O O2 0.335155 0.885618 0.241297
O O3 0.300523 0.000000 0.237806
O O4 0.293520 0.938691 0.000000
O O5 0.500000 0.693279 0.794367
O O6 0.368326 0.771248 0.775878
O O7 0.330225 0.661622 0.741512
O O8 0.374474 0.699285 0.000000
O O9 0.885692 0.770703 0.500000
O O10 0.860879 0.815829 0.750937
O O11 0.833002 0.706981 0.721666
O O12 0.000000 0.744791 0.713529
O O13 0.000000 0.889205 0.222880
O O14 0.103329 0.857466 0.000000
O O15 0.500000 0.848033 0.228582
O O16 0.393691 0.836034 0.000000
O O17 0.239104 0.351835 0.500000
O O18 0.179659 0.402781 0.267637
O O19 0.118661 0.500000 0.813672
O O20 0.000000 0.583866 0.784169
O O21 0.119054 0.585596 0.000000
#
# Coordination Sequence:
#
# PCOD8200316 Si02
#       7
#     8   8   8   8   8   8   8
#     4   9  16  24  36  57  84 112 143 184 234 285
#     4   9  18  33  52  72  96 129 167 206 248 295
#     4   9  18  31  45  65  95 126 155 190 236 290
#     4   9  17  28  42  60  82 112 151 191 231 278
#     4   8  14  25  41  61  85 114 149 189 235 288
#     4  11  21  31  49  77 106 134 163 201 250 297
#     4   9  19  36  56  78 106 141 178 209 235 272
#
# _framework density 17.935258000000001
#
# number of rings (size 3 to 8) (size 9 to 14) (size 15 to 20)
#    0.000    2.857    0.000    3.000    0.000    4.286 
#    0.000    5.000    0.000    0.857    0.000    5.000 
#    0.000    0.000    0.000   12.286    0.000   10.000 
#
# Total GULP energy -694161.586592 kJ/mol
# GULP energy per Si atom -12395.742618 kJ/mol
# Density = 1.789444 g / cm^3
# Si number density = 17.935258 Si / 1000 Ang^3
#
#
#
# Elastic Constant Matrix: (Units=GPa)
#
#
# Indices 1 2 3 4 5 6 
#
# 1 104.3597 57.9817 36.4758 0.0000 0.0000 0.0000
# 2 57.9817 83.6391 32.6797 0.0000 0.0000 0.0000
# 3 36.4758 32.6797 41.1081 0.0000 0.0000 0.0000
# 4 0.0000 0.0000 0.0000 13.0896 0.0000 0.0000
# 5 0.0000 0.0000 0.0000 0.0000 17.9717 0.0000
# 6 0.0000 0.0000 0.0000 0.0000 0.0000 28.9592
#
#
#
# Elastic Compliance Matrix: (Units=1/GPa)
#
#
# Indices 1 2 3 4 5 6 
#
# 1 0.017414 -0.008754 -0.008493 0.000000 0.000000 0.000000
# 2 -0.008754 0.021744 -0.009518 0.000000 0.000000 0.000000
# 3 -0.008493 -0.009518 0.039428 0.000000 0.000000 0.000000
# 4 0.000000 0.000000 0.000000 0.076397 0.000000 0.000000
# 5 0.000000 0.000000 0.000000 0.000000 0.055643 0.000000
# 6 0.000000 0.000000 0.000000 0.000000 0.000000 0.034531
#
#
# Mechanical properties :
#
#
# Convention : Reuss Voigt Hill
#
# Bulk Modulus (GPa) = 39.90940 53.70904 46.80922
# Shear Modulus (GPa) = 16.28457 18.80208 17.54332
#
# Velocity S-wave (km/s) = 3.01651 3.24131 3.13093
# Velocity P-wave (km/s) = 5.86794 6.63469 6.26306
#
# Compressibility (1/GPa) = 0.02505675
#
# Stress axis : x y z
#
# Youngs Moduli (GPa) = 57.42425 45.99068 25.36238
#
# Poissons Ratio (x) = 0.40259 0.21540
# Poissons Ratio (y) = 0.50268 0.24140
# Poissons Ratio (z) = 0.48770 0.43774
#
# Static dielectric constant tensor:
#      x y z
#    x 3.460520 0.000000 0.000000 
#    y 0.000000 3.318660 0.000000 
#    z 0.000000 0.000000 2.947840 
# 
# 
# High freq. dielectric constant tensor:
#      x y z
#    x 1.699410 0.000000 0.000000 
#    y 0.000000 1.682920 0.000000 
#    z 0.000000 0.000000 1.656460 
# 
# From -- ./inp_files/7278.got.cif
#   From: 2010.03.12/outbox.cif.g09.slc.cpg/sg47_4_cif.got.tgz:7278.got - 2010.04.14 03:12:58.
