data_PCOD8200287
_publ_section_title
;
Structure prediction by ZEFSAII (Michael W. Deem and Ramdas Pophale) SiO2 
 PCOD8200287
Probable space group: P M M M
;
_chemical_formula_sum "Si O2"
_cell_formula_units_Z 64
_cell_length_a 28.087239
_cell_length_b 14.375688
_cell_length_c 9.422160
_cell_angle_alpha 90.000000
_cell_angle_beta 90.000000
_cell_angle_gamma 90.000000
_cell_volume 3804.417434
_symmetry_space_group_name_H-M "P M M M"
_symmetry_group_IT_number 47
_symmetry_cell_setting 'orthorhombic'
loop_
_space_group_symop_operation_xyz
x,y,z
-x,-y,z
x,-y,-z
-x,y,-z
-x,-y,-z
x,y,-z
-x,y,z
x,-y,z
loop_
_atom_site_type_symbol
_atom_site_label
_atom_site_fract_x
_atom_site_fract_y
_atom_site_fract_z
Si Si1 0.552249 0.389535 0.659543
Si Si2 0.874621 0.891106 0.340472
Si Si3 0.732462 0.274348 0.831927
Si Si4 0.804700 0.607735 0.339734
Si Si5 0.053523 0.228577 0.162783
Si Si6 0.765237 0.893501 0.334579
Si Si7 0.914979 0.605587 0.661781
Si Si8 0.358802 0.606637 0.165881
O O1 0.562203 0.354611 0.500000
O O2 0.500000 0.353393 0.710171
O O3 0.552200 0.500000 0.664731
O O4 0.594017 0.351598 0.760132
O O5 0.885051 0.855090 0.500000
O O6 0.909919 0.842234 0.232777
O O7 0.820107 0.869062 0.300274
O O8 0.884086 0.000000 0.331181
O O9 0.777143 0.331675 0.774579
O O10 0.731622 0.172580 0.759956
O O11 0.685024 0.329299 0.787396
O O12 0.737093 0.263637 0.000000
O O13 0.787413 0.630910 0.500000
O O14 0.795871 0.500000 0.305645
O O15 0.859831 0.633365 0.324906
O O16 0.054536 0.328883 0.237100
O O17 0.000000 0.188603 0.176782
O O18 0.068362 0.241008 0.000000
O O19 0.754716 0.876470 0.500000
O O20 0.753994 0.000000 0.293606
O O21 0.932040 0.618142 0.500000
O O22 0.923245 0.500000 0.711522
O O23 0.348233 0.500000 0.212739
O O24 0.368094 0.611977 0.000000
#
# Coordination Sequence:
#
# PCOD8200287 Si02
#       8
#     8   8   8   8   8   8   8   8
#     4   8  14  25  41  61  85 116 159 208 247 275
#     4   9  19  37  59  78  94 116 149 187 225 270
#     4  11  21  30  44  69 100 129 157 192 232 275
#     4   9  18  32  49  69  93 122 156 191 227 270
#     4  11  24  37  49  71 101 126 147 178 225 277
#     4   9  19  36  55  73  93 118 151 191 232 276
#     4   9  19  36  55  72  90 117 157 198 228 261
#     4   9  18  30  41  59  93 133 167 196 228 270
#
# _framework density 16.822551000000001
#
# number of rings (size 3 to 8) (size 9 to 14) (size 15 to 20)
#    0.000    2.625    0.000    3.750    0.000    8.250 
#    0.000    7.500    0.000    0.000    0.000    0.000 
#    0.000    0.500    0.000    5.500    0.000    4.250 
#
# Total GULP energy -793539.902329 kJ/mol
# GULP energy per Si atom -12399.060974 kJ/mol
# Density = 1.678426 g / cm^3
# Si number density = 16.822551 Si / 1000 Ang^3
#
#
#
# Elastic Constant Matrix: (Units=GPa)
#
#
# Indices 1 2 3 4 5 6 
#
# 1 81.0389 47.7033 51.7120 0.0000 0.0000 0.0000
# 2 47.7033 66.2251 44.0998 0.0000 0.0000 0.0000
# 3 51.7120 44.0998 81.6666 0.0000 0.0000 0.0000
# 4 0.0000 0.0000 0.0000 21.6261 0.0000 0.0000
# 5 0.0000 0.0000 0.0000 0.0000 30.7608 0.0000
# 6 0.0000 0.0000 0.0000 0.0000 0.0000 13.9872
#
#
#
# Elastic Compliance Matrix: (Units=1/GPa)
#
#
# Indices 1 2 3 4 5 6 
#
# 1 0.025595 -0.011936 -0.009761 0.000000 0.000000 0.000000
# 2 -0.011936 0.029145 -0.008180 0.000000 0.000000 0.000000
# 3 -0.009761 -0.008180 0.022843 0.000000 0.000000 0.000000
# 4 0.000000 0.000000 0.000000 0.046241 0.000000 0.000000
# 5 0.000000 0.000000 0.000000 0.000000 0.032509 0.000000
# 6 0.000000 0.000000 0.000000 0.000000 0.000000 0.071494
#
#
# Mechanical properties :
#
#
# Convention : Reuss Voigt Hill
#
# Bulk Modulus (GPa) = 56.09279 57.32896 56.71088
# Shear Modulus (GPa) = 17.03432 18.96918 18.00175
#
# Velocity S-wave (km/s) = 3.18557 3.36162 3.27478
# Velocity P-wave (km/s) = 6.85177 7.01570 6.93421
#
# Compressibility (1/GPa) = 0.01782760
#
# Stress axis : x y z
#
# Youngs Moduli (GPa) = 39.07032 34.31084 43.77691
#
# Poissons Ratio (x) = 0.40955 0.42732
# Poissons Ratio (y) = 0.46636 0.35810
# Poissons Ratio (z) = 0.38138 0.28067
#
# Static dielectric constant tensor:
#      x y z
#    x 3.196030 0.000000 0.000000 
#    y 0.000000 3.066320 0.000000 
#    z 0.000000 0.000000 3.145340 
# 
# 
# High freq. dielectric constant tensor:
#      x y z
#    x 1.634860 0.000000 0.000000 
#    y 0.000000 1.632270 0.000000 
#    z 0.000000 0.000000 1.648720 
# 
# From -- ./inp_files/14299.got.cif
#   From: 2010.03.12/outbox.cif.g09.slc.cpg/sg47_8_cif.got.tgz:14299.got - 2010.04.14 03:12:58.
