data_PCOD8200069
_publ_section_title
;
Structure prediction by ZEFSAII (Michael W. Deem and Ramdas Pophale) SiO2 
 PCOD8200069
Probable space group: P M M M
;
_chemical_formula_sum "Si O2"
_cell_formula_units_Z 48
_cell_length_a 19.511283
_cell_length_b 13.705274
_cell_length_c 8.640502
_cell_angle_alpha 90.000000
_cell_angle_beta 90.000000
_cell_angle_gamma 90.000000
_cell_volume 2310.534862
_symmetry_space_group_name_H-M "P M M M"
_symmetry_group_IT_number 47
_symmetry_cell_setting 'orthorhombic'
loop_
_space_group_symop_operation_xyz
x,y,z
-x,-y,z
x,-y,-z
-x,y,-z
-x,-y,-z
x,y,-z
-x,y,z
x,-y,z
loop_
_atom_site_type_symbol
_atom_site_label
_atom_site_fract_x
_atom_site_fract_y
_atom_site_fract_z
Si Si1 0.121273 0.000000 0.816145
Si Si2 0.640425 0.838359 0.322962
Si Si3 0.311159 0.347247 0.818247
Si Si4 0.500000 0.114067 0.817619
Si Si5 0.921875 0.206508 0.321522
Si Si6 0.728354 0.000000 0.821875
Si Si7 0.169356 0.608457 0.680679
Si Si8 0.423990 0.500000 0.180522
O O1 0.087605 0.898010 0.762234
O O2 0.197438 0.000000 0.741559
O O3 0.117818 0.000000 0.000000
O O4 0.638836 0.872334 0.500000
O O5 0.682006 0.740192 0.301505
O O6 0.564315 0.831685 0.256095
O O7 0.683625 0.908997 0.218876
O O8 0.239249 0.397514 0.779408
O O9 0.378173 0.408375 0.772525
O O10 0.312418 0.318828 0.000000
O O11 0.500000 0.000000 0.773526
O O12 0.500000 0.130162 0.000000
O O13 0.904629 0.188246 0.500000
O O14 0.876584 0.299117 0.259520
O O15 0.000000 0.239591 0.297025
O O16 0.744689 0.000000 0.000000
O O17 0.185622 0.623522 0.500000
O O18 0.134537 0.500000 0.704673
O O19 0.500000 0.500000 0.261320
O O20 0.436396 0.500000 0.000000
#
# Coordination Sequence:
#
# PCOD8200069 Si02
#       8
#     4   8   8   4   8   4   8   4
#     4  11  24  40  62  91 124 161 206 258 312 366
#     4  12  25  39  59  88 121 156 200 256 312 365
#     4  11  22  39  63  89 119 159 206 254 305 371
#     4  11  23  41  63  84 116 163 208 254 311 378
#     4  10  22  40  63  92 126 166 209 251 306 380
#     4  11  23  41  61  87 118 157 203 246 293 362
#     4  10  21  39  64  93 127 164 205 261 322 377
#     4   9  20  38  59  85 112 149 201 251 298 354
#
# _framework density 20.774411000000001
#
# number of rings (size 3 to 8) (size 9 to 14) (size 15 to 20)
#    0.000    1.333    1.667    4.000    1.167    6.667 
#    0.000    1.667    0.000    2.000    0.000    2.333 
#    0.000    0.000    0.000    0.000    0.000    0.000 
#
# Total GULP energy -594793.343601 kJ/mol
# GULP energy per Si atom -12391.527992 kJ/mol
# Density = 2.072713 g / cm^3
# Si number density = 20.774411 Si / 1000 Ang^3
#
#
#
# Elastic Constant Matrix: (Units=GPa)
#
#
# Indices 1 2 3 4 5 6 
#
# 1 126.7346 49.0061 23.6991 0.0000 0.0000 0.0000
# 2 49.0061 145.8961 23.3131 0.0000 0.0000 0.0000
# 3 23.6991 23.3131 59.7711 0.0000 0.0000 0.0000
# 4 0.0000 0.0000 0.0000 24.9631 0.0000 0.0000
# 5 0.0000 0.0000 0.0000 0.0000 29.2567 0.0000
# 6 0.0000 0.0000 0.0000 0.0000 0.0000 45.9588
#
#
#
# Elastic Compliance Matrix: (Units=1/GPa)
#
#
# Indices 1 2 3 4 5 6 
#
# 1 0.009454 -0.002748 -0.002677 0.000000 0.000000 0.000000
# 2 -0.002748 0.008108 -0.002073 0.000000 0.000000 0.000000
# 3 -0.002677 -0.002073 0.018600 0.000000 0.000000 0.000000
# 4 0.000000 0.000000 0.000000 0.040059 0.000000 0.000000
# 5 0.000000 0.000000 0.000000 0.000000 0.034180 0.000000
# 6 0.000000 0.000000 0.000000 0.000000 0.000000 0.021759
#
#
# Mechanical properties :
#
#
# Convention : Reuss Voigt Hill
#
# Bulk Modulus (GPa) = 47.24242 58.27093 52.75668
# Shear Modulus (GPa) = 32.42312 35.79462 34.10887
#
# Velocity S-wave (km/s) = 3.95489 4.15542 4.05639
# Velocity P-wave (km/s) = 6.60643 7.15078 6.88399
#
# Compressibility (1/GPa) = 0.02116742
#
# Stress axis : x y z
#
# Youngs Moduli (GPa) = 105.78078 123.32875 53.76238
#
# Poissons Ratio (x) = 0.33887 0.14390
# Poissons Ratio (y) = 0.29065 0.11146
# Poissons Ratio (z) = 0.28313 0.25568
#
# Static dielectric constant tensor:
#      x y z
#    x 4.006690 0.000000 0.000000 
#    y 0.000000 3.870800 0.000000 
#    z 0.000000 0.000000 3.580660 
# 
# 
# High freq. dielectric constant tensor:
#      x y z
#    x 1.820650 0.000000 0.000000 
#    y 0.000000 1.825910 0.000000 
#    z 0.000000 0.000000 1.800030 
# 
# From -- ./inp_files/9293.got.cif
#   From: 2010.03.12/outbox.cif.g09.slc.cpg/sg47_5_cif.got.tgz:9293.got - 2010.04.14 03:12:58.
