data_PCOD8200853
_publ_section_title
;
Structure prediction by ZEFSAII (Michael W. Deem and Ramdas Pophale) SiO2 
 PCOD8200853
Probable space group: P M M M
;
_chemical_formula_sum "Si O2"
_cell_formula_units_Z 48
_cell_length_a 9.403633
_cell_length_b 15.274186
_cell_length_c 25.432306
_cell_angle_alpha 90.000000
_cell_angle_beta 90.000000
_cell_angle_gamma 90.000000
_cell_volume 3652.914326
_symmetry_space_group_name_H-M "P M M M"
_symmetry_group_IT_number 47
_symmetry_cell_setting 'orthorhombic'
loop_
_space_group_symop_operation_xyz
x,y,z
-x,-y,z
x,-y,-z
-x,y,-z
-x,-y,-z
x,y,-z
-x,y,z
x,-y,z
loop_
_atom_site_type_symbol
_atom_site_label
_atom_site_fract_x
_atom_site_fract_y
_atom_site_fract_z
Si Si1 0.840408 0.395910 0.058281
Si Si2 0.660715 0.604538 0.844728
Si Si3 0.665531 0.740937 0.559738
Si Si4 0.160947 0.604084 0.745904
Si Si5 0.335280 0.399292 0.645127
Si Si6 0.839831 0.095995 0.562471
O O1 0.839684 0.500000 0.060170
O O2 0.731541 0.358717 0.101659
O O3 0.000000 0.362432 0.070866
O O4 0.793241 0.364007 0.000000
O O5 0.500000 0.640596 0.840891
O O6 0.660217 0.500000 0.844399
O O7 0.752321 0.640922 0.795845
O O8 0.715655 0.721976 0.500000
O O9 0.500000 0.761304 0.561827
O O10 0.705642 0.656105 0.593745
O O11 0.741319 0.826402 0.584495
O O12 0.159112 0.500000 0.748181
O O13 0.240154 0.635425 0.693214
O O14 0.000000 0.641086 0.746766
O O15 0.500000 0.387381 0.660914
O O16 0.301499 0.500000 0.631664
O O17 0.832778 0.096426 0.500000
O O18 0.000000 0.113292 0.581897
O O19 0.788286 0.000000 0.582789
#
# Coordination Sequence:
#
# PCOD8200853 Si02
#       6
#     8   8   8   8   8   8
#     4   8  13  20  28  38  54  75  96 119 151 192
#     4   9  15  21  30  43  57  73  95 125 161 199
#     4   9  17  27  39  56  74  91 112 137 167 204
#     4   9  16  25  36  47  58  75 103 137 169 200
#     4   9  17  28  39  50  67  90 114 141 172 205
#     4   8  14  25  40  56  73  92 111 131 159 196
#
# _framework density 13.140193
#
# number of rings (size 3 to 8) (size 9 to 14) (size 15 to 20)
#    0.000    3.333    0.000    2.000    0.000    5.667 
#    0.000    5.000    0.000    0.000    0.000    4.667 
#    0.000    0.000    0.000    0.000    0.000    0.000 
#
# Total GULP energy -594891.665545 kJ/mol
# GULP energy per Si atom -12393.576366 kJ/mol
# Density = 1.311029 g / cm^3
# Si number density = 13.140193 Si / 1000 Ang^3
#
#
#
# Elastic Constant Matrix: (Units=GPa)
#
#
# Indices 1 2 3 4 5 6 
#
# 1 86.3552 29.1075 56.7019 0.0000 0.0000 0.0000
# 2 29.1075 43.1836 31.6576 0.0000 0.0000 0.0000
# 3 56.7019 31.6576 90.5194 0.0000 0.0000 0.0000
# 4 0.0000 0.0000 0.0000 0.6020 0.0000 0.0000
# 5 0.0000 0.0000 0.0000 0.0000 23.0402 0.0000
# 6 0.0000 0.0000 0.0000 0.0000 0.0000 12.8209
#
#
#
# Elastic Compliance Matrix: (Units=1/GPa)
#
#
# Indices 1 2 3 4 5 6 
#
# 1 0.020766 -0.005999 -0.010910 0.000000 0.000000 0.000000
# 2 -0.005999 0.032874 -0.007739 0.000000 0.000000 0.000000
# 3 -0.010910 -0.007739 0.020588 0.000000 0.000000 0.000000
# 4 0.000000 0.000000 0.000000 1.661137 0.000000 0.000000
# 5 0.000000 0.000000 0.000000 0.000000 0.043402 0.000000
# 6 0.000000 0.000000 0.000000 0.000000 0.000000 0.077998
#
#
# Mechanical properties :
#
#
# Convention : Reuss Voigt Hill
#
# Bulk Modulus (GPa) = 40.10966 50.55468 45.33217
# Shear Modulus (GPa) = 2.61182 14.13203 8.37193
#
# Velocity S-wave (km/s) = 1.41137 3.28301 2.52687
# Velocity P-wave (km/s) = 5.76599 7.27514 6.56408
#
# Compressibility (1/GPa) = 0.02493165
#
# Stress axis : x y z
#
# Youngs Moduli (GPa) = 48.15670 30.41896 48.57236
#
# Poissons Ratio (x) = 0.18249 0.52990
# Poissons Ratio (y) = 0.28890 0.37592
# Poissons Ratio (z) = 0.52537 0.23542
#
# Static dielectric constant tensor:
#      x y z
#    x 2.819850 0.000000 0.000000 
#    y 0.000000 2.314200 0.000000 
#    z 0.000000 0.000000 2.693830 
# 
# 
# High freq. dielectric constant tensor:
#      x y z
#    x 1.510660 0.000000 0.000000 
#    y 0.000000 1.432070 0.000000 
#    z 0.000000 0.000000 1.490480 
# 
# From -- ./inp_files/4450.got.cif
#   From: 2010.03.12/outbox.cif.g09.slc.cpg/sg47_3_cif.got.tgz:4450.got - 2010.04.14 03:12:58.
