data_PCOD8200974
_publ_section_title
;
Structure prediction by ZEFSAII (Michael W. Deem and Ramdas Pophale) SiO2 
 PCOD8200974
Probable space group: P M M M
;
_chemical_formula_sum "Si O2"
_cell_formula_units_Z 40
_cell_length_a 26.024479
_cell_length_b 9.391089
_cell_length_c 9.369936
_cell_angle_alpha 90.000000
_cell_angle_beta 90.000000
_cell_angle_gamma 90.000000
_cell_volume 2289.995478
_symmetry_space_group_name_H-M "P M M M"
_symmetry_group_IT_number 47
_symmetry_cell_setting 'orthorhombic'
loop_
_space_group_symop_operation_xyz
x,y,z
-x,-y,z
x,-y,-z
-x,y,-z
-x,-y,-z
x,y,-z
-x,y,z
x,-y,z
loop_
_atom_site_type_symbol
_atom_site_label
_atom_site_fract_x
_atom_site_fract_y
_atom_site_fract_z
Si Si1 0.000000 0.159914 0.670468
Si Si2 0.094814 0.341287 0.330027
Si Si3 0.792252 0.330269 0.659328
Si Si4 0.697475 0.669450 0.160460
Si Si5 0.500000 0.160954 0.669546
Si Si6 0.401659 0.665463 0.666637
O O1 0.949207 0.237874 0.730696
O O2 0.000000 0.162288 0.500000
O O3 0.000000 0.000000 0.729796
O O4 0.092964 0.347024 0.500000
O O5 0.084978 0.500000 0.269078
O O6 0.151251 0.283948 0.283614
O O7 0.782320 0.269865 0.500000
O O8 0.790173 0.500000 0.653775
O O9 0.748619 0.268556 0.764124
O O10 0.699695 0.500000 0.159980
O O11 0.647774 0.720794 0.247567
O O12 0.694700 0.729952 0.000000
O O13 0.500000 0.161149 0.500000
O O14 0.550286 0.243786 0.724321
O O15 0.500000 0.000000 0.729837
O O16 0.391026 0.691655 0.500000
O O17 0.413402 0.500000 0.696578
#
# Coordination Sequence:
#
# PCOD8200974 Si02
#       6
#     4   8   8   8   4   8
#     4   9  15  21  31  51  80 107 128 160 208 249
#     4   8  13  21  34  52  75 104 135 163 194 239
#     4   8  13  22  37  57  80 107 139 171 203 244
#     4   9  16  25  39  62  89 112 136 171 212 247
#     4   9  17  29  46  67  88 110 140 177 210 240
#     4   9  16  27  45  67  89 113 140 169 203 246
#
# _framework density 17.467283999999999
#
# number of rings (size 3 to 8) (size 9 to 14) (size 15 to 20)
#    0.000    3.400    0.000    2.400    0.000    4.800 
#    0.000    0.500    0.000    4.800    0.000    6.300 
#    0.000    5.600    0.000    0.000    0.000    0.000 
#
# Total GULP energy -495777.406080 kJ/mol
# GULP energy per Si atom -12394.435152 kJ/mol
# Density = 1.742753 g / cm^3
# Si number density = 17.467284 Si / 1000 Ang^3
#
#
#
# Elastic Constant Matrix: (Units=GPa)
#
#
# Indices 1 2 3 4 5 6 
#
# 1 201.2463 63.9913 60.5776 0.0000 0.0000 0.0000
# 2 63.9913 64.0442 22.0525 0.0000 0.0000 0.0000
# 3 60.5776 22.0525 60.3060 0.0000 0.0000 0.0000
# 4 0.0000 0.0000 0.0000 5.4064 0.0000 0.0000
# 5 0.0000 0.0000 0.0000 0.0000 4.0284 0.0000
# 6 0.0000 0.0000 0.0000 0.0000 0.0000 4.2509
#
#
#
# Elastic Compliance Matrix: (Units=1/GPa)
#
#
# Indices 1 2 3 4 5 6 
#
# 1 0.009164 -0.006849 -0.006701 0.000000 0.000000 0.000000
# 2 -0.006849 0.022982 -0.001524 0.000000 0.000000 0.000000
# 3 -0.006701 -0.001524 0.023870 0.000000 0.000000 0.000000
# 4 0.000000 0.000000 0.000000 0.184966 0.000000 0.000000
# 5 0.000000 0.000000 0.000000 0.000000 0.248238 0.000000
# 6 0.000000 0.000000 0.000000 0.000000 0.000000 0.235247
#
#
# Mechanical properties :
#
#
# Convention : Reuss Voigt Hill
#
# Bulk Modulus (GPa) = 38.65666 68.75992 53.70829
# Shear Modulus (GPa) = 6.55104 14.66881 10.60993
#
# Velocity S-wave (km/s) = 1.93871 2.90105 2.46726
# Velocity P-wave (km/s) = 5.21444 7.11842 6.23948
#
# Compressibility (1/GPa) = 0.02586876
#
# Stress axis : x y z
#
# Youngs Moduli (GPa) = 109.12513 43.51152 41.89328
#
# Poissons Ratio (x) = 0.29801 0.28071
# Poissons Ratio (y) = 0.74740 0.06386
# Poissons Ratio (z) = 0.73120 0.06632
#
# Static dielectric constant tensor:
#      x y z
#    x 3.636490 0.000000 0.000000 
#    y 0.000000 2.933340 0.000000 
#    z 0.000000 0.000000 2.934260 
# 
# 
# High freq. dielectric constant tensor:
#      x y z
#    x 1.696300 0.000000 0.000000 
#    y 0.000000 1.625380 0.000000 
#    z 0.000000 0.000000 1.625400 
# 
# From -- ./inp_files/13084.got.cif
#   From: 2010.03.12/outbox.cif.g09.slc.cpg/sg47_7_cif.got.tgz:13084.got - 2010.04.14 03:12:58.
