data_PCOD8200421
_publ_section_title
;
Structure prediction by ZEFSAII (Michael W. Deem and Ramdas Pophale) SiO2 
 PCOD8200421
Probable space group: P M M M
;
_chemical_formula_sum "Si O2"
_cell_formula_units_Z 40
_cell_length_a 16.725677
_cell_length_b 7.776482
_cell_length_c 14.463208
_cell_angle_alpha 90.000000
_cell_angle_beta 90.000000
_cell_angle_gamma 90.000000
_cell_volume 1881.185007
_symmetry_space_group_name_H-M "P M M M"
_symmetry_group_IT_number 47
_symmetry_cell_setting 'orthorhombic'
loop_
_space_group_symop_operation_xyz
x,y,z
-x,-y,z
x,-y,-z
-x,y,-z
-x,-y,-z
x,y,-z
-x,y,z
x,-y,z
loop_
_atom_site_type_symbol
_atom_site_label
_atom_site_fract_x
_atom_site_fract_y
_atom_site_fract_z
Si Si1 0.000000 0.295279 0.105431
Si Si2 0.906951 0.198844 0.601953
Si Si3 0.671665 0.804378 0.786474
Si Si4 0.590509 0.500000 0.108898
Si Si5 0.154707 0.693451 0.212730
Si Si6 0.410224 0.796624 0.398509
O O1 0.079623 0.224803 0.156681
O O2 0.000000 0.500000 0.111639
O O3 0.000000 0.229426 0.000000
O O4 0.873216 0.244577 0.500000
O O5 0.863364 0.312951 0.678125
O O6 0.000000 0.241028 0.605009
O O7 0.890700 0.000000 0.624546
O O8 0.631495 0.675230 0.857800
O O9 0.766581 0.805599 0.803932
O O10 0.650176 0.737579 0.682584
O O11 0.640426 0.000000 0.802406
O O12 0.500000 0.500000 0.144657
O O13 0.596228 0.500000 0.000000
O O14 0.171518 0.500000 0.178305
O O15 0.383092 0.725332 0.500000
O O16 0.500000 0.729776 0.375974
O O17 0.410826 0.000000 0.403166
#
# Coordination Sequence:
#
# PCOD8200421 Si02
#       6
#     4   8   8   4   8   8
#     4   9  20  38  60  83 112 157 207 259 325 385
#     4   9  18  33  54  80 116 165 215 263 314 369
#     4  11  23  41  66  97 133 171 209 258 320 384
#     4  11  26  48  71  96 128 163 209 270 323 380
#     4  11  21  37  59  90 123 160 208 266 318 373
#     4   8  15  31  58  91 125 163 206 249 298 364
#
# _framework density 21.263193000000001
#
# number of rings (size 3 to 8) (size 9 to 14) (size 15 to 20)
#    0.000    2.200    2.000    2.400    0.000    3.600 
#    0.000    4.500    0.000    6.000    0.000    0.000 
#    0.000    0.000    0.000    0.000    0.000    0.000 
#
# Total GULP energy -495850.137797 kJ/mol
# GULP energy per Si atom -12396.253445 kJ/mol
# Density = 2.121480 g / cm^3
# Si number density = 21.263193 Si / 1000 Ang^3
#
#
#
# Elastic Constant Matrix: (Units=GPa)
#
#
# Indices 1 2 3 4 5 6 
#
# 1 133.2700 25.3508 64.5365 0.0000 0.0000 0.0000
# 2 25.3508 68.1734 23.2118 0.0000 0.0000 0.0000
# 3 64.5365 23.2118 113.0704 0.0000 0.0000 0.0000
# 4 0.0000 0.0000 0.0000 26.5140 0.0000 0.0000
# 5 0.0000 0.0000 0.0000 0.0000 15.7356 0.0000
# 6 0.0000 0.0000 0.0000 0.0000 0.0000 38.3695
#
#
#
# Elastic Compliance Matrix: (Units=1/GPa)
#
#
# Indices 1 2 3 4 5 6 
#
# 1 0.010624 -0.002028 -0.005648 0.000000 0.000000 0.000000
# 2 -0.002028 0.016158 -0.002160 0.000000 0.000000 0.000000
# 3 -0.005648 -0.002160 0.012511 0.000000 0.000000 0.000000
# 4 0.000000 0.000000 0.000000 0.037716 0.000000 0.000000
# 5 0.000000 0.000000 0.000000 0.000000 0.063550 0.000000
# 6 0.000000 0.000000 0.000000 0.000000 0.000000 0.026062
#
#
# Mechanical properties :
#
#
# Convention : Reuss Voigt Hill
#
# Bulk Modulus (GPa) = 50.96097 60.07909 55.52003
# Shear Modulus (GPa) = 25.92929 29.55146 27.74037
#
# Velocity S-wave (km/s) = 3.49584 3.73204 3.61587
# Velocity P-wave (km/s) = 6.34928 6.84742 6.60305
#
# Compressibility (1/GPa) = 0.01962286
#
# Stress axis : x y z
#
# Youngs Moduli (GPa) = 94.12504 61.88954 79.93073
#
# Poissons Ratio (x) = 0.12550 0.45142
# Poissons Ratio (y) = 0.19086 0.17262
# Poissons Ratio (z) = 0.53158 0.13366
#
# Static dielectric constant tensor:
#      x y z
#    x 3.874810 0.000000 0.000000 
#    y 0.000000 3.490010 0.000000 
#    z 0.000000 0.000000 3.998340 
# 
# 
# High freq. dielectric constant tensor:
#      x y z
#    x 1.826130 0.000000 0.000000 
#    y 0.000000 1.811300 0.000000 
#    z 0.000000 0.000000 1.832610 
# 
# From -- ./inp_files/5746.got.cif
#   From: 2010.03.12/outbox.cif.g09.slc.cpg/sg47_3_cif.got.tgz:5746.got - 2010.04.14 03:12:58.
