data_PCOD8200457
_publ_section_title
;
Structure prediction by ZEFSAII (Michael W. Deem and Ramdas Pophale) SiO2 
 PCOD8200457
Probable space group: P M M M
;
_chemical_formula_sum "Si O2"
_cell_formula_units_Z 44
_cell_length_a 17.070002
_cell_length_b 8.846013
_cell_length_c 14.988278
_cell_angle_alpha 90.000000
_cell_angle_beta 90.000000
_cell_angle_gamma 90.000000
_cell_volume 2263.251855
_symmetry_space_group_name_H-M "P M M M"
_symmetry_group_IT_number 47
_symmetry_cell_setting 'orthorhombic'
loop_
_space_group_symop_operation_xyz
x,y,z
-x,-y,z
x,-y,-z
-x,y,-z
-x,-y,-z
x,y,-z
-x,y,z
x,-y,z
loop_
_atom_site_type_symbol
_atom_site_label
_atom_site_fract_x
_atom_site_fract_y
_atom_site_fract_z
Si Si1 0.193942 0.179075 0.748394
Si Si2 0.911583 0.677206 0.396865
Si Si3 0.359780 0.323593 0.231023
Si Si4 0.913166 0.820498 0.097130
Si Si5 0.500000 0.679543 0.897068
Si Si6 0.591470 0.166508 0.402441
O O1 0.157874 0.239506 0.656168
O O2 0.279795 0.232711 0.775337
O O3 0.141032 0.248530 0.826907
O O4 0.193230 0.000000 0.744310
O O5 0.899062 0.718509 0.500000
O O6 0.902415 0.500000 0.380973
O O7 0.000000 0.728526 0.367728
O O8 0.344255 0.500000 0.217836
O O9 0.422385 0.264294 0.156582
O O10 0.390607 0.295123 0.330728
O O11 0.000000 0.754658 0.110841
O O12 0.915280 0.000000 0.104174
O O13 0.880729 0.771513 0.000000
O O14 0.500000 0.500000 0.897366
O O15 0.500000 0.740749 0.000000
O O16 0.626264 0.212438 0.500000
O O17 0.500000 0.151039 0.411733
O O18 0.625448 0.000000 0.374408
#
# Coordination Sequence:
#
# PCOD8200457 Si02
#       6
#     8   8   8   8   4   8
#     4  11  22  34  53  83 115 147 183 228 278 327
#     4   9  19  37  59  82 112 152 194 233 274 323
#     4  11  22  37  57  81 109 145 187 230 276 329
#     4   8  15  30  52  77 106 139 174 215 266 324
#     4   9  20  40  62  81 104 140 187 235 284 339
#     4   9  18  34  57  82 108 137 168 212 271 325
#
# _framework density 19.441054000000001
#
# number of rings (size 3 to 8) (size 9 to 14) (size 15 to 20)
#    0.000    2.455    0.909    3.273    0.000    3.273 
#    0.000    1.818    0.000    5.455    0.000    6.364 
#    0.000    0.000    0.000    0.000    0.000    0.000 
#
# Total GULP energy -545235.668935 kJ/mol
# GULP energy per Si atom -12391.719749 kJ/mol
# Density = 1.939681 g / cm^3
# Si number density = 19.441054 Si / 1000 Ang^3
#
#
#
# Elastic Constant Matrix: (Units=GPa)
#
#
# Indices 1 2 3 4 5 6 
#
# 1 124.8287 31.2679 72.7103 0.0000 0.0000 0.0000
# 2 31.2679 46.9173 34.1070 0.0000 0.0000 0.0000
# 3 72.7103 34.1070 144.2881 0.0000 0.0000 0.0000
# 4 0.0000 0.0000 0.0000 42.4067 0.0000 0.0000
# 5 0.0000 0.0000 0.0000 0.0000 15.3582 0.0000
# 6 0.0000 0.0000 0.0000 0.0000 0.0000 8.0856
#
#
#
# Elastic Compliance Matrix: (Units=1/GPa)
#
#
# Indices 1 2 3 4 5 6 
#
# 1 0.012036 -0.004362 -0.005034 0.000000 0.000000 0.000000
# 2 -0.004362 0.027317 -0.004259 0.000000 0.000000 0.000000
# 3 -0.005034 -0.004259 0.010474 0.000000 0.000000 0.000000
# 4 0.000000 0.000000 0.000000 0.023581 0.000000 0.000000
# 5 0.000000 0.000000 0.000000 0.000000 0.065112 0.000000
# 6 0.000000 0.000000 0.000000 0.000000 0.000000 0.123676
#
#
# Mechanical properties :
#
#
# Convention : Reuss Voigt Hill
#
# Bulk Modulus (GPa) = 44.41071 65.80050 55.10561
# Shear Modulus (GPa) = 16.83434 25.03337 20.93385
#
# Velocity S-wave (km/s) = 2.94584 3.59228 3.28500
# Velocity P-wave (km/s) = 5.87060 7.15022 6.54177
#
# Compressibility (1/GPa) = 0.02251709
#
# Stress axis : x y z
#
# Youngs Moduli (GPa) = 83.08559 36.60687 95.47240
#
# Poissons Ratio (x) = 0.15966 0.48062
# Poissons Ratio (y) = 0.36239 0.40665
# Poissons Ratio (z) = 0.41826 0.15592
#
# Static dielectric constant tensor:
#      x y z
#    x 3.815370 0.000000 0.000000 
#    y 0.000000 3.287420 0.000000 
#    z 0.000000 0.000000 4.061220 
# 
# 
# High freq. dielectric constant tensor:
#      x y z
#    x 1.755820 0.000000 0.000000 
#    y 0.000000 1.727340 0.000000 
#    z 0.000000 0.000000 1.766940 
# 
# From -- ./inp_files/6058.got.cif
#   From: 2010.03.12/outbox.cif.g09.slc.cpg/sg47_4_cif.got.tgz:6058.got - 2010.04.14 03:12:58.
