data_PCOD8200320
_publ_section_title
;
Structure prediction by ZEFSAII (Michael W. Deem and Ramdas Pophale) SiO2 
 PCOD8200320
Probable space group: P M M M
;
_chemical_formula_sum "Si O2"
_cell_formula_units_Z 40
_cell_length_a 15.576661
_cell_length_b 19.529816
_cell_length_c 9.192560
_cell_angle_alpha 90.000000
_cell_angle_beta 90.000000
_cell_angle_gamma 90.000000
_cell_volume 2796.462456
_symmetry_space_group_name_H-M "P M M M"
_symmetry_group_IT_number 47
_symmetry_cell_setting 'orthorhombic'
loop_
_space_group_symop_operation_xyz
x,y,z
-x,-y,z
x,-y,-z
-x,y,-z
-x,-y,-z
x,y,-z
-x,y,z
x,-y,z
loop_
_atom_site_type_symbol
_atom_site_label
_atom_site_fract_x
_atom_site_fract_y
_atom_site_fract_z
Si Si1 0.500000 0.918882 0.667059
Si Si2 0.397971 0.425388 0.335221
Si Si3 0.402639 0.295922 0.168438
Si Si4 0.813716 0.920473 0.672464
Si Si5 0.658718 0.852020 0.171649
Si Si6 0.000000 0.919280 0.658292
O O1 0.500000 0.893173 0.500000
O O2 0.416051 0.892533 0.748002
O O3 0.500000 0.000000 0.673150
O O4 0.367222 0.416342 0.500000
O O5 0.500000 0.423181 0.323791
O O6 0.366086 0.500000 0.276512
O O7 0.359320 0.361922 0.244977
O O8 0.500000 0.282823 0.223222
O O9 0.348112 0.228632 0.204880
O O10 0.402427 0.312832 0.000000
O O11 0.805486 0.905578 0.500000
O O12 0.749329 0.875102 0.765252
O O13 0.909251 0.899576 0.733668
O O14 0.794094 0.000000 0.702817
O O15 0.652177 0.867115 0.000000
O O16 0.000000 0.884195 0.500000
O O17 0.000000 0.000000 0.636031
#
# Coordination Sequence:
#
# PCOD8200320 Si02
#       6
#     4   8   8   8   8   4
#     4  11  23  35  45  57  74 103 146 185 211 244
#     4   8  14  24  38  57  77  96 125 166 205 236
#     4   9  17  29  40  52  75 107 140 167 196 239
#     4   9  17  30  47  65  82 103 136 173 210 255
#     4  11  21  32  43  59  84 111 138 173 213 247
#     4   7  12  26  47  65  81 101 126 165 212 253
#
# _framework density 14.303785
#
# number of rings (size 3 to 8) (size 9 to 14) (size 15 to 20)
#    0.000    2.800    1.000    3.300    0.000    5.600 
#    0.000    2.500    0.000    1.800    0.000    0.000 
#    0.000    0.000    0.000    0.900    0.000   17.600 
#
# Total GULP energy -495613.089993 kJ/mol
# GULP energy per Si atom -12390.327250 kJ/mol
# Density = 1.427123 g / cm^3
# Si number density = 14.303785 Si / 1000 Ang^3
#
#
#
# Elastic Constant Matrix: (Units=GPa)
#
#
# Indices 1 2 3 4 5 6 
#
# 1 92.7861 48.1684 40.6768 0.0000 0.0000 0.0000
# 2 48.1684 104.3559 55.0629 0.0000 0.0000 0.0000
# 3 40.6768 55.0629 66.6741 0.0000 0.0000 0.0000
# 4 0.0000 0.0000 0.0000 27.1535 0.0000 0.0000
# 5 0.0000 0.0000 0.0000 0.0000 6.7525 0.0000
# 6 0.0000 0.0000 0.0000 0.0000 0.0000 -1.0510
#
#
#
# Elastic Compliance Matrix: (Units=1/GPa)
#
#
# Indices 1 2 3 4 5 6 
#
# 1 0.015537 -0.003846 -0.006303 0.000000 0.000000 0.000000
# 2 -0.003846 0.017935 -0.012465 0.000000 0.000000 0.000000
# 3 -0.006303 -0.012465 0.029138 0.000000 0.000000 0.000000
# 4 0.000000 0.000000 0.000000 0.036828 0.000000 0.000000
# 5 0.000000 0.000000 0.000000 0.000000 0.148093 0.000000
# 6 0.000000 0.000000 0.000000 0.000000 0.000000 -0.951455
#
#
# Mechanical properties :
#
#
# Convention : Reuss Voigt Hill
#
# Bulk Modulus (GPa) = 57.53037 61.29249 59.41143
# Shear Modulus (GPa) = -7.65812 14.56486 3.45337
#
# Velocity S-wave (km/s) = -2.31636 3.19447 1.55549
# Velocity P-wave (km/s) = 5.75792 7.51996 6.69714
#
# Compressibility (1/GPa) = 0.01738212
#
# Stress axis : x y z
#
# Youngs Moduli (GPa) = 64.36193 55.75662 34.31944
#
# Poissons Ratio (x) = 0.21444 0.21631
# Poissons Ratio (y) = 0.24754 0.42780
# Poissons Ratio (z) = 0.40566 0.69502
#
# Static dielectric constant tensor:
#      x y z
#    x 2.767810 0.000000 0.000000 
#    y 0.000000 2.963030 0.000000 
#    z 0.000000 0.000000 2.805380 
# 
# 
# High freq. dielectric constant tensor:
#      x y z
#    x 1.510690 0.000000 0.000000 
#    y 0.000000 1.538570 0.000000 
#    z 0.000000 0.000000 1.543650 
# 
# From -- ./inp_files/6634.got.cif
#   From: 2010.03.12/outbox.cif.g09.slc.cpg/sg47_4_cif.got.tgz:6634.got - 2010.04.14 03:12:58.
