data_PCOD8200086
_publ_section_title
;
Structure prediction by ZEFSAII (Michael W. Deem and Ramdas Pophale) SiO2 
 PCOD8200086
Probable space group: P M M M
;
_chemical_formula_sum "Si O2"
_cell_formula_units_Z 64
_cell_length_a 9.435210
_cell_length_b 14.376578
_cell_length_c 25.865555
_cell_angle_alpha 90.000000
_cell_angle_beta 90.000000
_cell_angle_gamma 90.000000
_cell_volume 3508.559914
_symmetry_space_group_name_H-M "P M M M"
_symmetry_group_IT_number 47
_symmetry_cell_setting 'orthorhombic'
loop_
_space_group_symop_operation_xyz
x,y,z
-x,-y,z
x,-y,-z
-x,y,-z
-x,-y,-z
x,y,-z
-x,y,z
x,-y,z
loop_
_atom_site_type_symbol
_atom_site_label
_atom_site_fract_x
_atom_site_fract_y
_atom_site_fract_z
Si Si1 0.333780 0.106984 0.817717
Si Si2 0.345707 0.110181 0.701862
Si Si3 0.835928 0.287139 0.557323
Si Si4 0.336061 0.606578 0.643964
Si Si5 0.336438 0.609513 0.238552
Si Si6 0.162318 0.103085 0.391828
Si Si7 0.168015 0.396329 0.943015
Si Si8 0.169637 0.722395 0.846610
O O1 0.500000 0.120898 0.829748
O O2 0.298725 0.139267 0.759172
O O3 0.235672 0.174240 0.851889
O O4 0.290189 0.000000 0.827989
O O5 0.500000 0.153387 0.689197
O O6 0.238106 0.145866 0.658699
O O7 0.355735 0.000000 0.700829
O O8 0.783336 0.316450 0.500000
O O9 0.751024 0.337697 0.601760
O O10 0.813959 0.175309 0.561670
O O11 0.000000 0.312982 0.564365
O O12 0.500000 0.618142 0.630276
O O13 0.289086 0.500000 0.639929
O O14 0.306346 0.642160 0.702371
O O15 0.500000 0.630990 0.224177
O O16 0.305771 0.500000 0.232721
O O17 0.231565 0.666279 0.201936
O O18 0.000000 0.095368 0.376011
O O19 0.219981 0.000000 0.407551
O O20 0.227605 0.500000 0.932131
O O21 0.223059 0.327653 0.898810
O O22 0.000000 0.399594 0.941628
O O23 0.219181 0.362391 0.000000
O O24 0.000000 0.727534 0.841734
#
# Coordination Sequence:
#
# PCOD8200086 Si02
#       8
#     8   8   8   8   8   8   8   8
#     4   9  19  35  51  69 101 146 186 216 256 311
#     4   8  15  29  48  68  90 122 165 206 243 289
#     4  10  22  37  52  74 102 130 164 207 257 312
#     4   9  20  39  59  76  96 128 170 211 251 302
#     4   9  19  36  55  76 106 141 172 205 254 318
#     4   9  18  32  50  72  99 130 162 199 245 298
#     4   8  15  30  51  75 107 145 180 215 259 312
#     4  11  21  30  50  84 113 138 174 222 268 310
#
# _framework density 18.241102000000001
#
# number of rings (size 3 to 8) (size 9 to 14) (size 15 to 20)
#    0.000    2.875    0.000    2.625    1.750    3.500 
#    0.000    5.000    0.000    1.875    0.000    9.625 
#    0.000    0.000    0.000    0.000    0.000    0.000 
#
# Total GULP energy -793210.132933 kJ/mol
# GULP energy per Si atom -12393.908327 kJ/mol
# Density = 1.819958 g / cm^3
# Si number density = 18.241102 Si / 1000 Ang^3
#
#
#
# Elastic Constant Matrix: (Units=GPa)
#
#
# Indices 1 2 3 4 5 6 
#
# 1 59.9149 46.8945 49.0076 0.0000 0.0000 0.0000
# 2 46.8945 80.3603 63.4549 0.0000 0.0000 0.0000
# 3 49.0076 63.4549 118.9555 0.0000 0.0000 0.0000
# 4 0.0000 0.0000 0.0000 26.3041 0.0000 0.0000
# 5 0.0000 0.0000 0.0000 0.0000 -10.5868 0.0000
# 6 0.0000 0.0000 0.0000 0.0000 0.0000 29.2173
#
#
#
# Elastic Compliance Matrix: (Units=1/GPa)
#
#
# Indices 1 2 3 4 5 6 
#
# 1 0.032824 -0.014645 -0.005711 0.000000 0.000000 0.000000
# 2 -0.014645 0.028034 -0.008921 0.000000 0.000000 0.000000
# 3 -0.005711 -0.008921 0.015518 0.000000 0.000000 0.000000
# 4 0.000000 0.000000 0.000000 0.038017 0.000000 0.000000
# 5 0.000000 0.000000 0.000000 0.000000 -0.094457 0.000000
# 6 0.000000 0.000000 0.000000 0.000000 0.000000 0.034226
#
#
# Mechanical properties :
#
#
# Convention : Reuss Voigt Hill
#
# Bulk Modulus (GPa) = 56.10816 64.21607 60.16211
# Shear Modulus (GPa) = 42.13837 15.64517 28.89177
#
# Velocity S-wave (km/s) = 4.81154 2.93181 3.98412
# Velocity P-wave (km/s) = 7.85454 6.83675 7.36325
#
# Compressibility (1/GPa) = 0.01782272
#
# Stress axis : x y z
#
# Youngs Moduli (GPa) = 30.46552 35.67039 64.44157
#
# Poissons Ratio (x) = 0.52240 0.36800
# Poissons Ratio (y) = 0.44617 0.57488
# Poissons Ratio (z) = 0.17398 0.31821
#
# Static dielectric constant tensor:
#      x y z
#    x 3.283020 0.000000 0.000000 
#    y 0.000000 3.470380 0.000000 
#    z 0.000000 0.000000 3.469800 
# 
# 
# High freq. dielectric constant tensor:
#      x y z
#    x 1.688480 0.000000 0.000000 
#    y 0.000000 1.713220 0.000000 
#    z 0.000000 0.000000 1.692320 
# 
# From -- ./inp_files/32159.got.cif
#   From: 2010.03.12/outbox.cif.g09.slc.cpg/sg47_17_cif.got.tgz:32159.got - 2010.04.14 03:12:58.
