data_PCOD8200975
_publ_section_title
;
Structure prediction by ZEFSAII (Michael W. Deem and Ramdas Pophale) SiO2 
 PCOD8200975
Probable space group: P M M M
;
_chemical_formula_sum "Si O2"
_cell_formula_units_Z 52
_cell_length_a 17.306461
_cell_length_b 18.095638
_cell_length_c 9.287256
_cell_angle_alpha 90.000000
_cell_angle_beta 90.000000
_cell_angle_gamma 90.000000
_cell_volume 2908.503459
_symmetry_space_group_name_H-M "P M M M"
_symmetry_group_IT_number 47
_symmetry_cell_setting 'orthorhombic'
loop_
_space_group_symop_operation_xyz
x,y,z
-x,-y,z
x,-y,-z
-x,y,-z
-x,-y,-z
x,y,-z
-x,y,z
x,-y,z
loop_
_atom_site_type_symbol
_atom_site_label
_atom_site_fract_x
_atom_site_fract_y
_atom_site_fract_z
Si Si1 0.415230 0.361676 0.831835
Si Si2 0.412828 0.921549 0.670959
Si Si3 0.358895 0.770039 0.663215
Si Si4 0.090734 0.145818 0.332623
Si Si5 0.187245 0.714641 0.336921
Si Si6 0.908152 0.000000 0.165067
Si Si7 0.250300 0.417007 0.831176
O O1 0.500000 0.398666 0.796991
O O2 0.413410 0.282757 0.755330
O O3 0.340476 0.408881 0.779793
O O4 0.408029 0.347834 0.000000
O O5 0.410440 0.922873 0.500000
O O6 0.500000 0.912047 0.725709
O O7 0.363761 0.852561 0.728944
O O8 0.379073 0.000000 0.729407
O O9 0.389909 0.766718 0.500000
O O10 0.270764 0.749236 0.672626
O O11 0.112203 0.133157 0.500000
O O12 0.128902 0.222650 0.276229
O O13 0.122166 0.074468 0.244732
O O14 0.000000 0.155145 0.309749
O O15 0.164173 0.693465 0.500000
O O16 0.189965 0.639017 0.244575
O O17 0.000000 0.000000 0.172832
O O18 0.878980 0.000000 0.000000
O O19 0.224392 0.500000 0.791489
O O20 0.244468 0.401971 0.000000
#
# Coordination Sequence:
#
# PCOD8200975 Si02
#       7
#     8   8   8   8   8   4   8
#     4   9  17  28  43  64  88 115 147 184 226 273
#     4   8  13  21  34  53  76 103 137 176 216 254
#     4   9  16  27  42  61  84 110 145 187 229 270
#     4   9  17  31  50  71  98 130 160 191 231 280
#     4   9  18  31  47  70  93 117 153 192 233 279
#     4   9  17  29  47  73 101 127 158 193 228 269
#     4   9  18  32  49  68  91 122 155 188 233 284
#
# _framework density 17.878609999999998
#
# number of rings (size 3 to 8) (size 9 to 14) (size 15 to 20)
#    0.000    3.154    0.000    1.154    0.000    3.077 
#    1.385    1.538    0.000    0.923    0.000    9.692 
#    0.000    0.000    0.000    0.000    0.000    0.000 
#
# Total GULP energy -644217.734815 kJ/mol
# GULP energy per Si atom -12388.802593 kJ/mol
# Density = 1.783792 g / cm^3
# Si number density = 17.878610 Si / 1000 Ang^3
#
#
#
# Elastic Constant Matrix: (Units=GPa)
#
#
# Indices 1 2 3 4 5 6 
#
# 1 33.0543 32.2479 21.2296 0.0000 0.0000 0.0000
# 2 32.2479 154.1632 47.3258 0.0000 0.0000 0.0000
# 3 21.2296 47.3258 44.5299 0.0000 0.0000 0.0000
# 4 0.0000 0.0000 0.0000 22.8885 0.0000 0.0000
# 5 0.0000 0.0000 0.0000 0.0000 16.7776 0.0000
# 6 0.0000 0.0000 0.0000 0.0000 0.0000 22.5592
#
#
#
# Elastic Compliance Matrix: (Units=1/GPa)
#
#
# Indices 1 2 3 4 5 6 
#
# 1 0.045393 -0.004233 -0.017142 0.000000 0.000000 0.000000
# 2 -0.004233 0.010022 -0.008634 0.000000 0.000000 0.000000
# 3 -0.017142 -0.008634 0.039805 0.000000 0.000000 0.000000
# 4 0.000000 0.000000 0.000000 0.043690 0.000000 0.000000
# 5 0.000000 0.000000 0.000000 0.000000 0.059603 0.000000
# 6 0.000000 0.000000 0.000000 0.000000 0.000000 0.044328
#
#
# Mechanical properties :
#
#
# Convention : Reuss Voigt Hill
#
# Bulk Modulus (GPa) = 28.40703 48.15047 38.27875
# Shear Modulus (GPa) = 15.89350 21.17466 18.53408
#
# Velocity S-wave (km/s) = 2.98479 3.44518 3.22322
# Velocity P-wave (km/s) = 5.27276 6.54340 5.94214
#
# Compressibility (1/GPa) = 0.03520256
#
# Stress axis : x y z
#
# Youngs Moduli (GPa) = 22.02993 99.77553 25.12228
#
# Poissons Ratio (x) = 0.42233 0.43066
# Poissons Ratio (y) = 0.09325 0.21690
# Poissons Ratio (z) = 0.37765 0.86144
#
# Static dielectric constant tensor:
#      x y z
#    x 3.169680 0.000000 0.000000 
#    y 0.000000 3.754040 0.000000 
#    z 0.000000 0.000000 3.190860 
# 
# 
# High freq. dielectric constant tensor:
#      x y z
#    x 1.663500 0.000000 0.000000 
#    y 0.000000 1.698880 0.000000 
#    z 0.000000 0.000000 1.663830 
# 
# From -- ./inp_files/9554.got.cif
#   From: 2010.03.12/outbox.cif.g09.slc.cpg/sg47_5_cif.got.tgz:9554.got - 2010.04.14 03:12:58.
