data_PCOD8200942
_publ_section_title
;
Structure prediction by ZEFSAII (Michael W. Deem and Ramdas Pophale) SiO2 
 PCOD8200942
Probable space group: P M M M
;
_chemical_formula_sum "Si O2"
_cell_formula_units_Z 44
_cell_length_a 20.417828
_cell_length_b 17.665753
_cell_length_c 9.307500
_cell_angle_alpha 90.000000
_cell_angle_beta 90.000000
_cell_angle_gamma 90.000000
_cell_volume 3357.180870
_symmetry_space_group_name_H-M "P M M M"
_symmetry_group_IT_number 47
_symmetry_cell_setting 'orthorhombic'
loop_
_space_group_symop_operation_xyz
x,y,z
-x,-y,z
x,-y,-z
-x,y,-z
-x,-y,-z
x,y,-z
-x,y,z
x,-y,z
loop_
_atom_site_type_symbol
_atom_site_label
_atom_site_fract_x
_atom_site_fract_y
_atom_site_fract_z
Si Si1 0.075138 0.209447 0.833802
Si Si2 0.922103 0.355665 0.337413
Si Si3 0.180456 0.913696 0.166589
Si Si4 0.572295 0.909981 0.161349
Si Si5 0.693746 0.090199 0.338678
Si Si6 0.921851 0.500000 0.836795
O O1 0.101658 0.278726 0.738435
O O2 0.116864 0.135402 0.795081
O O3 0.000000 0.189968 0.797204
O O4 0.082824 0.232716 0.000000
O O5 0.894668 0.358935 0.500000
O O6 0.894657 0.426523 0.246819
O O7 0.000000 0.358721 0.338367
O O8 0.242156 0.881559 0.254508
O O9 0.164004 0.000000 0.209746
O O10 0.199219 0.907776 0.000000
O O11 0.500000 0.884056 0.215079
O O12 0.628325 0.876073 0.264553
O O13 0.576031 0.000000 0.161736
O O14 0.584593 0.880052 0.000000
O O15 0.696778 0.121810 0.500000
O O16 0.691309 0.000000 0.336144
O O17 0.000000 0.500000 0.838175
O O18 0.895005 0.500000 0.000000
#
# Coordination Sequence:
#
# PCOD8200942 Si02
#       6
#     8   8   8   8   8   4
#     4   9  17  28  40  53  68  86 112 148 187 222
#     4   9  16  25  37  53  72  91 109 131 164 207
#     4   9  17  28  40  51  64  86 116 150 187 223
#     4   8  13  21  33  48  65  84 104 127 159 200
#     4   9  16  24  34  48  65  84 107 137 171 207
#     4   9  15  23  37  55  73  91 109 129 156 195
#
# _framework density 13.106235
#
# number of rings (size 3 to 8) (size 9 to 14) (size 15 to 20)
#    0.000    3.182    0.000    1.909    0.000    6.909 
#    0.000    3.636    0.000    0.000    0.000    5.091 
#    0.000    0.000    0.000    0.000    0.000    0.000 
#
# Total GULP energy -545425.717025 kJ/mol
# GULP energy per Si atom -12396.039023 kJ/mol
# Density = 1.307640 g / cm^3
# Si number density = 13.106235 Si / 1000 Ang^3
#
#
#
# Elastic Constant Matrix: (Units=GPa)
#
#
# Indices 1 2 3 4 5 6 
#
# 1 73.4673 34.0136 46.0609 0.0000 0.0000 0.0000
# 2 34.0136 59.0293 41.2610 0.0000 0.0000 0.0000
# 3 46.0609 41.2610 93.3012 0.0000 0.0000 0.0000
# 4 0.0000 0.0000 0.0000 14.5139 0.0000 0.0000
# 5 0.0000 0.0000 0.0000 0.0000 13.0070 0.0000
# 6 0.0000 0.0000 0.0000 0.0000 0.0000 0.6659
#
#
#
# Elastic Compliance Matrix: (Units=1/GPa)
#
#
# Indices 1 2 3 4 5 6 
#
# 1 0.021662 -0.007247 -0.007489 0.000000 0.000000 0.000000
# 2 -0.007247 0.026945 -0.008338 0.000000 0.000000 0.000000
# 3 -0.007489 -0.008338 0.018103 0.000000 0.000000 0.000000
# 4 0.000000 0.000000 0.000000 0.068899 0.000000 0.000000
# 5 0.000000 0.000000 0.000000 0.000000 0.076882 0.000000
# 6 0.000000 0.000000 0.000000 0.000000 0.000000 1.501755
#
#
# Mechanical properties :
#
#
# Convention : Reuss Voigt Hill
#
# Bulk Modulus (GPa) = 48.63659 52.05208 50.34434
# Shear Modulus (GPa) = 2.82926 12.60151 7.71539
#
# Velocity S-wave (km/s) = 1.47085 3.10415 2.42891
# Velocity P-wave (km/s) = 6.33045 7.25599 6.80897
#
# Compressibility (1/GPa) = 0.02056065
#
# Stress axis : x y z
#
# Youngs Moduli (GPa) = 46.16341 37.11259 55.24037
#
# Poissons Ratio (x) = 0.26896 0.41371
# Poissons Ratio (y) = 0.33455 0.46061
# Poissons Ratio (z) = 0.34573 0.30945
#
# Static dielectric constant tensor:
#      x y z
#    x 2.531300 0.000000 0.000000 
#    y 0.000000 2.364460 0.000000 
#    z 0.000000 0.000000 2.829190 
# 
# 
# High freq. dielectric constant tensor:
#      x y z
#    x 1.469400 0.000000 0.000000 
#    y 0.000000 1.452430 0.000000 
#    z 0.000000 0.000000 1.510980 
# 
# From -- ./inp_files/10884.got.cif
#   From: 2010.03.12/outbox.cif.g09.slc.cpg/sg47_6_cif.got.tgz:10884.got - 2010.04.14 03:12:58.
