data_PCOD8200669
_publ_section_title
;
Structure prediction by ZEFSAII (Michael W. Deem and Ramdas Pophale) SiO2 
 PCOD8200669
Probable space group: P M M M
;
_chemical_formula_sum "Si O2"
_cell_formula_units_Z 52
_cell_length_a 9.516964
_cell_length_b 33.208147
_cell_length_c 10.058479
_cell_angle_alpha 90.000000
_cell_angle_beta 90.000000
_cell_angle_gamma 90.000000
_cell_volume 3178.889141
_symmetry_space_group_name_H-M "P M M M"
_symmetry_group_IT_number 47
_symmetry_cell_setting 'orthorhombic'
loop_
_space_group_symop_operation_xyz
x,y,z
-x,-y,z
x,-y,-z
-x,y,-z
-x,-y,-z
x,y,-z
-x,y,z
x,-y,z
loop_
_atom_site_type_symbol
_atom_site_label
_atom_site_fract_x
_atom_site_fract_y
_atom_site_fract_z
Si Si1 0.346773 0.000000 0.342685
Si Si2 0.336127 0.601996 0.346356
Si Si3 0.667172 0.307395 0.352634
Si Si4 0.162770 0.453373 0.151087
Si Si5 0.331389 0.913430 0.649616
Si Si6 0.667079 0.152728 0.148911
Si Si7 0.332739 0.757510 0.851410
O O1 0.270892 0.042378 0.304186
O O2 0.500000 0.000000 0.273975
O O3 0.366419 0.000000 0.500000
O O4 0.303442 0.592059 0.500000
O O5 0.500000 0.596610 0.316535
O O6 0.287079 0.647503 0.312637
O O7 0.252900 0.572007 0.253230
O O8 0.723728 0.296854 0.500000
O O9 0.500000 0.305053 0.352946
O O10 0.732594 0.275239 0.249504
O O11 0.196805 0.500000 0.175614
O O12 0.000000 0.444489 0.177749
O O13 0.202354 0.441467 0.000000
O O14 0.281378 0.903007 0.500000
O O15 0.500000 0.914927 0.654302
O O16 0.269002 0.879602 0.748105
O O17 0.500000 0.151139 0.153632
O O18 0.717888 0.197612 0.189397
O O19 0.719381 0.142322 0.000000
O O20 0.500000 0.755773 0.847271
O O21 0.279844 0.747231 0.000000
#
# Coordination Sequence:
#
# PCOD8200669 Si02
#       7
#     4   8   8   8   8   8   8
#     4   7  10  16  23  29  37  49  69 103 145 187
#     4   9  18  31  46  67  93 116 140 173 211 250
#     4   8  14  24  36  51  73  97 119 147 182 219
#     4   9  19  35  51  67  89 116 146 179 211 244
#     4   8  12  17  24  31  38  52  77 108 144 190
#     4   8  13  19  24  32  48  66  85 115 153 192
#     4   8  13  20  29  41  58  81 107 133 164 206
#
# _framework density 16.357915999999999
#
# number of rings (size 3 to 8) (size 9 to 14) (size 15 to 20)
#    0.000    3.769    0.000    3.231    0.000    2.462 
#    0.000    7.308    0.000    2.308    0.000    0.000 
#    0.000    0.000    0.000    0.000    0.000    0.000 
#
# Total GULP energy -644194.507119 kJ/mol
# GULP energy per Si atom -12388.355906 kJ/mol
# Density = 1.632068 g / cm^3
# Si number density = 16.357916 Si / 1000 Ang^3
#
#
#
# Elastic Constant Matrix: (Units=GPa)
#
#
# Indices 1 2 3 4 5 6 
#
# 1 15.7991 30.7576 28.1098 0.0000 0.0000 0.0000
# 2 30.7576 149.5832 106.8142 0.0000 0.0000 0.0000
# 3 28.1098 106.8142 123.1661 0.0000 0.0000 0.0000
# 4 0.0000 0.0000 0.0000 30.6712 0.0000 0.0000
# 5 0.0000 0.0000 0.0000 0.0000 12.5594 0.0000
# 6 0.0000 0.0000 0.0000 0.0000 0.0000 -1.8242
#
#
#
# Elastic Compliance Matrix: (Units=1/GPa)
#
#
# Indices 1 2 3 4 5 6 
#
# 1 0.115353 -0.012922 -0.015120 0.000000 0.000000 0.000000
# 2 -0.012922 0.019007 -0.013534 0.000000 0.000000 0.000000
# 3 -0.015120 -0.013534 0.023307 0.000000 0.000000 0.000000
# 4 0.000000 0.000000 0.000000 0.032604 0.000000 0.000000
# 5 0.000000 0.000000 0.000000 0.000000 0.079621 0.000000
# 6 0.000000 0.000000 0.000000 0.000000 0.000000 -0.548176
#
#
# Mechanical properties :
#
#
# Convention : Reuss Voigt Hill
#
# Bulk Modulus (GPa) = 13.42025 68.87910 41.14967
# Shear Modulus (GPa) = -29.36141 16.47239 -6.44451
#
# Velocity S-wave (km/s) = -4.24126 3.17677 -1.98702
# Velocity P-wave (km/s) = 3.97020 7.46021 4.46611
#
# Compressibility (1/GPa) = 0.07451426
#
# Stress axis : x y z
#
# Youngs Moduli (GPa) = 8.66903 52.61246 42.90492
#
# Poissons Ratio (x) = 0.67987 0.64872
# Poissons Ratio (y) = 0.11202 0.58069
# Poissons Ratio (z) = 0.13108 0.71207
#
# Static dielectric constant tensor:
#      x y z
#    x 2.340050 0.000000 0.000000 
#    y 0.000000 3.470440 0.000000 
#    z 0.000000 0.000000 3.254870 
# 
# 
# High freq. dielectric constant tensor:
#      x y z
#    x 1.544760 0.000000 0.000000 
#    y 0.000000 1.644860 0.000000 
#    z 0.000000 0.000000 1.628300 
# 
# From -- ./inp_files/15452.got.cif
#   From: 2010.03.12/outbox.cif.g09.slc.cpg/sg47_8_cif.got.tgz:15452.got - 2010.04.14 03:12:58.
