data_PCOD8200770
_publ_section_title
;
Structure prediction by ZEFSAII (Michael W. Deem and Ramdas Pophale) SiO2 
 PCOD8200770
Probable space group: P M M M
;
_chemical_formula_sum "Si O2"
_cell_formula_units_Z 52
_cell_length_a 14.521402
_cell_length_b 28.676074
_cell_length_c 9.271771
_cell_angle_alpha 90.000000
_cell_angle_beta 90.000000
_cell_angle_gamma 90.000000
_cell_volume 3860.921195
_symmetry_space_group_name_H-M "P M M M"
_symmetry_group_IT_number 47
_symmetry_cell_setting 'orthorhombic'
loop_
_space_group_symop_operation_xyz
x,y,z
-x,-y,z
x,-y,-z
-x,y,-z
-x,-y,-z
x,y,-z
-x,y,z
x,-y,z
loop_
_atom_site_type_symbol
_atom_site_label
_atom_site_fract_x
_atom_site_fract_y
_atom_site_fract_z
Si Si1 0.890513 0.227549 0.162718
Si Si2 0.789300 0.590115 0.328364
Si Si3 0.892812 0.681368 0.331509
Si Si4 0.890515 0.051513 0.161989
Si Si5 0.103696 0.500000 0.672018
Si Si6 0.109970 0.138824 0.662468
Si Si7 0.600538 0.552628 0.671417
O O1 0.857058 0.273750 0.244973
O O2 0.851603 0.182426 0.246206
O O3 0.000000 0.225746 0.161621
O O4 0.851557 0.227629 0.000000
O O5 0.794571 0.589928 0.500000
O O6 0.834340 0.637771 0.271046
O O7 0.845847 0.546001 0.267703
O O8 0.683255 0.585888 0.273140
O O9 0.875386 0.690660 0.500000
O O10 0.000000 0.670937 0.302228
O O11 0.850832 0.091048 0.268094
O O12 0.000000 0.053543 0.162452
O O13 0.857799 0.000000 0.213639
O O14 0.854699 0.061294 0.000000
O O15 0.105502 0.500000 0.500000
O O16 0.000000 0.500000 0.731119
O O17 0.147713 0.142588 0.500000
O O18 0.000000 0.138887 0.663385
O O19 0.602206 0.551627 0.500000
O O20 0.500000 0.570917 0.725260
O O21 0.617002 0.500000 0.728189
#
# Coordination Sequence:
#
# PCOD8200770 Si02
#       7
#     8   8   8   8   4   8   8
#     4   9  16  25  35  44  55  75 103 131 159 194
#     4   9  14  20  29  43  63  85 105 128 159 192
#     4   9  16  24  33  46  64  83 103 130 163 195
#     4   8  13  20  28  38  54  76 100 126 159 200
#     4   9  14  18  25  39  60  84 107 128 154 192
#     4   9  15  21  30  43  57  73  96 129 166 200
#     4   8  12  18  28  42  62  87 109 126 150 189
#
# _framework density 13.468287999999999
#
# number of rings (size 3 to 8) (size 9 to 14) (size 15 to 20)
#    0.000    3.308    0.769    2.308    0.000    5.846 
#    0.000    1.538    0.000    0.000    0.000    0.538 
#    0.000    3.692    0.000    1.692    0.000    1.538 
#
# Total GULP energy -644376.817520 kJ/mol
# GULP energy per Si atom -12391.861875 kJ/mol
# Density = 1.343763 g / cm^3
# Si number density = 13.468288 Si / 1000 Ang^3
#
#
#
# Elastic Constant Matrix: (Units=GPa)
#
#
# Indices 1 2 3 4 5 6 
#
# 1 53.7102 36.9051 15.6450 0.0000 0.0000 0.0000
# 2 36.9051 134.8583 52.5931 0.0000 0.0000 0.0000
# 3 15.6450 52.5931 60.3169 0.0000 0.0000 0.0000
# 4 0.0000 0.0000 0.0000 8.7896 0.0000 0.0000
# 5 0.0000 0.0000 0.0000 0.0000 2.2312 0.0000
# 6 0.0000 0.0000 0.0000 0.0000 0.0000 3.0474
#
#
#
# Elastic Compliance Matrix: (Units=1/GPa)
#
#
# Indices 1 2 3 4 5 6 
#
# 1 0.022951 -0.005999 -0.000722 0.000000 0.000000 0.000000
# 2 -0.005999 0.012804 -0.009608 0.000000 0.000000 0.000000
# 3 -0.000722 -0.009608 0.025144 0.000000 0.000000 0.000000
# 4 0.000000 0.000000 0.000000 0.113770 0.000000 0.000000
# 5 0.000000 0.000000 0.000000 0.000000 0.448190 0.000000
# 6 0.000000 0.000000 0.000000 0.000000 0.000000 0.328150
#
#
# Mechanical properties :
#
#
# Convention : Reuss Voigt Hill
#
# Bulk Modulus (GPa) = 35.41065 51.01910 43.21488
# Shear Modulus (GPa) = 5.03483 12.39645 8.71564
#
# Velocity S-wave (km/s) = 1.93556 3.03713 2.54662
# Velocity P-wave (km/s) = 5.59858 7.08957 6.38773
#
# Compressibility (1/GPa) = 0.02824009
#
# Stress axis : x y z
#
# Youngs Moduli (GPa) = 43.57142 78.10034 39.77023
#
# Poissons Ratio (x) = 0.46853 0.02872
# Poissons Ratio (y) = 0.26139 0.38213
# Poissons Ratio (z) = 0.03146 0.75042
#
# Static dielectric constant tensor:
#      x y z
#    x 2.412850 0.000000 0.000000 
#    y 0.000000 2.881130 0.000000 
#    z 0.000000 0.000000 2.504380 
# 
# 
# High freq. dielectric constant tensor:
#      x y z
#    x 1.447600 0.000000 0.000000 
#    y 0.000000 1.518750 0.000000 
#    z 0.000000 0.000000 1.487340 
# 
# From -- ./inp_files/8004.got.cif
#   From: 2010.03.12/outbox.cif.g09.slc.cpg/sg47_5_cif.got.tgz:8004.got - 2010.04.14 03:12:58.
