data_PCOD8200346
_publ_section_title
;
Structure prediction by ZEFSAII (Michael W. Deem and Ramdas Pophale) SiO2 
 PCOD8200346
Probable space group: P M M M
;
_chemical_formula_sum "Si O2"
_cell_formula_units_Z 40
_cell_length_a 7.744659
_cell_length_b 23.938021
_cell_length_c 13.704503
_cell_angle_alpha 90.000000
_cell_angle_beta 90.000000
_cell_angle_gamma 90.000000
_cell_volume 2540.702613
_symmetry_space_group_name_H-M "P M M M"
_symmetry_group_IT_number 47
_symmetry_cell_setting 'orthorhombic'
loop_
_space_group_symop_operation_xyz
x,y,z
-x,-y,z
x,-y,-z
-x,y,-z
-x,-y,-z
x,y,-z
-x,y,z
x,-y,z
loop_
_atom_site_type_symbol
_atom_site_label
_atom_site_fract_x
_atom_site_fract_y
_atom_site_fract_z
Si Si1 0.203130 0.261896 0.391849
Si Si2 0.807148 0.860778 0.384023
Si Si3 0.702877 0.436730 0.888767
Si Si4 0.500000 0.561418 0.614272
Si Si5 0.804109 0.627186 0.291980
Si Si6 0.500000 0.063053 0.616523
O O1 0.280996 0.276325 0.500000
O O2 0.265051 0.200923 0.354810
O O3 0.255258 0.308745 0.311912
O O4 0.000000 0.257841 0.403177
O O5 0.816641 0.863908 0.500000
O O6 0.672105 0.906314 0.343080
O O7 0.000000 0.872433 0.341111
O O8 0.500000 0.432992 0.869321
O O9 0.767069 0.500000 0.865724
O O10 0.795457 0.390382 0.821635
O O11 0.748118 0.421546 0.000000
O O12 0.500000 0.500000 0.660703
O O13 0.500000 0.559727 0.500000
O O14 0.323220 0.589000 0.647366
O O15 0.000000 0.618769 0.329868
O O16 0.500000 0.064179 0.500000
O O17 0.500000 0.000000 0.656628
#
# Coordination Sequence:
#
# PCOD8200346 Si02
#       6
#     8   8   8   4   8   4
#     4   8  15  28  44  62  84 111 144 178 212 254
#     4   8  14  25  38  51  73 105 137 171 209 244
#     4   9  18  34  53  69  88 113 141 178 222 269
#     4  11  24  37  46  62  89 117 145 175 215 269
#     4  11  21  33  51  71  89 111 144 184 223 263
#     4   9  16  23  33  53  76 100 138 179 209 240
#
# _framework density 15.743676000000001
#
# number of rings (size 3 to 8) (size 9 to 14) (size 15 to 20)
#    0.000    2.800    1.000    3.000    0.000    4.400 
#    0.000    6.000    0.000    0.000    0.000    0.000 
#    0.000    0.000    0.000    0.000    0.000    2.000 
#
# Total GULP energy -495643.587644 kJ/mol
# GULP energy per Si atom -12391.089691 kJ/mol
# Density = 1.570784 g / cm^3
# Si number density = 15.743676 Si / 1000 Ang^3
#
#
#
# Elastic Constant Matrix: (Units=GPa)
#
#
# Indices 1 2 3 4 5 6 
#
# 1 85.2381 56.4360 17.6851 0.0000 0.0000 0.0000
# 2 56.4360 146.3062 42.1979 0.0000 0.0000 0.0000
# 3 17.6851 42.1979 44.8832 0.0000 0.0000 0.0000
# 4 0.0000 0.0000 0.0000 1.2634 0.0000 0.0000
# 5 0.0000 0.0000 0.0000 0.0000 11.7683 0.0000
# 6 0.0000 0.0000 0.0000 0.0000 0.0000 22.7782
#
#
#
# Elastic Compliance Matrix: (Units=1/GPa)
#
#
# Indices 1 2 3 4 5 6 
#
# 1 0.015771 -0.005888 -0.000679 0.000000 0.000000 0.000000
# 2 -0.005888 0.011576 -0.008564 0.000000 0.000000 0.000000
# 3 -0.000679 -0.008564 0.030599 0.000000 0.000000 0.000000
# 4 0.000000 0.000000 0.000000 0.791489 0.000000 0.000000
# 5 0.000000 0.000000 0.000000 0.000000 0.084974 0.000000
# 6 0.000000 0.000000 0.000000 0.000000 0.000000 0.043902
#
#
# Mechanical properties :
#
#
# Convention : Reuss Voigt Hill
#
# Bulk Modulus (GPa) = 36.11966 56.56281 46.34124
# Shear Modulus (GPa) = 4.91256 17.83590 11.37423
#
# Velocity S-wave (km/s) = 1.76837 3.36950 2.69078
# Velocity P-wave (km/s) = 5.21168 7.15146 6.25719
#
# Compressibility (1/GPa) = 0.02768575
#
# Stress axis : x y z
#
# Youngs Moduli (GPa) = 63.40797 86.38565 32.68118
#
# Poissons Ratio (x) = 0.50861 0.02218
# Poissons Ratio (y) = 0.37333 0.27987
# Poissons Ratio (z) = 0.04303 0.73977
#
# Static dielectric constant tensor:
#      x y z
#    x 3.078000 0.000000 0.000000 
#    y 0.000000 3.294580 0.000000 
#    z 0.000000 0.000000 2.731770 
# 
# 
# High freq. dielectric constant tensor:
#      x y z
#    x 1.611540 0.000000 0.000000 
#    y 0.000000 1.599120 0.000000 
#    z 0.000000 0.000000 1.546250 
# 
# From -- ./inp_files/21261.got.cif
#   From: 2010.03.12/outbox.cif.g09.slc.cpg/sg47_11_cif.got.tgz:21261.got - 2010.04.14 03:12:58.
