data_PCOD8200226
_publ_section_title
;
Structure prediction by ZEFSAII (Michael W. Deem and Ramdas Pophale) SiO2 
 PCOD8200226
Probable space group: P M M M
;
_chemical_formula_sum "Si O2"
_cell_formula_units_Z 52
_cell_length_a 14.084375
_cell_length_b 9.258257
_cell_length_c 28.778573
_cell_angle_alpha 90.000000
_cell_angle_beta 90.000000
_cell_angle_gamma 90.000000
_cell_volume 3752.632775
_symmetry_space_group_name_H-M "P M M M"
_symmetry_group_IT_number 47
_symmetry_cell_setting 'orthorhombic'
loop_
_space_group_symop_operation_xyz
x,y,z
-x,-y,z
x,-y,-z
-x,y,-z
-x,-y,-z
x,y,-z
-x,y,z
x,-y,z
loop_
_atom_site_type_symbol
_atom_site_label
_atom_site_fract_x
_atom_site_fract_y
_atom_site_fract_z
Si Si1 0.891971 0.664670 0.945575
Si Si2 0.387618 0.331586 0.000000
Si Si3 0.386557 0.338225 0.361930
Si Si4 0.605158 0.171260 0.826439
Si Si5 0.387140 0.837762 0.551141
Si Si6 0.284402 0.171809 0.916885
Si Si7 0.613073 0.839098 0.274914
O O1 0.872087 0.500000 0.930052
O O2 0.824238 0.775194 0.918471
O O3 0.000000 0.707800 0.934036
O O4 0.871343 0.680746 0.000000
O O5 0.346878 0.253502 0.954851
O O6 0.357150 0.500000 0.000000
O O7 0.500000 0.313859 0.000000
O O8 0.500000 0.333972 0.362023
O O9 0.347490 0.500000 0.361576
O O10 0.345143 0.262729 0.408280
O O11 0.345918 0.260590 0.315917
O O12 0.500000 0.235100 0.836926
O O13 0.676636 0.219787 0.866666
O O14 0.642827 0.224459 0.775819
O O15 0.597410 0.000000 0.824194
O O16 0.354621 0.781821 0.500000
O O17 0.500000 0.837089 0.553698
O O18 0.349563 0.000000 0.559210
O O19 0.290209 0.000000 0.925081
O O20 0.500000 0.844568 0.277046
O O21 0.654372 0.000000 0.282330
#
# Coordination Sequence:
#
# PCOD8200226 Si02
#       7
#     8   4   8   8   8   8   8
#     4   9  18  33  50  64  82 107 128 148 179 223
#     4  11  23  35  44  57  82 113 137 152 174 219
#     4   9  15  20  27  41  59  76  98 134 176 211
#     4   8  15  27  41  57  77  99 122 149 183 221
#     4   8  13  20  28  37  50  71 100 131 165 211
#     4  11  20  30  47  68  84  99 123 159 194 222
#     4   8  13  23  37  47  58  83 115 140 165 205
#
# _framework density 13.856938
#
# number of rings (size 3 to 8) (size 9 to 14) (size 15 to 20)
#    0.000    3.000    0.769    3.462    0.000    3.692 
#    0.000    3.846    0.000    3.692    0.000    0.000 
#    0.000    0.000    0.000    0.000    0.000    0.000 
#
# Total GULP energy -644444.078650 kJ/mol
# GULP energy per Si atom -12393.155359 kJ/mol
# Density = 1.382540 g / cm^3
# Si number density = 13.856938 Si / 1000 Ang^3
#
#
#
# Elastic Constant Matrix: (Units=GPa)
#
#
# Indices 1 2 3 4 5 6 
#
# 1 44.2417 26.7149 33.7147 0.0000 0.0000 0.0000
# 2 26.7149 83.3954 62.5836 0.0000 0.0000 0.0000
# 3 33.7147 62.5836 137.0807 0.0000 0.0000 0.0000
# 4 0.0000 0.0000 0.0000 6.8001 0.0000 0.0000
# 5 0.0000 0.0000 0.0000 0.0000 2.3233 0.0000
# 6 0.0000 0.0000 0.0000 0.0000 0.0000 14.0299
#
#
#
# Elastic Compliance Matrix: (Units=1/GPa)
#
#
# Indices 1 2 3 4 5 6 
#
# 1 0.029752 -0.006145 -0.004512 0.000000 0.000000 0.000000
# 2 -0.006145 0.019510 -0.007396 0.000000 0.000000 0.000000
# 3 -0.004512 -0.007396 0.011781 0.000000 0.000000 0.000000
# 4 0.000000 0.000000 0.000000 0.147058 0.000000 0.000000
# 5 0.000000 0.000000 0.000000 0.000000 0.430420 0.000000
# 6 0.000000 0.000000 0.000000 0.000000 0.000000 0.071277
#
#
# Mechanical properties :
#
#
# Convention : Reuss Voigt Hill
#
# Bulk Modulus (GPa) = 40.09992 56.74936 48.42464
# Shear Modulus (GPa) = 6.62941 14.07761 10.35351
#
# Velocity S-wave (km/s) = 2.18965 3.19082 2.73641
# Velocity P-wave (km/s) = 5.94929 7.39038 6.70864
#
# Compressibility (1/GPa) = 0.02493771
#
# Stress axis : x y z
#
# Youngs Moduli (GPa) = 33.61115 51.25700 84.88100
#
# Poissons Ratio (x) = 0.31496 0.38299
# Poissons Ratio (y) = 0.20653 0.62776
# Poissons Ratio (z) = 0.15166 0.37908
#
# Static dielectric constant tensor:
#      x y z
#    x 2.320270 0.000000 0.000000 
#    y 0.000000 2.771790 0.000000 
#    z 0.000000 0.000000 3.059890 
# 
# 
# High freq. dielectric constant tensor:
#      x y z
#    x 1.459720 0.000000 0.000000 
#    y 0.000000 1.526690 0.000000 
#    z 0.000000 0.000000 1.534760 
# 
# From -- ./inp_files/33791.got.cif
#   From: 2010.03.12/outbox.cif.g09.slc.cpg/sg47_17_cif.got.tgz:33791.got - 2010.04.14 03:12:58.
