data_PCOD8200364
_publ_section_title
;
Structure prediction by ZEFSAII (Michael W. Deem and Ramdas Pophale) SiO2 
 PCOD8200364
Probable space group: P M M M
;
_chemical_formula_sum "Si O2"
_cell_formula_units_Z 52
_cell_length_a 9.081909
_cell_length_b 23.076248
_cell_length_c 14.189996
_cell_angle_alpha 90.000000
_cell_angle_beta 90.000000
_cell_angle_gamma 90.000000
_cell_volume 2973.888056
_symmetry_space_group_name_H-M "P M M M"
_symmetry_group_IT_number 47
_symmetry_cell_setting 'orthorhombic'
loop_
_space_group_symop_operation_xyz
x,y,z
-x,-y,z
x,-y,-z
-x,y,-z
-x,-y,-z
x,y,-z
-x,y,z
x,-y,z
loop_
_atom_site_type_symbol
_atom_site_label
_atom_site_fract_x
_atom_site_fract_y
_atom_site_fract_z
Si Si1 0.173523 0.770977 0.714771
Si Si2 0.331553 0.260836 0.893500
Si Si3 0.168595 0.565872 0.715892
Si Si4 0.828191 0.113447 0.391732
Si Si5 0.668491 0.396603 0.893427
Si Si6 0.333716 0.000000 0.612098
Si Si7 0.327913 0.665721 0.610055
O O1 0.225541 0.773916 0.823083
O O2 0.221950 0.830720 0.666583
O O3 0.252120 0.718835 0.661828
O O4 0.000000 0.761182 0.709041
O O5 0.500000 0.242034 0.876680
O O6 0.313786 0.328713 0.873652
O O7 0.283236 0.245874 0.000000
O O8 0.182261 0.500000 0.680181
O O9 0.226646 0.569011 0.822895
O O10 0.263888 0.605134 0.646283
O O11 0.000000 0.587030 0.714017
O O12 0.784141 0.124709 0.500000
O O13 0.000000 0.101122 0.381471
O O14 0.745209 0.057653 0.349221
O O15 0.500000 0.415515 0.876699
O O16 0.716328 0.411692 0.000000
O O17 0.500000 0.000000 0.648940
O O18 0.323216 0.000000 0.500000
O O19 0.295416 0.671133 0.500000
O O20 0.500000 0.667128 0.633571
#
# Coordination Sequence:
#
# PCOD8200364 Si02
#       7
#     8   8   8   8   8   4   8
#     4  11  21  33  54  83 110 137 172 214 259 308
#     4   9  18  33  53  77 106 138 170 207 255 310
#     4  11  24  39  55  77 103 131 166 211 262 314
#     4   9  18  32  49  72 107 148 180 208 251 305
#     4   9  18  34  56  79 103 133 167 204 252 311
#     4   9  17  29  47  73 104 139 182 225 255 286
#     4  11  24  40  57  76 100 133 172 214 259 307
#
# _framework density 17.485527999999999
#
# number of rings (size 3 to 8) (size 9 to 14) (size 15 to 20)
#    0.000    2.077    1.538    3.000    0.000    6.462 
#    0.000    6.154    0.000    0.000    0.000    0.538 
#    0.000    4.308    0.000    0.000    0.000    0.000 
#
# Total GULP energy -644925.890028 kJ/mol
# GULP energy per Si atom -12402.420962 kJ/mol
# Density = 1.744573 g / cm^3
# Si number density = 17.485528 Si / 1000 Ang^3
#
#
#
# Elastic Constant Matrix: (Units=GPa)
#
#
# Indices 1 2 3 4 5 6 
#
# 1 88.2364 54.1378 53.3545 0.0000 0.0000 0.0000
# 2 54.1378 109.1944 53.3084 0.0000 0.0000 0.0000
# 3 53.3545 53.3084 93.0029 0.0000 0.0000 0.0000
# 4 0.0000 0.0000 0.0000 21.7605 0.0000 0.0000
# 5 0.0000 0.0000 0.0000 0.0000 25.3034 0.0000
# 6 0.0000 0.0000 0.0000 0.0000 0.0000 13.6358
#
#
#
# Elastic Compliance Matrix: (Units=1/GPa)
#
#
# Indices 1 2 3 4 5 6 
#
# 1 0.019774 -0.005923 -0.007949 0.000000 0.000000 0.000000
# 2 -0.005923 0.014491 -0.004908 0.000000 0.000000 0.000000
# 3 -0.007949 -0.004908 0.018126 0.000000 0.000000 0.000000
# 4 0.000000 0.000000 0.000000 0.045955 0.000000 0.000000
# 5 0.000000 0.000000 0.000000 0.000000 0.039520 0.000000
# 6 0.000000 0.000000 0.000000 0.000000 0.000000 0.073337
#
#
# Mechanical properties :
#
#
# Convention : Reuss Voigt Hill
#
# Bulk Modulus (GPa) = 67.42926 68.00390 67.71658
# Shear Modulus (GPa) = 19.70790 20.78213 20.24502
#
# Velocity S-wave (km/s) = 3.36087 3.45125 3.40636
# Velocity P-wave (km/s) = 7.32852 7.40658 7.36766
#
# Compressibility (1/GPa) = 0.01483036
#
# Stress axis : x y z
#
# Youngs Moduli (GPa) = 50.57176 69.01016 55.17031
#
# Poissons Ratio (x) = 0.40875 0.43855
# Poissons Ratio (y) = 0.29954 0.27077
# Poissons Ratio (z) = 0.40199 0.33869
#
# Static dielectric constant tensor:
#      x y z
#    x 3.297160 0.000000 0.000000 
#    y 0.000000 3.188070 0.000000 
#    z 0.000000 0.000000 3.285200 
# 
# 
# High freq. dielectric constant tensor:
#      x y z
#    x 1.682250 0.000000 0.000000 
#    y 0.000000 1.663120 0.000000 
#    z 0.000000 0.000000 1.667280 
# 
# From -- ./inp_files/11004.got.cif
#   From: 2010.03.12/outbox.cif.g09.slc.cpg/sg47_6_cif.got.tgz:11004.got - 2010.04.14 03:12:58.
