data_PCOD8200078
_publ_section_title
;
Structure prediction by ZEFSAII (Michael W. Deem and Ramdas Pophale) SiO2 
 PCOD8200078
Probable space group: P M M M
;
_chemical_formula_sum "Si O2"
_cell_formula_units_Z 48
_cell_length_a 9.205609
_cell_length_b 14.415722
_cell_length_c 18.217488
_cell_angle_alpha 90.000000
_cell_angle_beta 90.000000
_cell_angle_gamma 90.000000
_cell_volume 2417.560857
_symmetry_space_group_name_H-M "P M M M"
_symmetry_group_IT_number 47
_symmetry_cell_setting 'orthorhombic'
loop_
_space_group_symop_operation_xyz
x,y,z
-x,-y,z
x,-y,-z
-x,y,-z
-x,-y,-z
x,y,-z
-x,y,z
x,-y,z
loop_
_atom_site_type_symbol
_atom_site_label
_atom_site_fract_x
_atom_site_fract_y
_atom_site_fract_z
Si Si1 0.164254 0.895438 0.913169
Si Si2 0.829685 0.892982 0.341703
Si Si3 0.333084 0.729881 0.287880
Si Si4 0.828387 0.898082 0.500000
Si Si5 0.667498 0.281873 0.124501
Si Si6 0.327398 0.395741 0.581236
Si Si7 0.830078 0.608833 0.000000
O O1 0.276272 0.823684 0.877877
O O2 0.000000 0.874933 0.885861
O O3 0.209079 0.000000 0.889988
O O4 0.170992 0.883993 0.000000
O O5 0.748062 0.828831 0.283594
O O6 0.782344 0.851811 0.422690
O O7 0.000000 0.883557 0.328642
O O8 0.782098 0.000000 0.332382
O O9 0.500000 0.750232 0.305548
O O10 0.315995 0.681684 0.208228
O O11 0.263412 0.665640 0.351930
O O12 0.000000 0.909403 0.500000
O O13 0.758355 0.000000 0.500000
O O14 0.500000 0.283949 0.099208
O O15 0.760438 0.348419 0.072829
O O16 0.280466 0.357770 0.500000
O O17 0.500000 0.397483 0.586755
O O18 0.266899 0.500000 0.590860
O O19 0.799841 0.500000 0.000000
O O20 0.000000 0.632720 0.000000
#
# Coordination Sequence:
#
# PCOD8200078 Si02
#       7
#     8   8   8   4   8   8   4
#     4   9  18  34  58  85 112 147 190 233 276 325
#     4   9  18  33  52  75 107 151 197 234 274 328
#     4  10  22  35  52  84 118 146 180 228 282 330
#     4   7  12  26  47  69  96 135 188 240 275 313
#     4  11  23  38  57  86 122 152 183 228 282 341
#     4   8  15  31  55  79 104 139 183 227 272 326
#     4  11  25  45  68  89 110 143 187 232 278 333
#
# _framework density 19.854723
#
# number of rings (size 3 to 8) (size 9 to 14) (size 15 to 20)
#    0.000    2.667    0.833    2.750    1.167    4.000 
#    0.000    5.833    0.000    2.000    0.000    1.167 
#    0.000    0.000    0.000    0.000    0.000    0.000 
#
# Total GULP energy -594818.641297 kJ/mol
# GULP energy per Si atom -12392.055027 kJ/mol
# Density = 1.980953 g / cm^3
# Si number density = 19.854723 Si / 1000 Ang^3
#
#
#
# Elastic Constant Matrix: (Units=GPa)
#
#
# Indices 1 2 3 4 5 6 
#
# 1 70.8520 49.5311 45.2833 0.0000 0.0000 0.0000
# 2 49.5311 104.3914 61.8744 0.0000 0.0000 0.0000
# 3 45.2833 61.8744 117.4493 0.0000 0.0000 0.0000
# 4 0.0000 0.0000 0.0000 20.4093 0.0000 0.0000
# 5 0.0000 0.0000 0.0000 0.0000 20.2580 0.0000
# 6 0.0000 0.0000 0.0000 0.0000 0.0000 20.9054
#
#
#
# Elastic Compliance Matrix: (Units=1/GPa)
#
#
# Indices 1 2 3 4 5 6 
#
# 1 0.022619 -0.008089 -0.004459 0.000000 0.000000 0.000000
# 2 -0.008089 0.016821 -0.005743 0.000000 0.000000 0.000000
# 3 -0.004459 -0.005743 0.013259 0.000000 0.000000 0.000000
# 4 0.000000 0.000000 0.000000 0.048997 0.000000 0.000000
# 5 0.000000 0.000000 0.000000 0.000000 0.049363 0.000000
# 6 0.000000 0.000000 0.000000 0.000000 0.000000 0.047835
#
#
# Mechanical properties :
#
#
# Convention : Reuss Voigt Hill
#
# Bulk Modulus (GPa) = 62.04787 67.34114 64.69451
# Shear Modulus (GPa) = 20.75986 21.38146 21.07066
#
# Velocity S-wave (km/s) = 3.23706 3.28517 3.26120
# Velocity P-wave (km/s) = 6.72980 6.95560 6.84363
#
# Compressibility (1/GPa) = 0.01611659
#
# Stress axis : x y z
#
# Youngs Moduli (GPa) = 44.21093 59.44847 75.41917
#
# Poissons Ratio (x) = 0.48087 0.33633
# Poissons Ratio (y) = 0.35762 0.43314
# Poissons Ratio (z) = 0.19716 0.34142
#
# Static dielectric constant tensor:
#      x y z
#    x 3.289810 0.000000 0.000000 
#    y 0.000000 3.607560 0.000000 
#    z 0.000000 0.000000 3.830790 
# 
# 
# High freq. dielectric constant tensor:
#      x y z
#    x 1.741720 0.000000 0.000000 
#    y 0.000000 1.763260 0.000000 
#    z 0.000000 0.000000 1.786680 
# 
# From -- ./inp_files/26558.got.cif
#   From: 2010.03.12/outbox.cif.g09.slc.cpg/sg47_14_cif.got.tgz:26558.got - 2010.04.14 03:12:58.
