data_PCOD8200110
_publ_section_title
;
Structure prediction by ZEFSAII (Michael W. Deem and Ramdas Pophale) SiO2 
 PCOD8200110
Probable space group: P M M M
;
_chemical_formula_sum "Si O2"
_cell_formula_units_Z 48
_cell_length_a 9.342836
_cell_length_b 9.770731
_cell_length_c 27.575119
_cell_angle_alpha 90.000000
_cell_angle_beta 90.000000
_cell_angle_gamma 90.000000
_cell_volume 2517.231615
_symmetry_space_group_name_H-M "P M M M"
_symmetry_group_IT_number 47
_symmetry_cell_setting 'orthorhombic'
loop_
_space_group_symop_operation_xyz
x,y,z
-x,-y,z
x,-y,-z
-x,y,-z
-x,-y,-z
x,y,-z
-x,y,z
x,-y,z
loop_
_atom_site_type_symbol
_atom_site_label
_atom_site_fract_x
_atom_site_fract_y
_atom_site_fract_z
Si Si1 0.162820 0.663380 0.000000
Si Si2 0.336307 0.649029 0.655228
Si Si3 0.833570 0.658199 0.186618
Si Si4 0.156169 0.000000 0.557001
Si Si5 0.662167 0.744464 0.446170
Si Si6 0.831850 0.842205 0.722327
Si Si7 0.338225 0.337698 0.092031
O O1 0.246819 0.720320 0.953040
O O2 0.160325 0.500000 0.000000
O O3 0.000000 0.719629 0.000000
O O4 0.500000 0.680504 0.669377
O O5 0.289607 0.500000 0.675943
O O6 0.321070 0.634259 0.596566
O O7 0.241019 0.770811 0.676304
O O8 0.801422 0.500000 0.200393
O O9 0.786787 0.756843 0.230254
O O10 0.739859 0.707614 0.141223
O O11 0.000000 0.676592 0.173245
O O12 0.241142 0.132684 0.573111
O O13 0.138752 0.000000 0.500000
O O14 0.000000 0.000000 0.582335
O O15 0.708663 0.688676 0.500000
O O16 0.500000 0.797945 0.449661
O O17 0.000000 0.834497 0.714019
O O18 0.780922 0.000000 0.727073
O O19 0.500000 0.278326 0.090775
O O20 0.343260 0.500000 0.088580
#
# Coordination Sequence:
#
# PCOD8200110 Si02
#       7
#     4   8   8   4   8   8   8
#     4   9  15  23  37  61  98 141 180 215 254 304
#     4  10  22  38  56  80 108 138 173 215 264 316
#     4   9  17  31  51  73  99 133 172 213 260 314
#     4   9  17  29  47  73 103 133 167 207 247 290
#     4   9  18  33  53  76 104 138 173 209 254 309
#     4  10  22  39  58  80 105 136 176 220 267 320
#     4   9  16  25  40  66 100 136 173 215 261 307
#
# _framework density 19.068567000000002
#
# number of rings (size 3 to 8) (size 9 to 14) (size 15 to 20)
#    0.000    2.667    0.000    1.500    1.167    7.000 
#    0.000    3.333    0.000    0.000    0.000    4.083 
#    0.000    4.667    0.000    0.000    0.000    0.000 
#
# Total GULP energy -594896.601002 kJ/mol
# GULP energy per Si atom -12393.679188 kJ/mol
# Density = 1.902517 g / cm^3
# Si number density = 19.068567 Si / 1000 Ang^3
#
#
#
# Elastic Constant Matrix: (Units=GPa)
#
#
# Indices 1 2 3 4 5 6 
#
# 1 90.0492 34.2966 56.5791 0.0000 0.0000 0.0000
# 2 34.2966 88.0767 48.1578 0.0000 0.0000 0.0000
# 3 56.5791 48.1578 133.4094 0.0000 0.0000 0.0000
# 4 0.0000 0.0000 0.0000 12.0796 0.0000 0.0000
# 5 0.0000 0.0000 0.0000 0.0000 31.7671 0.0000
# 6 0.0000 0.0000 0.0000 0.0000 0.0000 18.7192
#
#
#
# Elastic Compliance Matrix: (Units=1/GPa)
#
#
# Indices 1 2 3 4 5 6 
#
# 1 0.015790 -0.003099 -0.005578 0.000000 0.000000 0.000000
# 2 -0.003099 0.014754 -0.004012 0.000000 0.000000 0.000000
# 3 -0.005578 -0.004012 0.011309 0.000000 0.000000 0.000000
# 4 0.000000 0.000000 0.000000 0.082784 0.000000 0.000000
# 5 0.000000 0.000000 0.000000 0.000000 0.031479 0.000000
# 6 0.000000 0.000000 0.000000 0.000000 0.000000 0.053421
#
#
# Mechanical properties :
#
#
# Convention : Reuss Voigt Hill
#
# Bulk Modulus (GPa) = 60.69198 65.51136 63.10167
# Shear Modulus (GPa) = 20.79813 24.01331 22.40572
#
# Velocity S-wave (km/s) = 3.30616 3.55253 3.43156
# Velocity P-wave (km/s) = 6.81701 7.15944 6.99032
#
# Compressibility (1/GPa) = 0.01647664
#
# Stress axis : x y z
#
# Youngs Moduli (GPa) = 63.33148 67.77928 88.42144
#
# Poissons Ratio (x) = 0.21002 0.49321
# Poissons Ratio (y) = 0.19624 0.35472
# Poissons Ratio (z) = 0.35326 0.27191
#
# Static dielectric constant tensor:
#      x y z
#    x 3.632510 0.000000 0.000000 
#    y 0.000000 3.202090 0.000000 
#    z 0.000000 0.000000 3.517110 
# 
# 
# High freq. dielectric constant tensor:
#      x y z
#    x 1.741800 0.000000 0.000000 
#    y 0.000000 1.699870 0.000000 
#    z 0.000000 0.000000 1.746880 
# 
# From -- ./inp_files/34032.got.cif
#   From: 2010.03.12/outbox.cif.g09.slc.cpg/sg47_18_cif.got.tgz:34032.got - 2010.04.14 03:12:58.
