data_PCOD8200556
_publ_section_title
;
Structure prediction by ZEFSAII (Michael W. Deem and Ramdas Pophale) SiO2 
 PCOD8200556
Probable space group: P M M M
;
_chemical_formula_sum "Si O2"
_cell_formula_units_Z 32
_cell_length_a 8.978896
_cell_length_b 7.718384
_cell_length_c 23.938782
_cell_angle_alpha 90.000000
_cell_angle_beta 90.000000
_cell_angle_gamma 90.000000
_cell_volume 1659.019049
_symmetry_space_group_name_H-M "P M M M"
_symmetry_group_IT_number 47
_symmetry_cell_setting 'orthorhombic'
loop_
_space_group_symop_operation_xyz
x,y,z
-x,-y,z
x,-y,-z
-x,y,-z
-x,-y,-z
x,y,-z
-x,y,z
x,-y,z
loop_
_atom_site_type_symbol
_atom_site_label
_atom_site_fract_x
_atom_site_fract_y
_atom_site_fract_z
Si Si1 0.322329 0.000000 0.638085
Si Si2 0.322849 0.307761 0.562540
Si Si3 0.170952 0.304794 0.830391
Si Si4 0.323332 0.000000 0.764657
Si Si5 0.669872 0.796906 0.063027
O O1 0.258198 0.830494 0.606542
O O2 0.500000 0.000000 0.636759
O O3 0.263646 0.000000 0.701266
O O4 0.267151 0.261400 0.500000
O O5 0.500000 0.302617 0.563321
O O6 0.266854 0.500000 0.579525
O O7 0.191091 0.500000 0.807119
O O8 0.267465 0.174287 0.793723
O O9 0.223773 0.303614 0.894618
O O10 0.000000 0.245951 0.827856
O O11 0.500000 0.000000 0.767810
O O12 0.500000 0.736859 0.072316
O O13 0.683758 0.000000 0.074888
O O14 0.720526 0.752714 0.000000
#
# Coordination Sequence:
#
# PCOD8200556 Si02
#       5
#     4   8   8   4   8
#     4   9  17  27  42  66  97 134 175 216 258 309
#     4   8  13  22  38  62  95 134 170 204 250 312
#     4  11  24  40  58  80 108 144 185 228 274 325
#     4  11  23  38  56  79 108 144 187 233 276 319
#     4   9  18  34  58  87 115 141 171 213 270 332
#
# _framework density 19.288506000000002
#
# number of rings (size 3 to 8) (size 9 to 14) (size 15 to 20)
#    0.000    2.500    1.250    3.000    0.000    5.500 
#    0.000    6.250    0.000    0.000    0.000    0.000 
#    0.000    8.000    0.000   22.000    0.000   18.000 
#
# Total GULP energy -396734.425859 kJ/mol
# GULP energy per Si atom -12397.950808 kJ/mol
# Density = 1.924460 g / cm^3
# Si number density = 19.288506 Si / 1000 Ang^3
#
#
#
# Elastic Constant Matrix: (Units=GPa)
#
#
# Indices 1 2 3 4 5 6 
#
# 1 59.7683 35.5908 36.9820 0.0000 0.0000 0.0000
# 2 35.5908 124.7815 75.6208 0.0000 0.0000 0.0000
# 3 36.9820 75.6208 141.6782 0.0000 0.0000 0.0000
# 4 0.0000 0.0000 0.0000 12.8059 0.0000 0.0000
# 5 0.0000 0.0000 0.0000 0.0000 0.5099 0.0000
# 6 0.0000 0.0000 0.0000 0.0000 0.0000 17.2267
#
#
#
# Elastic Compliance Matrix: (Units=1/GPa)
#
#
# Indices 1 2 3 4 5 6 
#
# 1 0.021214 -0.003983 -0.003411 0.000000 0.000000 0.000000
# 2 -0.003983 0.012594 -0.005682 0.000000 0.000000 0.000000
# 3 -0.003411 -0.005682 0.010982 0.000000 0.000000 0.000000
# 4 0.000000 0.000000 0.000000 0.078089 0.000000 0.000000
# 5 0.000000 0.000000 0.000000 0.000000 1.961104 0.000000
# 6 0.000000 0.000000 0.000000 0.000000 0.000000 0.058049
#
#
# Mechanical properties :
#
#
# Convention : Reuss Voigt Hill
#
# Bulk Modulus (GPa) = 53.66072 69.17946 61.42009
# Shear Modulus (GPa) = 2.29949 17.97746 10.13847
#
# Velocity S-wave (km/s) = 1.09304 3.05623 2.29513
# Velocity P-wave (km/s) = 5.42894 6.95683 6.23983
#
# Compressibility (1/GPa) = 0.01863560
#
# Stress axis : x y z
#
# Youngs Moduli (GPa) = 47.13842 79.40491 91.06217
#
# Poissons Ratio (x) = 0.31631 0.31064
# Poissons Ratio (y) = 0.18777 0.51742
# Poissons Ratio (z) = 0.16080 0.45119
#
# Static dielectric constant tensor:
#      x y z
#    x 3.086500 0.000000 0.000000 
#    y 0.000000 3.677430 0.000000 
#    z 0.000000 0.000000 3.690630 
# 
# 
# High freq. dielectric constant tensor:
#      x y z
#    x 1.704200 0.000000 0.000000 
#    y 0.000000 1.760590 0.000000 
#    z 0.000000 0.000000 1.749870 
# 
# From -- ./inp_files/31621.got.cif
#   From: 2010.03.12/outbox.cif.g09.slc.cpg/sg47_16_cif.got.tgz:31621.got - 2010.04.14 03:12:58.
