data_PCOD8200405
_publ_section_title
;
Structure prediction by ZEFSAII (Michael W. Deem and Ramdas Pophale) SiO2 
 PCOD8200405
Probable space group: P M M M
;
_chemical_formula_sum "Si O2"
_cell_formula_units_Z 40
_cell_length_a 11.867445
_cell_length_b 8.673174
_cell_length_c 20.379874
_cell_angle_alpha 90.000000
_cell_angle_beta 90.000000
_cell_angle_gamma 90.000000
_cell_volume 2097.668137
_symmetry_space_group_name_H-M "P M M M"
_symmetry_group_IT_number 47
_symmetry_cell_setting 'orthorhombic'
loop_
_space_group_symop_operation_xyz
x,y,z
-x,-y,z
x,-y,-z
-x,y,-z
-x,-y,-z
x,y,-z
-x,y,z
x,-y,z
loop_
_atom_site_type_symbol
_atom_site_label
_atom_site_fract_x
_atom_site_fract_y
_atom_site_fract_z
Si Si1 0.768500 0.682245 0.806400
Si Si2 0.000000 0.182943 0.382084
Si Si3 0.000000 0.181671 0.231466
Si Si4 0.626081 0.683182 0.072519
Si Si5 0.368890 0.180083 0.312112
Si Si6 0.231461 0.677153 0.575103
O O1 0.779750 0.500000 0.808773
O O2 0.708407 0.749280 0.871673
O O3 0.696688 0.727396 0.743258
O O4 0.891512 0.754503 0.805404
O O5 0.000000 0.237237 0.306657
O O6 0.108594 0.250063 0.417643
O O7 0.000000 0.000000 0.388470
O O8 0.000000 0.000000 0.227301
O O9 0.500000 0.746567 0.085597
O O10 0.623930 0.500000 0.076153
O O11 0.667284 0.736394 0.000000
O O12 0.500000 0.221124 0.307755
O O13 0.322977 0.230652 0.382721
O O14 0.345531 0.000000 0.302207
O O15 0.270179 0.691344 0.500000
O O16 0.227385 0.500000 0.598111
#
# Coordination Sequence:
#
# PCOD8200405 Si02
#       6
#     8   4   4   8   8   8
#     4  11  21  35  60  89 114 146 191 239 284 329
#     4  11  22  38  61  85 112 149 189 229 280 342
#     4  11  23  38  57  82 115 152 188 230 285 341
#     4   8  15  30  54  86 121 151 182 227 281 332
#     4  11  24  40  58  82 114 152 190 229 279 340
#     4  11  24  40  60  86 114 144 184 237 289 335
#
# _framework density 19.068791000000001
#
# number of rings (size 3 to 8) (size 9 to 14) (size 15 to 20)
#    0.000    1.600    2.000    3.900    0.000    6.400 
#    0.000    2.500    0.000    5.400    0.000    7.000 
#    0.000    0.000    0.000    0.000    0.000    0.000 
#
# Total GULP energy -496121.779480 kJ/mol
# GULP energy per Si atom -12403.044487 kJ/mol
# Density = 1.902539 g / cm^3
# Si number density = 19.068791 Si / 1000 Ang^3
#
#
#
# Elastic Constant Matrix: (Units=GPa)
#
#
# Indices 1 2 3 4 5 6 
#
# 1 126.7193 27.2837 60.4882 0.0000 0.0000 0.0000
# 2 27.2837 42.5703 18.9043 0.0000 0.0000 0.0000
# 3 60.4882 18.9043 125.2361 0.0000 0.0000 0.0000
# 4 0.0000 0.0000 0.0000 8.8675 0.0000 0.0000
# 5 0.0000 0.0000 0.0000 0.0000 41.0751 0.0000
# 6 0.0000 0.0000 0.0000 0.0000 0.0000 31.3761
#
#
#
# Elastic Compliance Matrix: (Units=1/GPa)
#
#
# Indices 1 2 3 4 5 6 
#
# 1 0.011210 -0.005124 -0.004641 0.000000 0.000000 0.000000
# 2 -0.005124 0.027520 -0.001679 0.000000 0.000000 0.000000
# 3 -0.004641 -0.001679 0.010480 0.000000 0.000000 0.000000
# 4 0.000000 0.000000 0.000000 0.112771 0.000000 0.000000
# 5 0.000000 0.000000 0.000000 0.000000 0.024346 0.000000
# 6 0.000000 0.000000 0.000000 0.000000 0.000000 0.031871
#
#
# Mechanical properties :
#
#
# Convention : Reuss Voigt Hill
#
# Bulk Modulus (GPa) = 37.99100 56.43090 47.21095
# Shear Modulus (GPa) = 20.01121 28.78706 24.39914
#
# Velocity S-wave (km/s) = 3.24299 3.88963 3.58094
# Velocity P-wave (km/s) = 5.83001 7.05903 6.47375
#
# Compressibility (1/GPa) = 0.02632202
#
# Stress axis : x y z
#
# Youngs Moduli (GPa) = 89.20684 36.33696 95.42025
#
# Poissons Ratio (x) = 0.18618 0.44284
# Poissons Ratio (y) = 0.45706 0.16026
# Poissons Ratio (z) = 0.41400 0.06103
#
# Static dielectric constant tensor:
#      x y z
#    x 3.593280 0.000000 0.000000 
#    y 0.000000 3.417280 0.000000 
#    z 0.000000 0.000000 3.758320 
# 
# 
# High freq. dielectric constant tensor:
#      x y z
#    x 1.745620 0.000000 0.000000 
#    y 0.000000 1.735440 0.000000 
#    z 0.000000 0.000000 1.748070 
# 
# From -- ./inp_files/18937.got.cif
#   From: 2010.03.12/outbox.cif.g09.slc.cpg/sg47_10_cif.got.tgz:18937.got - 2010.04.14 03:12:58.
