data_PCOD8200327
_publ_section_title
;
Structure prediction by ZEFSAII (Michael W. Deem and Ramdas Pophale) SiO2 
 PCOD8200327
Probable space group: P M M M
;
_chemical_formula_sum "Si O2"
_cell_formula_units_Z 56
_cell_length_a 9.097164
_cell_length_b 14.060528
_cell_length_c 31.141879
_cell_angle_alpha 90.000000
_cell_angle_beta 90.000000
_cell_angle_gamma 90.000000
_cell_volume 3983.386678
_symmetry_space_group_name_H-M "P M M M"
_symmetry_group_IT_number 47
_symmetry_cell_setting 'orthorhombic'
loop_
_space_group_symop_operation_xyz
x,y,z
-x,-y,z
x,-y,-z
-x,y,-z
-x,-y,-z
x,y,-z
-x,y,z
x,-y,z
loop_
_atom_site_type_symbol
_atom_site_label
_atom_site_fract_x
_atom_site_fract_y
_atom_site_fract_z
Si Si1 0.834253 0.113248 0.750987
Si Si2 0.333786 0.886619 0.500000
Si Si3 0.831177 0.607966 0.949956
Si Si4 0.833830 0.886631 0.416155
Si Si5 0.329438 0.890891 0.835295
Si Si6 0.169974 0.887886 0.000000
Si Si7 0.666080 0.113435 0.667685
Si Si8 0.327327 0.213858 0.077746
O O1 0.760382 0.149717 0.794847
O O2 0.745308 0.153649 0.710217
O O3 0.000000 0.152080 0.748702
O O4 0.830832 0.000000 0.749953
O O5 0.500000 0.847535 0.500000
O O6 0.250544 0.847595 0.542020
O O7 0.333996 0.000000 0.500000
O O8 0.782840 0.500000 0.940245
O O9 0.726852 0.677185 0.922789
O O10 0.000000 0.623645 0.936559
O O11 0.810599 0.631708 0.000000
O O12 0.751953 0.847690 0.373906
O O13 0.000000 0.847517 0.416518
O O14 0.833989 0.000000 0.416221
O O15 0.500000 0.881864 0.823727
O O16 0.286071 0.828528 0.876178
O O17 0.287526 0.000000 0.845340
O O18 0.244756 0.847271 0.042280
O O19 0.000000 0.857253 0.000000
O O20 0.190517 0.000000 0.000000
O O21 0.500000 0.152297 0.666499
O O22 0.666962 0.000000 0.667859
O O23 0.500000 0.208906 0.068587
#
# Coordination Sequence:
#
# PCOD8200327 Si02
#       8
#     8   4   8   8   8   4   8   8
#     4   9  16  25  37  52  67  85 113 146 175 206
#     4   9  15  21  27  35  49  69  93 121 159 209
#     4   9  18  33  51  68  87 109 130 155 188 225
#     4   9  15  21  28  38  52  70  94 126 163 204
#     4   9  18  31  43  56  78 105 127 149 182 222
#     4  11  23  35  46  61  84 113 139 160 184 219
#     4   9  15  22  32  44  58  77 101 131 169 210
#     4  11  21  32  48  68  86 105 130 161 192 223
#
# _framework density 14.058388000000001
#
# number of rings (size 3 to 8) (size 9 to 14) (size 15 to 20)
#    0.000    2.571    0.714    3.000    0.000    8.571 
#    0.000    2.143    0.000    0.000    0.000    0.000 
#    0.000    0.000    0.000    0.000    0.000    0.000 
#
# Total GULP energy -694385.211874 kJ/mol
# GULP energy per Si atom -12399.735926 kJ/mol
# Density = 1.402639 g / cm^3
# Si number density = 14.058388 Si / 1000 Ang^3
#
#
#
# Elastic Constant Matrix: (Units=GPa)
#
#
# Indices 1 2 3 4 5 6 
#
# 1 121.4731 26.3139 79.5734 0.0000 0.0000 0.0000
# 2 26.3139 35.9442 30.7361 0.0000 0.0000 0.0000
# 3 79.5734 30.7361 133.8217 0.0000 0.0000 0.0000
# 4 0.0000 0.0000 0.0000 1.3058 0.0000 0.0000
# 5 0.0000 0.0000 0.0000 0.0000 25.6524 0.0000
# 6 0.0000 0.0000 0.0000 0.0000 0.0000 13.3717
#
#
#
# Elastic Compliance Matrix: (Units=1/GPa)
#
#
# Indices 1 2 3 4 5 6 
#
# 1 0.013904 -0.003869 -0.007379 0.000000 0.000000 0.000000
# 2 -0.003869 0.035697 -0.005898 0.000000 0.000000 0.000000
# 3 -0.007379 -0.005898 0.013215 0.000000 0.000000 0.000000
# 4 0.000000 0.000000 0.000000 0.765797 0.000000 0.000000
# 5 0.000000 0.000000 0.000000 0.000000 0.038983 0.000000
# 6 0.000000 0.000000 0.000000 0.000000 0.000000 0.074785
#
#
# Mechanical properties :
#
#
# Convention : Reuss Voigt Hill
#
# Bulk Modulus (GPa) = 35.05881 62.72064 48.88972
# Shear Modulus (GPa) = 5.07006 18.37368 11.72187
#
# Velocity S-wave (km/s) = 1.90112 3.61911 2.89069
# Velocity P-wave (km/s) = 5.45996 7.88512 6.78182
#
# Compressibility (1/GPa) = 0.02852350
#
# Stress axis : x y z
#
# Youngs Moduli (GPa) = 71.92036 28.01363 75.67074
#
# Poissons Ratio (x) = 0.10839 0.55839
# Poissons Ratio (y) = 0.27826 0.44632
# Poissons Ratio (z) = 0.53071 0.16523
#
# Static dielectric constant tensor:
#      x y z
#    x 2.942960 0.000000 0.000000 
#    y 0.000000 2.275160 0.000000 
#    z 0.000000 0.000000 2.874260 
# 
# 
# High freq. dielectric constant tensor:
#      x y z
#    x 1.555240 0.000000 0.000000 
#    y 0.000000 1.458980 0.000000 
#    z 0.000000 0.000000 1.541780 
# 
# From -- ./inp_files/34390.got.cif
#   From: 2010.03.12/outbox.cif.g09.slc.cpg/sg47_18_cif.got.tgz:34390.got - 2010.04.14 03:12:58.
