data_PCOD8200866
_publ_section_title
;
Structure prediction by ZEFSAII (Michael W. Deem and Ramdas Pophale) SiO2 
 PCOD8200866
Probable space group: P M M M
;
_chemical_formula_sum "Si O2"
_cell_formula_units_Z 36
_cell_length_a 7.565651
_cell_length_b 25.262662
_cell_length_c 9.266458
_cell_angle_alpha 90.000000
_cell_angle_beta 90.000000
_cell_angle_gamma 90.000000
_cell_volume 1771.084070
_symmetry_space_group_name_H-M "P M M M"
_symmetry_group_IT_number 47
_symmetry_cell_setting 'orthorhombic'
loop_
_space_group_symop_operation_xyz
x,y,z
-x,-y,z
x,-y,-z
-x,y,-z
-x,-y,-z
x,y,-z
-x,y,z
x,-y,z
loop_
_atom_site_type_symbol
_atom_site_label
_atom_site_fract_x
_atom_site_fract_y
_atom_site_fract_z
Si Si1 0.290254 0.242256 0.337621
Si Si2 0.711048 0.657396 0.837597
Si Si3 0.702927 0.138443 0.168938
Si Si4 0.000000 0.058667 0.829421
Si Si5 0.710055 0.558416 0.661948
O O1 0.213641 0.241604 0.500000
O O2 0.500000 0.245184 0.340648
O O3 0.214344 0.293181 0.253699
O O4 0.229239 0.189656 0.254784
O O5 0.500000 0.657617 0.836582
O O6 0.786357 0.603220 0.768091
O O7 0.783765 0.661623 0.000000
O O8 0.500000 0.124316 0.205654
O O9 0.823290 0.089397 0.220044
O O10 0.726674 0.150727 0.000000
O O11 0.000000 0.000000 0.759172
O O12 0.000000 0.053487 0.000000
O O13 0.778889 0.569621 0.500000
O O14 0.500000 0.560497 0.662660
O O15 0.774018 0.500000 0.713026
#
# Coordination Sequence:
#
# PCOD8200866 Si02
#       5
#     8   8   8   4   8
#     4   9  16  26  41  60  83 113 150 192 239 290
#     4   9  15  21  31  49  73 102 141 190 240 290
#     4   9  17  30  49  72  98 128 162 200 240 283
#     4   9  18  32  51  77 105 131 162 199 238 281
#     4   8  13  20  28  39  61  98 143 188 235 288
#
# _framework density 20.326533000000001
#
# number of rings (size 3 to 8) (size 9 to 14) (size 15 to 20)
#    0.000    3.222    0.000    2.000    0.000    6.222 
#    0.000    5.000    0.000    1.333    0.000    3.111 
#    0.000    0.000    0.000    1.000    0.000   21.778 
#
# Total GULP energy -446246.049076 kJ/mol
# GULP energy per Si atom -12395.723585 kJ/mol
# Density = 2.028027 g / cm^3
# Si number density = 20.326533 Si / 1000 Ang^3
#
#
#
# Elastic Constant Matrix: (Units=GPa)
#
#
# Indices 1 2 3 4 5 6 
#
# 1 49.6969 41.7801 20.1523 0.0000 0.0000 0.0000
# 2 41.7801 219.7633 96.7195 0.0000 0.0000 0.0000
# 3 20.1523 96.7195 128.3449 0.0000 0.0000 0.0000
# 4 0.0000 0.0000 0.0000 23.8349 0.0000 0.0000
# 5 0.0000 0.0000 0.0000 0.0000 -0.4316 0.0000
# 6 0.0000 0.0000 0.0000 0.0000 0.0000 -17.2175
#
#
#
# Elastic Compliance Matrix: (Units=1/GPa)
#
#
# Indices 1 2 3 4 5 6 
#
# 1 0.023971 -0.004340 -0.000493 0.000000 0.000000 0.000000
# 2 -0.004340 0.007594 -0.005041 0.000000 0.000000 0.000000
# 3 -0.000493 -0.005041 0.011668 0.000000 0.000000 0.000000
# 4 0.000000 0.000000 0.000000 0.041955 0.000000 0.000000
# 5 0.000000 0.000000 0.000000 0.000000 -2.317161 0.000000
# 6 0.000000 0.000000 0.000000 0.000000 0.000000 -0.058081
#
#
# Mechanical properties :
#
#
# Convention : Reuss Voigt Hill
#
# Bulk Modulus (GPa) = 42.58287 79.45654 61.01971
# Shear Modulus (GPa) = -2.20997 17.18072 7.48538
#
# Velocity S-wave (km/s) = -1.04384 2.91045 1.92108
# Velocity P-wave (km/s) = 4.42064 7.10417 5.91656
#
# Compressibility (1/GPa) = 0.02348362
#
# Stress axis : x y z
#
# Youngs Moduli (GPa) = 41.71761 131.67828 85.70343
#
# Poissons Ratio (x) = 0.57150 0.04226
# Poissons Ratio (y) = 0.18106 0.43207
# Poissons Ratio (z) = 0.02057 0.66385
#
# Static dielectric constant tensor:
#      x y z
#    x 3.178250 0.000000 0.000000 
#    y 0.000000 3.997230 0.000000 
#    z 0.000000 0.000000 3.705020 
# 
# 
# High freq. dielectric constant tensor:
#      x y z
#    x 1.758620 0.000000 0.000000 
#    y 0.000000 1.798180 0.000000 
#    z 0.000000 0.000000 1.777350 
# 
# From -- ./inp_files/1424.got.cif
#   From: 2010.03.12/outbox.cif.g09.slc.cpg/sg47_1_cif.got.tgz:1424.got - 2010.04.14 03:12:58.
