data_PCOD8200246
_publ_section_title
;
Structure prediction by ZEFSAII (Michael W. Deem and Ramdas Pophale) SiO2 
 PCOD8200246
Probable space group: P M M M
;
_chemical_formula_sum "Si O2"
_cell_formula_units_Z 52
_cell_length_a 14.525586
_cell_length_b 22.936762
_cell_length_c 9.156462
_cell_angle_alpha 90.000000
_cell_angle_beta 90.000000
_cell_angle_gamma 90.000000
_cell_volume 3050.657611
_symmetry_space_group_name_H-M "P M M M"
_symmetry_group_IT_number 47
_symmetry_cell_setting 'orthorhombic'
loop_
_space_group_symop_operation_xyz
x,y,z
-x,-y,z
x,-y,-z
-x,y,-z
-x,-y,-z
x,y,-z
-x,y,z
x,-y,z
loop_
_atom_site_type_symbol
_atom_site_label
_atom_site_fract_x
_atom_site_fract_y
_atom_site_fract_z
Si Si1 0.393684 0.291758 0.671612
Si Si2 0.392008 0.161542 0.340717
Si Si3 0.603883 0.500000 0.173223
Si Si4 0.707172 0.934529 0.826110
Si Si5 0.903561 0.069096 0.837337
Si Si6 0.104618 0.432358 0.670115
Si Si7 0.279619 0.610589 0.826247
O O1 0.381033 0.304206 0.500000
O O2 0.500000 0.302589 0.717074
O O3 0.361444 0.225929 0.710467
O O4 0.326886 0.331562 0.766344
O O5 0.348840 0.147172 0.500000
O O6 0.500000 0.162863 0.356117
O O7 0.367144 0.111484 0.226643
O O8 0.500000 0.500000 0.238247
O O9 0.658482 0.556558 0.229416
O O10 0.599162 0.500000 0.000000
O O11 0.807078 0.912688 0.761857
O O12 0.682645 0.000000 0.770552
O O13 0.710393 0.934662 0.000000
O O14 0.000000 0.088456 0.756388
O O15 0.900309 0.000000 0.849031
O O16 0.906650 0.095630 0.000000
O O17 0.124666 0.421819 0.500000
O O18 0.117447 0.500000 0.710348
O O19 0.176120 0.394611 0.764364
O O20 0.000000 0.412891 0.708108
O O21 0.274138 0.613372 0.000000
#
# Coordination Sequence:
#
# PCOD8200246 Si02
#       7
#     8   8   4   8   8   8   8
#     4   9  19  36  54  70  91 124 168 211 245 288
#     4   9  19  35  51  66  89 125 166 203 239 284
#     4   9  18  30  42  65 104 136 153 181 234 295
#     4   9  17  28  45  72 100 122 151 196 246 293
#     4   7  10  19  37  61  89 119 147 175 214 268
#     4   9  18  33  52  73 100 135 172 207 242 286
#     4  11  20  31  50  76 104 132 160 199 250 297
#
# _framework density 17.045506
#
# number of rings (size 3 to 8) (size 9 to 14) (size 15 to 20)
#    0.000    3.000    0.769    3.692    0.000    2.769 
#    0.000    3.846    0.000    3.231    0.000    6.462 
#    0.000    0.000    0.000    0.000    0.000    0.000 
#
# Total GULP energy -644208.104565 kJ/mol
# GULP energy per Si atom -12388.617395 kJ/mol
# Density = 1.700671 g / cm^3
# Si number density = 17.045506 Si / 1000 Ang^3
#
#
#
# Elastic Constant Matrix: (Units=GPa)
#
#
# Indices 1 2 3 4 5 6 
#
# 1 86.4543 53.0070 38.5567 0.0000 0.0000 0.0000
# 2 53.0070 98.9735 40.1405 0.0000 0.0000 0.0000
# 3 38.5567 40.1405 49.9313 0.0000 0.0000 0.0000
# 4 0.0000 0.0000 0.0000 19.7502 0.0000 0.0000
# 5 0.0000 0.0000 0.0000 0.0000 22.0062 0.0000
# 6 0.0000 0.0000 0.0000 0.0000 0.0000 13.1207
#
#
#
# Elastic Compliance Matrix: (Units=1/GPa)
#
#
# Indices 1 2 3 4 5 6 
#
# 1 0.020236 -0.006677 -0.010258 0.000000 0.000000 0.000000
# 2 -0.006677 0.017195 -0.008667 0.000000 0.000000 0.000000
# 3 -0.010258 -0.008667 0.034916 0.000000 0.000000 0.000000
# 4 0.000000 0.000000 0.000000 0.050632 0.000000 0.000000
# 5 0.000000 0.000000 0.000000 0.000000 0.045442 0.000000
# 6 0.000000 0.000000 0.000000 0.000000 0.000000 0.076216
#
#
# Mechanical properties :
#
#
# Convention : Reuss Voigt Hill
#
# Bulk Modulus (GPa) = 47.29864 55.41862 51.35863
# Shear Modulus (GPa) = 16.50773 17.88573 17.19673
#
# Velocity S-wave (km/s) = 3.11537 3.24279 3.17972
# Velocity P-wave (km/s) = 6.38353 6.82669 6.60882
#
# Compressibility (1/GPa) = 0.02114226
#
# Stress axis : x y z
#
# Youngs Moduli (GPa) = 49.41806 58.15650 28.63995
#
# Poissons Ratio (x) = 0.38833 0.29378
# Poissons Ratio (y) = 0.32998 0.24823
# Poissons Ratio (z) = 0.50692 0.50405
#
# Static dielectric constant tensor:
#      x y z
#    x 3.567460 0.000000 0.000000 
#    y 0.000000 3.030540 0.000000 
#    z 0.000000 0.000000 2.904300 
# 
# 
# High freq. dielectric constant tensor:
#      x y z
#    x 1.667030 0.000000 0.000000 
#    y 0.000000 1.632120 0.000000 
#    z 0.000000 0.000000 1.630640 
# 
# From -- ./inp_files/7077.got.cif
#   From: 2010.03.12/outbox.cif.g09.slc.cpg/sg47_4_cif.got.tgz:7077.got - 2010.04.14 03:12:58.
