data_PCOD8200945
_publ_section_title
;
Structure prediction by ZEFSAII (Michael W. Deem and Ramdas Pophale) SiO2 
 PCOD8200945
Probable space group: P M M M
;
_chemical_formula_sum "Si O2"
_cell_formula_units_Z 36
_cell_length_a 20.297571
_cell_length_b 12.478118
_cell_length_c 9.419272
_cell_angle_alpha 90.000000
_cell_angle_beta 90.000000
_cell_angle_gamma 90.000000
_cell_volume 2385.670694
_symmetry_space_group_name_H-M "P M M M"
_symmetry_group_IT_number 47
_symmetry_cell_setting 'orthorhombic'
loop_
_space_group_symop_operation_xyz
x,y,z
-x,-y,z
x,-y,-z
-x,y,-z
-x,-y,-z
x,y,-z
-x,y,z
x,-y,z
loop_
_atom_site_type_symbol
_atom_site_label
_atom_site_fract_x
_atom_site_fract_y
_atom_site_fract_z
Si Si1 0.924362 0.797270 0.836027
Si Si2 0.078327 0.000000 0.660603
Si Si3 0.181442 0.622550 0.164010
Si Si4 0.693485 0.627667 0.340272
Si Si5 0.572954 0.627453 0.159341
O O1 0.883044 0.691307 0.799986
O O2 0.000000 0.770984 0.798386
O O3 0.896129 0.894465 0.741645
O O4 0.917081 0.830905 0.000000
O O5 0.105620 0.000000 0.500000
O O6 0.000000 0.000000 0.663706
O O7 0.164464 0.500000 0.203148
O O8 0.242110 0.667053 0.256252
O O9 0.202050 0.632955 0.000000
O O10 0.696206 0.672737 0.500000
O O11 0.690891 0.500000 0.339246
O O12 0.628099 0.675104 0.264782
O O13 0.500000 0.664650 0.209684
O O14 0.576525 0.500000 0.159667
O O15 0.586786 0.669501 0.000000
#
# Coordination Sequence:
#
# PCOD8200945 Si02
#       5
#     8   4   8   8   8
#     4   9  17  29  45  63  81 102 131 168 206 242
#     4   9  17  29  45  63  81 101 126 159 202 249
#     4   9  17  28  41  57  79 108 138 166 199 240
#     4   9  16  24  34  49  71 100 132 164 196 232
#     4   8  13  21  33  48  66  91 125 163 199 233
#
# _framework density 15.090097
#
# number of rings (size 3 to 8) (size 9 to 14) (size 15 to 20)
#    0.000    3.222    0.000    1.667    0.000    5.778 
#    0.000    4.444    0.000    0.000    0.000    6.222 
#    0.000    0.000    0.000    1.000    0.000   19.778 
#
# Total GULP energy -446263.781298 kJ/mol
# GULP energy per Si atom -12396.216147 kJ/mol
# Density = 1.505575 g / cm^3
# Si number density = 15.090097 Si / 1000 Ang^3
#
#
#
# Elastic Constant Matrix: (Units=GPa)
#
#
# Indices 1 2 3 4 5 6 
#
# 1 106.8880 40.2916 64.0924 0.0000 0.0000 0.0000
# 2 40.2916 51.1169 37.6483 0.0000 0.0000 0.0000
# 3 64.0924 37.6483 98.9930 0.0000 0.0000 0.0000
# 4 0.0000 0.0000 0.0000 12.1704 0.0000 0.0000
# 5 0.0000 0.0000 0.0000 0.0000 17.9707 0.0000
# 6 0.0000 0.0000 0.0000 0.0000 0.0000 1.5784
#
#
#
# Elastic Compliance Matrix: (Units=1/GPa)
#
#
# Indices 1 2 3 4 5 6 
#
# 1 0.017092 -0.007393 -0.008254 0.000000 0.000000 0.000000
# 2 -0.007393 0.030372 -0.006765 0.000000 0.000000 0.000000
# 3 -0.008254 -0.006765 0.018019 0.000000 0.000000 0.000000
# 4 0.000000 0.000000 0.000000 0.082166 0.000000 0.000000
# 5 0.000000 0.000000 0.000000 0.000000 0.055646 0.000000
# 6 0.000000 0.000000 0.000000 0.000000 0.000000 0.633550
#
#
# Mechanical properties :
#
#
# Convention : Reuss Voigt Hill
#
# Bulk Modulus (GPa) = 48.40437 60.11806 54.26122
# Shear Modulus (GPa) = 5.62711 14.00828 9.81770
#
# Velocity S-wave (km/s) = 1.93316 3.05012 2.55346
# Velocity P-wave (km/s) = 6.09339 7.23396 6.68803
#
# Compressibility (1/GPa) = 0.02065929
#
# Stress axis : x y z
#
# Youngs Moduli (GPa) = 58.50747 32.92473 55.49781
#
# Poissons Ratio (x) = 0.24340 0.45811
# Poissons Ratio (y) = 0.43253 0.37542
# Poissons Ratio (z) = 0.48295 0.22272
#
# Static dielectric constant tensor:
#      x y z
#    x 2.980660 0.000000 0.000000 
#    y 0.000000 2.472370 0.000000 
#    z 0.000000 0.000000 3.096830 
# 
# 
# High freq. dielectric constant tensor:
#      x y z
#    x 1.574680 0.000000 0.000000 
#    y 0.000000 1.515540 0.000000 
#    z 0.000000 0.000000 1.584800 
# 
# From -- ./inp_files/3922.got.cif
#   From: 2010.03.12/outbox.cif.g09.slc.cpg/sg47_2_cif.got.tgz:3922.got - 2010.04.14 03:12:58.
