data_PCOD8200098
_publ_section_title
;
Structure prediction by ZEFSAII (Michael W. Deem and Ramdas Pophale) SiO2 
 PCOD8200098
Probable space group: P M M M
;
_chemical_formula_sum "Si O2"
_cell_formula_units_Z 52
_cell_length_a 7.688797
_cell_length_b 13.859805
_cell_length_c 22.921235
_cell_angle_alpha 90.000000
_cell_angle_beta 90.000000
_cell_angle_gamma 90.000000
_cell_volume 2442.606613
_symmetry_space_group_name_H-M "P M M M"
_symmetry_group_IT_number 47
_symmetry_cell_setting 'orthorhombic'
loop_
_space_group_symop_operation_xyz
x,y,z
-x,-y,z
x,-y,-z
-x,y,-z
-x,-y,-z
x,y,-z
-x,y,z
x,-y,z
loop_
_atom_site_type_symbol
_atom_site_label
_atom_site_fract_x
_atom_site_fract_y
_atom_site_fract_z
Si Si1 0.000000 0.611070 0.741561
Si Si2 0.797387 0.107509 0.344112
Si Si3 0.697842 0.256571 0.563420
Si Si4 0.703570 0.891534 0.782755
Si Si5 0.296026 0.892654 0.000000
Si Si6 0.292531 0.762966 0.890857
Si Si7 0.303812 0.613543 0.663232
Si Si8 0.000000 0.613675 0.122147
O O1 0.823040 0.654471 0.713744
O O2 0.000000 0.500000 0.723951
O O3 0.000000 0.626486 0.809253
O O4 0.709042 0.160569 0.398022
O O5 0.753816 0.152208 0.280501
O O6 0.000000 0.110542 0.355237
O O7 0.721021 0.000000 0.344795
O O8 0.794044 0.247782 0.500000
O O9 0.500000 0.278724 0.549877
O O10 0.771526 0.344857 0.602177
O O11 0.500000 0.900522 0.790147
O O12 0.770279 0.817186 0.831965
O O13 0.785021 0.000000 0.790581
O O14 0.239328 0.834133 0.057037
O O15 0.500000 0.905809 0.000000
O O16 0.210329 0.000000 0.000000
O O17 0.500000 0.737181 0.890950
O O18 0.177695 0.665491 0.900005
O O19 0.500000 0.651835 0.676455
O O20 0.304976 0.500000 0.658450
O O21 0.000000 0.500000 0.103521
#
# Coordination Sequence:
#
# PCOD8200098 Si02
#       8
#     4   8   8   8   4   8   8   4
#     4   9  20  38  58  82 112 150 195 242 299 351
#     4  10  22  37  54  78 110 148 187 234 290 346
#     4  10  22  37  54  77 104 142 189 233 287 350
#     4   9  18  34  57  87 119 150 188 238 300 366
#     4   9  18  39  69 100 137 171 204 254 312 368
#     4  10  22  39  64  95 126 166 209 250 303 366
#     4   9  19  36  58  84 113 145 186 239 298 361
#     4  11  26  43  60  88 128 170 212 263 306 345
#
# _framework density 21.288734000000002
#
# number of rings (size 3 to 8) (size 9 to 14) (size 15 to 20)
#    0.000    2.385    0.000    0.923    4.308    4.923 
#    0.000    6.923    0.000    2.769    0.000    0.000 
#    0.000    0.000    0.000    0.000    0.000    0.000 
#
# Total GULP energy -644375.069623 kJ/mol
# GULP energy per Si atom -12391.828262 kJ/mol
# Density = 2.124028 g / cm^3
# Si number density = 21.288734 Si / 1000 Ang^3
#
#
#
# Elastic Constant Matrix: (Units=GPa)
#
#
# Indices 1 2 3 4 5 6 
#
# 1 71.3439 38.5224 23.0774 0.0000 0.0000 0.0000
# 2 38.5224 93.9489 22.1527 0.0000 0.0000 0.0000
# 3 23.0774 22.1527 97.1207 0.0000 0.0000 0.0000
# 4 0.0000 0.0000 0.0000 -23.3667 0.0000 0.0000
# 5 0.0000 0.0000 0.0000 0.0000 -11.4324 0.0000
# 6 0.0000 0.0000 0.0000 0.0000 0.0000 24.4531
#
#
#
# Elastic Compliance Matrix: (Units=1/GPa)
#
#
# Indices 1 2 3 4 5 6 
#
# 1 0.018721 -0.007004 -0.002851 0.000000 0.000000 0.000000
# 2 -0.007004 0.013869 -0.001499 0.000000 0.000000 0.000000
# 3 -0.002851 -0.001499 0.011316 0.000000 0.000000 0.000000
# 4 0.000000 0.000000 0.000000 -0.042796 0.000000 0.000000
# 5 0.000000 0.000000 0.000000 0.000000 -0.087471 0.000000
# 6 0.000000 0.000000 0.000000 0.000000 0.000000 0.040895
#
#
# Mechanical properties :
#
#
# Convention : Reuss Voigt Hill
#
# Bulk Modulus (GPa) = 47.17443 47.76872 47.47157
# Shear Modulus (GPa) = -318.62009 9.84154 -154.38928
#
# Velocity S-wave (km/s) = -12.24708 2.15242 -8.52520
# Velocity P-wave (km/s) = 13.33344 5.35392 8.63470
#
# Compressibility (1/GPa) = 0.02119793
#
# Stress axis : x y z
#
# Youngs Moduli (GPa) = 53.41734 72.10083 88.37175
#
# Poissons Ratio (x) = 0.50499 0.25192
# Poissons Ratio (y) = 0.37413 0.13250
# Poissons Ratio (z) = 0.15228 0.10810
#
# Static dielectric constant tensor:
#      x y z
#    x 3.845100 0.000000 0.000000 
#    y 0.000000 3.926690 0.000000 
#    z 0.000000 0.000000 4.101120 
# 
# 
# High freq. dielectric constant tensor:
#      x y z
#    x 1.826890 0.000000 0.000000 
#    y 0.000000 1.832670 0.000000 
#    z 0.000000 0.000000 1.832880 
# 
# From -- ./inp_files/29634.got.cif
#   From: 2010.03.12/outbox.cif.g09.slc.cpg/sg47_15_cif.got.tgz:29634.got - 2010.04.14 03:12:58.
