data_PCOD8200005
_publ_section_title
;
Structure prediction by ZEFSAII (Michael W. Deem and Ramdas Pophale) SiO2 
 PCOD8200005
Probable space group: P M M M
;
_chemical_formula_sum "Si O2"
_cell_formula_units_Z 40
_cell_length_a 9.004460
_cell_length_b 14.970700
_cell_length_c 14.775168
_cell_angle_alpha 90.000000
_cell_angle_beta 90.000000
_cell_angle_gamma 90.000000
_cell_volume 1991.737996
_symmetry_space_group_name_H-M "P M M M"
_symmetry_group_IT_number 47
_symmetry_cell_setting 'orthorhombic'
loop_
_space_group_symop_operation_xyz
x,y,z
-x,-y,z
x,-y,-z
-x,y,-z
-x,-y,-z
x,y,-z
-x,y,z
x,-y,z
loop_
_atom_site_type_symbol
_atom_site_label
_atom_site_fract_x
_atom_site_fract_y
_atom_site_fract_z
Si Si1 0.168324 0.213820 0.145282
Si Si2 0.327316 0.598090 0.650140
Si Si3 0.325360 0.100159 0.000000
Si Si4 0.674274 0.895691 0.500000
Si Si5 0.173057 0.225141 0.357835
Si Si6 0.832155 0.594997 0.165865
O O1 0.206911 0.211998 0.251572
O O2 0.194162 0.315464 0.106876
O O3 0.000000 0.182978 0.127667
O O4 0.273565 0.147899 0.091394
O O5 0.500000 0.620990 0.638631
O O6 0.292303 0.500000 0.606157
O O7 0.233635 0.678880 0.605985
O O8 0.288330 0.592716 0.755537
O O9 0.500000 0.100155 0.000000
O O10 0.261619 0.000000 0.000000
O O11 0.500000 0.877099 0.500000
O O12 0.744735 0.853864 0.409921
O O13 0.711552 0.000000 0.500000
O O14 0.000000 0.220251 0.379879
O O15 0.819535 0.500000 0.111104
O O16 0.000000 0.603557 0.207647
#
# Coordination Sequence:
#
# PCOD8200005 Si02
#       6
#     8   8   4   4   8   8
#     4   9  19  36  59  85 111 144 184 225 273 326
#     4   9  16  27  48  80 116 152 187 224 270 325
#     4  11  25  41  56  77 106 142 185 235 288 337
#     4  11  25  43  62  85 114 147 183 230 288 343
#     4  10  21  38  61  87 115 149 189 232 277 330
#     4   8  14  27  49  78 111 145 181 220 265 323
#
# _framework density 20.082961999999998
#
# number of rings (size 3 to 8) (size 9 to 14) (size 15 to 20)
#    0.000    2.600    0.000    3.000    0.000    7.600 
#    0.000    5.000    0.000    6.000    0.000    0.000 
#    0.000    0.000    0.000    0.000    0.000    0.000 
#
# Total GULP energy -495579.080142 kJ/mol
# GULP energy per Si atom -12389.477004 kJ/mol
# Density = 2.003725 g / cm^3
# Si number density = 20.082962 Si / 1000 Ang^3
#
#
#
# Elastic Constant Matrix: (Units=GPa)
#
#
# Indices 1 2 3 4 5 6 
#
# 1 98.3878 79.4175 34.5314 0.0000 0.0000 0.0000
# 2 79.4175 195.8053 56.7996 0.0000 0.0000 0.0000
# 3 34.5314 56.7996 69.4033 0.0000 0.0000 0.0000
# 4 0.0000 0.0000 0.0000 58.5582 0.0000 0.0000
# 5 0.0000 0.0000 0.0000 0.0000 24.3042 0.0000
# 6 0.0000 0.0000 0.0000 0.0000 0.0000 33.3430
#
#
#
# Elastic Compliance Matrix: (Units=1/GPa)
#
#
# Indices 1 2 3 4 5 6 
#
# 1 0.015703 -0.005380 -0.003410 0.000000 0.000000 0.000000
# 2 -0.005380 0.008540 -0.004312 0.000000 0.000000 0.000000
# 3 -0.003410 -0.004312 0.019635 0.000000 0.000000 0.000000
# 4 0.000000 0.000000 0.000000 0.017077 0.000000 0.000000
# 5 0.000000 0.000000 0.000000 0.000000 0.041145 0.000000
# 6 0.000000 0.000000 0.000000 0.000000 0.000000 0.029991
#
#
# Mechanical properties :
#
#
# Convention : Reuss Voigt Hill
#
# Bulk Modulus (GPa) = 56.58399 78.34372 67.46385
# Shear Modulus (GPa) = 30.45292 36.09762 33.27527
#
# Velocity S-wave (km/s) = 3.89827 4.24420 4.07491
# Velocity P-wave (km/s) = 6.96407 7.94433 7.47030
#
# Compressibility (1/GPa) = 0.01767284
#
# Stress axis : x y z
#
# Youngs Moduli (GPa) = 63.68049 117.09377 50.93041
#
# Poissons Ratio (x) = 0.62996 0.17368
# Poissons Ratio (y) = 0.34260 0.21964
# Poissons Ratio (z) = 0.21717 0.50496
#
# Static dielectric constant tensor:
#      x y z
#    x 3.600980 0.000000 0.000000 
#    y 0.000000 4.114400 0.000000 
#    z 0.000000 0.000000 3.196440 
# 
# 
# High freq. dielectric constant tensor:
#      x y z
#    x 1.784500 0.000000 0.000000 
#    y 0.000000 1.802340 0.000000 
#    z 0.000000 0.000000 1.746320 
# 
# From -- ./inp_files/20694.got.cif
#   From: 2010.03.12/outbox.cif.g09.slc.cpg/sg47_11_cif.got.tgz:20694.got - 2010.04.14 03:12:58.
