data_PCOD8200342
_publ_section_title
;
Structure prediction by ZEFSAII (Michael W. Deem and Ramdas Pophale) SiO2 
 PCOD8200342
Probable space group: P M M M
;
_chemical_formula_sum "Si O2"
_cell_formula_units_Z 40
_cell_length_a 9.152339
_cell_length_b 22.005586
_cell_length_c 12.579724
_cell_angle_alpha 90.000000
_cell_angle_beta 90.000000
_cell_angle_gamma 90.000000
_cell_volume 2533.588907
_symmetry_space_group_name_H-M "P M M M"
_symmetry_group_IT_number 47
_symmetry_cell_setting 'orthorhombic'
loop_
_space_group_symop_operation_xyz
x,y,z
-x,-y,z
x,-y,-z
-x,y,-z
-x,-y,-z
x,y,-z
-x,y,z
x,-y,z
loop_
_atom_site_type_symbol
_atom_site_label
_atom_site_fract_x
_atom_site_fract_y
_atom_site_fract_z
Si Si1 0.167384 0.570207 0.122698
Si Si2 0.665034 0.000000 0.373170
Si Si3 0.667884 0.234720 0.622352
Si Si4 0.831389 0.571785 0.500000
Si Si5 0.835100 0.882720 0.373316
Si Si6 0.329081 0.633331 0.694728
O O1 0.201907 0.500000 0.146206
O O2 0.276081 0.611545 0.190398
O O3 0.000000 0.584519 0.153478
O O4 0.195951 0.585512 0.000000
O O5 0.746474 0.059617 0.328471
O O6 0.500000 0.000000 0.329986
O O7 0.667342 0.000000 0.500000
O O8 0.706947 0.248648 0.500000
O O9 0.500000 0.215117 0.633342
O O10 0.763757 0.179606 0.668966
O O11 0.703878 0.294975 0.688648
O O12 0.813613 0.500000 0.500000
O O13 0.756532 0.597376 0.395253
O O14 0.000000 0.591556 0.500000
O O15 0.829720 0.883227 0.500000
O O16 0.000000 0.886786 0.330826
O O17 0.500000 0.620194 0.679632
#
# Coordination Sequence:
#
# PCOD8200342 Si02
#       6
#     8   4   8   4   8   8
#     4   9  19  36  54  70  90 117 149 186 231 283
#     4   9  15  23  35  51  73 107 144 179 222 261
#     4   9  17  30  42  56  84 118 147 177 220 271
#     4  11  23  35  47  65  91 122 153 184 225 277
#     4   9  16  24  36  55  77 104 144 188 219 250
#     4  11  21  33  49  70  93 118 150 191 232 273
#
# _framework density 15.787881
#
# number of rings (size 3 to 8) (size 9 to 14) (size 15 to 20)
#    0.000    2.400    1.000    3.000    0.000    9.200 
#    0.000    1.000    0.000    0.000    0.000    0.000 
#    0.000    0.000    0.000    0.900    0.000   16.900 
#
# Total GULP energy -496042.592218 kJ/mol
# GULP energy per Si atom -12401.064805 kJ/mol
# Density = 1.575195 g / cm^3
# Si number density = 15.787881 Si / 1000 Ang^3
#
#
#
# Elastic Constant Matrix: (Units=GPa)
#
#
# Indices 1 2 3 4 5 6 
#
# 1 125.9587 82.3943 36.6135 0.0000 0.0000 0.0000
# 2 82.3943 124.1890 41.3177 0.0000 0.0000 0.0000
# 3 36.6135 41.3177 49.1421 0.0000 0.0000 0.0000
# 4 0.0000 0.0000 0.0000 7.8358 0.0000 0.0000
# 5 0.0000 0.0000 0.0000 0.0000 20.4544 0.0000
# 6 0.0000 0.0000 0.0000 0.0000 0.0000 27.7902
#
#
#
# Elastic Compliance Matrix: (Units=1/GPa)
#
#
# Indices 1 2 3 4 5 6 
#
# 1 0.014513 -0.008374 -0.003773 0.000000 0.000000 0.000000
# 2 -0.008374 0.016011 -0.007223 0.000000 0.000000 0.000000
# 3 -0.003773 -0.007223 0.029233 0.000000 0.000000 0.000000
# 4 0.000000 0.000000 0.000000 0.127620 0.000000 0.000000
# 5 0.000000 0.000000 0.000000 0.000000 0.048889 0.000000
# 6 0.000000 0.000000 0.000000 0.000000 0.000000 0.035984
#
#
# Mechanical properties :
#
#
# Convention : Reuss Voigt Hill
#
# Bulk Modulus (GPa) = 47.57699 68.88231 58.22965
# Shear Modulus (GPa) = 15.72350 20.48034 18.10192
#
# Velocity S-wave (km/s) = 3.15925 3.60560 3.38978
# Velocity P-wave (km/s) = 6.59609 7.81399 7.23072
#
# Compressibility (1/GPa) = 0.02101856
#
# Stress axis : x y z
#
# Youngs Moduli (GPa) = 68.90169 62.45707 34.20819
#
# Poissons Ratio (x) = 0.52301 0.12906
# Poissons Ratio (y) = 0.57698 0.24708
# Poissons Ratio (z) = 0.25994 0.45111
#
# Static dielectric constant tensor:
#      x y z
#    x 3.151020 0.000000 0.000000 
#    y 0.000000 3.114410 0.000000 
#    z 0.000000 0.000000 2.569940 
# 
# 
# High freq. dielectric constant tensor:
#      x y z
#    x 1.620910 0.000000 0.000000 
#    y 0.000000 1.614370 0.000000 
#    z 0.000000 0.000000 1.545600 
# 
# From -- ./inp_files/4025.got.cif
#   From: 2010.03.12/outbox.cif.g09.slc.cpg/sg47_3_cif.got.tgz:4025.got - 2010.04.14 03:12:58.
