data_PCOD8200631
_publ_section_title
;
Structure prediction by ZEFSAII (Michael W. Deem and Ramdas Pophale) SiO2 
 PCOD8200631
Probable space group: P M M M
;
_chemical_formula_sum "Si O2"
_cell_formula_units_Z 36
_cell_length_a 8.959693
_cell_length_b 23.578585
_cell_length_c 8.745164
_cell_angle_alpha 90.000000
_cell_angle_beta 90.000000
_cell_angle_gamma 90.000000
_cell_volume 1847.476088
_symmetry_space_group_name_H-M "P M M M"
_symmetry_group_IT_number 47
_symmetry_cell_setting 'orthorhombic'
loop_
_space_group_symop_operation_xyz
x,y,z
-x,-y,z
x,-y,-z
-x,y,-z
-x,-y,-z
x,y,-z
-x,y,z
x,-y,z
loop_
_atom_site_type_symbol
_atom_site_label
_atom_site_fract_x
_atom_site_fract_y
_atom_site_fract_z
Si Si1 0.822055 0.682552 0.823803
Si Si2 0.833097 0.440057 0.818636
Si Si3 0.332420 0.000000 0.319655
Si Si4 0.673704 0.212199 0.323139
Si Si5 0.828451 0.106539 0.821454
O O1 0.760672 0.620100 0.768313
O O2 0.743119 0.727027 0.714101
O O3 0.000000 0.685978 0.804531
O O4 0.778202 0.694635 0.000000
O O5 0.751879 0.500000 0.767349
O O6 0.000000 0.442117 0.751976
O O7 0.841260 0.438009 0.000000
O O8 0.248323 0.944214 0.267116
O O9 0.500000 0.000000 0.251921
O O10 0.337889 0.000000 0.500000
O O11 0.701939 0.197696 0.500000
O O12 0.500000 0.213045 0.283327
O O13 0.751579 0.165514 0.218781
O O14 0.000000 0.109757 0.770982
O O15 0.812209 0.094784 0.000000
#
# Coordination Sequence:
#
# PCOD8200631 Si02
#       5
#     8   8   4   8   8
#     4   9  17  30  51  79 106 133 171 218 267 321
#     4   7  10  19  39  69 102 131 161 205 261 315
#     4  11  24  41  62  90 122 153 184 215 252 304
#     4  11  24  39  54  75 105 142 183 223 266 319
#     4  11  24  41  62  88 114 141 179 224 267 313
#
# _framework density 19.486042999999999
#
# number of rings (size 3 to 8) (size 9 to 14) (size 15 to 20)
#    0.000    2.333    0.000    5.333    0.000   11.556 
#    0.000    0.000    0.000    1.333    0.000    7.778 
#    0.000    0.000    0.000    0.000    0.000    0.000 
#
# Total GULP energy -446092.079760 kJ/mol
# GULP energy per Si atom -12391.446660 kJ/mol
# Density = 1.944169 g / cm^3
# Si number density = 19.486043 Si / 1000 Ang^3
#
#
#
# Elastic Constant Matrix: (Units=GPa)
#
#
# Indices 1 2 3 4 5 6 
#
# 1 85.1739 49.3341 28.9260 0.0000 0.0000 0.0000
# 2 49.3341 162.0089 20.5740 0.0000 0.0000 0.0000
# 3 28.9260 20.5740 38.4812 0.0000 0.0000 0.0000
# 4 0.0000 0.0000 0.0000 -23.5621 0.0000 0.0000
# 5 0.0000 0.0000 0.0000 0.0000 26.8877 0.0000
# 6 0.0000 0.0000 0.0000 0.0000 0.0000 60.4877
#
#
#
# Elastic Compliance Matrix: (Units=1/GPa)
#
#
# Indices 1 2 3 4 5 6 
#
# 1 0.017910 -0.004017 -0.011315 0.000000 0.000000 0.000000
# 2 -0.004017 0.007523 -0.001003 0.000000 0.000000 0.000000
# 3 -0.011315 -0.001003 0.035028 0.000000 0.000000 0.000000
# 4 0.000000 0.000000 0.000000 -0.042441 0.000000 0.000000
# 5 0.000000 0.000000 0.000000 0.000000 0.037192 0.000000
# 6 0.000000 0.000000 0.000000 0.000000 0.000000 0.016532
#
#
# Mechanical properties :
#
#
# Convention : Reuss Voigt Hill
#
# Bulk Modulus (GPa) = 35.98185 53.70358 44.84272
# Shear Modulus (GPa) = 43.98377 25.21797 34.60087
#
# Velocity S-wave (km/s) = 4.75615 3.60134 4.21845
# Velocity P-wave (km/s) = 6.97616 6.70170 6.84030
#
# Compressibility (1/GPa) = 0.02779179
#
# Stress axis : x y z
#
# Youngs Moduli (GPa) = 55.83427 132.92459 28.54832
#
# Poissons Ratio (x) = 0.53395 0.32303
# Poissons Ratio (y) = 0.22428 0.02863
# Poissons Ratio (z) = 0.63178 0.13328
#
# Static dielectric constant tensor:
#      x y z
#    x 3.425100 0.000000 0.000000 
#    y 0.000000 4.116730 0.000000 
#    z 0.000000 0.000000 3.301480 
# 
# 
# High freq. dielectric constant tensor:
#      x y z
#    x 1.732110 0.000000 0.000000 
#    y 0.000000 1.791770 0.000000 
#    z 0.000000 0.000000 1.734100 
# 
# From -- ./inp_files/1420.got.cif
#   From: 2010.03.12/outbox.cif.g09.slc.cpg/sg47_1_cif.got.tgz:1420.got - 2010.04.14 03:12:58.
