data_PCOD8200812
_publ_section_title
;
Structure prediction by ZEFSAII (Michael W. Deem and Ramdas Pophale) SiO2 
 PCOD8200812
Probable space group: P M M M
;
_chemical_formula_sum "Si O2"
_cell_formula_units_Z 40
_cell_length_a 9.468336
_cell_length_b 18.714212
_cell_length_c 14.010975
_cell_angle_alpha 90.000000
_cell_angle_beta 90.000000
_cell_angle_gamma 90.000000
_cell_volume 2482.638948
_symmetry_space_group_name_H-M "P M M M"
_symmetry_group_IT_number 47
_symmetry_cell_setting 'orthorhombic'
loop_
_space_group_symop_operation_xyz
x,y,z
-x,-y,z
x,-y,-z
-x,y,-z
-x,-y,-z
x,y,-z
-x,y,z
x,-y,z
loop_
_atom_site_type_symbol
_atom_site_label
_atom_site_fract_x
_atom_site_fract_y
_atom_site_fract_z
Si Si1 0.832099 0.215557 0.605630
Si Si2 0.832727 0.838918 0.104728
Si Si3 0.833842 0.301717 0.213736
Si Si4 0.663301 0.417267 0.108418
Si Si5 0.168498 0.921040 0.715007
O O1 0.771612 0.232516 0.500000
O O2 0.785268 0.277106 0.679910
O O3 0.775811 0.137384 0.638903
O O4 0.000000 0.212380 0.604291
O O5 0.789856 0.760128 0.139864
O O6 0.777365 0.898257 0.179395
O O7 0.000000 0.843513 0.099353
O O8 0.766001 0.852837 0.000000
O O9 0.753614 0.373345 0.184797
O O10 0.000000 0.317052 0.210949
O O11 0.500000 0.397292 0.121067
O O12 0.689104 0.500000 0.131323
O O13 0.711763 0.400233 0.000000
O O14 0.000000 0.921776 0.714229
O O15 0.228108 0.000000 0.690239
#
# Coordination Sequence:
#
# PCOD8200812 Si02
#       5
#     8   8   8   8   8
#     4   8  14  24  37  54  77 105 137 175 216 247
#     4   8  13  20  30  47  73 103 133 167 205 239
#     4   9  16  26  42  62  82 107 141 175 202 236
#     4   9  18  31  45  63  88 113 132 155 195 243
#     4   8  13  19  27  44  72 106 141 169 197 242
#
# _framework density 16.111888
#
# number of rings (size 3 to 8) (size 9 to 14) (size 15 to 20)
#    0.000    3.600    0.000    3.600    0.000    2.400 
#    0.000    5.000    0.000    1.200    0.000    4.200 
#    0.000   12.800    0.000   51.200    0.000   44.800 
#
# Total GULP energy -495613.182038 kJ/mol
# GULP energy per Si atom -12390.329551 kJ/mol
# Density = 1.607522 g / cm^3
# Si number density = 16.111888 Si / 1000 Ang^3
#
#
#
# Elastic Constant Matrix: (Units=GPa)
#
#
# Indices 1 2 3 4 5 6 
#
# 1 20.7577 31.3158 22.7629 0.0000 0.0000 0.0000
# 2 31.3158 103.6286 61.2663 0.0000 0.0000 0.0000
# 3 22.7629 61.2663 138.7799 0.0000 0.0000 0.0000
# 4 0.0000 0.0000 0.0000 19.8715 0.0000 0.0000
# 5 0.0000 0.0000 0.0000 0.0000 9.2746 0.0000
# 6 0.0000 0.0000 0.0000 0.0000 0.0000 -0.5028
#
#
#
# Elastic Compliance Matrix: (Units=1/GPa)
#
#
# Indices 1 2 3 4 5 6 
#
# 1 0.089942 -0.024977 -0.003726 0.000000 0.000000 0.000000
# 2 -0.024977 0.019994 -0.004730 0.000000 0.000000 0.000000
# 3 -0.003726 -0.004730 0.009905 0.000000 0.000000 0.000000
# 4 0.000000 0.000000 0.000000 0.050323 0.000000 0.000000
# 5 0.000000 0.000000 0.000000 0.000000 0.107821 0.000000
# 6 0.000000 0.000000 0.000000 0.000000 0.000000 -1.988936
#
#
# Mechanical properties :
#
#
# Convention : Reuss Voigt Hill
#
# Bulk Modulus (GPa) = 18.87679 54.87291 36.87485
# Shear Modulus (GPa) = -3.07422 15.58341 6.25459
#
# Velocity S-wave (km/s) = -1.38282 3.11336 1.97241
# Velocity P-wave (km/s) = 3.03182 6.85969 5.30317
#
# Compressibility (1/GPa) = 0.05297512
#
# Stress axis : x y z
#
# Youngs Moduli (GPa) = 11.11831 50.01496 100.96035
#
# Poissons Ratio (x) = 1.24922 0.37618
# Poissons Ratio (y) = 0.27770 0.47753
# Poissons Ratio (z) = 0.04143 0.23657
#
# Static dielectric constant tensor:
#      x y z
#    x 2.419270 0.000000 0.000000 
#    y 0.000000 3.042840 0.000000 
#    z 0.000000 0.000000 3.460590 
# 
# 
# High freq. dielectric constant tensor:
#      x y z
#    x 1.550540 0.000000 0.000000 
#    y 0.000000 1.615220 0.000000 
#    z 0.000000 0.000000 1.621380 
# 
# From -- ./inp_files/5926.got.cif
#   From: 2010.03.12/outbox.cif.g09.slc.cpg/sg47_3_cif.got.tgz:5926.got - 2010.04.14 03:12:58.
