data_PCOD8200083
_publ_section_title
;
Structure prediction by ZEFSAII (Michael W. Deem and Ramdas Pophale) SiO2 
 PCOD8200083
Probable space group: P M M M
;
_chemical_formula_sum "Si O2"
_cell_formula_units_Z 40
_cell_length_a 22.599031
_cell_length_b 10.419864
_cell_length_c 9.193795
_cell_angle_alpha 90.000000
_cell_angle_beta 90.000000
_cell_angle_gamma 90.000000
_cell_volume 2164.944086
_symmetry_space_group_name_H-M "P M M M"
_symmetry_group_IT_number 47
_symmetry_cell_setting 'orthorhombic'
loop_
_space_group_symop_operation_xyz
x,y,z
-x,-y,z
x,-y,-z
-x,y,-z
-x,-y,-z
x,y,-z
-x,y,z
x,-y,z
loop_
_atom_site_type_symbol
_atom_site_label
_atom_site_fract_x
_atom_site_fract_y
_atom_site_fract_z
Si Si1 0.324629 0.641109 0.333790
Si Si2 0.000000 0.846701 0.664698
Si Si3 0.433286 0.724354 0.826150
Si Si4 0.113424 0.848224 0.836695
Si Si5 0.569227 0.000000 0.843381
Si Si6 0.768178 0.852517 0.329139
O O1 0.340911 0.670637 0.500000
O O2 0.294286 0.500000 0.318810
O O3 0.385495 0.630620 0.243322
O O4 0.282222 0.754105 0.274554
O O5 0.057663 0.792496 0.747832
O O6 0.000000 0.793853 0.500000
O O7 0.000000 0.000000 0.663260
O O8 0.500000 0.684517 0.779406
O O9 0.415925 0.866659 0.761847
O O10 0.428721 0.722825 0.000000
O O11 0.173122 0.809352 0.754489
O O12 0.107709 0.000000 0.844102
O O13 0.113851 0.790714 0.000000
O O14 0.500000 0.000000 0.874380
O O15 0.602032 0.000000 0.000000
O O16 0.780489 0.837382 0.500000
O O17 0.749972 0.000000 0.291771
#
# Coordination Sequence:
#
# PCOD8200083 Si02
#       6
#     8   4   8   8   4   8
#     4  10  22  37  51  71 100 131 163 203 252 300
#     4   9  15  23  39  65 100 139 170 197 238 292
#     4   9  18  33  53  75  98 125 159 200 247 300
#     4   9  16  26  42  68 100 130 163 205 249 288
#     4   7  12  26  47  71  97 121 147 186 237 288
#     4   9  18  33  51  69  93 128 168 205 242 291
#
# _framework density 18.476229
#
# number of rings (size 3 to 8) (size 9 to 14) (size 15 to 20)
#    0.000    3.000    0.000    2.100    1.400    5.600 
#    0.000    2.000    0.000    1.800    0.000    0.700 
#    0.000    5.600    0.000    0.000    0.000    0.000 
#
# Total GULP energy -495625.313223 kJ/mol
# GULP energy per Si atom -12390.632831 kJ/mol
# Density = 1.843418 g / cm^3
# Si number density = 18.476229 Si / 1000 Ang^3
#
#
#
# Elastic Constant Matrix: (Units=GPa)
#
#
# Indices 1 2 3 4 5 6 
#
# 1 140.5148 49.0983 59.7648 0.0000 0.0000 0.0000
# 2 49.0983 70.7473 24.6787 0.0000 0.0000 0.0000
# 3 59.7648 24.6787 77.8758 0.0000 0.0000 0.0000
# 4 0.0000 0.0000 0.0000 35.7669 0.0000 0.0000
# 5 0.0000 0.0000 0.0000 0.0000 31.0519 0.0000
# 6 0.0000 0.0000 0.0000 0.0000 0.0000 7.5610
#
#
#
# Elastic Compliance Matrix: (Units=1/GPa)
#
#
# Indices 1 2 3 4 5 6 
#
# 1 0.012470 -0.005976 -0.007676 0.000000 0.000000 0.000000
# 2 -0.005976 0.018756 -0.001357 0.000000 0.000000 0.000000
# 3 -0.007676 -0.001357 0.019162 0.000000 0.000000 0.000000
# 4 0.000000 0.000000 0.000000 0.027959 0.000000 0.000000
# 5 0.000000 0.000000 0.000000 0.000000 0.032204 0.000000
# 6 0.000000 0.000000 0.000000 0.000000 0.000000 0.132258
#
#
# Mechanical properties :
#
#
# Convention : Reuss Voigt Hill
#
# Bulk Modulus (GPa) = 49.09532 61.80237 55.44885
# Shear Modulus (GPa) = 17.88167 25.24902 21.56535
#
# Velocity S-wave (km/s) = 3.11436 3.70072 3.42013
# Velocity P-wave (km/s) = 6.28984 7.19602 6.75814
#
# Compressibility (1/GPa) = 0.02036854
#
# Stress axis : x y z
#
# Youngs Moduli (GPa) = 80.19463 53.31680 52.18725
#
# Poissons Ratio (x) = 0.31864 0.40058
# Poissons Ratio (y) = 0.47927 0.07083
# Poissons Ratio (z) = 0.61556 0.07236
#
# Static dielectric constant tensor:
#      x y z
#    x 3.353690 0.000000 0.000000 
#    y 0.000000 3.327580 0.000000 
#    z 0.000000 0.000000 3.310880 
# 
# 
# High freq. dielectric constant tensor:
#      x y z
#    x 1.710630 0.000000 0.000000 
#    y 0.000000 1.681150 0.000000 
#    z 0.000000 0.000000 1.705610 
# 
# From -- ./inp_files/10649.got.cif
#   From: 2010.03.12/outbox.cif.g09.slc.cpg/sg47_6_cif.got.tgz:10649.got - 2010.04.14 03:12:58.
