data_PCOD8200526
_publ_section_title
;
Structure prediction by ZEFSAII (Michael W. Deem and Ramdas Pophale) SiO2 
 PCOD8200526
Probable space group: P M M M
;
_chemical_formula_sum "Si O2"
_cell_formula_units_Z 64
_cell_length_a 9.220665
_cell_length_b 23.370446
_cell_length_c 19.385699
_cell_angle_alpha 90.000000
_cell_angle_beta 90.000000
_cell_angle_gamma 90.000000
_cell_volume 4177.444700
_symmetry_space_group_name_H-M "P M M M"
_symmetry_group_IT_number 47
_symmetry_cell_setting 'orthorhombic'
loop_
_space_group_symop_operation_xyz
x,y,z
-x,-y,z
x,-y,-z
-x,y,-z
-x,-y,-z
x,y,-z
-x,y,z
x,-y,z
loop_
_atom_site_type_symbol
_atom_site_label
_atom_site_fract_x
_atom_site_fract_y
_atom_site_fract_z
Si Si1 0.171104 0.843812 0.707689
Si Si2 0.666479 0.934046 0.794517
Si Si3 0.172357 0.243074 0.926019
Si Si4 0.831733 0.887998 0.922056
Si Si5 0.827954 0.335795 0.651616
Si Si6 0.172032 0.222222 0.576332
Si Si7 0.171721 0.728449 0.218316
Si Si8 0.331379 0.565403 0.421571
O O1 0.255424 0.899406 0.733343
O O2 0.219008 0.828007 0.629169
O O3 0.218633 0.791010 0.755806
O O4 0.000000 0.855650 0.712344
O O5 0.500000 0.914642 0.799191
O O6 0.739001 0.925076 0.869079
O O7 0.680700 0.000000 0.773989
O O8 0.219842 0.177543 0.916570
O O9 0.231440 0.279696 0.860319
O O10 0.000000 0.245714 0.927767
O O11 0.232774 0.266583 0.000000
O O12 0.000000 0.893603 0.901491
O O13 0.806090 0.910713 0.000000
O O14 0.773831 0.284443 0.602038
O O15 0.773340 0.320885 0.729627
O O16 0.757502 0.395192 0.630195
O O17 0.000000 0.342613 0.648253
O O18 0.236294 0.209841 0.500000
O O19 0.000000 0.224451 0.574420
O O20 0.000000 0.726339 0.219003
O O21 0.281372 0.577060 0.500000
O O22 0.500000 0.579157 0.413542
O O23 0.298677 0.500000 0.401418
#
# Coordination Sequence:
#
# PCOD8200526 Si02
#       8
#     8   8   8   8   8   8   8   8
#     4   9  16  29  48  64  81 107 138 171 207 252
#     4  11  23  34  43  58  83 112 139 172 214 257
#     4   8  12  20  39  64  86 108 134 164 198 240
#     4   9  17  30  49  68  82 103 140 177 203 241
#     4   9  16  25  42  67  91 114 140 172 208 248
#     4   8  14  25  44  70  93 109 129 167 219 263
#     4   8  13  23  40  63  89 110 132 169 212 246
#     4   9  18  31  43  56  82 121 156 182 208 238
#
# _framework density 15.320371
#
# number of rings (size 3 to 8) (size 9 to 14) (size 15 to 20)
#    0.000    3.125    1.250    3.375    0.000    2.500 
#    0.000    4.375    0.000    1.500    0.000    2.625 
#    0.000    0.500    0.000    6.250    0.000    1.000 
#
# Total GULP energy -792995.195874 kJ/mol
# GULP energy per Si atom -12390.549936 kJ/mol
# Density = 1.528550 g / cm^3
# Si number density = 15.320371 Si / 1000 Ang^3
#
#
#
# Elastic Constant Matrix: (Units=GPa)
#
#
# Indices 1 2 3 4 5 6 
#
# 1 41.0443 33.4946 32.2851 0.0000 0.0000 0.0000
# 2 33.4946 74.7135 57.7161 0.0000 0.0000 0.0000
# 3 32.2851 57.7161 145.1453 0.0000 0.0000 0.0000
# 4 0.0000 0.0000 0.0000 24.9149 0.0000 0.0000
# 5 0.0000 0.0000 0.0000 0.0000 11.5337 0.0000
# 6 0.0000 0.0000 0.0000 0.0000 0.0000 -1.6254
#
#
#
# Elastic Compliance Matrix: (Units=1/GPa)
#
#
# Indices 1 2 3 4 5 6 
#
# 1 0.039032 -0.015576 -0.002488 0.000000 0.000000 0.000000
# 2 -0.015576 0.025535 -0.006689 0.000000 0.000000 0.000000
# 3 -0.002488 -0.006689 0.010103 0.000000 0.000000 0.000000
# 4 0.000000 0.000000 0.000000 0.040137 0.000000 0.000000
# 5 0.000000 0.000000 0.000000 0.000000 0.086703 0.000000
# 6 0.000000 0.000000 0.000000 0.000000 0.000000 -0.615246
#
#
# Mechanical properties :
#
#
# Convention : Reuss Voigt Hill
#
# Bulk Modulus (GPa) = 39.74113 56.43273 48.08693
# Shear Modulus (GPa) = -14.05120 16.12514 1.03697
#
# Velocity S-wave (km/s) = -3.03175 3.24779 0.82361
# Velocity P-wave (km/s) = 3.70689 7.13998 5.68860
#
# Compressibility (1/GPa) = 0.02516285
#
# Stress axis : x y z
#
# Youngs Moduli (GPa) = 25.61975 39.16242 98.98083
#
# Poissons Ratio (x) = 0.61001 0.24629
# Poissons Ratio (y) = 0.39906 0.66208
# Poissons Ratio (z) = 0.06375 0.26196
#
# Static dielectric constant tensor:
#      x y z
#    x 2.583630 0.000000 0.000000 
#    y 0.000000 2.695340 0.000000 
#    z 0.000000 0.000000 3.471270 
# 
# 
# High freq. dielectric constant tensor:
#      x y z
#    x 1.552040 0.000000 0.000000 
#    y 0.000000 1.553620 0.000000 
#    z 0.000000 0.000000 1.596830 
# 
# From -- ./inp_files/30219.got.cif
#   From: 2010.03.12/outbox.cif.g09.slc.cpg/sg47_16_cif.got.tgz:30219.got - 2010.04.14 03:12:58.
