data_PCOD8200873
_publ_section_title
;
Structure prediction by ZEFSAII (Michael W. Deem and Ramdas Pophale) SiO2 
 PCOD8200873
Probable space group: P M M M
;
_chemical_formula_sum "Si O2"
_cell_formula_units_Z 36
_cell_length_a 20.423801
_cell_length_b 9.615567
_cell_length_c 12.686006
_cell_angle_alpha 90.000000
_cell_angle_beta 90.000000
_cell_angle_gamma 90.000000
_cell_volume 2491.359390
_symmetry_space_group_name_H-M "P M M M"
_symmetry_group_IT_number 47
_symmetry_cell_setting 'orthorhombic'
loop_
_space_group_symop_operation_xyz
x,y,z
-x,-y,z
x,-y,-z
-x,y,-z
-x,-y,-z
x,y,-z
-x,y,z
x,-y,z
loop_
_atom_site_type_symbol
_atom_site_label
_atom_site_fract_x
_atom_site_fract_y
_atom_site_fract_z
Si Si1 0.830563 0.334759 0.383426
Si Si2 0.923568 0.661770 0.197630
Si Si3 0.077674 0.158113 0.000000
Si Si4 0.313398 0.345894 0.374798
Si Si5 0.572259 0.155612 0.625298
O O1 0.847891 0.274999 0.500000
O O2 0.828262 0.500000 0.390209
O O3 0.885273 0.285438 0.301042
O O4 0.758349 0.283371 0.346474
O O5 0.908982 0.500000 0.171379
O O6 0.000000 0.684382 0.219881
O O7 0.897983 0.757156 0.102075
O O8 0.000000 0.154603 0.000000
O O9 0.105619 0.000000 0.000000
O O10 0.319881 0.353027 0.500000
O O11 0.321837 0.500000 0.326641
O O12 0.370815 0.251289 0.325077
O O13 0.577762 0.155011 0.500000
O O14 0.500000 0.210925 0.658603
O O15 0.582354 0.000000 0.668764
#
# Coordination Sequence:
#
# PCOD8200873 Si02
#       5
#     8   8   4   8   8
#     4   8  14  24  37  55  79 103 126 155 190 223
#     4   9  16  26  42  61  77  96 126 160 190 225
#     4   9  17  29  43  57  75  97 120 153 198 237
#     4   8  13  21  32  45  64  92 122 148 176 214
#     4   8  13  20  29  42  61  85 115 152 187 212
#
# _framework density 14.449942
#
# number of rings (size 3 to 8) (size 9 to 14) (size 15 to 20)
#    0.000    3.667    0.000    2.333    0.000    2.222 
#    0.000    5.556    0.000    2.000    0.000    3.111 
#    0.000    0.000    0.000    1.000    0.000   21.333 
#
# Total GULP energy -446047.077321 kJ/mol
# GULP energy per Si atom -12390.196592 kJ/mol
# Density = 1.441705 g / cm^3
# Si number density = 14.449942 Si / 1000 Ang^3
#
#
#
# Elastic Constant Matrix: (Units=GPa)
#
#
# Indices 1 2 3 4 5 6 
#
# 1 94.8464 43.6803 48.4089 0.0000 0.0000 0.0000
# 2 43.6803 61.0733 34.3910 0.0000 0.0000 0.0000
# 3 48.4089 34.3910 67.0112 0.0000 0.0000 0.0000
# 4 0.0000 0.0000 0.0000 8.1405 0.0000 0.0000
# 5 0.0000 0.0000 0.0000 0.0000 1.2647 0.0000
# 6 0.0000 0.0000 0.0000 0.0000 0.0000 13.4108
#
#
#
# Elastic Compliance Matrix: (Units=1/GPa)
#
#
# Indices 1 2 3 4 5 6 
#
# 1 0.019340 -0.008390 -0.009666 0.000000 0.000000 0.000000
# 2 -0.008390 0.026668 -0.007626 0.000000 0.000000 0.000000
# 3 -0.009666 -0.007626 0.025819 0.000000 0.000000 0.000000
# 4 0.000000 0.000000 0.000000 0.122843 0.000000 0.000000
# 5 0.000000 0.000000 0.000000 0.000000 0.790685 0.000000
# 6 0.000000 0.000000 0.000000 0.000000 0.000000 0.074567
#
#
# Mechanical properties :
#
#
# Convention : Reuss Voigt Hill
#
# Bulk Modulus (GPa) = 48.86331 52.87682 50.87006
# Shear Modulus (GPa) = 4.47184 10.99324 7.73254
#
# Velocity S-wave (km/s) = 1.76109 2.76122 2.31579
# Velocity P-wave (km/s) = 6.16638 6.84385 6.51393
#
# Compressibility (1/GPa) = 0.02046525
#
# Stress axis : x y z
#
# Youngs Moduli (GPa) = 51.70499 37.49775 38.73078
#
# Poissons Ratio (x) = 0.31459 0.37437
# Poissons Ratio (y) = 0.43378 0.29536
# Poissons Ratio (z) = 0.49978 0.28595
#
# Static dielectric constant tensor:
#      x y z
#    x 3.013610 0.000000 0.000000 
#    y 0.000000 2.880010 0.000000 
#    z 0.000000 0.000000 2.550450 
# 
# 
# High freq. dielectric constant tensor:
#      x y z
#    x 1.550960 0.000000 0.000000 
#    y 0.000000 1.535760 0.000000 
#    z 0.000000 0.000000 1.495910 
# 
# From -- ./inp_files/1357.got.cif
#   From: 2010.03.12/outbox.cif.g09.slc.cpg/sg47_1_cif.got.tgz:1357.got - 2010.04.14 03:12:58.
