data_PCOD8200437
_publ_section_title
;
Structure prediction by ZEFSAII (Michael W. Deem and Ramdas Pophale) SiO2 
 PCOD8200437
Probable space group: P M M M
;
_chemical_formula_sum "Si O2"
_cell_formula_units_Z 44
_cell_length_a 8.433680
_cell_length_b 18.168079
_cell_length_c 15.378945
_cell_angle_alpha 90.000000
_cell_angle_beta 90.000000
_cell_angle_gamma 90.000000
_cell_volume 2356.419847
_symmetry_space_group_name_H-M "P M M M"
_symmetry_group_IT_number 47
_symmetry_cell_setting 'orthorhombic'
loop_
_space_group_symop_operation_xyz
x,y,z
-x,-y,z
x,-y,-z
-x,y,-z
-x,-y,-z
x,y,-z
-x,y,z
x,-y,z
loop_
_atom_site_type_symbol
_atom_site_label
_atom_site_fract_x
_atom_site_fract_y
_atom_site_fract_z
Si Si1 0.811618 0.582277 0.097303
Si Si2 0.176247 0.914153 0.000000
Si Si3 0.185373 0.080017 0.343831
Si Si4 0.811330 0.708003 0.775740
Si Si5 0.316402 0.860732 0.174499
Si Si6 0.811594 0.765070 0.594588
O O1 0.747912 0.500000 0.116854
O O2 0.746811 0.635677 0.173833
O O3 0.000000 0.582402 0.099269
O O4 0.755325 0.607021 0.000000
O O5 0.281399 0.890661 0.919595
O O6 0.000000 0.877168 0.000000
O O7 0.153026 0.000000 0.000000
O O8 0.216111 0.090646 0.241794
O O9 0.257856 0.151557 0.393187
O O10 0.000000 0.077518 0.361178
O O11 0.256917 0.000000 0.373771
O O12 0.735414 0.776144 0.824893
O O13 0.756682 0.711035 0.673388
O O14 0.000000 0.713218 0.782011
O O15 0.500000 0.868481 0.197899
O O16 0.752924 0.735336 0.500000
O O17 0.000000 0.769948 0.596610
#
# Coordination Sequence:
#
# PCOD8200437 Si02
#       6
#     8   4   8   8   8   8
#     4   8  14  25  44  72  99 121 152 194 234 275
#     4  11  23  37  51  65  86 121 164 203 235 274
#     4   9  17  30  47  65  86 116 157 200 243 289
#     4   9  17  30  49  70  92 124 160 193 233 282
#     4  11  22  33  46  67  94 123 155 194 240 285
#     4   8  14  25  42  66  93 120 156 199 239 281
#
# _framework density 18.672393
#
# number of rings (size 3 to 8) (size 9 to 14) (size 15 to 20)
#    0.000    2.818    0.000    4.091    1.273    3.636 
#    0.000    1.818    0.000    9.818    0.000   10.182 
#    0.000    0.000    0.000    6.545    0.000    7.273 
#
# Total GULP energy -545081.372395 kJ/mol
# GULP energy per Si atom -12388.213009 kJ/mol
# Density = 1.862989 g / cm^3
# Si number density = 18.672393 Si / 1000 Ang^3
#
#
#
# Elastic Constant Matrix: (Units=GPa)
#
#
# Indices 1 2 3 4 5 6 
#
# 1 15.7892 9.3269 -1.1715 0.0000 0.0000 0.0000
# 2 9.3269 109.5123 68.0201 0.0000 0.0000 0.0000
# 3 -1.1715 68.0201 146.1426 0.0000 0.0000 0.0000
# 4 0.0000 0.0000 0.0000 11.0555 0.0000 0.0000
# 5 0.0000 0.0000 0.0000 0.0000 4.6094 0.0000
# 6 0.0000 0.0000 0.0000 0.0000 0.0000 2.3000
#
#
#
# Elastic Compliance Matrix: (Units=1/GPa)
#
#
# Indices 1 2 3 4 5 6 
#
# 1 0.068833 -0.008728 0.004614 0.000000 0.000000 0.000000
# 2 -0.008728 0.013951 -0.006563 0.000000 0.000000 0.000000
# 3 0.004614 -0.006563 0.009935 0.000000 0.000000 0.000000
# 4 0.000000 0.000000 0.000000 0.090452 0.000000 0.000000
# 5 0.000000 0.000000 0.000000 0.000000 0.216949 0.000000
# 6 0.000000 0.000000 0.000000 0.000000 0.000000 0.434780
#
#
# Mechanical properties :
#
#
# Convention : Reuss Voigt Hill
#
# Bulk Modulus (GPa) = 14.01272 47.08834 30.55053
# Shear Modulus (GPa) = 5.68154 16.61089 11.14622
#
# Velocity S-wave (km/s) = 1.74624 2.98585 2.44588
# Velocity P-wave (km/s) = 3.40391 6.09590 4.93693
#
# Compressibility (1/GPa) = 0.07136371
#
# Stress axis : x y z
#
# Youngs Moduli (GPa) = 14.52795 71.67705 100.65927
#
# Poissons Ratio (x) = 0.62562 -0.46447
# Poissons Ratio (y) = 0.12680 0.66068
# Poissons Ratio (z) = -0.06704 0.47045
#
# Static dielectric constant tensor:
#      x y z
#    x 3.034470 0.000000 0.000000 
#    y 0.000000 3.634200 0.000000 
#    z 0.000000 0.000000 3.775820 
# 
# 
# High freq. dielectric constant tensor:
#      x y z
#    x 1.680480 0.000000 0.000000 
#    y 0.000000 1.706970 0.000000 
#    z 0.000000 0.000000 1.729080 
# 
# From -- ./inp_files/20908.got.cif
#   From: 2010.03.12/outbox.cif.g09.slc.cpg/sg47_11_cif.got.tgz:20908.got - 2010.04.14 03:12:58.
