data_PCOD8200607
_publ_section_title
;
Structure prediction by ZEFSAII (Michael W. Deem and Ramdas Pophale) SiO2 
 PCOD8200607
Probable space group: P M M M
;
_chemical_formula_sum "Si O2"
_cell_formula_units_Z 56
_cell_length_a 22.838056
_cell_length_b 9.187837
_cell_length_c 14.417820
_cell_angle_alpha 90.000000
_cell_angle_beta 90.000000
_cell_angle_gamma 90.000000
_cell_volume 3025.324850
_symmetry_space_group_name_H-M "P M M M"
_symmetry_group_IT_number 47
_symmetry_cell_setting 'orthorhombic'
loop_
_space_group_symop_operation_xyz
x,y,z
-x,-y,z
x,-y,-z
-x,y,-z
-x,-y,-z
x,y,-z
-x,y,z
x,-y,z
loop_
_atom_site_type_symbol
_atom_site_label
_atom_site_fract_x
_atom_site_fract_y
_atom_site_fract_z
Si Si1 0.890132 0.832238 0.395695
Si Si2 0.708836 0.829270 0.106079
Si Si3 0.157608 0.163350 0.891254
Si Si4 0.065694 0.332714 0.772201
Si Si5 0.661893 0.327462 0.275956
Si Si6 0.755775 0.164981 0.608151
Si Si7 0.431888 0.167588 0.393825
O O1 0.898909 0.773617 0.500000
O O2 0.931182 0.741746 0.328107
O O3 0.823031 0.812299 0.363903
O O4 0.908356 0.000000 0.390510
O O5 0.775957 0.789333 0.131147
O O6 0.666036 0.737957 0.172351
O O7 0.698196 0.000000 0.121473
O O8 0.694855 0.786295 0.000000
O O9 0.111783 0.269051 0.843958
O O10 0.146821 0.000000 0.853888
O O11 0.146531 0.169786 0.000000
O O12 0.081122 0.500000 0.758694
O O13 0.000000 0.310475 0.811296
O O14 0.659677 0.500000 0.269885
O O15 0.718026 0.278799 0.334639
O O16 0.603165 0.270762 0.324540
O O17 0.746288 0.194976 0.500000
O O18 0.736172 0.000000 0.632402
O O19 0.415423 0.205906 0.500000
O O20 0.500000 0.195937 0.376123
O O21 0.415781 0.000000 0.373783
#
# Coordination Sequence:
#
# PCOD8200607 Si02
#       7
#     8   8   8   8   8   8   8
#     4   9  19  36  56  75  95 126 171 219 262 302
#     4   9  19  37  59  80 103 134 173 216 260 308
#     4   9  19  37  60  82 101 126 166 215 263 308
#     4  11  24  37  49  71 103 136 168 204 253 315
#     4  12  23  31  48  81 116 145 172 209 260 313
#     4   9  18  33  52  74 102 135 171 212 256 305
#     4   9  19  37  59  80 105 144 192 231 259 294
#
# _framework density 18.510408999999999
#
# number of rings (size 3 to 8) (size 9 to 14) (size 15 to 20)
#    0.000    2.286    0.000    5.143    0.000    9.714 
#    0.000    6.429    0.000    0.429    0.000    3.000 
#    0.000    0.000    0.000    0.000    0.000    0.000 
#
# Total GULP energy -694482.570322 kJ/mol
# GULP energy per Si atom -12401.474470 kJ/mol
# Density = 1.846828 g / cm^3
# Si number density = 18.510409 Si / 1000 Ang^3
#
#
#
# Elastic Constant Matrix: (Units=GPa)
#
#
# Indices 1 2 3 4 5 6 
#
# 1 74.9169 55.0496 51.7303 0.0000 0.0000 0.0000
# 2 55.0496 109.4766 57.1193 0.0000 0.0000 0.0000
# 3 51.7303 57.1193 84.9099 0.0000 0.0000 0.0000
# 4 0.0000 0.0000 0.0000 -2.5972 0.0000 0.0000
# 5 0.0000 0.0000 0.0000 0.0000 24.1500 0.0000
# 6 0.0000 0.0000 0.0000 0.0000 0.0000 -10.9784
#
#
#
# Elastic Compliance Matrix: (Units=1/GPa)
#
#
# Indices 1 2 3 4 5 6 
#
# 1 0.026575 -0.007574 -0.011095 0.000000 0.000000 0.000000
# 2 -0.007574 0.016233 -0.006306 0.000000 0.000000 0.000000
# 3 -0.011095 -0.006306 0.022779 0.000000 0.000000 0.000000
# 4 0.000000 0.000000 0.000000 -0.385023 0.000000 0.000000
# 5 0.000000 0.000000 0.000000 0.000000 0.041408 0.000000
# 6 0.000000 0.000000 0.000000 0.000000 0.000000 -0.091088
#
#
# Mechanical properties :
#
#
# Convention : Reuss Voigt Hill
#
# Bulk Modulus (GPa) = 63.95255 66.34467 65.14861
# Shear Modulus (GPa) = -15.92588 9.14182 -3.39203
#
# Velocity S-wave (km/s) = -2.93640 2.22474 -1.35517
# Velocity P-wave (km/s) = 4.80915 6.52065 5.72917
#
# Compressibility (1/GPa) = 0.01563659
#
# Stress axis : x y z
#
# Youngs Moduli (GPa) = 37.62931 61.60352 43.90069
#
# Poissons Ratio (x) = 0.46659 0.48710
# Poissons Ratio (y) = 0.28501 0.27682
# Poissons Ratio (z) = 0.41751 0.38844
#
# Static dielectric constant tensor:
#      x y z
#    x 3.282410 0.000000 0.000000 
#    y 0.000000 3.260620 0.000000 
#    z 0.000000 0.000000 3.455590 
# 
# 
# High freq. dielectric constant tensor:
#      x y z
#    x 1.707110 0.000000 0.000000 
#    y 0.000000 1.706390 0.000000 
#    z 0.000000 0.000000 1.724500 
# 
# From -- ./inp_files/7312.got.cif
#   From: 2010.03.12/outbox.cif.g09.slc.cpg/sg47_4_cif.got.tgz:7312.got - 2010.04.14 03:12:58.
