data_PCOD8200905
_publ_section_title
;
Structure prediction by ZEFSAII (Michael W. Deem and Ramdas Pophale) SiO2 
 PCOD8200905
Probable space group: P M M M
;
_chemical_formula_sum "Si O2"
_cell_formula_units_Z 64
_cell_length_a 9.934231
_cell_length_b 19.739524
_cell_length_c 20.747059
_cell_angle_alpha 90.000000
_cell_angle_beta 90.000000
_cell_angle_gamma 90.000000
_cell_volume 4068.435847
_symmetry_space_group_name_H-M "P M M M"
_symmetry_group_IT_number 47
_symmetry_cell_setting 'orthorhombic'
loop_
_space_group_symop_operation_xyz
x,y,z
-x,-y,z
x,-y,-z
-x,y,-z
-x,-y,-z
x,y,-z
-x,y,z
x,-y,z
loop_
_atom_site_type_symbol
_atom_site_label
_atom_site_fract_x
_atom_site_fract_y
_atom_site_fract_z
Si Si1 0.849008 0.924673 0.724123
Si Si2 0.339893 0.423870 0.571392
Si Si3 0.346378 0.191533 0.275135
Si Si4 0.339939 0.666114 0.928360
Si Si5 0.660298 0.660496 0.309371
Si Si6 0.849424 0.924755 0.122654
Si Si7 0.346478 0.809429 0.122260
Si Si8 0.660703 0.423592 0.187678
O O1 0.744775 0.869278 0.696623
O O2 0.843691 0.923857 0.800693
O O3 0.000000 0.906796 0.700553
O O4 0.808392 0.000000 0.699475
O O5 0.290282 0.401584 0.500000
O O6 0.500000 0.423000 0.573705
O O7 0.289209 0.500000 0.586773
O O8 0.281715 0.372407 0.624851
O O9 0.500000 0.176647 0.295493
O O10 0.292481 0.261618 0.305804
O O11 0.334536 0.198481 0.198665
O O12 0.500000 0.665940 0.925457
O O13 0.289756 0.741003 0.909559
O O14 0.283586 0.611190 0.877689
O O15 0.288064 0.647369 0.000000
O O16 0.500000 0.657728 0.307273
O O17 0.717038 0.617930 0.248849
O O18 0.743428 0.870893 0.094730
O O19 0.000000 0.905773 0.099356
O O20 0.810973 0.000000 0.097714
O O21 0.500000 0.823939 0.101745
O O22 0.500000 0.423388 0.188061
O O23 0.716519 0.500000 0.190776
#
# Coordination Sequence:
#
# PCOD8200905 Si02
#       8
#     8   8   8   8   8   8   8   8
#     4   8  14  24  36  52  77 105 129 156 193 234
#     4   8  13  20  30  46  71 106 142 166 187 224
#     4   9  15  22  35  54  77 103 129 159 194 232
#     4   9  16  25  35  48  69  96 126 161 197 231
#     4   9  14  21  32  49  76 104 129 160 196 230
#     4   8  14  24  38  56  76  97 122 155 194 232
#     4   9  15  24  37  53  74  99 127 157 191 233
#     4   9  15  22  33  49  70  98 128 156 193 238
#
# _framework density 15.730861000000001
#
# number of rings (size 3 to 8) (size 9 to 14) (size 15 to 20)
#    0.000    3.375    1.250    1.500    0.000    2.250 
#    0.000    3.750    0.000    0.750    0.000    2.625 
#    0.000    4.500    0.000    8.750    0.000    3.750 
#
# Total GULP energy -793131.539301 kJ/mol
# GULP energy per Si atom -12392.680302 kJ/mol
# Density = 1.569506 g / cm^3
# Si number density = 15.730861 Si / 1000 Ang^3
#
#
#
# Elastic Constant Matrix: (Units=GPa)
#
#
# Indices 1 2 3 4 5 6 
#
# 1 38.8928 49.0075 17.8638 0.0000 0.0000 0.0000
# 2 49.0075 151.9999 56.0113 0.0000 0.0000 0.0000
# 3 17.8638 56.0113 72.6793 0.0000 0.0000 0.0000
# 4 0.0000 0.0000 0.0000 16.3684 0.0000 0.0000
# 5 0.0000 0.0000 0.0000 0.0000 3.3765 0.0000
# 6 0.0000 0.0000 0.0000 0.0000 0.0000 3.7014
#
#
#
# Elastic Compliance Matrix: (Units=1/GPa)
#
#
# Indices 1 2 3 4 5 6 
#
# 1 0.043306 -0.014023 0.000162 0.000000 0.000000 0.000000
# 2 -0.014023 0.013729 -0.007134 0.000000 0.000000 0.000000
# 3 0.000162 -0.007134 0.019217 0.000000 0.000000 0.000000
# 4 0.000000 0.000000 0.000000 0.061093 0.000000 0.000000
# 5 0.000000 0.000000 0.000000 0.000000 0.296164 0.000000
# 6 0.000000 0.000000 0.000000 0.000000 0.000000 0.270166
#
#
# Mechanical properties :
#
#
# Convention : Reuss Voigt Hill
#
# Bulk Modulus (GPa) = 29.18482 56.59301 42.88892
# Shear Modulus (GPa) = 6.60428 14.06856 10.33642
#
# Velocity S-wave (km/s) = 2.05120 2.99378 2.56614
# Velocity P-wave (km/s) = 4.91963 6.92850 6.00861
#
# Compressibility (1/GPa) = 0.03426439
#
# Stress axis : x y z
#
# Youngs Moduli (GPa) = 23.09123 72.83943 52.03770
#
# Poissons Ratio (x) = 1.02140 -0.00845
# Poissons Ratio (y) = 0.32380 0.37122
# Poissons Ratio (z) = -0.00375 0.51961
#
# Static dielectric constant tensor:
#      x y z
#    x 2.630880 0.000000 0.000000 
#    y 0.000000 3.292970 0.000000 
#    z 0.000000 0.000000 2.878270 
# 
# 
# High freq. dielectric constant tensor:
#      x y z
#    x 1.545860 0.000000 0.000000 
#    y 0.000000 1.615030 0.000000 
#    z 0.000000 0.000000 1.569340 
# 
# From -- ./inp_files/19361.got.cif
#   From: 2010.03.12/outbox.cif.g09.slc.cpg/sg47_10_cif.got.tgz:19361.got - 2010.04.14 03:12:58.
