data_PCOD8200438
_publ_section_title
;
Structure prediction by ZEFSAII (Michael W. Deem and Ramdas Pophale) SiO2 
 PCOD8200438
Probable space group: P M M M
;
_chemical_formula_sum "Si O2"
_cell_formula_units_Z 44
_cell_length_a 14.246578
_cell_length_b 8.806383
_cell_length_c 19.356789
_cell_angle_alpha 90.000000
_cell_angle_beta 90.000000
_cell_angle_gamma 90.000000
_cell_volume 2428.518665
_symmetry_space_group_name_H-M "P M M M"
_symmetry_group_IT_number 47
_symmetry_cell_setting 'orthorhombic'
loop_
_space_group_symop_operation_xyz
x,y,z
-x,-y,z
x,-y,-z
-x,y,-z
-x,-y,-z
x,y,-z
-x,y,z
x,-y,z
loop_
_atom_site_type_symbol
_atom_site_label
_atom_site_fract_x
_atom_site_fract_y
_atom_site_fract_z
Si Si1 0.500000 0.163364 0.419371
Si Si2 0.297013 0.181490 0.421868
Si Si3 0.892979 0.178885 0.180737
Si Si4 0.236462 0.320725 0.289431
Si Si5 0.607333 0.820361 0.802615
Si Si6 0.262660 0.179094 0.923805
O O1 0.500000 0.129386 0.500000
O O2 0.401802 0.247223 0.402237
O O3 0.500000 0.000000 0.380275
O O4 0.268677 0.228564 0.500000
O O5 0.226333 0.259250 0.367921
O O6 0.295638 0.000000 0.414592
O O7 0.854273 0.262191 0.248430
O O8 0.833278 0.231349 0.113925
O O9 0.000000 0.227233 0.167999
O O10 0.882067 0.000000 0.193114
O O11 0.237431 0.500000 0.288992
O O12 0.333063 0.258791 0.257079
O O13 0.500000 0.765829 0.797443
O O14 0.648179 0.770930 0.877511
O O15 0.617130 0.000000 0.792924
O O16 0.262062 0.000000 0.932426
O O17 0.268907 0.255210 0.000000
#
# Coordination Sequence:
#
# PCOD8200438 Si02
#       6
#     4   8   8   8   8   8
#     4   7  12  24  43  67  91 119 156 193 230 275
#     4   9  17  31  51  73  98 130 168 206 246 294
#     4   9  18  34  55  76  98 127 165 205 248 303
#     4  11  22  33  48  72 103 134 166 207 252 298
#     4   9  18  32  49  69  97 137 179 211 241 285
#     4   8  14  26  47  78 108 126 152 203 260 303
#
# _framework density 18.118043
#
# number of rings (size 3 to 8) (size 9 to 14) (size 15 to 20)
#    0.000    3.000    0.000    3.818    1.273    1.818 
#    0.000    3.636    0.000   10.909    0.000   14.000 
#    0.000    0.000    0.000    0.000    0.000    0.000 
#
# Total GULP energy -545241.672345 kJ/mol
# GULP energy per Si atom -12391.856190 kJ/mol
# Density = 1.807681 g / cm^3
# Si number density = 18.118043 Si / 1000 Ang^3
#
#
#
# Elastic Constant Matrix: (Units=GPa)
#
#
# Indices 1 2 3 4 5 6 
#
# 1 85.9382 22.8956 28.6451 0.0000 0.0000 0.0000
# 2 22.8956 46.4307 30.5846 0.0000 0.0000 0.0000
# 3 28.6451 30.5846 121.1969 0.0000 0.0000 0.0000
# 4 0.0000 0.0000 0.0000 0.9200 0.0000 0.0000
# 5 0.0000 0.0000 0.0000 0.0000 13.6899 0.0000
# 6 0.0000 0.0000 0.0000 0.0000 0.0000 11.1109
#
#
#
# Elastic Compliance Matrix: (Units=1/GPa)
#
#
# Indices 1 2 3 4 5 6 
#
# 1 0.013731 -0.005557 -0.001843 0.000000 0.000000 0.000000
# 2 -0.005557 0.028080 -0.005773 0.000000 0.000000 0.000000
# 3 -0.001843 -0.005773 0.010143 0.000000 0.000000 0.000000
# 4 0.000000 0.000000 0.000000 1.086902 0.000000 0.000000
# 5 0.000000 0.000000 0.000000 0.000000 0.073047 0.000000
# 6 0.000000 0.000000 0.000000 0.000000 0.000000 0.090002
#
#
# Mechanical properties :
#
#
# Convention : Reuss Voigt Hill
#
# Bulk Modulus (GPa) = 39.04840 46.42404 42.73622
# Shear Modulus (GPa) = 3.74031 16.57354 10.15693
#
# Velocity S-wave (km/s) = 1.43837 3.02777 2.37026
# Velocity P-wave (km/s) = 4.93534 6.15645 5.57940
#
# Compressibility (1/GPa) = 0.02560924
#
# Stress axis : x y z
#
# Youngs Moduli (GPa) = 72.82761 35.61220 98.58588
#
# Poissons Ratio (x) = 0.19789 0.18170
# Poissons Ratio (y) = 0.40470 0.56912
# Poissons Ratio (z) = 0.13422 0.20558
#
# Static dielectric constant tensor:
#      x y z
#    x 3.391520 0.000000 0.000000 
#    y 0.000000 2.902260 0.000000 
#    z 0.000000 0.000000 3.593030 
# 
# 
# High freq. dielectric constant tensor:
#      x y z
#    x 1.684620 0.000000 0.000000 
#    y 0.000000 1.658100 0.000000 
#    z 0.000000 0.000000 1.709530 
# 
# From -- ./inp_files/8960.got.cif
#   From: 2010.03.12/outbox.cif.g09.slc.cpg/sg47_5_cif.got.tgz:8960.got - 2010.04.14 03:12:58.
