data_PCOD8200968
_publ_section_title
;
Structure prediction by ZEFSAII (Michael W. Deem and Ramdas Pophale) SiO2 
 PCOD8200968
Probable space group: P M M M
;
_chemical_formula_sum "Si O2"
_cell_formula_units_Z 56
_cell_length_a 14.529664
_cell_length_b 14.767705
_cell_length_c 18.608212
_cell_angle_alpha 90.000000
_cell_angle_beta 90.000000
_cell_angle_gamma 90.000000
_cell_volume 3992.760173
_symmetry_space_group_name_H-M "P M M M"
_symmetry_group_IT_number 47
_symmetry_cell_setting 'orthorhombic'
loop_
_space_group_symop_operation_xyz
x,y,z
-x,-y,z
x,-y,-z
-x,y,-z
-x,-y,-z
x,y,-z
-x,y,z
x,-y,z
loop_
_atom_site_type_symbol
_atom_site_label
_atom_site_fract_x
_atom_site_fract_y
_atom_site_fract_z
Si Si1 0.261601 0.395362 0.081383
Si Si2 0.609635 0.898257 0.419219
Si Si3 0.391717 0.397041 0.788079
Si Si4 0.606342 0.772869 0.704156
Si Si5 0.601740 0.104558 0.160212
Si Si6 0.216397 0.900597 0.915572
Si Si7 0.101999 0.264736 0.085294
O O1 0.236265 0.500000 0.082429
O O2 0.344743 0.373453 0.135598
O O3 0.169394 0.345528 0.108485
O O4 0.289361 0.364663 0.000000
O O5 0.640718 0.873157 0.500000
O O6 0.500000 0.898602 0.412959
O O7 0.652171 0.820973 0.365940
O O8 0.644955 0.000000 0.399467
O O9 0.500000 0.383217 0.801206
O O10 0.369103 0.500000 0.763624
O O11 0.355213 0.327301 0.726265
O O12 0.500000 0.760261 0.686951
O O13 0.624789 0.839768 0.769311
O O14 0.500000 0.129511 0.129779
O O15 0.678663 0.128628 0.101345
O O16 0.605210 0.000000 0.182399
O O17 0.143870 0.829017 0.883428
O O18 0.194152 0.000000 0.883047
O O19 0.206955 0.902920 0.000000
O O20 0.000000 0.279871 0.118172
O O21 0.095491 0.259659 0.000000
#
# Coordination Sequence:
#
# PCOD8200968 Si02
#       7
#     8   8   8   8   8   8   8
#     4   9  17  28  41  56  72  90 117 155 194 228
#     4   8  13  21  34  52  71  90 116 152 188 215
#     4   9  17  27  38  53  73  98 126 152 179 215
#     4   9  15  23  35  49  68  94 121 149 181 215
#     4   9  16  24  35  52  72  94 120 149 182 219
#     4   9  17  27  37  50  69  93 122 153 181 214
#     4   9  17  28  40  52  66  85 112 150 193 230
#
# _framework density 14.025385
#
# number of rings (size 3 to 8) (size 9 to 14) (size 15 to 20)
#    0.000    3.143    0.000    1.714    0.000    2.857 
#    0.000    5.714    0.000    5.571    0.000    3.000 
#    0.000    0.000    0.000    0.000    0.000   11.429 
#
# Total GULP energy -693757.934986 kJ/mol
# GULP energy per Si atom -12388.534553 kJ/mol
# Density = 1.399346 g / cm^3
# Si number density = 14.025385 Si / 1000 Ang^3
#
#
#
# Elastic Constant Matrix: (Units=GPa)
#
#
# Indices 1 2 3 4 5 6 
#
# 1 50.7344 31.8092 18.1896 0.0000 0.0000 0.0000
# 2 31.8092 85.0610 45.6129 0.0000 0.0000 0.0000
# 3 18.1896 45.6129 47.6451 0.0000 0.0000 0.0000
# 4 0.0000 0.0000 0.0000 19.9097 0.0000 0.0000
# 5 0.0000 0.0000 0.0000 0.0000 2.0123 0.0000
# 6 0.0000 0.0000 0.0000 0.0000 0.0000 17.5916
#
#
#
# Elastic Compliance Matrix: (Units=1/GPa)
#
#
# Indices 1 2 3 4 5 6 
#
# 1 0.025784 -0.008967 -0.001259 0.000000 0.000000 0.000000
# 2 -0.008967 0.027277 -0.022690 0.000000 0.000000 0.000000
# 3 -0.001259 -0.022690 0.043191 0.000000 0.000000 0.000000
# 4 0.000000 0.000000 0.000000 0.050227 0.000000 0.000000
# 5 0.000000 0.000000 0.000000 0.000000 0.496941 0.000000
# 6 0.000000 0.000000 0.000000 0.000000 0.000000 0.056845
#
#
# Mechanical properties :
#
#
# Convention : Reuss Voigt Hill
#
# Bulk Modulus (GPa) = 32.87314 41.62932 37.25123
# Shear Modulus (GPa) = 6.44133 13.75797 10.09965
#
# Velocity S-wave (km/s) = 2.14537 3.13538 2.68638
# Velocity P-wave (km/s) = 5.44298 6.54625 6.01994
#
# Compressibility (1/GPa) = 0.03041997
#
# Stress axis : x y z
#
# Youngs Moduli (GPa) = 38.78380 36.66135 23.15277
#
# Poissons Ratio (x) = 0.32874 0.02916
# Poissons Ratio (y) = 0.34777 0.52533
# Poissons Ratio (z) = 0.04884 0.83184
#
# Static dielectric constant tensor:
#      x y z
#    x 2.636050 0.000000 0.000000 
#    y 0.000000 3.138210 0.000000 
#    z 0.000000 0.000000 2.644920 
# 
# 
# High freq. dielectric constant tensor:
#      x y z
#    x 1.495670 0.000000 0.000000 
#    y 0.000000 1.552300 0.000000 
#    z 0.000000 0.000000 1.495040 
# 
# From -- ./inp_files/23969.got.cif
#   From: 2010.03.12/outbox.cif.g09.slc.cpg/sg47_12_cif.got.tgz:23969.got - 2010.04.14 03:12:58.
