data_PCOD8200152
_publ_section_title
;
Structure prediction by ZEFSAII (Michael W. Deem and Ramdas Pophale) SiO2 
 PCOD8200152
Probable space group: P M M M
;
_chemical_formula_sum "Si O2"
_cell_formula_units_Z 48
_cell_length_a 14.961166
_cell_length_b 19.968015
_cell_length_c 8.840040
_cell_angle_alpha 90.000000
_cell_angle_beta 90.000000
_cell_angle_gamma 90.000000
_cell_volume 2640.915868
_symmetry_space_group_name_H-M "P M M M"
_symmetry_group_IT_number 47
_symmetry_cell_setting 'orthorhombic'
loop_
_space_group_symop_operation_xyz
x,y,z
-x,-y,z
x,-y,-z
-x,y,-z
-x,-y,-z
x,y,-z
-x,y,z
x,-y,z
loop_
_atom_site_type_symbol
_atom_site_label
_atom_site_fract_x
_atom_site_fract_y
_atom_site_fract_z
Si Si1 0.345464 0.639336 0.323228
Si Si2 0.401334 0.229625 0.172331
Si Si3 0.500000 0.425509 0.836887
Si Si4 0.900590 0.074090 0.678614
Si Si5 0.837123 0.339741 0.821431
Si Si6 0.790554 0.188966 0.173789
Si Si7 0.000000 0.421336 0.320262
O O1 0.325137 0.633015 0.500000
O O2 0.393606 0.709465 0.287820
O O3 0.413417 0.583980 0.266624
O O4 0.255020 0.627206 0.230401
O O5 0.500000 0.195413 0.195760
O O6 0.316500 0.181691 0.203369
O O7 0.392059 0.256280 0.000000
O O8 0.500000 0.500000 0.890185
O O9 0.500000 0.384518 0.000000
O O10 0.901724 0.074907 0.500000
O O11 0.832616 0.129753 0.732199
O O12 0.000000 0.090229 0.740492
O O13 0.871073 0.000000 0.735703
O O14 0.831267 0.260921 0.774176
O O15 0.915009 0.380528 0.739777
O O16 0.849988 0.347010 0.000000
O O17 0.814328 0.177715 0.000000
O O18 0.000000 0.500000 0.266770
O O19 0.000000 0.418667 0.500000
#
# Coordination Sequence:
#
# PCOD8200152 Si02
#       7
#     8   8   4   8   8   8   4
#     4  11  21  34  54  80 107 134 173 226 275 321
#     4   9  17  32  54  76 106 143 176 215 267 325
#     4  11  23  37  53  73 101 141 180 215 270 339
#     4   9  19  35  53  76 109 149 186 220 269 330
#     4  10  22  40  60  82 110 146 185 225 274 336
#     4   9  19  33  53  84 111 138 181 228 268 314
#     4  11  25  43  61  83 110 141 182 233 283 328
#
# _framework density 18.175514
#
# number of rings (size 3 to 8) (size 9 to 14) (size 15 to 20)
#    0.000    2.167    0.833    4.000    1.167    6.000 
#    0.000    0.833    0.000    0.500    0.000    3.500 
#    0.000    0.000    0.000    0.000    0.000    0.000 
#
# Total GULP energy -594774.695694 kJ/mol
# GULP energy per Si atom -12391.139494 kJ/mol
# Density = 1.813415 g / cm^3
# Si number density = 18.175514 Si / 1000 Ang^3
#
#
#
# Elastic Constant Matrix: (Units=GPa)
#
#
# Indices 1 2 3 4 5 6 
#
# 1 152.0600 74.2209 34.6247 0.0000 0.0000 0.0000
# 2 74.2209 97.6993 36.4038 0.0000 0.0000 0.0000
# 3 34.6247 36.4038 62.4526 0.0000 0.0000 0.0000
# 4 0.0000 0.0000 0.0000 25.7366 0.0000 0.0000
# 5 0.0000 0.0000 0.0000 0.0000 34.1951 0.0000
# 6 0.0000 0.0000 0.0000 0.0000 0.0000 7.7313
#
#
#
# Elastic Compliance Matrix: (Units=1/GPa)
#
#
# Indices 1 2 3 4 5 6 
#
# 1 0.010562 -0.007463 -0.001506 0.000000 0.000000 0.000000
# 2 -0.007463 0.018348 -0.006558 0.000000 0.000000 0.000000
# 3 -0.001506 -0.006558 0.020669 0.000000 0.000000 0.000000
# 4 0.000000 0.000000 0.000000 0.038855 0.000000 0.000000
# 5 0.000000 0.000000 0.000000 0.000000 0.029244 0.000000
# 6 0.000000 0.000000 0.000000 0.000000 0.000000 0.129344
#
#
# Mechanical properties :
#
#
# Convention : Reuss Voigt Hill
#
# Bulk Modulus (GPa) = 53.97442 66.96786 60.47114
# Shear Modulus (GPa) = 17.59011 24.66343 21.12677
#
# Velocity S-wave (km/s) = 3.11431 3.68769 3.41306
# Velocity P-wave (km/s) = 6.53396 7.42005 6.99106
#
# Compressibility (1/GPa) = 0.01852730
#
# Stress axis : x y z
#
# Youngs Moduli (GPa) = 94.68181 54.50111 48.38048
#
# Poissons Ratio (x) = 0.40672 0.07284
# Poissons Ratio (y) = 0.70657 0.31727
# Poissons Ratio (z) = 0.14255 0.35741
#
# Static dielectric constant tensor:
#      x y z
#    x 3.777050 0.000000 0.000000 
#    y 0.000000 3.229290 0.000000 
#    z 0.000000 0.000000 3.329570 
# 
# 
# High freq. dielectric constant tensor:
#      x y z
#    x 1.717670 0.000000 0.000000 
#    y 0.000000 1.674980 0.000000 
#    z 0.000000 0.000000 1.707520 
# 
# From -- ./inp_files/6529.got.cif
#   From: 2010.03.12/outbox.cif.g09.slc.cpg/sg47_4_cif.got.tgz:6529.got - 2010.04.14 03:12:58.
