data_PCOD8200445
_publ_section_title
;
Structure prediction by ZEFSAII (Michael W. Deem and Ramdas Pophale) SiO2 
 PCOD8200445
Probable space group: P M M M
;
_chemical_formula_sum "Si O2"
_cell_formula_units_Z 56
_cell_length_a 29.421151
_cell_length_b 8.934538
_cell_length_c 13.670883
_cell_angle_alpha 90.000000
_cell_angle_beta 90.000000
_cell_angle_gamma 90.000000
_cell_volume 3593.588343
_symmetry_space_group_name_H-M "P M M M"
_symmetry_group_IT_number 47
_symmetry_cell_setting 'orthorhombic'
loop_
_space_group_symop_operation_xyz
x,y,z
-x,-y,z
x,-y,-z
-x,y,-z
-x,-y,-z
x,y,-z
-x,y,z
x,-y,z
loop_
_atom_site_type_symbol
_atom_site_label
_atom_site_fract_x
_atom_site_fract_y
_atom_site_fract_z
Si Si1 0.912256 0.822486 0.790784
Si Si2 0.131623 0.323026 0.388055
Si Si3 0.000000 0.677028 0.885531
Si Si4 0.224194 0.674177 0.705979
Si Si5 0.412040 0.333514 0.616707
Si Si6 0.313486 0.678897 0.390046
Si Si7 0.829110 0.672956 0.110201
Si Si8 0.500000 0.166840 0.616709
O O1 0.904424 0.761555 0.680761
O O2 0.870826 0.778067 0.861324
O O3 0.956688 0.748063 0.834400
O O4 0.917773 0.000000 0.788216
O O5 0.121141 0.280937 0.500000
O O6 0.127294 0.500000 0.369288
O O7 0.182346 0.266300 0.360148
O O8 0.000000 0.500000 0.869197
O O9 0.000000 0.717755 0.000000
O O10 0.228980 0.500000 0.684596
O O11 0.272543 0.747221 0.676016
O O12 0.213871 0.707878 0.819927
O O13 0.413422 0.336864 0.500000
O O14 0.417499 0.500000 0.658984
O O15 0.362931 0.263665 0.648354
O O16 0.454233 0.240665 0.659610
O O17 0.304372 0.735362 0.500000
O O18 0.315291 0.500000 0.387974
O O19 0.844506 0.500000 0.123368
O O20 0.813685 0.707321 0.000000
O O21 0.500000 0.176871 0.500000
O O22 0.500000 0.000000 0.655801
#
# Coordination Sequence:
#
# PCOD8200445 Si02
#       8
#     8   8   4   8   8   8   8   4
#     4  11  22  34  50  73  98 119 142 175 213 253
#     4   9  17  31  51  71  92 121 153 180 206 242
#     4  11  23  39  58  75  92 115 143 178 218 259
#     4   8  13  22  39  63  86 108 139 176 208 239
#     4   8  13  20  30  44  63  89 122 160 199 236
#     4   8  12  18  31  53  77  99 128 168 207 238
#     4   9  17  30  47  66  89 117 147 176 206 245
#     4   9  15  21  29  41  59  87 124 161 194 232
#
# _framework density 15.583310000000001
#
# number of rings (size 3 to 8) (size 9 to 14) (size 15 to 20)
#    0.000    3.000    0.000    4.286    0.000    5.429 
#    0.000    0.357    0.000    5.571    0.000    4.000 
#    0.000    0.000    0.000    0.643    0.000   17.500 
#
# Total GULP energy -693963.479550 kJ/mol
# GULP energy per Si atom -12392.204992 kJ/mol
# Density = 1.554784 g / cm^3
# Si number density = 15.583310 Si / 1000 Ang^3
#
#
#
# Elastic Constant Matrix: (Units=GPa)
#
#
# Indices 1 2 3 4 5 6 
#
# 1 148.6002 47.5407 61.2602 0.0000 0.0000 0.0000
# 2 47.5407 61.8402 33.2689 0.0000 0.0000 0.0000
# 3 61.2602 33.2689 102.3681 0.0000 0.0000 0.0000
# 4 0.0000 0.0000 0.0000 9.5305 0.0000 0.0000
# 5 0.0000 0.0000 0.0000 0.0000 13.3721 0.0000
# 6 0.0000 0.0000 0.0000 0.0000 0.0000 -4.9691
#
#
#
# Elastic Compliance Matrix: (Units=1/GPa)
#
#
# Indices 1 2 3 4 5 6 
#
# 1 0.010312 -0.005584 -0.004356 0.000000 0.000000 0.000000
# 2 -0.005584 0.022621 -0.004010 0.000000 0.000000 0.000000
# 3 -0.004356 -0.004010 0.013679 0.000000 0.000000 0.000000
# 4 0.000000 0.000000 0.000000 0.104926 0.000000 0.000000
# 5 0.000000 0.000000 0.000000 0.000000 0.074782 0.000000
# 6 0.000000 0.000000 0.000000 0.000000 0.000000 -0.201244
#
#
# Mechanical properties :
#
#
# Convention : Reuss Voigt Hill
#
# Bulk Modulus (GPa) = 53.44398 66.32756 59.88577
# Shear Modulus (GPa) = 84.44156 14.96928 49.70542
#
# Velocity S-wave (km/s) = 7.36918 3.10271 5.65383
# Velocity P-wave (km/s) = 10.33327 7.44925 9.00744
#
# Compressibility (1/GPa) = 0.01871118
#
# Stress axis : x y z
#
# Youngs Moduli (GPa) = 96.97772 44.20736 73.10609
#
# Poissons Ratio (x) = 0.24684 0.31846
# Poissons Ratio (y) = 0.54150 0.29316
# Poissons Ratio (z) = 0.42245 0.17727
#
# Static dielectric constant tensor:
#      x y z
#    x 3.379860 0.000000 0.000000 
#    y 0.000000 2.768420 0.000000 
#    z 0.000000 0.000000 2.844350 
# 
# 
# High freq. dielectric constant tensor:
#      x y z
#    x 1.601270 0.000000 0.000000 
#    y 0.000000 1.571880 0.000000 
#    z 0.000000 0.000000 1.562990 
# 
# From -- ./inp_files/25824.got.cif
#   From: 2010.03.12/outbox.cif.g09.slc.cpg/sg47_13_cif.got.tgz:25824.got - 2010.04.14 03:12:58.
