data_PCOD8200754
_publ_section_title
;
Structure prediction by ZEFSAII (Michael W. Deem and Ramdas Pophale) SiO2 
 PCOD8200754
Probable space group: P M M M
;
_chemical_formula_sum "Si O2"
_cell_formula_units_Z 56
_cell_length_a 9.832367
_cell_length_b 21.647480
_cell_length_c 18.285230
_cell_angle_alpha 90.000000
_cell_angle_beta 90.000000
_cell_angle_gamma 90.000000
_cell_volume 3891.937479
_symmetry_space_group_name_H-M "P M M M"
_symmetry_group_IT_number 47
_symmetry_cell_setting 'orthorhombic'
loop_
_space_group_symop_operation_xyz
x,y,z
-x,-y,z
x,-y,-z
-x,y,-z
-x,-y,-z
x,y,-z
-x,y,z
x,-y,z
loop_
_atom_site_type_symbol
_atom_site_label
_atom_site_fract_x
_atom_site_fract_y
_atom_site_fract_z
Si Si1 0.838240 0.197381 0.418881
Si Si2 0.658425 0.812700 0.915771
Si Si3 0.838089 0.685202 0.333045
Si Si4 0.151247 0.122895 0.714776
Si Si5 0.848106 0.247839 0.193516
Si Si6 0.161806 0.568305 0.582407
Si Si7 0.344902 0.068798 0.174978
O O1 0.777702 0.186868 0.500000
O O2 0.778771 0.261187 0.385779
O O3 0.797916 0.139195 0.367365
O O4 0.000000 0.202334 0.421371
O O5 0.500000 0.797974 0.904478
O O6 0.743919 0.760082 0.873641
O O7 0.695588 0.881256 0.886572
O O8 0.700842 0.810583 0.000000
O O9 0.796681 0.697474 0.248096
O O10 0.779530 0.619426 0.361196
O O11 0.000000 0.686392 0.337926
O O12 0.147616 0.186266 0.759078
O O13 0.254109 0.075304 0.752323
O O14 0.000000 0.093425 0.713724
O O15 0.000000 0.262033 0.163038
O O16 0.211683 0.583441 0.500000
O O17 0.213658 0.500000 0.605991
O O18 0.000000 0.569615 0.583849
O O19 0.500000 0.078917 0.199491
O O20 0.323086 0.000000 0.142229
#
# Coordination Sequence:
#
# PCOD8200754 Si02
#       7
#     8   8   8   8   8   8   8
#     4   8  12  18  31  50  68  87 115 152 188 215
#     4   9  17  28  41  57  76  94 111 137 175 214
#     4   8  12  18  29  46  70  99 128 154 179 210
#     4   8  14  24  37  53  71  90 115 148 181 209
#     4   8  14  24  37  53  73  97 122 146 175 212
#     4   8  12  16  23  40  71 109 139 158 180 211
#     4   9  17  28  41  55  70  91 117 139 163 205
#
# _framework density 14.388721
#
# number of rings (size 3 to 8) (size 9 to 14) (size 15 to 20)
#    0.000    3.714    0.000    2.571    0.000    2.571 
#    0.000    1.429    0.000    0.857    0.000    7.000 
#    0.000    2.857    0.000    8.714    0.000    4.143 
#
# Total GULP energy -693808.995336 kJ/mol
# GULP energy per Si atom -12389.446345 kJ/mol
# Density = 1.435597 g / cm^3
# Si number density = 14.388721 Si / 1000 Ang^3
#
#
#
# Elastic Constant Matrix: (Units=GPa)
#
#
# Indices 1 2 3 4 5 6 
#
# 1 33.1546 22.0329 38.3500 0.0000 0.0000 0.0000
# 2 22.0329 63.9001 49.0664 0.0000 0.0000 0.0000
# 3 38.3500 49.0664 116.8487 0.0000 0.0000 0.0000
# 4 0.0000 0.0000 0.0000 19.3347 0.0000 0.0000
# 5 0.0000 0.0000 0.0000 0.0000 10.2782 0.0000
# 6 0.0000 0.0000 0.0000 0.0000 0.0000 7.7558
#
#
#
# Elastic Compliance Matrix: (Units=1/GPa)
#
#
# Indices 1 2 3 4 5 6 
#
# 1 0.050617 -0.006932 -0.013702 0.000000 0.000000 0.000000
# 2 -0.006932 0.024046 -0.007822 0.000000 0.000000 0.000000
# 3 -0.013702 -0.007822 0.016340 0.000000 0.000000 0.000000
# 4 0.000000 0.000000 0.000000 0.051721 0.000000 0.000000
# 5 0.000000 0.000000 0.000000 0.000000 0.097293 0.000000
# 6 0.000000 0.000000 0.000000 0.000000 0.000000 0.128935
#
#
# Mechanical properties :
#
#
# Convention : Reuss Voigt Hill
#
# Bulk Modulus (GPa) = 29.33315 48.08913 38.71114
# Shear Modulus (GPa) = 11.43569 14.43734 12.93652
#
# Velocity S-wave (km/s) = 2.82222 3.17105 3.00171
# Velocity P-wave (km/s) = 5.57229 6.84846 6.24307
#
# Compressibility (1/GPa) = 0.03409112
#
# Stress axis : x y z
#
# Youngs Moduli (GPa) = 19.75610 41.58717 61.20040
#
# Poissons Ratio (x) = 0.28827 0.83857
# Poissons Ratio (y) = 0.13694 0.47872
# Poissons Ratio (z) = 0.27070 0.32530
#
# Static dielectric constant tensor:
#      x y z
#    x 2.560360 0.000000 0.000000 
#    y 0.000000 2.873140 0.000000 
#    z 0.000000 0.000000 2.968920 
# 
# 
# High freq. dielectric constant tensor:
#      x y z
#    x 1.508650 0.000000 0.000000 
#    y 0.000000 1.525270 0.000000 
#    z 0.000000 0.000000 1.540380 
# 
# From -- ./inp_files/10118.got.cif
#   From: 2010.03.12/outbox.cif.g09.slc.cpg/sg47_6_cif.got.tgz:10118.got - 2010.04.14 03:12:58.
