data_PCOD8200267
_publ_section_title
;
Structure prediction by ZEFSAII (Michael W. Deem and Ramdas Pophale) SiO2 
 PCOD8200267
Probable space group: P M M M
;
_chemical_formula_sum "Si O2"
_cell_formula_units_Z 56
_cell_length_a 9.095984
_cell_length_b 13.698308
_cell_length_c 29.244420
_cell_angle_alpha 90.000000
_cell_angle_beta 90.000000
_cell_angle_gamma 90.000000
_cell_volume 3643.842753
_symmetry_space_group_name_H-M "P M M M"
_symmetry_group_IT_number 47
_symmetry_cell_setting 'orthorhombic'
loop_
_space_group_symop_operation_xyz
x,y,z
-x,-y,z
x,-y,-z
-x,y,-z
-x,-y,-z
x,y,-z
-x,y,z
x,-y,z
loop_
_atom_site_type_symbol
_atom_site_label
_atom_site_fract_x
_atom_site_fract_y
_atom_site_fract_z
Si Si1 0.829203 0.616064 0.147484
Si Si2 0.326541 0.890335 0.448806
Si Si3 0.168738 0.609971 0.688584
Si Si4 0.172436 0.888461 0.725704
Si Si5 0.174223 0.390924 0.048301
Si Si6 0.674230 0.287243 0.769249
Si Si7 0.168442 0.792514 0.368232
O O1 0.803183 0.500000 0.151641
O O2 0.777977 0.655829 0.096906
O O3 0.726998 0.674315 0.182031
O O4 0.000000 0.640217 0.157155
O O5 0.276433 0.860761 0.500000
O O6 0.500000 0.886156 0.444993
O O7 0.261246 0.814279 0.413102
O O8 0.270979 0.000000 0.437744
O O9 0.203101 0.500000 0.672859
O O10 0.271535 0.637395 0.730844
O O11 0.198642 0.680099 0.645470
O O12 0.000000 0.622170 0.705057
O O13 0.260980 0.820754 0.760832
O O14 0.217060 0.861795 0.673768
O O15 0.000000 0.868914 0.732753
O O16 0.215427 0.000000 0.735548
O O17 0.238580 0.500000 0.046739
O O18 0.000000 0.396613 0.049628
O O19 0.224117 0.337778 0.000000
O O20 0.500000 0.281656 0.768240
O O21 0.000000 0.811322 0.380658
#
# Coordination Sequence:
#
# PCOD8200267 Si02
#       7
#     8   8   8   8   8   8   8
#     4   9  16  26  41  59  82 115 149 179 213 251
#     4   9  18  31  45  63  89 118 142 164 198 248
#     4   9  18  33  49  62  82 114 148 180 213 249
#     4   9  18  33  50  65  84 111 141 173 210 254
#     4   7  10  18  34  56  78 101 136 180 217 247
#     4  11  21  29  40  62  90 115 142 177 212 249
#     4   9  17  29  47  70  88 104 134 174 212 247
#
# _framework density 15.368391000000001
#
# number of rings (size 3 to 8) (size 9 to 14) (size 15 to 20)
#    0.000    3.000    0.000    4.714    0.000    6.000 
#    0.000    0.714    0.000    0.857    0.000    5.000 
#    0.000    0.571    0.000    6.571    0.000    2.143 
#
# Total GULP energy -693901.529334 kJ/mol
# GULP energy per Si atom -12391.098738 kJ/mol
# Density = 1.533341 g / cm^3
# Si number density = 15.368391 Si / 1000 Ang^3
#
#
#
# Elastic Constant Matrix: (Units=GPa)
#
#
# Indices 1 2 3 4 5 6 
#
# 1 59.6475 38.0084 48.2684 0.0000 0.0000 0.0000
# 2 38.0084 96.5493 55.5224 0.0000 0.0000 0.0000
# 3 48.2684 55.5224 127.7702 0.0000 0.0000 0.0000
# 4 0.0000 0.0000 0.0000 17.7282 0.0000 0.0000
# 5 0.0000 0.0000 0.0000 0.0000 2.7433 0.0000
# 6 0.0000 0.0000 0.0000 0.0000 0.0000 12.3683
#
#
#
# Elastic Compliance Matrix: (Units=1/GPa)
#
#
# Indices 1 2 3 4 5 6 
#
# 1 0.026733 -0.006288 -0.007367 0.000000 0.000000 0.000000
# 2 -0.006288 0.015287 -0.004268 0.000000 0.000000 0.000000
# 3 -0.007367 -0.004268 0.012464 0.000000 0.000000 0.000000
# 4 0.000000 0.000000 0.000000 0.056407 0.000000 0.000000
# 5 0.000000 0.000000 0.000000 0.000000 0.364522 0.000000
# 6 0.000000 0.000000 0.000000 0.000000 0.000000 0.080852
#
#
# Mechanical properties :
#
#
# Convention : Reuss Voigt Hill
#
# Bulk Modulus (GPa) = 53.64810 63.06283 58.35547
# Shear Modulus (GPa) = 8.35671 16.04583 12.20127
#
# Velocity S-wave (km/s) = 2.33439 3.23473 2.82071
# Velocity P-wave (km/s) = 6.49998 7.42122 6.97582
#
# Compressibility (1/GPa) = 0.01863999
#
# Stress axis : x y z
#
# Youngs Moduli (GPa) = 37.40668 65.41620 80.23080
#
# Poissons Ratio (x) = 0.41131 0.59105
# Poissons Ratio (y) = 0.23520 0.34239
# Poissons Ratio (z) = 0.27557 0.27917
#
# Static dielectric constant tensor:
#      x y z
#    x 2.733740 0.000000 0.000000 
#    y 0.000000 2.856100 0.000000 
#    z 0.000000 0.000000 3.156860 
# 
# 
# High freq. dielectric constant tensor:
#      x y z
#    x 1.572140 0.000000 0.000000 
#    y 0.000000 1.560510 0.000000 
#    z 0.000000 0.000000 1.590430 
# 
# From -- ./inp_files/8143.got.cif
#   From: 2010.03.12/outbox.cif.g09.slc.cpg/sg47_5_cif.got.tgz:8143.got - 2010.04.14 03:12:58.
