data_PCOD8200170
_publ_section_title
;
Structure prediction by ZEFSAII (Michael W. Deem and Ramdas Pophale) SiO2 
 PCOD8200170
Probable space group: P M M M
;
_chemical_formula_sum "Si O2"
_cell_formula_units_Z 52
_cell_length_a 13.990521
_cell_length_b 9.073793
_cell_length_c 23.013930
_cell_angle_alpha 90.000000
_cell_angle_beta 90.000000
_cell_angle_gamma 90.000000
_cell_volume 2921.551478
_symmetry_space_group_name_H-M "P M M M"
_symmetry_group_IT_number 47
_symmetry_cell_setting 'orthorhombic'
loop_
_space_group_symop_operation_xyz
x,y,z
-x,-y,z
x,-y,-z
-x,y,-z
-x,-y,-z
x,y,-z
-x,y,z
x,-y,z
loop_
_atom_site_type_symbol
_atom_site_label
_atom_site_fract_x
_atom_site_fract_y
_atom_site_fract_z
Si Si1 0.711906 0.174319 0.107032
Si Si2 0.283721 0.670790 0.673905
Si Si3 0.613184 0.669265 0.000000
Si Si4 0.893359 0.167154 0.349900
Si Si5 0.611017 0.329936 0.790263
Si Si6 0.891338 0.330922 0.067752
Si Si7 0.262041 0.167150 0.564535
O O1 0.670006 0.221995 0.168675
O O2 0.822132 0.225296 0.104226
O O3 0.705379 0.000000 0.099647
O O4 0.651022 0.251625 0.057093
O O5 0.269214 0.500000 0.663387
O O6 0.179414 0.739457 0.690910
O O7 0.359403 0.704498 0.724215
O O8 0.322251 0.741569 0.613041
O O9 0.648532 0.500000 0.000000
O O10 0.500000 0.678549 0.000000
O O11 0.849990 0.171635 0.415665
O O12 0.000000 0.235453 0.349327
O O13 0.895764 0.000000 0.326551
O O14 0.500000 0.294375 0.797427
O O15 0.633079 0.500000 0.806269
O O16 0.875227 0.500000 0.086408
O O17 0.000000 0.282956 0.080706
O O18 0.867392 0.311577 0.000000
O O19 0.272260 0.236177 0.500000
O O20 0.300167 0.000000 0.564452
#
# Coordination Sequence:
#
# PCOD8200170 Si02
#       7
#     8   8   4   8   8   8   8
#     4  12  24  36  56  88 117 140 173 225 277 319
#     4   9  18  32  51  75 101 130 171 224 267 303
#     4  11  23  39  58  79 110 151 185 218 268 327
#     4   8  15  28  46  70 103 142 176 206 249 311
#     4  10  22  41  61  77  99 139 185 222 267 329
#     4   9  18  35  60  85 111 149 189 217 251 309
#     4   8  15  28  47  72 104 141 175 206 251 314
#
# _framework density 17.798762
#
# number of rings (size 3 to 8) (size 9 to 14) (size 15 to 20)
#    0.923    1.615    0.769    2.538    0.000    5.231 
#    0.000    3.077    0.000    2.308    0.000    3.231 
#    0.000    0.000    0.000    0.000    0.000    0.000 
#
# Total GULP energy -644384.841717 kJ/mol
# GULP energy per Si atom -12392.016187 kJ/mol
# Density = 1.775825 g / cm^3
# Si number density = 17.798762 Si / 1000 Ang^3
#
#
#
# Elastic Constant Matrix: (Units=GPa)
#
#
# Indices 1 2 3 4 5 6 
#
# 1 83.1744 50.2722 46.8404 0.0000 0.0000 0.0000
# 2 50.2722 108.1664 51.4574 0.0000 0.0000 0.0000
# 3 46.8404 51.4574 76.1421 0.0000 0.0000 0.0000
# 4 0.0000 0.0000 0.0000 26.7807 0.0000 0.0000
# 5 0.0000 0.0000 0.0000 0.0000 19.7340 0.0000
# 6 0.0000 0.0000 0.0000 0.0000 0.0000 14.9350
#
#
#
# Elastic Compliance Matrix: (Units=1/GPa)
#
#
# Indices 1 2 3 4 5 6 
#
# 1 0.020146 -0.005111 -0.008940 0.000000 0.000000 0.000000
# 2 -0.005111 0.014922 -0.006941 0.000000 0.000000 0.000000
# 3 -0.008940 -0.006941 0.023323 0.000000 0.000000 0.000000
# 4 0.000000 0.000000 0.000000 0.037340 0.000000 0.000000
# 5 0.000000 0.000000 0.000000 0.000000 0.050674 0.000000
# 6 0.000000 0.000000 0.000000 0.000000 0.000000 0.066957
#
#
# Mechanical properties :
#
#
# Convention : Reuss Voigt Hill
#
# Bulk Modulus (GPa) = 60.93836 62.73589 61.83713
# Shear Modulus (GPa) = 19.17073 20.21746 19.69410
#
# Velocity S-wave (km/s) = 3.28545 3.37396 3.33000
# Velocity P-wave (km/s) = 6.97883 7.10647 7.04294
#
# Compressibility (1/GPa) = 0.01641002
#
# Stress axis : x y z
#
# Youngs Moduli (GPa) = 49.63692 67.01510 42.87563
#
# Poissons Ratio (x) = 0.34248 0.38329
# Poissons Ratio (y) = 0.25367 0.29758
# Poissons Ratio (z) = 0.44374 0.46512
#
# Static dielectric constant tensor:
#      x y z
#    x 3.233270 0.000000 0.000000 
#    y 0.000000 3.244510 0.000000 
#    z 0.000000 0.000000 3.152490 
# 
# 
# High freq. dielectric constant tensor:
#      x y z
#    x 1.679000 0.000000 0.000000 
#    y 0.000000 1.685620 0.000000 
#    z 0.000000 0.000000 1.671420 
# 
# From -- ./inp_files/32662.got.cif
#   From: 2010.03.12/outbox.cif.g09.slc.cpg/sg47_17_cif.got.tgz:32662.got - 2010.04.14 03:12:58.
