data_PCOD8200397
_publ_section_title
;
Structure prediction by ZEFSAII (Michael W. Deem and Ramdas Pophale) SiO2 
 PCOD8200397
Probable space group: P M M M
;
_chemical_formula_sum "Si O2"
_cell_formula_units_Z 44
_cell_length_a 7.951306
_cell_length_b 13.700952
_cell_length_c 22.516708
_cell_angle_alpha 90.000000
_cell_angle_beta 90.000000
_cell_angle_gamma 90.000000
_cell_volume 2452.980569
_symmetry_space_group_name_H-M "P M M M"
_symmetry_group_IT_number 47
_symmetry_cell_setting 'orthorhombic'
loop_
_space_group_symop_operation_xyz
x,y,z
-x,-y,z
x,-y,-z
-x,y,-z
-x,-y,-z
x,y,-z
-x,y,z
x,-y,z
loop_
_atom_site_type_symbol
_atom_site_label
_atom_site_fract_x
_atom_site_fract_y
_atom_site_fract_z
Si Si1 0.193698 0.206683 0.179252
Si Si2 0.199592 0.889241 0.298979
Si Si3 0.194061 0.390802 0.751031
Si Si4 0.304428 0.106967 0.064535
Si Si5 0.000000 0.611814 0.429784
Si Si6 0.689084 0.295202 0.635802
O O1 0.266534 0.140963 0.233379
O O2 0.229916 0.320395 0.193211
O O3 0.273606 0.184764 0.115969
O O4 0.000000 0.182648 0.173066
O O5 0.279227 0.818566 0.348497
O O6 0.000000 0.875880 0.301334
O O7 0.255077 0.000000 0.312684
O O8 0.239030 0.500000 0.771289
O O9 0.305467 0.360005 0.695231
O O10 0.000000 0.380289 0.730612
O O11 0.500000 0.095145 0.057171
O O12 0.227784 0.000000 0.081063
O O13 0.230561 0.141280 0.000000
O O14 0.830196 0.666766 0.409537
O O15 0.000000 0.500000 0.405605
O O16 0.000000 0.612694 0.500000
O O17 0.500000 0.305538 0.608780
#
# Coordination Sequence:
#
# PCOD8200397 Si02
#       6
#     8   8   8   8   4   8
#     4   9  17  28  45  73 100 124 163 212 258 305
#     4   9  17  32  54  79 111 146 174 210 266 323
#     4   9  17  32  52  72 101 137 167 205 261 315
#     4   9  18  31  44  59  86 127 167 202 249 309
#     4  11  24  42  61  81 111 147 181 222 268 308
#     4  11  21  35  57  85 113 142 180 220 264 318
#
# _framework density 17.937360999999999
#
# number of rings (size 3 to 8) (size 9 to 14) (size 15 to 20)
#    0.000    2.455    1.818    2.727    0.000    6.545 
#    0.000    1.818    0.000    1.636    0.000    5.091 
#    0.000    0.000    0.000    0.000    0.000    0.000 
#
# Total GULP energy -545307.175338 kJ/mol
# GULP energy per Si atom -12393.344894 kJ/mol
# Density = 1.789654 g / cm^3
# Si number density = 17.937361 Si / 1000 Ang^3
#
#
#
# Elastic Constant Matrix: (Units=GPa)
#
#
# Indices 1 2 3 4 5 6 
#
# 1 78.1054 37.8096 32.5722 0.0000 0.0000 0.0000
# 2 37.8096 140.0597 44.4091 0.0000 0.0000 0.0000
# 3 32.5722 44.4091 78.0005 0.0000 0.0000 0.0000
# 4 0.0000 0.0000 0.0000 21.6184 0.0000 0.0000
# 5 0.0000 0.0000 0.0000 0.0000 11.3023 0.0000
# 6 0.0000 0.0000 0.0000 0.0000 0.0000 17.0886
#
#
#
# Elastic Compliance Matrix: (Units=1/GPa)
#
#
# Indices 1 2 3 4 5 6 
#
# 1 0.016321 -0.002739 -0.005256 0.000000 0.000000 0.000000
# 2 -0.002739 0.009172 -0.004078 0.000000 0.000000 0.000000
# 3 -0.005256 -0.004078 0.017337 0.000000 0.000000 0.000000
# 4 0.000000 0.000000 0.000000 0.046257 0.000000 0.000000
# 5 0.000000 0.000000 0.000000 0.000000 0.088477 0.000000
# 6 0.000000 0.000000 0.000000 0.000000 0.000000 0.058519
#
#
# Mechanical properties :
#
#
# Convention : Reuss Voigt Hill
#
# Bulk Modulus (GPa) = 53.52299 58.41636 55.96968
# Shear Modulus (GPa) = 18.76462 22.09351 20.42906
#
# Velocity S-wave (km/s) = 3.23789 3.51337 3.37844
# Velocity P-wave (km/s) = 6.62436 7.00685 6.81829
#
# Compressibility (1/GPa) = 0.01868356
#
# Stress axis : x y z
#
# Youngs Moduli (GPa) = 61.27006 109.02194 57.67955
#
# Poissons Ratio (x) = 0.29866 0.30315
# Poissons Ratio (y) = 0.16785 0.23523
# Poissons Ratio (z) = 0.32203 0.44462
#
# Static dielectric constant tensor:
#      x y z
#    x 3.191540 0.000000 0.000000 
#    y 0.000000 3.458300 0.000000 
#    z 0.000000 0.000000 3.240230 
# 
# 
# High freq. dielectric constant tensor:
#      x y z
#    x 1.687010 0.000000 0.000000 
#    y 0.000000 1.693080 0.000000 
#    z 0.000000 0.000000 1.666500 
# 
# From -- ./inp_files/29450.got.cif
#   From: 2010.03.12/outbox.cif.g09.slc.cpg/sg47_15_cif.got.tgz:29450.got - 2010.04.14 03:12:58.
