data_PCOD8200401
_publ_section_title
;
Structure prediction by ZEFSAII (Michael W. Deem and Ramdas Pophale) SiO2 
 PCOD8200401
Probable space group: P M M M
;
_chemical_formula_sum "Si O2"
_cell_formula_units_Z 48
_cell_length_a 14.645237
_cell_length_b 9.017455
_cell_length_c 18.877146
_cell_angle_alpha 90.000000
_cell_angle_beta 90.000000
_cell_angle_gamma 90.000000
_cell_volume 2492.968108
_symmetry_space_group_name_H-M "P M M M"
_symmetry_group_IT_number 47
_symmetry_cell_setting 'orthorhombic'
loop_
_space_group_symop_operation_xyz
x,y,z
-x,-y,z
x,-y,-z
-x,y,-z
-x,-y,-z
x,y,-z
-x,y,z
x,-y,z
loop_
_atom_site_type_symbol
_atom_site_label
_atom_site_fract_x
_atom_site_fract_y
_atom_site_fract_z
Si Si1 0.263360 0.174041 0.299633
Si Si2 0.896854 0.670247 0.222445
Si Si3 0.602508 0.823799 0.579684
Si Si4 0.599918 0.333995 0.792910
Si Si5 0.146855 0.169491 0.921021
Si Si6 0.637868 0.164953 0.921136
O O1 0.167085 0.250589 0.281415
O O2 0.315765 0.237214 0.369904
O O3 0.332597 0.209706 0.236610
O O4 0.245332 0.000000 0.305015
O O5 0.866349 0.500000 0.218129
O O6 0.894077 0.734521 0.142836
O O7 0.000000 0.686866 0.250935
O O8 0.624403 0.769957 0.500000
O O9 0.500000 0.767640 0.601561
O O10 0.602502 0.000000 0.584079
O O11 0.500000 0.325220 0.756922
O O12 0.640003 0.500000 0.783847
O O13 0.589731 0.291848 0.875068
O O14 0.254350 0.184872 0.917947
O O15 0.116308 0.000000 0.908753
O O16 0.112889 0.221357 0.000000
O O17 0.610996 0.000000 0.894491
O O18 0.601338 0.188016 0.000000
#
# Coordination Sequence:
#
# PCOD8200401 Si02
#       6
#     8   8   8   8   8   8
#     4  11  21  35  58  84 110 142 180 222 268 319
#     4  11  24  39  55  78 109 145 185 228 277 333
#     4   8  15  30  55  89 123 148 173 211 261 315
#     4  11  23  35  49  74 108 144 180 218 264 320
#     4   9  18  34  56  80 104 133 175 230 289 340
#     4   9  18  33  52  73  98 132 176 225 275 324
#
# _framework density 19.254158
#
# number of rings (size 3 to 8) (size 9 to 14) (size 15 to 20)
#    0.000    2.167    1.667    3.500    0.000    4.667 
#    0.000    5.000    0.000    2.500    0.000    9.333 
#    0.000    0.000    0.000    0.000    0.000    0.000 
#
# Total GULP energy -594744.035568 kJ/mol
# GULP energy per Si atom -12390.500741 kJ/mol
# Density = 1.921033 g / cm^3
# Si number density = 19.254158 Si / 1000 Ang^3
#
#
#
# Elastic Constant Matrix: (Units=GPa)
#
#
# Indices 1 2 3 4 5 6 
#
# 1 108.3794 37.9646 50.7856 0.0000 0.0000 0.0000
# 2 37.9646 74.6874 38.1486 0.0000 0.0000 0.0000
# 3 50.7856 38.1486 109.5258 0.0000 0.0000 0.0000
# 4 0.0000 0.0000 0.0000 8.9734 0.0000 0.0000
# 5 0.0000 0.0000 0.0000 0.0000 4.3483 0.0000
# 6 0.0000 0.0000 0.0000 0.0000 0.0000 41.2318
#
#
#
# Elastic Compliance Matrix: (Units=1/GPa)
#
#
# Indices 1 2 3 4 5 6 
#
# 1 0.012798 -0.004226 -0.004462 0.000000 0.000000 0.000000
# 2 -0.004226 0.017682 -0.004199 0.000000 0.000000 0.000000
# 3 -0.004462 -0.004199 0.012662 0.000000 0.000000 0.000000
# 4 0.000000 0.000000 0.000000 0.111441 0.000000 0.000000
# 5 0.000000 0.000000 0.000000 0.000000 0.229977 0.000000
# 6 0.000000 0.000000 0.000000 0.000000 0.000000 0.024253
#
#
# Mechanical properties :
#
#
# Convention : Reuss Voigt Hill
#
# Bulk Modulus (GPa) = 57.58072 60.71005 59.14538
# Shear Modulus (GPa) = 11.35389 21.95693 16.65541
#
# Velocity S-wave (km/s) = 2.43098 3.38061 2.94433
# Velocity P-wave (km/s) = 6.15224 6.84378 6.50720
#
# Compressibility (1/GPa) = 0.01736692
#
# Stress axis : x y z
#
# Youngs Moduli (GPa) = 78.13538 56.55382 78.97639
#
# Poissons Ratio (x) = 0.23901 0.35242
# Poissons Ratio (y) = 0.33022 0.33164
# Poissons Ratio (z) = 0.34867 0.23748
#
# Static dielectric constant tensor:
#      x y z
#    x 3.548760 0.000000 0.000000 
#    y 0.000000 3.330810 0.000000 
#    z 0.000000 0.000000 3.737140 
# 
# 
# High freq. dielectric constant tensor:
#      x y z
#    x 1.748080 0.000000 0.000000 
#    y 0.000000 1.729990 0.000000 
#    z 0.000000 0.000000 1.732090 
# 
# From -- ./inp_files/6368.got.cif
#   From: 2010.03.12/outbox.cif.g09.slc.cpg/sg47_4_cif.got.tgz:6368.got - 2010.04.14 03:12:58.
