data_PCOD8200760
_publ_section_title
;
Structure prediction by ZEFSAII (Michael W. Deem and Ramdas Pophale) SiO2 
 PCOD8200760
Probable space group: P M M M
;
_chemical_formula_sum "Si O2"
_cell_formula_units_Z 64
_cell_length_a 14.192872
_cell_length_b 10.025394
_cell_length_c 28.827705
_cell_angle_alpha 90.000000
_cell_angle_beta 90.000000
_cell_angle_gamma 90.000000
_cell_volume 4101.869174
_symmetry_space_group_name_H-M "P M M M"
_symmetry_group_IT_number 47
_symmetry_cell_setting 'orthorhombic'
loop_
_space_group_symop_operation_xyz
x,y,z
-x,-y,z
x,-y,-z
-x,y,-z
-x,-y,-z
x,y,-z
-x,y,z
x,-y,z
loop_
_atom_site_type_symbol
_atom_site_label
_atom_site_fract_x
_atom_site_fract_y
_atom_site_fract_z
Si Si1 0.109341 0.150210 0.635625
Si Si2 0.758649 0.152352 0.552783
Si Si3 0.212128 0.658173 0.191204
Si Si4 0.394745 0.658857 0.859598
Si Si5 0.714035 0.658676 0.051059
Si Si6 0.603775 0.647521 0.444998
Si Si7 0.895767 0.658621 0.102098
Si Si8 0.889838 0.344373 0.283379
O O1 0.152455 0.179291 0.585269
O O2 0.145323 0.256921 0.673206
O O3 0.000000 0.168965 0.627811
O O4 0.134196 0.000000 0.652587
O O5 0.785677 0.192682 0.500000
O O6 0.674780 0.241548 0.573813
O O7 0.724474 0.000000 0.554828
O O8 0.210287 0.500000 0.190293
O O9 0.319524 0.706997 0.179740
O O10 0.140841 0.711732 0.151868
O O11 0.174280 0.707837 0.240772
O O12 0.500000 0.715956 0.849425
O O13 0.397845 0.500000 0.860194
O O14 0.359582 0.710933 0.910165
O O15 0.710977 0.500000 0.050778
O O16 0.820716 0.705507 0.063278
O O17 0.687307 0.715065 0.000000
O O18 0.598891 0.655817 0.500000
O O19 0.500000 0.676275 0.424324
O O20 0.637795 0.500000 0.429544
O O21 0.901251 0.500000 0.103130
O O22 0.000000 0.718160 0.091795
O O23 0.872182 0.500000 0.294356
O O24 0.000000 0.319147 0.271969
#
# Coordination Sequence:
#
# PCOD8200760 Si02
#       8
#     8   8   8   8   8   8   8   8
#     4   9  18  31  44  60  85 113 137 163 198 239
#     4   9  17  28  43  63  84 109 142 173 198 229
#     4   8  13  21  33  49  66  83 110 152 196 232
#     4   8  13  20  29  41  59  85 116 151 191 230
#     4   8  13  18  22  32  52  80 117 155 186 220
#     4   8  14  25  41  61  84 108 133 164 204 242
#     4   8  12  17  25  37  55  79 107 144 189 230
#     4   9  16  26  42  61  77  96 126 163 200 237
#
# _framework density 15.602641999999999
#
# number of rings (size 3 to 8) (size 9 to 14) (size 15 to 20)
#    0.000    3.625    0.000    2.250    0.000    3.000 
#    0.000    5.000    0.000    0.750    0.000    5.250 
#    0.000    0.000    0.000    0.000    0.000   10.000 
#
# Total GULP energy -792876.317537 kJ/mol
# GULP energy per Si atom -12388.692462 kJ/mol
# Density = 1.556713 g / cm^3
# Si number density = 15.602642 Si / 1000 Ang^3
#
#
#
# Elastic Constant Matrix: (Units=GPa)
#
#
# Indices 1 2 3 4 5 6 
#
# 1 94.7909 24.2335 47.4788 0.0000 0.0000 0.0000
# 2 24.2335 35.9334 34.6681 0.0000 0.0000 0.0000
# 3 47.4788 34.6681 93.9506 0.0000 0.0000 0.0000
# 4 0.0000 0.0000 0.0000 5.7575 0.0000 0.0000
# 5 0.0000 0.0000 0.0000 0.0000 19.3679 0.0000
# 6 0.0000 0.0000 0.0000 0.0000 0.0000 12.7613
#
#
#
# Elastic Compliance Matrix: (Units=1/GPa)
#
#
# Indices 1 2 3 4 5 6 
#
# 1 0.014524 -0.004214 -0.005785 0.000000 0.000000 0.000000
# 2 -0.004214 0.044436 -0.014268 0.000000 0.000000 0.000000
# 3 -0.005785 -0.014268 0.018832 0.000000 0.000000 0.000000
# 4 0.000000 0.000000 0.000000 0.173687 0.000000 0.000000
# 5 0.000000 0.000000 0.000000 0.000000 0.051632 0.000000
# 6 0.000000 0.000000 0.000000 0.000000 0.000000 0.078362
#
#
# Mechanical properties :
#
#
# Convention : Reuss Voigt Hill
#
# Bulk Modulus (GPa) = 34.17659 48.60397 41.39028
# Shear Modulus (GPa) = 11.36981 15.46362 13.41672
#
# Velocity S-wave (km/s) = 2.70239 3.15157 2.93559
# Velocity P-wave (km/s) = 5.62931 6.66798 6.17054
#
# Compressibility (1/GPa) = 0.02925980
#
# Stress axis : x y z
#
# Youngs Moduli (GPa) = 68.84931 22.50404 53.10029
#
# Poissons Ratio (x) = 0.09483 0.30719
# Poissons Ratio (y) = 0.29012 0.75762
# Poissons Ratio (z) = 0.39830 0.32108
#
# Static dielectric constant tensor:
#      x y z
#    x 3.268610 0.000000 0.000000 
#    y 0.000000 2.595300 0.000000 
#    z 0.000000 0.000000 3.024130 
# 
# 
# High freq. dielectric constant tensor:
#      x y z
#    x 1.599310 0.000000 0.000000 
#    y 0.000000 1.541070 0.000000 
#    z 0.000000 0.000000 1.584310 
# 
# From -- ./inp_files/14284.got.cif
#   From: 2010.03.12/outbox.cif.g09.slc.cpg/sg47_8_cif.got.tgz:14284.got - 2010.04.14 03:12:58.
