data_PCOD8200782
_publ_section_title
;
Structure prediction by ZEFSAII (Michael W. Deem and Ramdas Pophale) SiO2 
 PCOD8200782
Probable space group: P M M M
;
_chemical_formula_sum "Si O2"
_cell_formula_units_Z 60
_cell_length_a 9.776408
_cell_length_b 23.914014
_cell_length_c 18.279111
_cell_angle_alpha 90.000000
_cell_angle_beta 90.000000
_cell_angle_gamma 90.000000
_cell_volume 4273.531082
_symmetry_space_group_name_H-M "P M M M"
_symmetry_group_IT_number 47
_symmetry_cell_setting 'orthorhombic'
loop_
_space_group_symop_operation_xyz
x,y,z
-x,-y,z
x,-y,-z
-x,y,-z
-x,-y,-z
x,y,-z
-x,y,z
x,-y,z
loop_
_atom_site_type_symbol
_atom_site_label
_atom_site_fract_x
_atom_site_fract_y
_atom_site_fract_z
Si Si1 0.337355 0.279140 0.080684
Si Si2 0.337255 0.388243 0.840445
Si Si3 0.162120 0.061616 0.581587
Si Si4 0.652324 0.215803 0.782636
Si Si5 0.158281 0.719765 0.584438
Si Si6 0.336759 0.500000 0.916238
Si Si7 0.159355 0.167109 0.669375
Si Si8 0.652703 0.331838 0.697279
O O1 0.500000 0.283987 0.078784
O O2 0.277032 0.337954 0.110020
O O3 0.296605 0.228048 0.134529
O O4 0.277466 0.266994 0.000000
O O5 0.500000 0.387544 0.845169
O O6 0.278896 0.446122 0.872791
O O7 0.295537 0.379391 0.754809
O O8 0.222166 0.069716 0.500000
O O9 0.218763 0.110462 0.633424
O O10 0.000000 0.067004 0.577596
O O11 0.204150 0.000000 0.611621
O O12 0.500000 0.189185 0.781912
O O13 0.758645 0.173994 0.744849
O O14 0.648698 0.274337 0.741116
O O15 0.202713 0.717930 0.500000
O O16 0.187784 0.782027 0.613854
O O17 0.245140 0.673350 0.628565
O O18 0.000000 0.704207 0.594422
O O19 0.500000 0.500000 0.916173
O O20 0.283236 0.500000 0.000000
O O21 0.000000 0.162587 0.688844
O O22 0.500000 0.345980 0.668110
#
# Coordination Sequence:
#
# PCOD8200782 Si02
#       8
#     8   8   8   8   8   4   8   8
#     4   8  12  19  32  48  67  93 122 146 168 200
#     4   8  13  20  30  47  72  98 120 143 171 203
#     4   8  13  21  34  52  71  91 118 148 171 195
#     4   8  14  23  34  49  69  93 119 144 170 203
#     4   9  16  24  35  53  73  90 113 147 180 206
#     4   9  14  18  28  50  78 101 118 140 173 207
#     4   9  15  23  36  52  71  94 116 140 173 208
#     4   8  14  24  35  48  70  97 119 139 169 210
#
# _framework density 14.039911999999999
#
# number of rings (size 3 to 8) (size 9 to 14) (size 15 to 20)
#    0.000    3.667    0.000    2.800    0.000    3.467 
#    0.000    0.000    0.000    2.000    0.000    1.867 
#    0.000    6.400    0.000    6.667    0.000    0.267 
#
# Total GULP energy -743428.137550 kJ/mol
# GULP energy per Si atom -12390.468959 kJ/mol
# Density = 1.400796 g / cm^3
# Si number density = 14.039912 Si / 1000 Ang^3
#
#
#
# Elastic Constant Matrix: (Units=GPa)
#
#
# Indices 1 2 3 4 5 6 
#
# 1 31.6124 24.9193 39.0966 0.0000 0.0000 0.0000
# 2 24.9193 79.0948 59.7631 0.0000 0.0000 0.0000
# 3 39.0966 59.7631 122.6875 0.0000 0.0000 0.0000
# 4 0.0000 0.0000 0.0000 24.8675 0.0000 0.0000
# 5 0.0000 0.0000 0.0000 0.0000 12.7832 0.0000
# 6 0.0000 0.0000 0.0000 0.0000 0.0000 10.5573
#
#
#
# Elastic Compliance Matrix: (Units=1/GPa)
#
#
# Indices 1 2 3 4 5 6 
#
# 1 0.054162 -0.006366 -0.014159 0.000000 0.000000 0.000000
# 2 -0.006366 0.020755 -0.008081 0.000000 0.000000 0.000000
# 3 -0.014159 -0.008081 0.016599 0.000000 0.000000 0.000000
# 4 0.000000 0.000000 0.000000 0.040213 0.000000 0.000000
# 5 0.000000 0.000000 0.000000 0.000000 0.078228 0.000000
# 6 0.000000 0.000000 0.000000 0.000000 0.000000 0.094721
#
#
# Mechanical properties :
#
#
# Convention : Reuss Voigt Hill
#
# Bulk Modulus (GPa) = 29.15106 53.43919 41.29512
# Shear Modulus (GPa) = 13.39314 16.94931 15.17123
#
# Velocity S-wave (km/s) = 3.09193 3.47828 3.29078
# Velocity P-wave (km/s) = 5.79265 7.36724 6.62688
#
# Compressibility (1/GPa) = 0.03430407
#
# Stress axis : x y z
#
# Youngs Moduli (GPa) = 18.46310 48.18134 60.24333
#
# Poissons Ratio (x) = 0.30672 0.85297
# Poissons Ratio (y) = 0.11753 0.48685
# Poissons Ratio (z) = 0.26142 0.38938
#
# Static dielectric constant tensor:
#      x y z
#    x 2.473440 0.000000 0.000000 
#    y 0.000000 2.756140 0.000000 
#    z 0.000000 0.000000 3.020500 
# 
# 
# High freq. dielectric constant tensor:
#      x y z
#    x 1.493180 0.000000 0.000000 
#    y 0.000000 1.507250 0.000000 
#    z 0.000000 0.000000 1.533360 
# 
# From -- ./inp_files/23090.got.cif
#   From: 2010.03.12/outbox.cif.g09.slc.cpg/sg47_12_cif.got.tgz:23090.got - 2010.04.14 03:12:58.
