data_PCOD8200093
_publ_section_title
;
Structure prediction by ZEFSAII (Michael W. Deem and Ramdas Pophale) SiO2 
 PCOD8200093
Probable space group: P M M M
;
_chemical_formula_sum "Si O2"
_cell_formula_units_Z 48
_cell_length_a 19.581829
_cell_length_b 15.346675
_cell_length_c 7.805176
_cell_angle_alpha 90.000000
_cell_angle_beta 90.000000
_cell_angle_gamma 90.000000
_cell_volume 2345.580002
_symmetry_space_group_name_H-M "P M M M"
_symmetry_group_IT_number 47
_symmetry_cell_setting 'orthorhombic'
loop_
_space_group_symop_operation_xyz
x,y,z
-x,-y,z
x,-y,-z
-x,y,-z
-x,-y,-z
x,y,-z
-x,y,z
x,-y,z
loop_
_atom_site_type_symbol
_atom_site_label
_atom_site_fract_x
_atom_site_fract_y
_atom_site_fract_z
Si Si1 0.844076 0.598539 0.303944
Si Si2 0.925312 0.762740 0.803633
Si Si3 0.574112 0.145820 0.500000
Si Si4 0.186555 0.897206 0.802380
Si Si5 0.696260 0.597351 0.798503
Si Si6 0.277798 0.095280 0.500000
Si Si7 0.424303 0.721347 0.804451
O O1 0.865683 0.597261 0.500000
O O2 0.851486 0.500000 0.226035
O O3 0.893206 0.666475 0.211227
O O4 0.766004 0.631737 0.286434
O O5 0.877410 0.840372 0.732515
O O6 0.000000 0.765096 0.712111
O O7 0.936275 0.783287 0.000000
O O8 0.500000 0.096552 0.500000
O O9 0.640337 0.085446 0.500000
O O10 0.578949 0.199076 0.675141
O O11 0.248893 0.864713 0.678662
O O12 0.169493 0.000000 0.788523
O O13 0.205734 0.873516 0.000000
O O14 0.681269 0.500000 0.734467
O O15 0.631652 0.653186 0.738433
O O16 0.706233 0.601728 0.000000
O O17 0.245913 0.000000 0.500000
O O18 0.500000 0.678382 0.795912
O O19 0.409218 0.752528 0.000000
#
# Coordination Sequence:
#
# PCOD8200093 Si02
#       7
#     8   8   4   8   8   4   8
#     4  10  22  37  53  77 111 148 188 238 287 332
#     4  10  22  38  58  84 110 146 191 230 282 345
#     4  10  22  37  55  81 113 148 184 227 277 326
#     4   9  20  39  61  89 122 150 184 233 286 344
#     4   9  18  32  51  74 100 137 183 228 276 328
#     4  10  22  39  61  87 113 147 189 228 276 333
#     4   9  19  34  51  76 109 143 181 225 276 333
#
# _framework density 20.464022
#
# number of rings (size 3 to 8) (size 9 to 14) (size 15 to 20)
#    0.000    2.500    0.000    0.500    4.667    3.167 
#    0.000    5.000    0.000    3.000    0.000    4.667 
#    0.000    0.000    0.000    0.000    0.000    0.000 
#
# Total GULP energy -594710.874366 kJ/mol
# GULP energy per Si atom -12389.809883 kJ/mol
# Density = 2.041744 g / cm^3
# Si number density = 20.464022 Si / 1000 Ang^3
#
#
#
# Elastic Constant Matrix: (Units=GPa)
#
#
# Indices 1 2 3 4 5 6 
#
# 1 149.9483 50.4126 39.6086 0.0000 0.0000 0.0000
# 2 50.4126 63.3688 15.9080 0.0000 0.0000 0.0000
# 3 39.6086 15.9080 68.5906 0.0000 0.0000 0.0000
# 4 0.0000 0.0000 0.0000 15.5575 0.0000 0.0000
# 5 0.0000 0.0000 0.0000 0.0000 20.0061 0.0000
# 6 0.0000 0.0000 0.0000 0.0000 0.0000 24.4030
#
#
#
# Elastic Compliance Matrix: (Units=1/GPa)
#
#
# Indices 1 2 3 4 5 6 
#
# 1 0.010142 -0.007006 -0.004232 0.000000 0.000000 0.000000
# 2 -0.007006 0.021596 -0.000963 0.000000 0.000000 0.000000
# 3 -0.004232 -0.000963 0.017246 0.000000 0.000000 0.000000
# 4 0.000000 0.000000 0.000000 0.064278 0.000000 0.000000
# 5 0.000000 0.000000 0.000000 0.000000 0.049985 0.000000
# 6 0.000000 0.000000 0.000000 0.000000 0.000000 0.040979
#
#
# Mechanical properties :
#
#
# Convention : Reuss Voigt Hill
#
# Bulk Modulus (GPa) = 40.67894 54.86291 47.77092
# Shear Modulus (GPa) = 21.11289 23.72522 22.41905
#
# Velocity S-wave (km/s) = 3.21551 3.40864 3.31348
# Velocity P-wave (km/s) = 5.80581 6.50841 6.16712
#
# Compressibility (1/GPa) = 0.02458274
#
# Stress axis : x y z
#
# Youngs Moduli (GPa) = 98.59683 46.30459 57.98338
#
# Poissons Ratio (x) = 0.32442 0.24538
# Poissons Ratio (y) = 0.69080 0.05583
# Poissons Ratio (z) = 0.41725 0.04459
#
# Static dielectric constant tensor:
#      x y z
#    x 4.091640 0.000000 0.000000 
#    y 0.000000 3.542820 0.000000 
#    z 0.000000 0.000000 3.729140 
# 
# 
# High freq. dielectric constant tensor:
#      x y z
#    x 1.804870 0.000000 0.000000 
#    y 0.000000 1.779830 0.000000 
#    z 0.000000 0.000000 1.801860 
# 
# From -- ./inp_files/9166.got.cif
#   From: 2010.03.12/outbox.cif.g09.slc.cpg/sg47_5_cif.got.tgz:9166.got - 2010.04.14 03:12:58.
