data_PCOD8200121
_publ_section_title
;
Structure prediction by ZEFSAII (Michael W. Deem and Ramdas Pophale) SiO2 
 PCOD8200121
Probable space group: P M M M
;
_chemical_formula_sum "Si O2"
_cell_formula_units_Z 40
_cell_length_a 7.661032
_cell_length_b 29.364396
_cell_length_c 9.217897
_cell_angle_alpha 90.000000
_cell_angle_beta 90.000000
_cell_angle_gamma 90.000000
_cell_volume 2073.672650
_symmetry_space_group_name_H-M "P M M M"
_symmetry_group_IT_number 47
_symmetry_cell_setting 'orthorhombic'
loop_
_space_group_symop_operation_xyz
x,y,z
-x,-y,z
x,-y,-z
-x,y,-z
-x,-y,-z
x,y,-z
-x,y,z
x,-y,z
loop_
_atom_site_type_symbol
_atom_site_label
_atom_site_fract_x
_atom_site_fract_y
_atom_site_fract_z
Si Si1 0.500000 0.105222 0.827410
Si Si2 0.798941 0.644394 0.839443
Si Si3 0.800002 0.269397 0.668406
Si Si4 0.200043 0.053209 0.333561
Si Si5 0.500000 0.199741 0.330871
Si Si6 0.705576 0.451520 0.834963
O O1 0.674118 0.080555 0.772174
O O2 0.500000 0.156320 0.770826
O O3 0.500000 0.104711 0.000000
O O4 0.720843 0.685723 0.746271
O O5 0.773358 0.595063 0.759780
O O6 0.000000 0.654920 0.854717
O O7 0.710554 0.643885 0.000000
O O8 0.789955 0.280696 0.500000
O O9 0.675291 0.227453 0.708401
O O10 0.000000 0.257528 0.714027
O O11 0.242586 0.066081 0.500000
O O12 0.000000 0.066044 0.297164
O O13 0.232025 0.000000 0.308388
O O14 0.500000 0.185676 0.500000
O O15 0.500000 0.450984 0.828506
O O16 0.771793 0.500000 0.764511
O O17 0.773752 0.450653 0.000000
#
# Coordination Sequence:
#
# PCOD8200121 Si02
#       6
#     4   8   8   8   4   8
#     4  12  25  37  54  87 126 157 187 234 295 347
#     4   9  17  28  45  70  94 119 155 199 248 302
#     4   9  19  36  55  74  97 126 165 216 268 316
#     4   9  19  38  64  90 117 157 206 245 276 320
#     4  10  22  39  57  76  99 138 188 225 263 324
#     4   8  14  24  38  60  91 124 155 188 231 288
#
# _framework density 19.289448
#
# number of rings (size 3 to 8) (size 9 to 14) (size 15 to 20)
#    0.000    2.800    0.000    2.400    1.400    4.000 
#    0.000    5.000    0.000    0.600    0.000    4.200 
#    0.000    0.000    0.000    0.000    0.000    0.000 
#
# Total GULP energy -495606.264393 kJ/mol
# GULP energy per Si atom -12390.156610 kJ/mol
# Density = 1.924554 g / cm^3
# Si number density = 19.289448 Si / 1000 Ang^3
#
#
#
# Elastic Constant Matrix: (Units=GPa)
#
#
# Indices 1 2 3 4 5 6 
#
# 1 94.4559 69.3609 48.7523 0.0000 0.0000 0.0000
# 2 69.3609 156.3189 76.9631 0.0000 0.0000 0.0000
# 3 48.7523 76.9631 83.8879 0.0000 0.0000 0.0000
# 4 0.0000 0.0000 0.0000 21.1773 0.0000 0.0000
# 5 0.0000 0.0000 0.0000 0.0000 16.5713 0.0000
# 6 0.0000 0.0000 0.0000 0.0000 0.0000 27.0445
#
#
#
# Elastic Compliance Matrix: (Units=1/GPa)
#
#
# Indices 1 2 3 4 5 6 
#
# 1 0.016937 -0.004868 -0.005377 0.000000 0.000000 0.000000
# 2 -0.004868 0.013066 -0.009159 0.000000 0.000000 0.000000
# 3 -0.005377 -0.009159 0.023448 0.000000 0.000000 0.000000
# 4 0.000000 0.000000 0.000000 0.047220 0.000000 0.000000
# 5 0.000000 0.000000 0.000000 0.000000 0.060345 0.000000
# 6 0.000000 0.000000 0.000000 0.000000 0.000000 0.036976
#
#
# Mechanical properties :
#
#
# Convention : Reuss Voigt Hill
#
# Bulk Modulus (GPa) = 68.28612 80.53504 74.41058
# Shear Modulus (GPa) = 20.68836 22.26440 21.47638
#
# Velocity S-wave (km/s) = 3.27849 3.40108 3.34035
# Velocity P-wave (km/s) = 7.05755 7.56734 7.31688
#
# Compressibility (1/GPa) = 0.01464426
#
# Stress axis : x y z
#
# Youngs Moduli (GPa) = 59.04343 76.53238 42.64680
#
# Poissons Ratio (x) = 0.37253 0.22932
# Poissons Ratio (y) = 0.28740 0.39060
# Poissons Ratio (z) = 0.31748 0.70095
#
# Static dielectric constant tensor:
#      x y z
#    x 3.590520 0.000000 0.000000 
#    y 0.000000 3.687650 0.000000 
#    z 0.000000 0.000000 3.338860 
# 
# 
# High freq. dielectric constant tensor:
#      x y z
#    x 1.753480 0.000000 0.000000 
#    y 0.000000 1.762500 0.000000 
#    z 0.000000 0.000000 1.704390 
# 
# From -- ./inp_files/1719.got.cif
#   From: 2010.03.12/outbox.cif.g09.slc.cpg/sg47_1_cif.got.tgz:1719.got - 2010.04.14 03:12:58.
