data_PCOD8200698
_publ_section_title
;
Structure prediction by ZEFSAII (Michael W. Deem and Ramdas Pophale) SiO2 
 PCOD8200698
Probable space group: P M M M
;
_chemical_formula_sum "Si O2"
_cell_formula_units_Z 52
_cell_length_a 13.578519
_cell_length_b 9.727754
_cell_length_c 26.591341
_cell_angle_alpha 90.000000
_cell_angle_beta 90.000000
_cell_angle_gamma 90.000000
_cell_volume 3512.410147
_symmetry_space_group_name_H-M "P M M M"
_symmetry_group_IT_number 47
_symmetry_cell_setting 'orthorhombic'
loop_
_space_group_symop_operation_xyz
x,y,z
-x,-y,z
x,-y,-z
-x,y,-z
-x,-y,-z
x,y,-z
-x,y,z
x,-y,z
loop_
_atom_site_type_symbol
_atom_site_label
_atom_site_fract_x
_atom_site_fract_y
_atom_site_fract_z
Si Si1 0.386272 0.659805 0.698470
Si Si2 0.612706 0.341755 0.897795
Si Si3 0.230758 0.157027 0.056092
Si Si4 0.617685 0.154334 0.392220
Si Si5 0.607681 0.162993 0.500000
Si Si6 0.729354 0.341516 0.797920
Si Si7 0.886968 0.839859 0.846653
O O1 0.500000 0.696780 0.709618
O O2 0.374537 0.500000 0.686029
O O3 0.344244 0.743693 0.650921
O O4 0.321868 0.703311 0.746258
O O5 0.500000 0.295315 0.900514
O O6 0.625769 0.500000 0.913304
O O7 0.673415 0.250940 0.937023
O O8 0.649775 0.315590 0.841359
O O9 0.146822 0.195905 0.096451
O O10 0.264399 0.000000 0.063591
O O11 0.187839 0.180848 0.000000
O O12 0.500000 0.157605 0.395813
O O13 0.661185 0.203447 0.447089
O O14 0.653780 0.000000 0.379292
O O15 0.500000 0.233139 0.500000
O O16 0.595002 0.000000 0.500000
O O17 0.762996 0.500000 0.796633
O O18 0.825199 0.247854 0.806475
O O19 0.000000 0.796285 0.841548
O O20 0.871310 0.000000 0.834654
#
# Coordination Sequence:
#
# PCOD8200698 Si02
#       7
#     8   8   8   8   4   8   8
#     4   9  16  25  37  55  80 107 134 165 199 231
#     4   9  17  29  44  60  79 106 137 163 188 222
#     4   9  18  31  45  62  83 104 126 154 190 232
#     4   8  13  21  33  49  70 100 138 173 201 229
#     4   7  10  18  31  45  65  97 136 173 202 227
#     4   9  17  29  44  60  79 104 132 161 194 234
#     4   9  18  32  48  64  80  98 123 157 196 236
#
# _framework density 14.804649
#
# number of rings (size 3 to 8) (size 9 to 14) (size 15 to 20)
#    0.000    3.308    0.000    1.385    0.000    4.000 
#    0.000    3.462    0.000    5.077    0.000    4.308 
#    0.000    0.000    0.000    0.692    0.000   13.615 
#
# Total GULP energy -644492.073784 kJ/mol
# GULP energy per Si atom -12394.078342 kJ/mol
# Density = 1.477095 g / cm^3
# Si number density = 14.804649 Si / 1000 Ang^3
#
#
#
# Elastic Constant Matrix: (Units=GPa)
#
#
# Indices 1 2 3 4 5 6 
#
# 1 75.8253 38.1972 38.9989 0.0000 0.0000 0.0000
# 2 38.1972 53.8574 49.3426 0.0000 0.0000 0.0000
# 3 38.9989 49.3426 120.3965 0.0000 0.0000 0.0000
# 4 0.0000 0.0000 0.0000 24.9974 0.0000 0.0000
# 5 0.0000 0.0000 0.0000 0.0000 10.7144 0.0000
# 6 0.0000 0.0000 0.0000 0.0000 0.0000 20.3471
#
#
#
# Elastic Compliance Matrix: (Units=1/GPa)
#
#
# Indices 1 2 3 4 5 6 
#
# 1 0.020609 -0.013611 -0.001097 0.000000 0.000000 0.000000
# 2 -0.013611 0.038720 -0.011460 0.000000 0.000000 0.000000
# 3 -0.001097 -0.011460 0.013358 0.000000 0.000000 0.000000
# 4 0.000000 0.000000 0.000000 0.040004 0.000000 0.000000
# 5 0.000000 0.000000 0.000000 0.000000 0.093332 0.000000
# 6 0.000000 0.000000 0.000000 0.000000 0.000000 0.049147
#
#
# Mechanical properties :
#
#
# Convention : Reuss Voigt Hill
#
# Bulk Modulus (GPa) = 49.13910 55.90630 52.52270
# Shear Modulus (GPa) = 15.90876 19.44780 17.67828
#
# Velocity S-wave (km/s) = 3.28163 3.62833 3.45933
# Velocity P-wave (km/s) = 6.90091 7.44296 7.17706
#
# Compressibility (1/GPa) = 0.02035039
#
# Stress axis : x y z
#
# Youngs Moduli (GPa) = 48.52158 25.82624 74.86135
#
# Poissons Ratio (x) = 0.35153 0.08215
# Poissons Ratio (y) = 0.66044 0.85790
# Poissons Ratio (z) = 0.05325 0.29597
#
# Static dielectric constant tensor:
#      x y z
#    x 2.558320 0.000000 0.000000 
#    y 0.000000 2.859830 0.000000 
#    z 0.000000 0.000000 3.086180 
# 
# 
# High freq. dielectric constant tensor:
#      x y z
#    x 1.520550 0.000000 0.000000 
#    y 0.000000 1.562680 0.000000 
#    z 0.000000 0.000000 1.569990 
# 
# From -- ./inp_files/8023.got.cif
#   From: 2010.03.12/outbox.cif.g09.slc.cpg/sg47_5_cif.got.tgz:8023.got - 2010.04.14 03:12:58.
