data_PCOD8200009
_publ_section_title
;
Structure prediction by ZEFSAII (Michael W. Deem and Ramdas Pophale) SiO2 
 PCOD8200009
Probable space group: P M M M
;
_chemical_formula_sum "Si O2"
_cell_formula_units_Z 44
_cell_length_a 9.059874
_cell_length_b 30.756845
_cell_length_c 7.459492
_cell_angle_alpha 90.000000
_cell_angle_beta 90.000000
_cell_angle_gamma 90.000000
_cell_volume 2078.610871
_symmetry_space_group_name_H-M "P M M M"
_symmetry_group_IT_number 47
_symmetry_cell_setting 'orthorhombic'
loop_
_space_group_symop_operation_xyz
x,y,z
-x,-y,z
x,-y,-z
-x,y,-z
-x,-y,-z
x,y,-z
-x,y,z
x,-y,z
loop_
_atom_site_type_symbol
_atom_site_label
_atom_site_fract_x
_atom_site_fract_y
_atom_site_fract_z
Si Si1 0.170401 0.551303 0.000000
Si Si2 0.834309 0.693375 0.287341
Si Si3 0.166278 0.138853 0.714461
Si Si4 0.824433 0.954020 0.701035
Si Si5 0.673405 0.606276 0.708823
Si Si6 0.665811 0.777403 0.713779
O O1 0.249595 0.568387 0.821027
O O2 0.186484 0.500000 0.000000
O O3 0.000000 0.565952 0.000000
O O4 0.837666 0.695734 0.500000
O O5 0.739305 0.652105 0.224679
O O6 0.759346 0.736941 0.209838
O O7 0.000000 0.689508 0.210076
O O8 0.169209 0.137312 0.500000
O O9 0.227488 0.091879 0.789924
O O10 0.267178 0.177649 0.789443
O O11 0.000000 0.147536 0.781902
O O12 0.761794 0.956074 0.500000
O O13 0.000000 0.951602 0.695812
O O14 0.775989 0.000000 0.798179
O O15 0.707651 0.597858 0.500000
O O16 0.500000 0.606636 0.747537
O O17 0.669704 0.777349 0.500000
O O18 0.500000 0.773018 0.786033
#
# Coordination Sequence:
#
# PCOD8200009 Si02
#       6
#     4   8   8   8   8   8
#     4  11  25  43  63  89 121 157 197 239 280 325
#     4   9  16  27  45  68  94 125 162 204 252 309
#     4   8  12  17  25  37  54  79 115 162 218 279
#     4   7   9  13  21  32  45  65 101 153 211 270
#     4  10  21  38  61  88 118 152 190 234 285 338
#     4   9  15  21  30  47  73 103 136 178 231 291
#
# _framework density 21.167983
#
# number of rings (size 3 to 8) (size 9 to 14) (size 15 to 20)
#    0.000    3.182    0.000    3.545    0.000    6.545 
#    0.000    1.818    0.000    0.545    0.000    3.818 
#    0.000    0.000    0.000    0.000    0.000    0.000 
#
# Total GULP energy -545098.253474 kJ/mol
# GULP energy per Si atom -12388.596670 kJ/mol
# Density = 2.111980 g / cm^3
# Si number density = 21.167983 Si / 1000 Ang^3
#
#
#
# Elastic Constant Matrix: (Units=GPa)
#
#
# Indices 1 2 3 4 5 6 
#
# 1 145.6021 87.2978 25.3576 0.0000 0.0000 0.0000
# 2 87.2978 184.4927 31.3065 0.0000 0.0000 0.0000
# 3 25.3576 31.3065 46.0301 0.0000 0.0000 0.0000
# 4 0.0000 0.0000 0.0000 -26.6341 0.0000 0.0000
# 5 0.0000 0.0000 0.0000 0.0000 5.7297 0.0000
# 6 0.0000 0.0000 0.0000 0.0000 0.0000 18.2558
#
#
#
# Elastic Compliance Matrix: (Units=1/GPa)
#
#
# Indices 1 2 3 4 5 6 
#
# 1 0.009846 -0.004226 -0.002550 0.000000 0.000000 0.000000
# 2 -0.004226 0.007942 -0.003073 0.000000 0.000000 0.000000
# 3 -0.002550 -0.003073 0.025220 0.000000 0.000000 0.000000
# 4 0.000000 0.000000 0.000000 -0.037546 0.000000 0.000000
# 5 0.000000 0.000000 0.000000 0.000000 0.174530 0.000000
# 6 0.000000 0.000000 0.000000 0.000000 0.000000 0.054777
#
#
# Mechanical properties :
#
#
# Convention : Reuss Voigt Hill
#
# Bulk Modulus (GPa) = 42.90166 73.78318 58.34242
# Shear Modulus (GPa) = 19.06682 14.94782 17.00732
#
# Velocity S-wave (km/s) = 3.00449 2.66024 2.83759
# Velocity P-wave (km/s) = 5.68746 6.66089 6.19333
#
# Compressibility (1/GPa) = 0.02330912
#
# Stress axis : x y z
#
# Youngs Moduli (GPa) = 101.56431 125.92080 39.65174
#
# Poissons Ratio (x) = 0.53217 0.10110
# Poissons Ratio (y) = 0.42924 0.12185
# Poissons Ratio (z) = 0.25895 0.38696
#
# Static dielectric constant tensor:
#      x y z
#    x 3.714530 0.000000 0.000000 
#    y 0.000000 4.269050 0.000000 
#    z 0.000000 0.000000 3.259620 
# 
# 
# High freq. dielectric constant tensor:
#      x y z
#    x 1.803460 0.000000 0.000000 
#    y 0.000000 1.849740 0.000000 
#    z 0.000000 0.000000 1.785960 
# 
# From -- ./inp_files/2211.got.cif
#   From: 2010.03.12/outbox.cif.g09.slc.cpg/sg47_2_cif.got.tgz:2211.got - 2010.04.14 03:12:58.
