data_PCOD8200577
_publ_section_title
;
Structure prediction by ZEFSAII (Michael W. Deem and Ramdas Pophale) SiO2 
 PCOD8200577
Probable space group: P M M M
;
_chemical_formula_sum "Si O2"
_cell_formula_units_Z 40
_cell_length_a 7.742275
_cell_length_b 29.558776
_cell_length_c 9.382186
_cell_angle_alpha 90.000000
_cell_angle_beta 90.000000
_cell_angle_gamma 90.000000
_cell_volume 2147.133648
_symmetry_space_group_name_H-M "P M M M"
_symmetry_group_IT_number 47
_symmetry_cell_setting 'orthorhombic'
loop_
_space_group_symop_operation_xyz
x,y,z
-x,-y,z
x,-y,-z
-x,y,-z
-x,-y,-z
x,y,-z
-x,y,z
x,-y,z
loop_
_atom_site_type_symbol
_atom_site_label
_atom_site_fract_x
_atom_site_fract_y
_atom_site_fract_z
Si Si1 0.199439 0.587569 0.832999
Si Si2 0.203994 0.500000 0.339958
Si Si3 0.202171 0.915918 0.155855
Si Si4 0.807304 0.816604 0.830273
Si Si5 0.500000 0.346354 0.831936
Si Si6 0.700280 0.000000 0.344576
Si Si7 0.500000 0.245287 0.170531
O O1 0.265005 0.544131 0.745599
O O2 0.324548 0.628255 0.783774
O O3 0.000000 0.600368 0.798199
O O4 0.220853 0.576586 0.000000
O O5 0.283017 0.500000 0.500000
O O6 0.000000 0.500000 0.348213
O O7 0.259397 0.866715 0.215998
O O8 0.000000 0.914189 0.134637
O O9 0.249185 0.954917 0.263646
O O10 0.287242 0.925493 0.000000
O O11 0.671632 0.779834 0.771205
O O12 0.000000 0.806030 0.769479
O O13 0.814172 0.815298 0.000000
O O14 0.500000 0.296037 0.765913
O O15 0.500000 0.342138 0.000000
O O16 0.500000 0.000000 0.366562
O O17 0.791307 0.000000 0.500000
O O18 0.500000 0.245178 0.000000
#
# Coordination Sequence:
#
# PCOD8200577 Si02
#       7
#     8   4   8   8   4   4   4
#     4   9  17  30  47  67  96 131 161 193 235 281
#     4   9  17  30  49  72  95 123 162 203 239 278
#     4   9  18  33  52  73  95 122 160 200 237 285
#     4   8  15  27  44  69  97 122 153 194 238 285
#     4   9  18  29  42  67  97 127 164 195 230 287
#     4  11  24  35  44  68 102 131 160 193 234 288
#     4   9  16  26  43  67  96 126 153 191 242 283
#
# _framework density 18.629486
#
# number of rings (size 3 to 8) (size 9 to 14) (size 15 to 20)
#    0.000    3.000    0.000    2.100    1.400    4.800 
#    0.000    6.500    0.000    0.000    0.000    2.800 
#    0.000    3.200    0.000    0.000    0.000    0.000 
#
# Total GULP energy -495705.991087 kJ/mol
# GULP energy per Si atom -12392.649777 kJ/mol
# Density = 1.858708 g / cm^3
# Si number density = 18.629486 Si / 1000 Ang^3
#
#
#
# Elastic Constant Matrix: (Units=GPa)
#
#
# Indices 1 2 3 4 5 6 
#
# 1 91.0726 78.6746 23.6740 0.0000 0.0000 0.0000
# 2 78.6746 193.5363 53.9228 0.0000 0.0000 0.0000
# 3 23.6740 53.9228 60.6617 0.0000 0.0000 0.0000
# 4 0.0000 0.0000 0.0000 -2.8639 0.0000 0.0000
# 5 0.0000 0.0000 0.0000 0.0000 12.8932 0.0000
# 6 0.0000 0.0000 0.0000 0.0000 0.0000 34.5983
#
#
#
# Elastic Compliance Matrix: (Units=1/GPa)
#
#
# Indices 1 2 3 4 5 6 
#
# 1 0.016943 -0.006706 -0.000651 0.000000 0.000000 0.000000
# 2 -0.006706 0.009522 -0.005847 0.000000 0.000000 0.000000
# 3 -0.000651 -0.005847 0.021937 0.000000 0.000000 0.000000
# 4 0.000000 0.000000 0.000000 -0.349172 0.000000 0.000000
# 5 0.000000 0.000000 0.000000 0.000000 0.077560 0.000000
# 6 0.000000 0.000000 0.000000 0.000000 0.000000 0.028903
#
#
# Mechanical properties :
#
#
# Convention : Reuss Voigt Hill
#
# Bulk Modulus (GPa) = 45.46942 73.09038 59.27990
# Shear Modulus (GPa) = -31.13945 21.52547 -4.80699
#
# Velocity S-wave (km/s) = -4.09285 3.40288 -1.60808
# Velocity P-wave (km/s) = 1.45773 7.39989 5.33307
#
# Compressibility (1/GPa) = 0.02199280
#
# Stress axis : x y z
#
# Youngs Moduli (GPa) = 59.02312 105.01787 45.58578
#
# Poissons Ratio (x) = 0.70424 0.02968
# Poissons Ratio (y) = 0.39580 0.26655
# Poissons Ratio (z) = 0.03843 0.61407
#
# Static dielectric constant tensor:
#      x y z
#    x 3.556330 0.000000 0.000000 
#    y 0.000000 3.605100 0.000000 
#    z 0.000000 0.000000 2.831710 
# 
# 
# High freq. dielectric constant tensor:
#      x y z
#    x 1.726710 0.000000 0.000000 
#    y 0.000000 1.725870 0.000000 
#    z 0.000000 0.000000 1.669060 
# 
# From -- ./inp_files/1915.got.cif
#   From: 2010.03.12/outbox.cif.g09.slc.cpg/sg47_1_cif.got.tgz:1915.got - 2010.04.14 03:12:58.
