data_PCOD8200235
_publ_section_title
;
Structure prediction by ZEFSAII (Michael W. Deem and Ramdas Pophale) SiO2 
 PCOD8200235
Probable space group: P M M M
;
_chemical_formula_sum "Si O2"
_cell_formula_units_Z 52
_cell_length_a 23.334906
_cell_length_b 14.109847
_cell_length_c 8.922070
_cell_angle_alpha 90.000000
_cell_angle_beta 90.000000
_cell_angle_gamma 90.000000
_cell_volume 2937.608976
_symmetry_space_group_name_H-M "P M M M"
_symmetry_group_IT_number 47
_symmetry_cell_setting 'orthorhombic'
loop_
_space_group_symop_operation_xyz
x,y,z
-x,-y,z
x,-y,-z
-x,y,-z
-x,-y,-z
x,y,-z
-x,y,z
x,-y,z
loop_
_atom_site_type_symbol
_atom_site_label
_atom_site_fract_x
_atom_site_fract_y
_atom_site_fract_z
Si Si1 0.849829 0.107095 0.326368
Si Si2 0.886156 0.288918 0.177349
Si Si3 0.563070 0.393904 0.822081
Si Si4 0.673458 0.285745 0.177267
Si Si5 0.221210 0.388514 0.673562
Si Si6 0.716577 0.107220 0.326865
Si Si7 0.000000 0.393249 0.177970
O O1 0.865177 0.120367 0.500000
O O2 0.887306 0.179241 0.228227
O O3 0.783165 0.129485 0.298781
O O4 0.864200 0.000000 0.275047
O O5 0.833551 0.343285 0.249540
O O6 0.944058 0.338180 0.236131
O O7 0.880495 0.294377 0.000000
O O8 0.500000 0.360494 0.765343
O O9 0.575874 0.500000 0.761929
O O10 0.611878 0.322603 0.763635
O O11 0.563615 0.395550 0.000000
O O12 0.721445 0.349766 0.252863
O O13 0.678738 0.176422 0.225300
O O14 0.679748 0.294752 0.000000
O O15 0.220981 0.359597 0.500000
O O16 0.218782 0.500000 0.698218
O O17 0.701294 0.123399 0.500000
O O18 0.702206 0.000000 0.278660
O O19 0.000000 0.500000 0.243516
O O20 0.000000 0.396573 0.000000
#
# Coordination Sequence:
#
# PCOD8200235 Si02
#       7
#     8   8   8   8   8   8   4
#     4   9  18  34  55  77 105 140 172 206 255 313
#     4  11  21  35  57  81 103 133 173 218 261 304
#     4   8  15  29  48  71 103 141 175 208 251 304
#     4  11  20  30  51  82 107 130 169 219 264 306
#     4  11  23  36  50  72 106 142 171 207 258 311
#     4   9  18  33  52  73 103 142 174 204 253 315
#     4   9  20  38  56  75 104 140 173 209 258 311
#
# _framework density 17.701471999999999
#
# number of rings (size 3 to 8) (size 9 to 14) (size 15 to 20)
#    0.000    2.231    1.538    3.692    0.000    3.077 
#    0.000    3.462    0.000    7.385    0.000    8.615 
#    0.000    0.000    0.000    0.000    0.000    0.000 
#
# Total GULP energy -644783.362095 kJ/mol
# GULP energy per Si atom -12399.680040 kJ/mol
# Density = 1.766118 g / cm^3
# Si number density = 17.701472 Si / 1000 Ang^3
#
#
#
# Elastic Constant Matrix: (Units=GPa)
#
#
# Indices 1 2 3 4 5 6 
#
# 1 135.1741 80.3227 44.2961 0.0000 0.0000 0.0000
# 2 80.3227 132.8879 50.9294 0.0000 0.0000 0.0000
# 3 44.2961 50.9294 65.7213 0.0000 0.0000 0.0000
# 4 0.0000 0.0000 0.0000 31.7071 0.0000 0.0000
# 5 0.0000 0.0000 0.0000 0.0000 -7.2561 0.0000
# 6 0.0000 0.0000 0.0000 0.0000 0.0000 29.0199
#
#
#
# Elastic Compliance Matrix: (Units=1/GPa)
#
#
# Indices 1 2 3 4 5 6 
#
# 1 0.012096 -0.005955 -0.003538 0.000000 0.000000 0.000000
# 2 -0.005955 0.013636 -0.006553 0.000000 0.000000 0.000000
# 3 -0.003538 -0.006553 0.022678 0.000000 0.000000 0.000000
# 4 0.000000 0.000000 0.000000 0.031539 0.000000 0.000000
# 5 0.000000 0.000000 0.000000 0.000000 -0.137816 0.000000
# 6 0.000000 0.000000 0.000000 0.000000 0.000000 0.034459
#
#
# Mechanical properties :
#
#
# Convention : Reuss Voigt Hill
#
# Bulk Modulus (GPa) = 61.28161 76.09777 68.68969
# Shear Modulus (GPa) = 353.98015 21.24320 187.61167
#
# Velocity S-wave (km/s) = 14.15649 3.46798 10.30614
# Velocity P-wave (km/s) = 17.37536 7.68887 13.43543
#
# Compressibility (1/GPa) = 0.01631811
#
# Stress axis : x y z
#
# Youngs Moduli (GPa) = 82.67213 73.33302 44.09474
#
# Poissons Ratio (x) = 0.43673 0.15599
# Poissons Ratio (y) = 0.49235 0.28897
# Poissons Ratio (z) = 0.29246 0.48057
#
# Static dielectric constant tensor:
#      x y z
#    x 3.415770 0.000000 0.000000 
#    y 0.000000 3.496200 0.000000 
#    z 0.000000 0.000000 3.107530 
# 
# 
# High freq. dielectric constant tensor:
#      x y z
#    x 1.671750 0.000000 0.000000 
#    y 0.000000 1.696860 0.000000 
#    z 0.000000 0.000000 1.668740 
# 
# From -- ./inp_files/10996.got.cif
#   From: 2010.03.12/outbox.cif.g09.slc.cpg/sg47_6_cif.got.tgz:10996.got - 2010.04.14 03:12:58.
