data_PCOD8200686
_publ_section_title
;
Structure prediction by ZEFSAII (Michael W. Deem and Ramdas Pophale) SiO2 
 PCOD8200686
Probable space group: P M M M
;
_chemical_formula_sum "Si O2"
_cell_formula_units_Z 40
_cell_length_a 12.481748
_cell_length_b 9.399025
_cell_length_c 23.142377
_cell_angle_alpha 90.000000
_cell_angle_beta 90.000000
_cell_angle_gamma 90.000000
_cell_volume 2714.977152
_symmetry_space_group_name_H-M "P M M M"
_symmetry_group_IT_number 47
_symmetry_cell_setting 'orthorhombic'
loop_
_space_group_symop_operation_xyz
x,y,z
-x,-y,z
x,-y,-z
-x,y,-z
-x,-y,-z
x,y,-z
-x,y,z
x,-y,z
loop_
_atom_site_type_symbol
_atom_site_label
_atom_site_fract_x
_atom_site_fract_y
_atom_site_fract_z
Si Si1 0.203131 0.664418 0.066306
Si Si2 0.628400 0.660229 0.376019
Si Si3 0.000000 0.160891 0.931300
Si Si4 0.382733 0.331181 0.500000
Si Si5 0.622531 0.335517 0.840764
Si Si6 0.372452 0.839627 0.269111
O O1 0.169898 0.500000 0.072524
O O2 0.105581 0.758169 0.091143
O O3 0.308921 0.700817 0.102629
O O4 0.229374 0.702683 0.000000
O O5 0.500000 0.663953 0.378463
O O6 0.666957 0.500000 0.361914
O O7 0.674676 0.711739 0.439171
O O8 0.673888 0.763761 0.326479
O O9 0.000000 0.000000 0.907388
O O10 0.000000 0.164275 0.000000
O O11 0.395765 0.500000 0.500000
O O12 0.500000 0.259373 0.500000
O O13 0.500000 0.295723 0.855415
O O14 0.632665 0.500000 0.822926
O O15 0.667594 0.243645 0.787485
O O16 0.500000 0.836380 0.271069
O O17 0.328162 0.000000 0.266984
#
# Coordination Sequence:
#
# PCOD8200686 Si02
#       6
#     8   8   4   4   8   8
#     4   9  17  29  45  63  81 100 124 158 197 233
#     4   8  12  19  31  44  59  82 114 151 188 224
#     4   9  17  29  45  63  81 101 125 152 185 230
#     4   7  10  16  27  43  59  77 107 148 189 224
#     4   9  17  28  41  57  77 102 131 160 192 232
#     4   9  16  24  33  46  66  93 124 156 188 222
#
# _framework density 14.733089
#
# number of rings (size 3 to 8) (size 9 to 14) (size 15 to 20)
#    0.000    3.400    0.000    2.100    0.000    4.800 
#    0.000    2.500    0.000    3.000    0.000    5.600 
#    0.000    0.000    0.000    0.000    0.000    1.000 
#
# Total GULP energy -495660.928570 kJ/mol
# GULP energy per Si atom -12391.523214 kJ/mol
# Density = 1.469956 g / cm^3
# Si number density = 14.733089 Si / 1000 Ang^3
#
#
#
# Elastic Constant Matrix: (Units=GPa)
#
#
# Indices 1 2 3 4 5 6 
#
# 1 44.2270 31.1941 38.1579 0.0000 0.0000 0.0000
# 2 31.1941 84.6348 59.0160 0.0000 0.0000 0.0000
# 3 38.1579 59.0160 116.0607 0.0000 0.0000 0.0000
# 4 0.0000 0.0000 0.0000 12.9387 0.0000 0.0000
# 5 0.0000 0.0000 0.0000 0.0000 1.2044 0.0000
# 6 0.0000 0.0000 0.0000 0.0000 0.0000 10.6317
#
#
#
# Elastic Compliance Matrix: (Units=1/GPa)
#
#
# Indices 1 2 3 4 5 6 
#
# 1 0.034321 -0.007408 -0.007517 0.000000 0.000000 0.000000
# 2 -0.007408 0.019906 -0.007686 0.000000 0.000000 0.000000
# 3 -0.007517 -0.007686 0.014996 0.000000 0.000000 0.000000
# 4 0.000000 0.000000 0.000000 0.077288 0.000000 0.000000
# 5 0.000000 0.000000 0.000000 0.000000 0.830321 0.000000
# 6 0.000000 0.000000 0.000000 0.000000 0.000000 0.094058
#
#
# Mechanical properties :
#
#
# Convention : Reuss Voigt Hill
#
# Bulk Modulus (GPa) = 41.66680 55.73983 48.70331
# Shear Modulus (GPa) = 4.44795 12.72525 8.58660
#
# Velocity S-wave (km/s) = 1.73942 2.94210 2.41677
# Velocity P-wave (km/s) = 5.69004 7.03253 6.39660
#
# Compressibility (1/GPa) = 0.02399993
#
# Stress axis : x y z
#
# Youngs Moduli (GPa) = 29.13646 50.23729 66.68494
#
# Poissons Ratio (x) = 0.37218 0.50126
# Poissons Ratio (y) = 0.21585 0.51255
# Poissons Ratio (z) = 0.21902 0.38613
#
# Static dielectric constant tensor:
#      x y z
#    x 2.366170 0.000000 0.000000 
#    y 0.000000 2.917600 0.000000 
#    z 0.000000 0.000000 3.079650 
# 
# 
# High freq. dielectric constant tensor:
#      x y z
#    x 1.492150 0.000000 0.000000 
#    y 0.000000 1.560380 0.000000 
#    z 0.000000 0.000000 1.568570 
# 
# From -- ./inp_files/33524.got.cif
#   From: 2010.03.12/outbox.cif.g09.slc.cpg/sg47_17_cif.got.tgz:33524.got - 2010.04.14 03:12:58.
