data_PCOD8200744
_publ_section_title
;
Structure prediction by ZEFSAII (Michael W. Deem and Ramdas Pophale) SiO2 
 PCOD8200744
Probable space group: P M M M
;
_chemical_formula_sum "Si O2"
_cell_formula_units_Z 48
_cell_length_a 24.429682
_cell_length_b 9.606866
_cell_length_c 13.705175
_cell_angle_alpha 90.000000
_cell_angle_beta 90.000000
_cell_angle_gamma 90.000000
_cell_volume 3216.504270
_symmetry_space_group_name_H-M "P M M M"
_symmetry_group_IT_number 47
_symmetry_cell_setting 'orthorhombic'
loop_
_space_group_symop_operation_xyz
x,y,z
-x,-y,z
x,-y,-z
-x,y,-z
-x,-y,-z
x,y,-z
-x,y,z
x,-y,z
loop_
_atom_site_type_symbol
_atom_site_label
_atom_site_fract_x
_atom_site_fract_y
_atom_site_fract_z
Si Si1 0.175296 0.333354 0.890178
Si Si2 0.334530 0.162501 0.611952
Si Si3 0.385490 0.660330 0.888683
Si Si4 0.722086 0.338439 0.231757
Si Si5 0.561220 0.159610 0.266893
Si Si6 0.057925 0.655838 0.115861
O O1 0.173830 0.500000 0.892501
O O2 0.221937 0.281502 0.816220
O O3 0.115852 0.274840 0.851155
O O4 0.187667 0.278611 0.000000
O O5 0.330682 0.208009 0.500000
O O6 0.289500 0.249505 0.671405
O O7 0.395675 0.200154 0.648840
O O8 0.321903 0.000000 0.625879
O O9 0.402493 0.500000 0.879155
O O10 0.324896 0.685945 0.847838
O O11 0.429610 0.749145 0.829409
O O12 0.386256 0.710485 0.000000
O O13 0.726435 0.500000 0.261472
O O14 0.500000 0.187077 0.307270
O O15 0.569025 0.000000 0.235795
O O16 0.055682 0.500000 0.158256
O O17 0.000000 0.731296 0.148242
O O18 0.060388 0.649415 0.000000
#
# Coordination Sequence:
#
# PCOD8200744 Si02
#       6
#     8   8   8   8   8   8
#     4   8  12  18  31  52  78 108 137 160 183 215
#     4   9  18  32  47  60  75  96 120 150 193 239
#     4   9  17  28  41  57  79 107 133 154 179 214
#     4   9  16  26  41  60  80 101 128 160 189 220
#     4   9  18  31  45  61  78  95 120 154 188 224
#     4   7   9  13  22  40  70 106 137 160 182 210
#
# _framework density 14.923033
#
# number of rings (size 3 to 8) (size 9 to 14) (size 15 to 20)
#    0.000    3.500    0.000    2.000    0.000    3.667 
#    0.000    3.333    0.000    1.500    0.000    4.667 
#    0.000    1.333    0.000   12.500    0.000    5.000 
#
# Total GULP energy -594653.750943 kJ/mol
# GULP energy per Si atom -12388.619811 kJ/mol
# Density = 1.488907 g / cm^3
# Si number density = 14.923033 Si / 1000 Ang^3
#
#
#
# Elastic Constant Matrix: (Units=GPa)
#
#
# Indices 1 2 3 4 5 6 
#
# 1 130.4545 29.6035 53.8554 0.0000 0.0000 0.0000
# 2 29.6035 28.5489 33.1699 0.0000 0.0000 0.0000
# 3 53.8554 33.1699 98.9460 0.0000 0.0000 0.0000
# 4 0.0000 0.0000 0.0000 19.6771 0.0000 0.0000
# 5 0.0000 0.0000 0.0000 0.0000 14.0627 0.0000
# 6 0.0000 0.0000 0.0000 0.0000 0.0000 9.5753
#
#
#
# Elastic Compliance Matrix: (Units=1/GPa)
#
#
# Indices 1 2 3 4 5 6 
#
# 1 0.010697 -0.007088 -0.003446 0.000000 0.000000 0.000000
# 2 -0.007088 0.062071 -0.016950 0.000000 0.000000 0.000000
# 3 -0.003446 -0.016950 0.017664 0.000000 0.000000 0.000000
# 4 0.000000 0.000000 0.000000 0.050821 0.000000 0.000000
# 5 0.000000 0.000000 0.000000 0.000000 0.071110 0.000000
# 6 0.000000 0.000000 0.000000 0.000000 0.000000 0.104435
#
#
# Mechanical properties :
#
#
# Convention : Reuss Voigt Hill
#
# Bulk Modulus (GPa) = 28.19777 54.57853 41.38815
# Shear Modulus (GPa) = 13.03481 18.08439 15.55960
#
# Velocity S-wave (km/s) = 2.95866 3.48493 3.23252
# Velocity P-wave (km/s) = 5.53245 7.26951 6.45964
#
# Compressibility (1/GPa) = 0.03546380
#
# Stress axis : x y z
#
# Youngs Moduli (GPa) = 93.48837 16.11045 56.61094
#
# Poissons Ratio (x) = 0.11419 0.19508
# Poissons Ratio (y) = 0.66264 0.95958
# Poissons Ratio (z) = 0.32215 0.27308
#
# Static dielectric constant tensor:
#      x y z
#    x 3.317600 0.000000 0.000000 
#    y 0.000000 2.609850 0.000000 
#    z 0.000000 0.000000 2.669540 
# 
# 
# High freq. dielectric constant tensor:
#      x y z
#    x 1.580910 0.000000 0.000000 
#    y 0.000000 1.535130 0.000000 
#    z 0.000000 0.000000 1.537560 
# 
# From -- ./inp_files/7470.got.cif
#   From: 2010.03.12/outbox.cif.g09.slc.cpg/sg47_4_cif.got.tgz:7470.got - 2010.04.14 03:12:58.
