data_PCOD8200460
_publ_section_title
;
Structure prediction by ZEFSAII (Michael W. Deem and Ramdas Pophale) SiO2 
 PCOD8200460
Probable space group: P M M M
;
_chemical_formula_sum "Si O2"
_cell_formula_units_Z 44
_cell_length_a 16.797687
_cell_length_b 15.047799
_cell_length_c 8.653794
_cell_angle_alpha 90.000000
_cell_angle_beta 90.000000
_cell_angle_gamma 90.000000
_cell_volume 2187.404085
_symmetry_space_group_name_H-M "P M M M"
_symmetry_group_IT_number 47
_symmetry_cell_setting 'orthorhombic'
loop_
_space_group_symop_operation_xyz
x,y,z
-x,-y,z
x,-y,-z
-x,y,-z
-x,-y,-z
x,y,-z
-x,y,z
x,-y,z
loop_
_atom_site_type_symbol
_atom_site_label
_atom_site_fract_x
_atom_site_fract_y
_atom_site_fract_z
Si Si1 0.406595 0.598563 0.827281
Si Si2 0.692962 0.738032 0.322250
Si Si3 0.142626 0.282147 0.182176
Si Si4 0.089646 0.094804 0.183398
Si Si5 0.589491 0.900339 0.683644
Si Si6 0.000000 0.602826 0.682766
O O1 0.500000 0.595768 0.807825
O O2 0.371421 0.500000 0.800705
O O3 0.374008 0.663521 0.695980
O O4 0.383529 0.631831 0.000000
O O5 0.717450 0.749238 0.500000
O O6 0.766888 0.697742 0.226351
O O7 0.655696 0.830421 0.254320
O O8 0.132758 0.181700 0.249586
O O9 0.079863 0.349671 0.256826
O O10 0.128992 0.287708 0.000000
O O11 0.000000 0.098253 0.244953
O O12 0.128360 0.000000 0.238364
O O13 0.090735 0.098897 0.000000
O O14 0.587656 0.894711 0.500000
O O15 0.500000 0.877721 0.745469
O O16 0.613496 0.000000 0.737853
O O17 0.000000 0.500000 0.738396
O O18 0.000000 0.608523 0.500000
#
# Coordination Sequence:
#
# PCOD8200460 Si02
#       6
#     8   8   8   8   8   4
#     4   9  19  37  59  81 107 141 181 227 281 340
#     4  11  22  34  53  84 118 151 187 233 282 327
#     4  11  22  38  60  85 113 149 189 228 275 335
#     4   8  14  28  53  82 108 136 174 219 265 315
#     4   8  15  30  52  78 112 156 200 236 274 325
#     4  11  25  45  66  85 108 140 181 235 294 345
#
# _framework density 20.115168000000001
#
# number of rings (size 3 to 8) (size 9 to 14) (size 15 to 20)
#    0.000    2.455    0.909    3.545    0.000    3.636 
#    0.000    0.909    0.000    3.818    0.000    6.364 
#    0.000    0.000    0.000    0.000    0.000    0.000 
#
# Total GULP energy -545201.790863 kJ/mol
# GULP energy per Si atom -12390.949792 kJ/mol
# Density = 2.006939 g / cm^3
# Si number density = 20.115168 Si / 1000 Ang^3
#
#
#
# Elastic Constant Matrix: (Units=GPa)
#
#
# Indices 1 2 3 4 5 6 
#
# 1 93.7861 60.1810 23.8421 0.0000 0.0000 0.0000
# 2 60.1810 147.8256 35.1226 0.0000 0.0000 0.0000
# 3 23.8421 35.1226 41.4660 0.0000 0.0000 0.0000
# 4 0.0000 0.0000 0.0000 22.2747 0.0000 0.0000
# 5 0.0000 0.0000 0.0000 0.0000 22.6811 0.0000
# 6 0.0000 0.0000 0.0000 0.0000 0.0000 14.8523
#
#
#
# Elastic Compliance Matrix: (Units=1/GPa)
#
#
# Indices 1 2 3 4 5 6 
#
# 1 0.015029 -0.005090 -0.004331 0.000000 0.000000 0.000000
# 2 -0.005090 0.010193 -0.005707 0.000000 0.000000 0.000000
# 3 -0.004331 -0.005707 0.031440 0.000000 0.000000 0.000000
# 4 0.000000 0.000000 0.000000 0.044894 0.000000 0.000000
# 5 0.000000 0.000000 0.000000 0.000000 0.044090 0.000000
# 6 0.000000 0.000000 0.000000 0.000000 0.000000 0.067330
#
#
# Mechanical properties :
#
#
# Convention : Reuss Voigt Hill
#
# Bulk Modulus (GPa) = 37.86761 57.92990 47.89875
# Shear Modulus (GPa) = 19.83871 22.89042 21.36456
#
# Velocity S-wave (km/s) = 3.14388 3.37704 3.26254
# Velocity P-wave (km/s) = 5.66082 6.63833 6.16897
#
# Compressibility (1/GPa) = 0.02640780
#
# Stress axis : x y z
#
# Youngs Moduli (GPa) = 66.53614 98.10899 31.80653
#
# Poissons Ratio (x) = 0.49934 0.13774
# Poissons Ratio (y) = 0.33865 0.18152
# Poissons Ratio (z) = 0.28814 0.55991
#
# Static dielectric constant tensor:
#      x y z
#    x 3.563260 0.000000 0.000000 
#    y 0.000000 4.130680 0.000000 
#    z 0.000000 0.000000 3.244870 
# 
# 
# High freq. dielectric constant tensor:
#      x y z
#    x 1.777280 0.000000 0.000000 
#    y 0.000000 1.800490 0.000000 
#    z 0.000000 0.000000 1.747550 
# 
# From -- ./inp_files/9011.got.cif
#   From: 2010.03.12/outbox.cif.g09.slc.cpg/sg47_5_cif.got.tgz:9011.got - 2010.04.14 03:12:58.
