data_PCOD8200531
_publ_section_title
;
Structure prediction by ZEFSAII (Michael W. Deem and Ramdas Pophale) SiO2 
 PCOD8200531
Probable space group: P M M M
;
_chemical_formula_sum "Si O2"
_cell_formula_units_Z 28
_cell_length_a 9.351382
_cell_length_b 9.052451
_cell_length_c 19.279361
_cell_angle_alpha 90.000000
_cell_angle_beta 90.000000
_cell_angle_gamma 90.000000
_cell_volume 1632.054346
_symmetry_space_group_name_H-M "P M M M"
_symmetry_group_IT_number 47
_symmetry_cell_setting 'orthorhombic'
loop_
_space_group_symop_operation_xyz
x,y,z
-x,-y,z
x,-y,-z
-x,y,-z
-x,-y,-z
x,y,-z
-x,y,z
x,-y,z
loop_
_atom_site_type_symbol
_atom_site_label
_atom_site_fract_x
_atom_site_fract_y
_atom_site_fract_z
Si Si1 0.000000 0.825497 0.920141
Si Si2 0.666902 0.828811 0.695877
Si Si3 0.842448 0.667124 0.810359
Si Si4 0.835342 0.330960 0.579626
O O1 0.141796 0.756542 0.883207
O O2 0.000000 0.000000 0.910208
O O3 0.000000 0.778629 0.000000
O O4 0.500000 0.796496 0.690782
O O5 0.726818 0.742694 0.761864
O O6 0.737914 0.775302 0.624980
O O7 0.701486 0.000000 0.706090
O O8 0.793220 0.500000 0.826133
O O9 0.000000 0.668027 0.773386
O O10 0.789353 0.310429 0.500000
O O11 0.811356 0.500000 0.603128
O O12 0.000000 0.286227 0.589532
#
# Coordination Sequence:
#
# PCOD8200531 Si02
#       4
#     4   8   8   8
#     4   9  17  31  55  85 112 137 166 205 253 303
#     4  11  23  35  49  73 106 141 176 217 264 313
#     4   9  19  33  53  79 104 135 173 214 254 300
#     4   9  19  36  56  76  99 130 172 221 269 317
#
# _framework density 17.156292000000001
#
# number of rings (size 3 to 8) (size 9 to 14) (size 15 to 20)
#    0.857    1.571    0.000    3.429    0.000    8.571 
#    0.000    4.286    0.000    0.857    0.000    6.000 
#    0.000    0.000    0.000    0.000    0.000    0.000 
#
# Total GULP energy -347089.878742 kJ/mol
# GULP energy per Si atom -12396.067098 kJ/mol
# Density = 1.711724 g / cm^3
# Si number density = 17.156292 Si / 1000 Ang^3
#
#
#
# Elastic Constant Matrix: (Units=GPa)
#
#
# Indices 1 2 3 4 5 6 
#
# 1 72.5124 59.8594 50.1883 0.0000 0.0000 0.0000
# 2 59.8594 122.9235 67.2208 0.0000 0.0000 0.0000
# 3 50.1883 67.2208 117.0891 0.0000 0.0000 0.0000
# 4 0.0000 0.0000 0.0000 32.4962 0.0000 0.0000
# 5 0.0000 0.0000 0.0000 0.0000 0.5904 0.0000
# 6 0.0000 0.0000 0.0000 0.0000 0.0000 27.0557
#
#
#
# Elastic Compliance Matrix: (Units=1/GPa)
#
#
# Indices 1 2 3 4 5 6 
#
# 1 0.025271 -0.009303 -0.005491 0.000000 0.000000 0.000000
# 2 -0.009303 0.015283 -0.004786 0.000000 0.000000 0.000000
# 3 -0.005491 -0.004786 0.013642 0.000000 0.000000 0.000000
# 4 0.000000 0.000000 0.000000 0.030773 0.000000 0.000000
# 5 0.000000 0.000000 0.000000 0.000000 1.693644 0.000000
# 6 0.000000 0.000000 0.000000 0.000000 0.000000 0.036961
#
#
# Mechanical properties :
#
#
# Convention : Reuss Voigt Hill
#
# Bulk Modulus (GPa) = 66.51216 74.11800 70.31508
# Shear Modulus (GPa) = 2.68854 21.04557 11.86706
#
# Velocity S-wave (km/s) = 1.25319 3.50622 2.63288
# Velocity P-wave (km/s) = 6.39895 7.72573 7.09343
#
# Compressibility (1/GPa) = 0.01503485
#
# Stress axis : x y z
#
# Youngs Moduli (GPa) = 39.57058 65.43257 73.30385
#
# Poissons Ratio (x) = 0.60875 0.40251
# Poissons Ratio (y) = 0.36814 0.35084
# Poissons Ratio (z) = 0.21728 0.31317
#
# Static dielectric constant tensor:
#      x y z
#    x 2.981860 0.000000 0.000000 
#    y 0.000000 3.272860 0.000000 
#    z 0.000000 0.000000 3.081150 
# 
# 
# High freq. dielectric constant tensor:
#      x y z
#    x 1.638700 0.000000 0.000000 
#    y 0.000000 1.676000 0.000000 
#    z 0.000000 0.000000 1.657260 
# 
# From -- ./inp_files/28996.got.cif
#   From: 2010.03.12/outbox.cif.g09.slc.cpg/sg47_15_cif.got.tgz:28996.got - 2010.04.14 03:12:58.
