data_PCOD8200762
_publ_section_title
;
Structure prediction by ZEFSAII (Michael W. Deem and Ramdas Pophale) SiO2 
 PCOD8200762
Probable space group: P M M M
;
_chemical_formula_sum "Si O2"
_cell_formula_units_Z 52
_cell_length_a 26.617604
_cell_length_b 9.795652
_cell_length_c 13.849195
_cell_angle_alpha 90.000000
_cell_angle_beta 90.000000
_cell_angle_gamma 90.000000
_cell_volume 3610.994591
_symmetry_space_group_name_H-M "P M M M"
_symmetry_group_IT_number 47
_symmetry_cell_setting 'orthorhombic'
loop_
_space_group_symop_operation_xyz
x,y,z
-x,-y,z
x,-y,-z
-x,y,-z
-x,-y,-z
x,y,-z
-x,y,z
x,-y,z
loop_
_atom_site_type_symbol
_atom_site_label
_atom_site_fract_x
_atom_site_fract_y
_atom_site_fract_z
Si Si1 0.701868 0.162382 0.106224
Si Si2 0.652886 0.162531 0.606457
Si Si3 0.944343 0.653026 0.614695
Si Si4 0.753380 0.837875 0.704914
Si Si5 0.500000 0.163052 0.110012
Si Si6 0.855556 0.842000 0.386325
Si Si7 0.601174 0.837703 0.795200
O O1 0.743510 0.210440 0.184423
O O2 0.646753 0.215236 0.137710
O O3 0.700687 0.000000 0.103650
O O4 0.715119 0.221458 0.000000
O O5 0.639546 0.220685 0.500000
O O6 0.707921 0.216750 0.637978
O O7 0.611150 0.211029 0.684540
O O8 0.654252 0.000000 0.604472
O O9 0.944278 0.658113 0.500000
O O10 0.931041 0.500000 0.649946
O O11 0.903208 0.758762 0.654869
O O12 0.000000 0.694624 0.652441
O O13 0.806425 0.781084 0.666993
O O14 0.754545 0.000000 0.698157
O O15 0.548868 0.222571 0.165099
O O16 0.500000 0.000000 0.111767
O O17 0.500000 0.215907 0.000000
O O18 0.847810 0.820638 0.500000
O O19 0.864774 0.000000 0.361330
O O20 0.599228 0.000000 0.799161
#
# Coordination Sequence:
#
# PCOD8200762 Si02
#       7
#     8   8   8   8   4   8   8
#     4   8  12  18  27  37  51  72  95 119 153 197
#     4   8  12  18  26  33  45  67  91 115 148 190
#     4   8  14  24  35  46  64  92 120 140 160 190
#     4   8  13  19  27  41  59  76  96 124 157 193
#     4   9  14  18  23  29  39  55  80 122 168 197
#     4   9  15  21  31  48  68  88 110 137 166 193
#     4   8  13  18  23  32  43  59  88 122 155 193
#
# _framework density 14.400465000000001
#
# number of rings (size 3 to 8) (size 9 to 14) (size 15 to 20)
#    0.000    3.769    0.000    3.231    0.000    4.000 
#    0.000    1.923    0.000    2.308    0.000    0.000 
#    0.000    1.231    0.000    7.692    0.000    1.538 
#
# Total GULP energy -644188.373516 kJ/mol
# GULP energy per Si atom -12388.237952 kJ/mol
# Density = 1.436769 g / cm^3
# Si number density = 14.400465 Si / 1000 Ang^3
#
#
#
# Elastic Constant Matrix: (Units=GPa)
#
#
# Indices 1 2 3 4 5 6 
#
# 1 131.7107 28.8121 58.1894 0.0000 0.0000 0.0000
# 2 28.8121 17.4400 14.0732 0.0000 0.0000 0.0000
# 3 58.1894 14.0732 107.0548 0.0000 0.0000 0.0000
# 4 0.0000 0.0000 0.0000 2.3066 0.0000 0.0000
# 5 0.0000 0.0000 0.0000 0.0000 17.7438 0.0000
# 6 0.0000 0.0000 0.0000 0.0000 0.0000 1.1024
#
#
#
# Elastic Compliance Matrix: (Units=1/GPa)
#
#
# Indices 1 2 3 4 5 6 
#
# 1 0.014015 -0.019024 -0.005117 0.000000 0.000000 0.000000
# 2 -0.019024 0.089968 -0.001487 0.000000 0.000000 0.000000
# 3 -0.005117 -0.001487 0.012318 0.000000 0.000000 0.000000
# 4 0.000000 0.000000 0.000000 0.433542 0.000000 0.000000
# 5 0.000000 0.000000 0.000000 0.000000 0.056358 0.000000
# 6 0.000000 0.000000 0.000000 0.000000 0.000000 0.907140
#
#
# Mechanical properties :
#
#
# Convention : Reuss Voigt Hill
#
# Bulk Modulus (GPa) = 15.37383 50.92831 33.15107
# Shear Modulus (GPa) = 3.15204 14.57261 8.86233
#
# Velocity S-wave (km/s) = 1.48108 3.18457 2.48346
# Velocity P-wave (km/s) = 3.69106 6.99747 5.59412
#
# Compressibility (1/GPa) = 0.06504559
#
# Stress axis : x y z
#
# Youngs Moduli (GPa) = 71.35463 11.11506 81.18473
#
# Poissons Ratio (x) = 0.21145 0.41540
# Poissons Ratio (y) = 1.35745 0.12068
# Poissons Ratio (z) = 0.36510 0.01652
#
# Static dielectric constant tensor:
#      x y z
#    x 3.072360 0.000000 0.000000 
#    y 0.000000 2.238780 0.000000 
#    z 0.000000 0.000000 2.978210 
# 
# 
# High freq. dielectric constant tensor:
#      x y z
#    x 1.550590 0.000000 0.000000 
#    y 0.000000 1.477000 0.000000 
#    z 0.000000 0.000000 1.534790 
# 
# From -- ./inp_files/19686.got.cif
#   From: 2010.03.12/outbox.cif.g09.slc.cpg/sg47_10_cif.got.tgz:19686.got - 2010.04.14 03:12:58.
