data_PCOD8200224
_publ_section_title
;
Structure prediction by ZEFSAII (Michael W. Deem and Ramdas Pophale) SiO2 
 PCOD8200224
Probable space group: P M M M
;
_chemical_formula_sum "Si O2"
_cell_formula_units_Z 44
_cell_length_a 14.087356
_cell_length_b 23.627567
_cell_length_c 9.271566
_cell_angle_alpha 90.000000
_cell_angle_beta 90.000000
_cell_angle_gamma 90.000000
_cell_volume 3086.040259
_symmetry_space_group_name_H-M "P M M M"
_symmetry_group_IT_number 47
_symmetry_cell_setting 'orthorhombic'
loop_
_space_group_symop_operation_xyz
x,y,z
-x,-y,z
x,-y,-z
-x,y,-z
-x,-y,-z
x,y,-z
-x,y,z
x,-y,z
loop_
_atom_site_type_symbol
_atom_site_label
_atom_site_fract_x
_atom_site_fract_y
_atom_site_fract_z
Si Si1 0.891982 0.433685 0.335663
Si Si2 0.386856 0.834252 0.159866
Si Si3 0.605186 0.711208 0.171142
Si Si4 0.612362 0.500000 0.668287
Si Si5 0.612779 0.938180 0.661547
Si Si6 0.284195 0.601006 0.828466
O O1 0.871783 0.414690 0.500000
O O2 0.871609 0.500000 0.319938
O O3 0.824359 0.400899 0.224709
O O4 0.000000 0.419526 0.292929
O O5 0.500000 0.838160 0.155419
O O6 0.359012 0.772834 0.228073
O O7 0.342149 0.886252 0.249493
O O8 0.344374 0.840130 0.000000
O O9 0.500000 0.697242 0.232818
O O10 0.677118 0.662325 0.218474
O O11 0.598487 0.715405 0.000000
O O12 0.500000 0.500000 0.686224
O O13 0.642634 0.500000 0.500000
O O14 0.653203 0.445016 0.746251
O O15 0.652145 0.933203 0.500000
O O16 0.500000 0.933000 0.661609
O O17 0.641903 0.000000 0.725976
O O18 0.290027 0.590736 0.000000
#
# Coordination Sequence:
#
# PCOD8200224 Si02
#       6
#     8   8   8   4   8   8
#     4   9  18  33  50  64  82 106 125 150 196 247
#     4   8  13  22  35  48  64  91 126 158 185 219
#     4   8  15  27  40  55  78 105 130 159 196 233
#     4  11  23  35  44  57  82 111 135 162 196 235
#     4   8  13  20  29  43  65  90 116 153 198 230
#     4  11  20  30  47  67  82 100 129 166 203 239
#
# _framework density 14.257752999999999
#
# number of rings (size 3 to 8) (size 9 to 14) (size 15 to 20)
#    0.000    3.000    0.909    3.545    0.000    2.182 
#    0.000    4.545    0.000    4.364    0.000    0.000 
#    0.000    0.000    0.000    0.000    0.000    0.909 
#
# Total GULP energy -545227.380545 kJ/mol
# GULP energy per Si atom -12391.531376 kJ/mol
# Density = 1.422530 g / cm^3
# Si number density = 14.257753 Si / 1000 Ang^3
#
#
#
# Elastic Constant Matrix: (Units=GPa)
#
#
# Indices 1 2 3 4 5 6 
#
# 1 56.8829 41.6644 30.0481 0.0000 0.0000 0.0000
# 2 41.6644 136.1829 52.9446 0.0000 0.0000 0.0000
# 3 30.0481 52.9446 66.0816 0.0000 0.0000 0.0000
# 4 0.0000 0.0000 0.0000 7.9666 0.0000 0.0000
# 5 0.0000 0.0000 0.0000 0.0000 17.1383 0.0000
# 6 0.0000 0.0000 0.0000 0.0000 0.0000 3.8436
#
#
#
# Elastic Compliance Matrix: (Units=1/GPa)
#
#
# Indices 1 2 3 4 5 6 
#
# 1 0.025050 -0.004699 -0.007626 0.000000 0.000000 0.000000
# 2 -0.004699 0.011547 -0.007114 0.000000 0.000000 0.000000
# 3 -0.007626 -0.007114 0.024300 0.000000 0.000000 0.000000
# 4 0.000000 0.000000 0.000000 0.125524 0.000000 0.000000
# 5 0.000000 0.000000 0.000000 0.000000 0.058349 0.000000
# 6 0.000000 0.000000 0.000000 0.000000 0.000000 0.260171
#
#
# Mechanical properties :
#
#
# Convention : Reuss Voigt Hill
#
# Bulk Modulus (GPa) = 45.41597 56.49575 50.95586
# Shear Modulus (GPa) = 9.07178 14.75572 11.91375
#
# Velocity S-wave (km/s) = 2.52518 3.22052 2.89381
# Velocity P-wave (km/s) = 6.35804 7.31707 6.85435
#
# Compressibility (1/GPa) = 0.02201869
#
# Stress axis : x y z
#
# Youngs Moduli (GPa) = 39.91980 86.60487 41.15186
#
# Poissons Ratio (x) = 0.40699 0.31380
# Poissons Ratio (y) = 0.18760 0.29277
# Poissons Ratio (z) = 0.30441 0.61614
#
# Static dielectric constant tensor:
#      x y z
#    x 2.482690 0.000000 0.000000 
#    y 0.000000 3.118900 0.000000 
#    z 0.000000 0.000000 2.811250 
# 
# 
# High freq. dielectric constant tensor:
#      x y z
#    x 1.491050 0.000000 0.000000 
#    y 0.000000 1.547590 0.000000 
#    z 0.000000 0.000000 1.537360 
# 
# From -- ./inp_files/7971.got.cif
#   From: 2010.03.12/outbox.cif.g09.slc.cpg/sg47_4_cif.got.tgz:7971.got - 2010.04.14 03:12:58.
