data_PCOD8200874
_publ_section_title
;
Structure prediction by ZEFSAII (Michael W. Deem and Ramdas Pophale) SiO2 
 PCOD8200874
Probable space group: P M M M
;
_chemical_formula_sum "Si O2"
_cell_formula_units_Z 56
_cell_length_a 9.944713
_cell_length_b 9.938499
_cell_length_c 36.006602
_cell_angle_alpha 90.000000
_cell_angle_beta 90.000000
_cell_angle_gamma 90.000000
_cell_volume 3558.731240
_symmetry_space_group_name_H-M "P M M M"
_symmetry_group_IT_number 47
_symmetry_cell_setting 'orthorhombic'
loop_
_space_group_symop_operation_xyz
x,y,z
-x,-y,z
x,-y,-z
-x,y,-z
-x,-y,-z
x,y,-z
-x,y,z
x,-y,z
loop_
_atom_site_type_symbol
_atom_site_label
_atom_site_fract_x
_atom_site_fract_y
_atom_site_fract_z
Si Si1 0.839757 0.149811 0.896962
Si Si2 0.843168 0.157006 0.394029
Si Si3 0.650188 0.840327 0.670772
Si Si4 0.159530 0.349636 0.458800
Si Si5 0.349370 0.839930 0.246693
Si Si6 0.149706 0.839622 0.185073
Si Si7 0.159958 0.349452 0.958669
O O1 0.798006 0.202577 0.855946
O O2 0.777900 0.248401 0.928165
O O3 0.000000 0.145650 0.899092
O O4 0.782243 0.000000 0.904196
O O5 0.759681 0.211578 0.358719
O O6 0.788116 0.239892 0.429415
O O7 0.000000 0.184557 0.386045
O O8 0.816630 0.000000 0.401987
O O9 0.500000 0.788582 0.660336
O O10 0.690477 0.788694 0.711990
O O11 0.649951 0.000000 0.671018
O O12 0.214565 0.313038 0.500000
O O13 0.208229 0.500000 0.447570
O O14 0.000000 0.345877 0.459623
O O15 0.500000 0.791674 0.236981
O O16 0.247923 0.777579 0.216334
O O17 0.341903 0.000000 0.245484
O O18 0.000000 0.782421 0.192429
O O19 0.146143 0.000000 0.187010
O O20 0.212379 0.500000 0.950238
O O21 0.000000 0.347167 0.956423
O O22 0.206060 0.304531 0.000000
#
# Coordination Sequence:
#
# PCOD8200874 Si02
#       7
#     8   8   8   8   8   8   8
#     4   8  13  20  29  43  65  91 116 142 176 217
#     4   9  16  24  37  60  83  99 123 161 194 217
#     4   8  14  24  36  51  75 105 129 150 184 228
#     4   8  14  25  40  57  78 104 130 154 185 226
#     4   8  13  21  33  49  70  97 126 151 177 215
#     4   8  13  20  30  46  69  95 120 148 183 218
#     4   8  13  20  29  42  62  89 119 147 174 208
#
# _framework density 15.735944999999999
#
# number of rings (size 3 to 8) (size 9 to 14) (size 15 to 20)
#    0.000    3.857    0.000    2.571    0.000    1.143 
#    0.000    5.714    0.000    0.857    0.000    4.000 
#    0.000    6.857    0.000    7.143    0.000    8.286 
#
# Total GULP energy -693803.265188 kJ/mol
# GULP energy per Si atom -12389.344021 kJ/mol
# Density = 1.570013 g / cm^3
# Si number density = 15.735945 Si / 1000 Ang^3
#
#
#
# Elastic Constant Matrix: (Units=GPa)
#
#
# Indices 1 2 3 4 5 6 
#
# 1 46.8645 22.5932 59.0341 0.0000 0.0000 0.0000
# 2 22.5932 45.6329 57.7761 0.0000 0.0000 0.0000
# 3 59.0341 57.7761 164.7141 0.0000 0.0000 0.0000
# 4 0.0000 0.0000 0.0000 5.1506 0.0000 0.0000
# 5 0.0000 0.0000 0.0000 0.0000 5.0726 0.0000
# 6 0.0000 0.0000 0.0000 0.0000 0.0000 4.5313
#
#
#
# Elastic Compliance Matrix: (Units=1/GPa)
#
#
# Indices 1 2 3 4 5 6 
#
# 1 0.039114 -0.002908 -0.012999 0.000000 0.000000 0.000000
# 2 -0.002908 0.039638 -0.012861 0.000000 0.000000 0.000000
# 3 -0.012999 -0.012861 0.015241 0.000000 0.000000 0.000000
# 4 0.000000 0.000000 0.000000 0.194151 0.000000 0.000000
# 5 0.000000 0.000000 0.000000 0.000000 0.197137 0.000000
# 6 0.000000 0.000000 0.000000 0.000000 0.000000 0.220688
#
#
# Mechanical properties :
#
#
# Convention : Reuss Voigt Hill
#
# Bulk Modulus (GPa) = 27.42958 59.55760 43.49359
# Shear Modulus (GPa) = 6.44614 10.80478 8.62546
#
# Velocity S-wave (km/s) = 2.02616 2.62321 2.34377
# Velocity P-wave (km/s) = 4.78986 6.86332 5.91811
#
# Compressibility (1/GPa) = 0.03645700
#
# Stress axis : x y z
#
# Youngs Moduli (GPa) = 25.56624 25.22861 65.61185
#
# Poissons Ratio (x) = 0.07337 0.85286
# Poissons Ratio (y) = 0.07435 0.84385
# Poissons Ratio (z) = 0.33232 0.32447
#
# Static dielectric constant tensor:
#      x y z
#    x 2.760950 0.000000 0.000000 
#    y 0.000000 2.764690 0.000000 
#    z 0.000000 0.000000 3.472730 
# 
# 
# High freq. dielectric constant tensor:
#      x y z
#    x 1.557420 0.000000 0.000000 
#    y 0.000000 1.557510 0.000000 
#    z 0.000000 0.000000 1.618390 
# 
# From -- ./inp_files/33705.got.cif
#   From: 2010.03.12/outbox.cif.g09.slc.cpg/sg47_17_cif.got.tgz:33705.got - 2010.04.14 03:12:58.
