data_PCOD8200381
_publ_section_title
;
Structure prediction by ZEFSAII (Michael W. Deem and Ramdas Pophale) SiO2 
 PCOD8200381
Probable space group: P M M M
;
_chemical_formula_sum "Si O2"
_cell_formula_units_Z 40
_cell_length_a 24.617950
_cell_length_b 9.271634
_cell_length_c 10.245939
_cell_angle_alpha 90.000000
_cell_angle_beta 90.000000
_cell_angle_gamma 90.000000
_cell_volume 2338.621460
_symmetry_space_group_name_H-M "P M M M"
_symmetry_group_IT_number 47
_symmetry_cell_setting 'orthorhombic'
loop_
_space_group_symop_operation_xyz
x,y,z
-x,-y,z
x,-y,-z
-x,y,-z
-x,-y,-z
x,y,-z
-x,y,z
x,-y,z
loop_
_atom_site_type_symbol
_atom_site_label
_atom_site_fract_x
_atom_site_fract_y
_atom_site_fract_z
Si Si1 0.940754 0.661279 0.344943
Si Si2 0.435767 0.834581 0.500000
Si Si3 0.841597 0.840876 0.345183
Si Si4 0.720819 0.168257 0.652608
Si Si5 0.560624 0.670151 0.000000
Si Si6 0.380902 0.327879 0.263660
O O1 0.935408 0.660201 0.500000
O O2 0.936736 0.500000 0.290024
O O3 0.890462 0.748283 0.282473
O O4 0.000000 0.727250 0.305913
O O5 0.500000 0.833553 0.500000
O O6 0.415557 0.750295 0.626094
O O7 0.413666 0.000000 0.500000
O O8 0.847401 0.847625 0.500000
O O9 0.781841 0.779386 0.310979
O O10 0.847471 0.000000 0.285807
O O11 0.708548 0.192257 0.500000
O O12 0.680615 0.269018 0.734958
O O13 0.713315 0.000000 0.688173
O O14 0.593186 0.720782 0.127122
O O15 0.555353 0.500000 0.000000
O O16 0.500000 0.738485 0.000000
O O17 0.381607 0.500000 0.284589
#
# Coordination Sequence:
#
# PCOD8200381 Si02
#       6
#     8   4   8   8   4   8
#     4   8  13  20  29  44  70 105 144 188 233 270
#     4  11  23  37  53  75 103 129 154 193 240 281
#     4   8  14  23  35  52  75 110 149 184 227 274
#     4   9  17  30  46  65  95 126 152 193 244 285
#     4   9  20  38  55  73 101 129 154 195 244 285
#     4  11  21  34  55  78  97 125 163 198 237 288
#
# _framework density 17.104092999999999
#
# number of rings (size 3 to 8) (size 9 to 14) (size 15 to 20)
#    0.000    2.800    1.000    3.300    0.000    2.800 
#    0.000    6.000    0.000    3.600    0.000    0.000 
#    0.000    0.000    0.000    0.900    0.000   18.000 
#
# Total GULP energy -495713.869523 kJ/mol
# GULP energy per Si atom -12392.846738 kJ/mol
# Density = 1.706516 g / cm^3
# Si number density = 17.104093 Si / 1000 Ang^3
#
#
#
# Elastic Constant Matrix: (Units=GPa)
#
#
# Indices 1 2 3 4 5 6 
#
# 1 169.8230 68.4730 47.7196 0.0000 0.0000 0.0000
# 2 68.4730 83.0227 35.7605 0.0000 0.0000 0.0000
# 3 47.7196 35.7605 72.5076 0.0000 0.0000 0.0000
# 4 0.0000 0.0000 0.0000 1.7458 0.0000 0.0000
# 5 0.0000 0.0000 0.0000 0.0000 9.1204 0.0000
# 6 0.0000 0.0000 0.0000 0.0000 0.0000 36.1177
#
#
#
# Elastic Compliance Matrix: (Units=1/GPa)
#
#
# Indices 1 2 3 4 5 6 
#
# 1 0.009300 -0.006391 -0.002968 0.000000 0.000000 0.000000
# 2 -0.006391 0.019686 -0.005503 0.000000 0.000000 0.000000
# 3 -0.002968 -0.005503 0.018459 0.000000 0.000000 0.000000
# 4 0.000000 0.000000 0.000000 0.572815 0.000000 0.000000
# 5 0.000000 0.000000 0.000000 0.000000 0.109644 0.000000
# 6 0.000000 0.000000 0.000000 0.000000 0.000000 0.027687
#
#
# Mechanical properties :
#
#
# Convention : Reuss Voigt Hill
#
# Bulk Modulus (GPa) = 56.43257 69.91773 63.17515
# Shear Modulus (GPa) = 6.30339 20.95679 13.63009
#
# Velocity S-wave (km/s) = 1.92180 3.50415 2.82599
# Velocity P-wave (km/s) = 6.16357 7.57223 6.90392
#
# Compressibility (1/GPa) = 0.01772026
#
# Stress axis : x y z
#
# Youngs Moduli (GPa) = 107.53260 50.79638 54.17374
#
# Poissons Ratio (x) = 0.32466 0.16079
# Poissons Ratio (y) = 0.68727 0.29812
# Poissons Ratio (z) = 0.31917 0.27953
#
# Static dielectric constant tensor:
#      x y z
#    x 3.615310 0.000000 0.000000 
#    y 0.000000 3.289390 0.000000 
#    z 0.000000 0.000000 2.745630 
# 
# 
# High freq. dielectric constant tensor:
#      x y z
#    x 1.685370 0.000000 0.000000 
#    y 0.000000 1.653140 0.000000 
#    z 0.000000 0.000000 1.593380 
# 
# From -- ./inp_files/13070.got.cif
#   From: 2010.03.12/outbox.cif.g09.slc.cpg/sg47_7_cif.got.tgz:13070.got - 2010.04.14 03:12:58.
