data_PCOD8200826
_publ_section_title
;
Structure prediction by ZEFSAII (Michael W. Deem and Ramdas Pophale) SiO2 
 PCOD8200826
Probable space group: P M M M
;
_chemical_formula_sum "Si O2"
_cell_formula_units_Z 48
_cell_length_a 9.208348
_cell_length_b 9.812665
_cell_length_c 31.220054
_cell_angle_alpha 90.000000
_cell_angle_beta 90.000000
_cell_angle_gamma 90.000000
_cell_volume 2820.995193
_symmetry_space_group_name_H-M "P M M M"
_symmetry_group_IT_number 47
_symmetry_cell_setting 'orthorhombic'
loop_
_space_group_symop_operation_xyz
x,y,z
-x,-y,z
x,-y,-z
-x,y,-z
-x,-y,-z
x,y,-z
-x,y,z
x,-y,z
loop_
_atom_site_type_symbol
_atom_site_label
_atom_site_fract_x
_atom_site_fract_y
_atom_site_fract_z
Si Si1 0.335971 0.662110 0.207296
Si Si2 0.170190 0.342183 0.876964
Si Si3 0.827514 0.152693 0.047432
Si Si4 0.663339 0.662631 0.627932
Si Si5 0.835742 0.662529 0.289569
Si Si6 0.163148 0.337949 0.452746
O O1 0.500000 0.719354 0.207664
O O2 0.336789 0.500000 0.208976
O O3 0.254473 0.712033 0.164657
O O4 0.250282 0.719910 0.248414
O O5 0.202981 0.500000 0.886064
O O6 0.232107 0.258419 0.917478
O O7 0.000000 0.317038 0.869151
O O8 0.000000 0.157790 0.047239
O O9 0.774544 0.000000 0.058953
O O10 0.770059 0.193711 0.000000
O O11 0.500000 0.718571 0.632082
O O12 0.664072 0.500000 0.627609
O O13 0.756715 0.717541 0.667855
O O14 0.731545 0.721234 0.583894
O O15 0.836193 0.500000 0.289085
O O16 0.000000 0.718686 0.288673
O O17 0.216594 0.290098 0.500000
O O18 0.163394 0.500000 0.450698
O O19 0.000000 0.284527 0.444292
#
# Coordination Sequence:
#
# PCOD8200826 Si02
#       6
#     8   8   8   8   8   8
#     4   9  16  25  36  50  70  94 117 143 180 225
#     4   9  16  25  39  60  82 102 128 162 196 230
#     4   8  14  25  41  61  84 108 133 162 196 231
#     4   9  15  20  26  37  52  70  95 128 168 216
#     4   9  15  22  32  44  59  80 106 136 171 214
#     4   8  13  20  27  33  43  62  90 126 169 215
#
# _framework density 17.015273000000001
#
# number of rings (size 3 to 8) (size 9 to 14) (size 15 to 20)
#    0.000    3.333    0.000    2.500    0.000    6.667 
#    0.000    3.333    0.000    1.000    0.000    3.500 
#    0.000    0.000    0.000    0.000    0.000    0.000 
#
# Total GULP energy -594919.174717 kJ/mol
# GULP energy per Si atom -12394.149473 kJ/mol
# Density = 1.697655 g / cm^3
# Si number density = 17.015273 Si / 1000 Ang^3
#
#
#
# Elastic Constant Matrix: (Units=GPa)
#
#
# Indices 1 2 3 4 5 6 
#
# 1 113.6983 17.8240 84.7829 0.0000 0.0000 0.0000
# 2 17.8240 19.9280 35.0291 0.0000 0.0000 0.0000
# 3 84.7829 35.0291 189.8769 0.0000 0.0000 0.0000
# 4 0.0000 0.0000 0.0000 1.1279 0.0000 0.0000
# 5 0.0000 0.0000 0.0000 0.0000 14.9299 0.0000
# 6 0.0000 0.0000 0.0000 0.0000 0.0000 3.2971
#
#
#
# Elastic Compliance Matrix: (Units=1/GPa)
#
#
# Indices 1 2 3 4 5 6 
#
# 1 0.013247 -0.002148 -0.005519 0.000000 0.000000 0.000000
# 2 -0.002148 0.074611 -0.012806 0.000000 0.000000 0.000000
# 3 -0.005519 -0.012806 0.010093 0.000000 0.000000 0.000000
# 4 0.000000 0.000000 0.000000 0.886577 0.000000 0.000000
# 5 0.000000 0.000000 0.000000 0.000000 0.066980 0.000000
# 6 0.000000 0.000000 0.000000 0.000000 0.000000 0.303300
#
#
# Mechanical properties :
#
#
# Convention : Reuss Voigt Hill
#
# Bulk Modulus (GPa) = 17.54161 66.53061 42.03611
# Shear Modulus (GPa) = 3.53418 16.26212 9.89815
#
# Velocity S-wave (km/s) = 1.44277 3.09485 2.41451
# Velocity P-wave (km/s) = 3.62038 7.20807 5.70366
#
# Compressibility (1/GPa) = 0.05700729
#
# Stress axis : x y z
#
# Youngs Moduli (GPa) = 75.48758 13.40288 99.07623
#
# Poissons Ratio (x) = 0.02878 0.54679
# Poissons Ratio (y) = 0.16212 1.26872
# Poissons Ratio (z) = 0.41661 0.17163
#
# Static dielectric constant tensor:
#      x y z
#    x 3.192510 0.000000 0.000000 
#    y 0.000000 2.483260 0.000000 
#    z 0.000000 0.000000 3.579810 
# 
# 
# High freq. dielectric constant tensor:
#      x y z
#    x 1.647250 0.000000 0.000000 
#    y 0.000000 1.565570 0.000000 
#    z 0.000000 0.000000 1.677650 
# 
# From -- ./inp_files/4431.got.cif
#   From: 2010.03.12/outbox.cif.g09.slc.cpg/sg47_3_cif.got.tgz:4431.got - 2010.04.14 03:12:58.
