data_PCOD8200994
_publ_section_title
;
Structure prediction by ZEFSAII (Michael W. Deem and Ramdas Pophale) SiO2 
 PCOD8200994
Probable space group: P M M M
;
_chemical_formula_sum "Si O2"
_cell_formula_units_Z 40
_cell_length_a 9.251400
_cell_length_b 23.005386
_cell_length_c 12.794208
_cell_angle_alpha 90.000000
_cell_angle_beta 90.000000
_cell_angle_gamma 90.000000
_cell_volume 2723.017236
_symmetry_space_group_name_H-M "P M M M"
_symmetry_group_IT_number 47
_symmetry_cell_setting 'orthorhombic'
loop_
_space_group_symop_operation_xyz
x,y,z
-x,-y,z
x,-y,-z
-x,y,-z
-x,-y,-z
x,y,-z
-x,y,z
x,-y,z
loop_
_atom_site_type_symbol
_atom_site_label
_atom_site_fract_x
_atom_site_fract_y
_atom_site_fract_z
Si Si1 0.662719 0.111451 0.624707
Si Si2 0.836560 0.000000 0.375463
Si Si3 0.171950 0.651487 0.384092
Si Si4 0.160755 0.220332 0.624057
Si Si5 0.169413 0.432700 0.203523
Si Si6 0.336874 0.569044 0.000000
O O1 0.662249 0.111644 0.500000
O O2 0.500000 0.106853 0.668113
O O3 0.733589 0.170740 0.668931
O O4 0.754218 0.056876 0.667030
O O5 0.837608 0.000000 0.500000
O O6 0.000000 0.000000 0.332055
O O7 0.234377 0.637336 0.500000
O O8 0.221958 0.715726 0.346094
O O9 0.227714 0.603167 0.303137
O O10 0.000000 0.651153 0.389938
O O11 0.151496 0.215724 0.500000
O O12 0.000000 0.210695 0.670950
O O13 0.203835 0.500000 0.225583
O O14 0.000000 0.422787 0.183821
O O15 0.253609 0.408644 0.102588
O O16 0.335727 0.500000 0.000000
O O17 0.500000 0.593508 0.000000
#
# Coordination Sequence:
#
# PCOD8200994 Si02
#       6
#     8   4   8   8   8   4
#     4   9  15  21  29  42  60  81 109 148 187 215
#     4   9  15  21  29  41  57  79 109 144 183 224
#     4   8  14  24  38  57  79 101 126 157 192 230
#     4   8  13  22  34  45  61  89 121 147 174 215
#     4   9  16  26  42  62  80  98 124 159 195 231
#     4   9  17  29  43  57  75  99 125 154 191 234
#
# _framework density 14.689587
#
# number of rings (size 3 to 8) (size 9 to 14) (size 15 to 20)
#    0.000    3.400    0.000    2.400    0.000    5.200 
#    0.000    3.000    0.000    1.800    0.000    2.800 
#    0.000    0.000    0.000    0.000    0.000    1.000 
#
# Total GULP energy -495750.239750 kJ/mol
# GULP energy per Si atom -12393.755994 kJ/mol
# Density = 1.465615 g / cm^3
# Si number density = 14.689587 Si / 1000 Ang^3
#
#
#
# Elastic Constant Matrix: (Units=GPa)
#
#
# Indices 1 2 3 4 5 6 
#
# 1 83.7505 50.2603 30.0704 0.0000 0.0000 0.0000
# 2 50.2603 108.7688 47.3432 0.0000 0.0000 0.0000
# 3 30.0704 47.3432 59.5055 0.0000 0.0000 0.0000
# 4 0.0000 0.0000 0.0000 1.1926 0.0000 0.0000
# 5 0.0000 0.0000 0.0000 0.0000 6.5546 0.0000
# 6 0.0000 0.0000 0.0000 0.0000 0.0000 12.7837
#
#
#
# Elastic Compliance Matrix: (Units=1/GPa)
#
#
# Indices 1 2 3 4 5 6 
#
# 1 0.017007 -0.006299 -0.003582 0.000000 0.000000 0.000000
# 2 -0.006299 0.016398 -0.009863 0.000000 0.000000 0.000000
# 3 -0.003582 -0.009863 0.026462 0.000000 0.000000 0.000000
# 4 0.000000 0.000000 0.000000 0.838530 0.000000 0.000000
# 5 0.000000 0.000000 0.000000 0.000000 0.152565 0.000000
# 6 0.000000 0.000000 0.000000 0.000000 0.000000 0.078225
#
#
# Mechanical properties :
#
#
# Convention : Reuss Voigt Hill
#
# Bulk Modulus (GPa) = 49.07297 56.37472 52.72384
# Shear Modulus (GPa) = 4.25363 12.39623 8.32493
#
# Velocity S-wave (km/s) = 1.70351 2.90811 2.38318
# Velocity P-wave (km/s) = 6.11134 7.05243 6.59868
#
# Compressibility (1/GPa) = 0.02037782
#
# Stress axis : x y z
#
# Youngs Moduli (GPa) = 58.79998 60.98485 37.78946
#
# Poissons Ratio (x) = 0.38416 0.13538
# Poissons Ratio (y) = 0.37040 0.37271
# Poissons Ratio (z) = 0.21065 0.60148
#
# Static dielectric constant tensor:
#      x y z
#    x 2.876360 0.000000 0.000000 
#    y 0.000000 3.041470 0.000000 
#    z 0.000000 0.000000 2.501740 
# 
# 
# High freq. dielectric constant tensor:
#      x y z
#    x 1.553120 0.000000 0.000000 
#    y 0.000000 1.563630 0.000000 
#    z 0.000000 0.000000 1.493020 
# 
# From -- ./inp_files/6675.got.cif
#   From: 2010.03.12/outbox.cif.g09.slc.cpg/sg47_4_cif.got.tgz:6675.got - 2010.04.14 03:12:58.
