data_PCOD8200273
_publ_section_title
;
Structure prediction by ZEFSAII (Michael W. Deem and Ramdas Pophale) SiO2 
 PCOD8200273
Probable space group: P M M M
;
_chemical_formula_sum "Si O2"
_cell_formula_units_Z 48
_cell_length_a 23.425871
_cell_length_b 18.581923
_cell_length_c 8.271013
_cell_angle_alpha 90.000000
_cell_angle_beta 90.000000
_cell_angle_gamma 90.000000
_cell_volume 3600.353193
_symmetry_space_group_name_H-M "P M M M"
_symmetry_group_IT_number 47
_symmetry_cell_setting 'orthorhombic'
loop_
_space_group_symop_operation_xyz
x,y,z
-x,-y,z
x,-y,-z
-x,y,-z
-x,-y,-z
x,y,-z
-x,y,z
x,-y,z
loop_
_atom_site_type_symbol
_atom_site_label
_atom_site_fract_x
_atom_site_fract_y
_atom_site_fract_z
Si Si1 0.063861 0.774296 0.688880
Si Si2 0.937069 0.500000 0.811792
Si Si3 0.129120 0.362890 0.311966
Si Si4 0.435013 0.585627 0.500000
Si Si5 0.067530 0.922541 0.815002
Si Si6 0.369343 0.585652 0.818710
Si Si7 0.240705 0.581006 0.187270
O O1 0.059328 0.764060 0.500000
O O2 0.103673 0.711266 0.762212
O O3 0.092299 0.852505 0.724059
O O4 0.000000 0.768508 0.765541
O O5 0.902187 0.429861 0.766198
O O6 0.000000 0.500000 0.728486
O O7 0.945678 0.500000 0.000000
O O8 0.117298 0.365667 0.500000
O O9 0.196811 0.366524 0.278215
O O10 0.430530 0.500000 0.500000
O O11 0.500000 0.612294 0.500000
O O12 0.406726 0.615508 0.667454
O O13 0.000000 0.922574 0.794310
O O14 0.090671 0.000000 0.746639
O O15 0.085754 0.915769 0.000000
O O16 0.371476 0.500000 0.821538
O O17 0.304537 0.611234 0.786646
O O18 0.389548 0.612574 0.000000
O O19 0.235725 0.500000 0.258315
O O20 0.224570 0.579796 0.000000
#
# Coordination Sequence:
#
# PCOD8200273 Si02
#       7
#     8   4   8   4   8   8   8
#     4   9  18  30  40  53  74  94 113 141 182 231
#     4  11  23  35  43  51  67  91 119 152 191 238
#     4  11  21  30  42  57  70  91 119 154 192 227
#     4   9  16  24  36  56  76  94 116 144 177 228
#     4   8  14  25  41  59  74  88 109 135 166 212
#     4   8  15  26  38  52  71  95 117 149 186 218
#     4   9  17  29  42  54  70  89 120 158 186 220
#
# _framework density 13.332025
#
# number of rings (size 3 to 8) (size 9 to 14) (size 15 to 20)
#    0.000    2.833    0.833    2.750    1.167    3.333 
#    0.000    5.000    0.000    0.000    0.000    0.000 
#    0.000    0.000    0.000    0.000    0.000    0.000 
#
# Total GULP energy -594683.632227 kJ/mol
# GULP energy per Si atom -12389.242338 kJ/mol
# Density = 1.330168 g / cm^3
# Si number density = 13.332025 Si / 1000 Ang^3
#
#
#
# Elastic Constant Matrix: (Units=GPa)
#
#
# Indices 1 2 3 4 5 6 
#
# 1 70.4973 29.8271 33.2797 0.0000 0.0000 0.0000
# 2 29.8271 84.0355 22.8290 0.0000 0.0000 0.0000
# 3 33.2797 22.8290 57.3772 0.0000 0.0000 0.0000
# 4 0.0000 0.0000 0.0000 19.3221 0.0000 0.0000
# 5 0.0000 0.0000 0.0000 0.0000 18.6885 0.0000
# 6 0.0000 0.0000 0.0000 0.0000 0.0000 2.6327
#
#
#
# Elastic Compliance Matrix: (Units=1/GPa)
#
#
# Indices 1 2 3 4 5 6 
#
# 1 0.021042 -0.004656 -0.010352 0.000000 0.000000 0.000000
# 2 -0.004656 0.014372 -0.003018 0.000000 0.000000 0.000000
# 3 -0.010352 -0.003018 0.024633 0.000000 0.000000 0.000000
# 4 0.000000 0.000000 0.000000 0.051754 0.000000 0.000000
# 5 0.000000 0.000000 0.000000 0.000000 0.053509 0.000000
# 6 0.000000 0.000000 0.000000 0.000000 0.000000 0.379840
#
#
# Mechanical properties :
#
#
# Convention : Reuss Voigt Hill
#
# Bulk Modulus (GPa) = 41.67407 42.64238 42.15822
# Shear Modulus (GPa) = 8.48608 16.52694 12.50651
#
# Velocity S-wave (km/s) = 2.52567 3.52468 3.06613
# Velocity P-wave (km/s) = 6.31124 6.97272 6.65021
#
# Compressibility (1/GPa) = 0.02399574
#
# Stress axis : x y z
#
# Youngs Moduli (GPa) = 47.52440 69.57890 40.59515
#
# Poissons Ratio (x) = 0.32398 0.42024
# Poissons Ratio (y) = 0.22129 0.12250
# Poissons Ratio (z) = 0.49197 0.20996
#
# Static dielectric constant tensor:
#      x y z
#    x 2.599920 0.000000 0.000000 
#    y 0.000000 2.465850 0.000000 
#    z 0.000000 0.000000 2.777700 
# 
# 
# High freq. dielectric constant tensor:
#      x y z
#    x 1.476520 0.000000 0.000000 
#    y 0.000000 1.466960 0.000000 
#    z 0.000000 0.000000 1.515950 
# 
# From -- ./inp_files/11417.got.cif
#   From: 2010.03.12/outbox.cif.g09.slc.cpg/sg47_6_cif.got.tgz:11417.got - 2010.04.14 03:12:58.
