data_PCOD8200048
_publ_section_title
;
Structure prediction by ZEFSAII (Michael W. Deem and Ramdas Pophale) SiO2 
 PCOD8200048
Probable space group: P M M M
;
_chemical_formula_sum "Si O2"
_cell_formula_units_Z 40
_cell_length_a 8.529375
_cell_length_b 15.153301
_cell_length_c 15.258427
_cell_angle_alpha 90.000000
_cell_angle_beta 90.000000
_cell_angle_gamma 90.000000
_cell_volume 1972.124022
_symmetry_space_group_name_H-M "P M M M"
_symmetry_group_IT_number 47
_symmetry_cell_setting 'orthorhombic'
loop_
_space_group_symop_operation_xyz
x,y,z
-x,-y,z
x,-y,-z
-x,y,-z
-x,-y,-z
x,y,-z
-x,y,z
x,-y,z
loop_
_atom_site_type_symbol
_atom_site_label
_atom_site_fract_x
_atom_site_fract_y
_atom_site_fract_z
Si Si1 0.826779 0.000000 0.898656
Si Si2 0.316576 0.100940 0.500000
Si Si3 0.818415 0.779592 0.651788
Si Si4 0.182755 0.662304 0.096216
Si Si5 0.814214 0.595612 0.281969
Si Si6 0.680496 0.827921 0.169793
O O1 0.718244 0.919089 0.874417
O O2 0.000000 0.000000 0.852645
O O3 0.858541 0.000000 0.000000
O O4 0.500000 0.089307 0.500000
O O5 0.270393 0.158353 0.583944
O O6 0.243871 0.000000 0.500000
O O7 0.752265 0.677475 0.657966
O O8 0.794508 0.819960 0.747043
O O9 0.000000 0.779533 0.625395
O O10 0.235892 0.602784 0.179111
O O11 0.281328 0.752182 0.099640
O O12 0.000000 0.685760 0.105303
O O13 0.214891 0.617851 0.000000
O O14 0.750902 0.500000 0.316039
O O15 0.000000 0.597818 0.287434
O O16 0.500000 0.823336 0.199551
#
# Coordination Sequence:
#
# PCOD8200048 Si02
#       6
#     4   4   8   8   8   8
#     4  11  23  37  53  74 103 142 191 241 283 331
#     4  11  25  43  64  89 118 146 181 229 281 340
#     4  10  21  39  62  87 115 148 186 229 279 337
#     4   9  17  30  49  75 109 149 194 241 285 330
#     4   8  15  30  54  84 115 148 190 239 285 329
#     4  11  22  35  53  76 108 147 187 232 285 340
#
# _framework density 20.282699999999998
#
# number of rings (size 3 to 8) (size 9 to 14) (size 15 to 20)
#    0.000    2.200    0.000    4.800    1.400    4.800 
#    0.000    2.500    0.000   18.000    0.000    5.600 
#    0.000    0.000    0.000    0.000    0.000    0.000 
#
# Total GULP energy -495560.384425 kJ/mol
# GULP energy per Si atom -12389.009611 kJ/mol
# Density = 2.023654 g / cm^3
# Si number density = 20.282700 Si / 1000 Ang^3
#
#
#
# Elastic Constant Matrix: (Units=GPa)
#
#
# Indices 1 2 3 4 5 6 
#
# 1 50.7327 23.5664 6.4256 0.0000 0.0000 0.0000
# 2 23.5664 167.2164 48.3893 0.0000 0.0000 0.0000
# 3 6.4256 48.3893 82.0768 0.0000 0.0000 0.0000
# 4 0.0000 0.0000 0.0000 10.6456 0.0000 0.0000
# 5 0.0000 0.0000 0.0000 0.0000 18.3075 0.0000
# 6 0.0000 0.0000 0.0000 0.0000 0.0000 11.3592
#
#
#
# Elastic Compliance Matrix: (Units=1/GPa)
#
#
# Indices 1 2 3 4 5 6 
#
# 1 0.021093 -0.003008 0.000122 0.000000 0.000000 0.000000
# 2 -0.003008 0.007639 -0.004268 0.000000 0.000000 0.000000
# 3 0.000122 -0.004268 0.014691 0.000000 0.000000 0.000000
# 4 0.000000 0.000000 0.000000 0.093935 0.000000 0.000000
# 5 0.000000 0.000000 0.000000 0.000000 0.054622 0.000000
# 6 0.000000 0.000000 0.000000 0.000000 0.000000 0.088034
#
#
# Mechanical properties :
#
#
# Convention : Reuss Voigt Hill
#
# Bulk Modulus (GPa) = 34.34736 50.75429 42.55082
# Shear Modulus (GPa) = 16.44583 22.83878 19.64231
#
# Velocity S-wave (km/s) = 2.85060 3.35927 3.11533
# Velocity P-wave (km/s) = 5.27310 6.33435 5.82793
#
# Compressibility (1/GPa) = 0.02911432
#
# Stress axis : x y z
#
# Youngs Moduli (GPa) = 47.40914 130.90033 68.07059
#
# Poissons Ratio (x) = 0.39375 -0.00831
# Poissons Ratio (y) = 0.14261 0.29055
# Poissons Ratio (z) = -0.00579 0.55873
#
# Static dielectric constant tensor:
#      x y z
#    x 3.433770 0.000000 0.000000 
#    y 0.000000 4.082610 0.000000 
#    z 0.000000 0.000000 3.631850 
# 
# 
# High freq. dielectric constant tensor:
#      x y z
#    x 1.768710 0.000000 0.000000 
#    y 0.000000 1.799130 0.000000 
#    z 0.000000 0.000000 1.777210 
# 
# From -- ./inp_files/5720.got.cif
#   From: 2010.03.12/outbox.cif.g09.slc.cpg/sg47_3_cif.got.tgz:5720.got - 2010.04.14 03:12:58.
