data_PCOD8200949
_publ_section_title
;
Structure prediction by ZEFSAII (Michael W. Deem and Ramdas Pophale) SiO2 
 PCOD8200949
Probable space group: P M M M
;
_chemical_formula_sum "Si O2"
_cell_formula_units_Z 52
_cell_length_a 33.845211
_cell_length_b 9.736033
_cell_length_c 9.319404
_cell_angle_alpha 90.000000
_cell_angle_beta 90.000000
_cell_angle_gamma 90.000000
_cell_volume 3070.912217
_symmetry_space_group_name_H-M "P M M M"
_symmetry_group_IT_number 47
_symmetry_cell_setting 'orthorhombic'
loop_
_space_group_symop_operation_xyz
x,y,z
-x,-y,z
x,-y,-z
-x,y,-z
-x,-y,-z
x,y,-z
-x,y,z
x,-y,z
loop_
_atom_site_type_symbol
_atom_site_label
_atom_site_fract_x
_atom_site_fract_y
_atom_site_fract_z
Si Si1 0.850908 0.336621 0.839884
Si Si2 0.306697 0.841060 0.168011
Si Si3 0.000000 0.663651 0.162672
Si Si4 0.616865 0.163599 0.661213
Si Si5 0.543670 0.836633 0.161127
Si Si6 0.764065 0.347041 0.170728
Si Si7 0.924611 0.663853 0.338041
O O1 0.853052 0.500000 0.847868
O O2 0.807508 0.294259 0.780154
O O3 0.884409 0.278652 0.733559
O O4 0.858125 0.276735 0.000000
O O5 0.345186 0.785652 0.250251
O O6 0.269215 0.756814 0.227769
O O7 0.298517 0.000000 0.201614
O O8 0.313861 0.816216 0.000000
O O9 0.038490 0.719170 0.245852
O O10 0.000000 0.500000 0.160564
O O11 0.000000 0.720707 0.000000
O O12 0.619454 0.221302 0.500000
O O13 0.577162 0.224360 0.734112
O O14 0.615327 0.000000 0.661914
O O15 0.500000 0.789144 0.213425
O O16 0.545844 0.000000 0.161229
O O17 0.551547 0.782547 0.000000
O O18 0.755470 0.500000 0.231539
O O19 0.763932 0.351794 0.000000
O O20 0.927677 0.720792 0.500000
O O21 0.924555 0.500000 0.339081
#
# Coordination Sequence:
#
# PCOD8200949 Si02
#       7
#     8   8   4   8   8   8   8
#     4   8  13  22  35  48  63  87 119 151 183 222
#     4   9  16  26  41  59  78 102 132 164 197 232
#     4   9  15  21  29  41  59  87 122 153 180 217
#     4   9  16  24  34  50  74 103 131 158 191 232
#     4   8  13  21  33  49  70  97 128 160 192 226
#     4   8  14  25  41  59  77  99 130 166 199 231
#     4   9  15  21  29  43  64  88 115 149 187 223
#
# _framework density 16.93308
#
# number of rings (size 3 to 8) (size 9 to 14) (size 15 to 20)
#    0.000    3.462    0.000    2.538    0.000    4.923 
#    0.000    2.308    0.000    1.385    0.000    0.000 
#    0.000    0.615    0.000    7.769    0.000   26.154 
#
# Total GULP energy -644443.988720 kJ/mol
# GULP energy per Si atom -12393.153629 kJ/mol
# Density = 1.689454 g / cm^3
# Si number density = 16.933080 Si / 1000 Ang^3
#
#
#
# Elastic Constant Matrix: (Units=GPa)
#
#
# Indices 1 2 3 4 5 6 
#
# 1 191.4866 29.9712 85.4336 0.0000 0.0000 0.0000
# 2 29.9712 17.4116 15.8544 0.0000 0.0000 0.0000
# 3 85.4336 15.8544 107.2678 0.0000 0.0000 0.0000
# 4 0.0000 0.0000 0.0000 4.9000 0.0000 0.0000
# 5 0.0000 0.0000 0.0000 0.0000 14.0221 0.0000
# 6 0.0000 0.0000 0.0000 0.0000 0.0000 13.6679
#
#
#
# Elastic Compliance Matrix: (Units=1/GPa)
#
#
# Indices 1 2 3 4 5 6 
#
# 1 0.009664 -0.011123 -0.006053 0.000000 0.000000 0.000000
# 2 -0.011123 0.079167 -0.002842 0.000000 0.000000 0.000000
# 3 -0.006053 -0.002842 0.014563 0.000000 0.000000 0.000000
# 4 0.000000 0.000000 0.000000 0.204083 0.000000 0.000000
# 5 0.000000 0.000000 0.000000 0.000000 0.071316 0.000000
# 6 0.000000 0.000000 0.000000 0.000000 0.000000 0.073164
#
#
# Mechanical properties :
#
#
# Convention : Reuss Voigt Hill
#
# Bulk Modulus (GPa) = 15.78318 64.29827 40.04073
# Shear Modulus (GPa) = 9.74444 18.84510 14.29477
#
# Velocity S-wave (km/s) = 2.40149 3.33966 2.90865
# Velocity P-wave (km/s) = 4.12683 7.27499 5.91423
#
# Compressibility (1/GPa) = 0.06335858
#
# Stress axis : x y z
#
# Youngs Moduli (GPa) = 103.47962 12.63146 68.66629
#
# Poissons Ratio (x) = 0.14050 0.41561
# Poissons Ratio (y) = 1.15102 0.19515
# Poissons Ratio (z) = 0.62633 0.03590
#
# Static dielectric constant tensor:
#      x y z
#    x 3.603660 0.000000 0.000000 
#    y 0.000000 2.496340 0.000000 
#    z 0.000000 0.000000 3.205610 
# 
# 
# High freq. dielectric constant tensor:
#      x y z
#    x 1.674480 0.000000 0.000000 
#    y 0.000000 1.562340 0.000000 
#    z 0.000000 0.000000 1.641460 
# 
# From -- ./inp_files/14131.got.cif
#   From: 2010.03.12/outbox.cif.g09.slc.cpg/sg47_8_cif.got.tgz:14131.got - 2010.04.14 03:12:58.
