data_PCOD8200790
_publ_section_title
;
Structure prediction by ZEFSAII (Michael W. Deem and Ramdas Pophale) SiO2 
 PCOD8200790
Probable space group: P M M M
;
_chemical_formula_sum "Si O2"
_cell_formula_units_Z 48
_cell_length_a 9.600033
_cell_length_b 31.144763
_cell_length_c 9.772080
_cell_angle_alpha 90.000000
_cell_angle_beta 90.000000
_cell_angle_gamma 90.000000
_cell_volume 2921.761553
_symmetry_space_group_name_H-M "P M M M"
_symmetry_group_IT_number 47
_symmetry_cell_setting 'orthorhombic'
loop_
_space_group_symop_operation_xyz
x,y,z
-x,-y,z
x,-y,-z
-x,y,-z
-x,-y,-z
x,y,-z
-x,y,z
x,-y,z
loop_
_atom_site_type_symbol
_atom_site_label
_atom_site_fract_x
_atom_site_fract_y
_atom_site_fract_z
Si Si1 0.343952 0.547245 0.837233
Si Si2 0.162186 0.875761 0.159483
Si Si3 0.165308 0.952532 0.346864
Si Si4 0.155622 0.377451 0.162772
Si Si5 0.657575 0.205247 0.162763
Si Si6 0.843173 0.717691 0.162752
O O1 0.500000 0.553453 0.781680
O O2 0.287508 0.500000 0.793190
O O3 0.251196 0.585229 0.772147
O O4 0.343044 0.550524 0.000000
O O5 0.220063 0.917203 0.240250
O O6 0.254106 0.835856 0.210827
O O7 0.000000 0.865941 0.191254
O O8 0.184493 0.885066 0.000000
O O9 0.216860 0.940884 0.500000
O O10 0.000000 0.953191 0.343167
O O11 0.221258 0.000000 0.305371
O O12 0.206252 0.329965 0.209139
O O13 0.000000 0.385414 0.216787
O O14 0.158914 0.380106 0.000000
O O15 0.500000 0.203064 0.221162
O O16 0.734811 0.247512 0.222529
O O17 0.654054 0.207256 0.000000
O O18 0.000000 0.727041 0.216986
O O19 0.845553 0.720551 0.000000
#
# Coordination Sequence:
#
# PCOD8200790 Si02
#       6
#     8   8   8   8   8   8
#     4   8  13  19  24  30  42  61  86 119 160 204
#     4   9  16  25  39  59  80 101 125 154 188 223
#     4   8  14  25  41  61  83 104 127 157 190 221
#     4   8  13  19  26  36  48  64  89 122 161 205
#     4   9  16  24  34  49  69  92 116 142 175 216
#     4   8  13  21  31  42  58  79 103 133 170 213
#
# _framework density 16.428446999999998
#
# number of rings (size 3 to 8) (size 9 to 14) (size 15 to 20)
#    0.000    3.667    0.000    2.500    0.000    3.333 
#    0.000    6.667    0.000    1.000    0.000    3.500 
#    0.000    0.000    0.000    0.000    0.000    0.000 
#
# Total GULP energy -594714.912749 kJ/mol
# GULP energy per Si atom -12389.894016 kJ/mol
# Density = 1.639105 g / cm^3
# Si number density = 16.428447 Si / 1000 Ang^3
#
#
#
# Elastic Constant Matrix: (Units=GPa)
#
#
# Indices 1 2 3 4 5 6 
#
# 1 87.5869 84.6856 16.6145 0.0000 0.0000 0.0000
# 2 84.6856 183.4182 32.3491 0.0000 0.0000 0.0000
# 3 16.6145 32.3491 17.6146 0.0000 0.0000 0.0000
# 4 0.0000 0.0000 0.0000 0.9162 0.0000 0.0000
# 5 0.0000 0.0000 0.0000 0.0000 3.3507 0.0000
# 6 0.0000 0.0000 0.0000 0.0000 0.0000 13.9149
#
#
#
# Elastic Compliance Matrix: (Units=1/GPa)
#
#
# Indices 1 2 3 4 5 6 
#
# 1 0.020725 -0.009054 -0.002921 0.000000 0.000000 0.000000
# 2 -0.009054 0.012019 -0.013533 0.000000 0.000000 0.000000
# 3 -0.002921 -0.013533 0.084380 0.000000 0.000000 0.000000
# 4 0.000000 0.000000 0.000000 1.091450 0.000000 0.000000
# 5 0.000000 0.000000 0.000000 0.000000 0.298446 0.000000
# 6 0.000000 0.000000 0.000000 0.000000 0.000000 0.071865
#
#
# Mechanical properties :
#
#
# Convention : Reuss Voigt Hill
#
# Bulk Modulus (GPa) = 15.12675 61.76868 38.44771
# Shear Modulus (GPa) = 3.02675 13.96774 8.49724
#
# Velocity S-wave (km/s) = 1.35882 2.91901 2.27673
# Velocity P-wave (km/s) = 3.41899 7.00293 5.51047
#
# Compressibility (1/GPa) = 0.06610805
#
# Stress axis : x y z
#
# Youngs Moduli (GPa) = 48.25031 83.20128 11.85110
#
# Poissons Ratio (x) = 0.75329 0.03462
# Poissons Ratio (y) = 0.43685 0.16038
# Poissons Ratio (z) = 0.14095 1.12598
#
# Static dielectric constant tensor:
#      x y z
#    x 3.147800 0.000000 0.000000 
#    y 0.000000 3.569100 0.000000 
#    z 0.000000 0.000000 2.434490 
# 
# 
# High freq. dielectric constant tensor:
#      x y z
#    x 1.615020 0.000000 0.000000 
#    y 0.000000 1.652120 0.000000 
#    z 0.000000 0.000000 1.547420 
# 
# From -- ./inp_files/4710.got.cif
#   From: 2010.03.12/outbox.cif.g09.slc.cpg/sg47_3_cif.got.tgz:4710.got - 2010.04.14 03:12:58.
