data_PCOD8200743
_publ_section_title
;
Structure prediction by ZEFSAII (Michael W. Deem and Ramdas Pophale) SiO2 
 PCOD8200743
Probable space group: P M M M
;
_chemical_formula_sum "Si O2"
_cell_formula_units_Z 52
_cell_length_a 9.561564
_cell_length_b 26.871752
_cell_length_c 13.570417
_cell_angle_alpha 90.000000
_cell_angle_beta 90.000000
_cell_angle_gamma 90.000000
_cell_volume 3486.728344
_symmetry_space_group_name_H-M "P M M M"
_symmetry_group_IT_number 47
_symmetry_cell_setting 'orthorhombic'
loop_
_space_group_symop_operation_xyz
x,y,z
-x,-y,z
x,-y,-z
-x,y,-z
-x,-y,-z
x,y,-z
-x,y,z
x,-y,z
loop_
_atom_site_type_symbol
_atom_site_label
_atom_site_fract_x
_atom_site_fract_y
_atom_site_fract_z
Si Si1 0.156968 0.552678 0.617145
Si Si2 0.162315 0.854766 0.613401
Si Si3 0.661077 0.801660 0.112825
Si Si4 0.333772 0.000000 0.111034
Si Si5 0.163212 0.754683 0.274062
Si Si6 0.662387 0.097575 0.223975
Si Si7 0.167439 0.659122 0.610598
O O1 0.152438 0.555511 0.500000
O O2 0.232782 0.500000 0.649614
O O3 0.225447 0.605337 0.652165
O O4 0.000000 0.550222 0.658832
O O5 0.207624 0.859042 0.500000
O O6 0.194616 0.798805 0.648963
O O7 0.251638 0.894412 0.675557
O O8 0.000000 0.867656 0.627905
O O9 0.500000 0.787053 0.127593
O O10 0.754445 0.762761 0.172862
O O11 0.689288 0.857533 0.148793
O O12 0.707174 0.798309 0.000000
O O13 0.280926 0.951648 0.169920
O O14 0.500000 0.000000 0.104200
O O15 0.271459 0.000000 0.000000
O O16 0.221181 0.703469 0.320264
O O17 0.000000 0.751416 0.249227
O O18 0.500000 0.092695 0.252495
O O19 0.223265 0.668948 0.500000
O O20 0.000000 0.657841 0.608955
#
# Coordination Sequence:
#
# PCOD8200743 Si02
#       7
#     8   8   8   4   8   8   8
#     4   7   9  13  22  39  66  99 129 153 180 217
#     4   9  17  29  43  58  80 110 137 158 184 220
#     4   9  17  29  43  58  78 102 124 149 188 235
#     4   9  16  28  48  69  84  98 121 157 198 235
#     4   9  16  25  39  59  79 100 130 163 189 218
#     4   9  17  29  46  66  82  98 125 158 189 225
#     4   8  12  18  30  49  74 103 131 157 185 218
#
# _framework density 14.913694
#
# number of rings (size 3 to 8) (size 9 to 14) (size 15 to 20)
#    0.000    3.462    0.000    2.308    0.000    4.308 
#    0.000    0.769    0.000    5.538    0.000    0.000 
#    0.000    1.231    0.000   11.538    0.000    4.615 
#
# Total GULP energy -644272.960609 kJ/mol
# GULP energy per Si atom -12389.864627 kJ/mol
# Density = 1.487975 g / cm^3
# Si number density = 14.913694 Si / 1000 Ang^3
#
#
#
# Elastic Constant Matrix: (Units=GPa)
#
#
# Indices 1 2 3 4 5 6 
#
# 1 28.4612 31.9319 38.0419 0.0000 0.0000 0.0000
# 2 31.9319 134.5489 65.4327 0.0000 0.0000 0.0000
# 3 38.0419 65.4327 113.2532 0.0000 0.0000 0.0000
# 4 0.0000 0.0000 0.0000 17.1625 0.0000 0.0000
# 5 0.0000 0.0000 0.0000 0.0000 21.3816 0.0000
# 6 0.0000 0.0000 0.0000 0.0000 0.0000 10.6997
#
#
#
# Elastic Compliance Matrix: (Units=1/GPa)
#
#
# Indices 1 2 3 4 5 6 
#
# 1 0.068218 -0.007018 -0.018860 0.000000 0.000000 0.000000
# 2 -0.007018 0.011058 -0.004032 0.000000 0.000000 0.000000
# 3 -0.018860 -0.004032 0.017494 0.000000 0.000000 0.000000
# 4 0.000000 0.000000 0.000000 0.058267 0.000000 0.000000
# 5 0.000000 0.000000 0.000000 0.000000 0.046769 0.000000
# 6 0.000000 0.000000 0.000000 0.000000 0.000000 0.093461
#
#
# Mechanical properties :
#
#
# Convention : Reuss Voigt Hill
#
# Bulk Modulus (GPa) = 27.06259 60.78625 43.92442
# Shear Modulus (GPa) = 13.60903 19.23922 16.42413
#
# Velocity S-wave (km/s) = 3.02407 3.59561 3.32215
# Velocity P-wave (km/s) = 5.51170 7.62135 6.65071
#
# Compressibility (1/GPa) = 0.03695137
#
# Stress axis : x y z
#
# Youngs Moduli (GPa) = 14.65892 90.42832 57.16213
#
# Poissons Ratio (x) = 0.63464 1.07806
# Poissons Ratio (y) = 0.10288 0.23046
# Poissons Ratio (z) = 0.27646 0.36458
#
# Static dielectric constant tensor:
#      x y z
#    x 2.553270 0.000000 0.000000 
#    y 0.000000 3.243820 0.000000 
#    z 0.000000 0.000000 2.749610 
# 
# 
# High freq. dielectric constant tensor:
#      x y z
#    x 1.529990 0.000000 0.000000 
#    y 0.000000 1.577940 0.000000 
#    z 0.000000 0.000000 1.546090 
# 
# From -- ./inp_files/22011.got.cif
#   From: 2010.03.12/outbox.cif.g09.slc.cpg/sg47_12_cif.got.tgz:22011.got - 2010.04.14 03:12:58.
