data_PCOD8200372
_publ_section_title
;
Structure prediction by ZEFSAII (Michael W. Deem and Ramdas Pophale) SiO2 
 PCOD8200372
Probable space group: P M M M
;
_chemical_formula_sum "Si O2"
_cell_formula_units_Z 52
_cell_length_a 11.667012
_cell_length_b 30.997032
_cell_length_c 9.084516
_cell_angle_alpha 90.000000
_cell_angle_beta 90.000000
_cell_angle_gamma 90.000000
_cell_volume 3285.349297
_symmetry_space_group_name_H-M "P M M M"
_symmetry_group_IT_number 47
_symmetry_cell_setting 'orthorhombic'
loop_
_space_group_symop_operation_xyz
x,y,z
-x,-y,z
x,-y,-z
-x,y,-z
-x,-y,-z
x,y,-z
-x,y,z
x,-y,z
loop_
_atom_site_type_symbol
_atom_site_label
_atom_site_fract_x
_atom_site_fract_y
_atom_site_fract_z
Si Si1 0.500000 0.550385 0.175014
Si Si2 0.135654 0.249183 0.837712
Si Si3 0.863324 0.000000 0.666040
Si Si4 0.136797 0.167667 0.664588
Si Si5 0.272798 0.419028 0.324686
Si Si6 0.867295 0.346063 0.827024
Si Si7 0.873345 0.500000 0.325769
Si Si8 0.136637 0.915994 0.165787
O O1 0.500000 0.500000 0.221174
O O2 0.607388 0.574929 0.243820
O O3 0.500000 0.555696 0.000000
O O4 0.185684 0.212544 0.730061
O O5 0.166543 0.297165 0.782650
O O6 0.000000 0.244895 0.847412
O O7 0.187786 0.241391 0.000000
O O8 0.815892 0.042430 0.747696
O O9 0.816340 0.000000 0.500000
O O10 0.000000 0.000000 0.667199
O O11 0.184365 0.163010 0.500000
O O12 0.183720 0.127395 0.758258
O O13 0.000000 0.167902 0.665706
O O14 0.290742 0.418678 0.500000
O O15 0.214119 0.375111 0.272805
O O16 0.192066 0.457821 0.270416
O O17 0.000000 0.355465 0.788358
O O18 0.845650 0.354125 0.000000
O O19 0.881443 0.500000 0.500000
O O20 0.000000 0.500000 0.255249
O O21 0.000000 0.916150 0.167144
O O22 0.183775 0.917631 0.000000
#
# Coordination Sequence:
#
# PCOD8200372 Si02
#       8
#     4   8   4   8   8   8   4   8
#     4  11  23  39  57  73  93 119 151 185 219 256
#     4   8  14  25  39  53  73 102 130 157 193 240
#     4   9  15  21  27  35  49  69  97 139 189 234
#     4   9  15  21  30  45  63  83 112 151 191 233
#     4  11  21  34  53  73  96 121 150 183 216 255
#     4   9  18  32  48  68  95 122 147 176 214 260
#     4   9  18  31  47  70  98 123 144 171 210 253
#     4   9  15  21  28  37  51  74 105 140 183 237
#
# _framework density 15.827845
#
# number of rings (size 3 to 8) (size 9 to 14) (size 15 to 20)
#    0.000    2.692    0.769    3.231    0.000    6.462 
#    0.000    1.538    0.000    1.846    0.000    0.000 
#    0.000    0.000    0.000    0.000    0.000    0.000 
#
# Total GULP energy -644642.914588 kJ/mol
# GULP energy per Si atom -12396.979127 kJ/mol
# Density = 1.579182 g / cm^3
# Si number density = 15.827845 Si / 1000 Ang^3
#
#
#
# Elastic Constant Matrix: (Units=GPa)
#
#
# Indices 1 2 3 4 5 6 
#
# 1 51.7120 32.8189 27.5141 0.0000 0.0000 0.0000
# 2 32.8189 145.2135 72.2810 0.0000 0.0000 0.0000
# 3 27.5141 72.2810 114.5742 0.0000 0.0000 0.0000
# 4 0.0000 0.0000 0.0000 30.9628 0.0000 0.0000
# 5 0.0000 0.0000 0.0000 0.0000 11.9823 0.0000
# 6 0.0000 0.0000 0.0000 0.0000 0.0000 -0.6280
#
#
#
# Elastic Compliance Matrix: (Units=1/GPa)
#
#
# Indices 1 2 3 4 5 6 
#
# 1 0.023417 -0.003635 -0.003330 0.000000 0.000000 0.000000
# 2 -0.003635 0.010603 -0.005816 0.000000 0.000000 0.000000
# 3 -0.003330 -0.005816 0.013197 0.000000 0.000000 0.000000
# 4 0.000000 0.000000 0.000000 0.032297 0.000000 0.000000
# 5 0.000000 0.000000 0.000000 0.000000 0.083457 0.000000
# 6 0.000000 0.000000 0.000000 0.000000 0.000000 -1.592300
#
#
# Mechanical properties :
#
#
# Convention : Reuss Voigt Hill
#
# Bulk Modulus (GPa) = 46.18054 64.08086 55.13070
# Shear Modulus (GPa) = -3.58025 20.38911 8.40443
#
# Velocity S-wave (km/s) = -1.50562 3.59302 2.30682
# Velocity P-wave (km/s) = 5.12031 7.60178 6.48092
#
# Compressibility (1/GPa) = 0.02165414
#
# Stress axis : x y z
#
# Youngs Moduli (GPa) = 42.70490 94.31396 75.77485
#
# Poissons Ratio (x) = 0.34278 0.25236
# Poissons Ratio (y) = 0.15521 0.44072
# Poissons Ratio (z) = 0.14223 0.54855
#
# Static dielectric constant tensor:
#      x y z
#    x 2.445280 0.000000 0.000000 
#    y 0.000000 3.230700 0.000000 
#    z 0.000000 0.000000 3.126930 
# 
# 
# High freq. dielectric constant tensor:
#      x y z
#    x 1.526130 0.000000 0.000000 
#    y 0.000000 1.623570 0.000000 
#    z 0.000000 0.000000 1.616500 
# 
# From -- ./inp_files/4867.got.cif
#   From: 2010.03.12/outbox.cif.g09.slc.cpg/sg47_3_cif.got.tgz:4867.got - 2010.04.14 03:12:58.
