data_PCOD8200897
_publ_section_title
;
Structure prediction by ZEFSAII (Michael W. Deem and Ramdas Pophale) SiO2 
 PCOD8200897
Probable space group: P M M M
;
_chemical_formula_sum "Si O2"
_cell_formula_units_Z 48
_cell_length_a 9.666813
_cell_length_b 20.745085
_cell_length_c 19.705189
_cell_angle_alpha 90.000000
_cell_angle_beta 90.000000
_cell_angle_gamma 90.000000
_cell_volume 3951.656086
_symmetry_space_group_name_H-M "P M M M"
_symmetry_group_IT_number 47
_symmetry_cell_setting 'orthorhombic'
loop_
_space_group_symop_operation_xyz
x,y,z
-x,-y,z
x,-y,-z
-x,y,-z
-x,-y,-z
x,y,-z
-x,y,z
x,-y,z
loop_
_atom_site_type_symbol
_atom_site_label
_atom_site_fract_x
_atom_site_fract_y
_atom_site_fract_z
Si Si1 0.155379 0.076590 0.425104
Si Si2 0.335554 0.242230 0.075825
Si Si3 0.660021 0.075670 0.303048
Si Si4 0.843348 0.500000 0.081009
Si Si5 0.334918 0.000000 0.923561
Si Si6 0.654674 0.615301 0.080711
Si Si7 0.664689 0.121935 0.841113
O O1 0.201757 0.101217 0.500000
O O2 0.256915 0.103875 0.367413
O O3 0.000000 0.100386 0.409497
O O4 0.161219 0.000000 0.424342
O O5 0.500000 0.238213 0.072197
O O6 0.292992 0.313384 0.102462
O O7 0.276680 0.188721 0.127815
O O8 0.276004 0.229438 0.000000
O O9 0.500000 0.089129 0.317543
O O10 0.713349 0.113802 0.236619
O O11 0.686703 0.000000 0.290903
O O12 0.762882 0.562877 0.109072
O O13 0.000000 0.500000 0.109365
O O14 0.844571 0.500000 0.000000
O O15 0.276675 0.063141 0.885864
O O16 0.500000 0.000000 0.922684
O O17 0.277971 0.000000 0.000000
O O18 0.500000 0.601130 0.109379
O O19 0.647894 0.612180 0.000000
O O20 0.500000 0.120438 0.843668
#
# Coordination Sequence:
#
# PCOD8200897 Si02
#       7
#     8   8   8   4   4   8   8
#     4   8  14  24  36  48  61  77  98 124 153 189
#     4   8  13  20  30  43  59  82 111 138 163 192
#     4   9  15  22  32  47  67  85 100 125 162 198
#     4   9  15  21  31  47  63  77  93 117 154 197
#     4   9  14  18  26  40  60  85 108 134 171 205
#     4   8  13  21  32  45  60  78 100 126 155 187
#     4   9  14  20  28  42  64  86 107 134 167 199
#
# _framework density 12.146806
#
# number of rings (size 3 to 8) (size 9 to 14) (size 15 to 20)
#    0.000    3.500    0.833    2.250    0.000    3.333 
#    0.000    1.667    0.000    1.000    0.000    0.000 
#    0.000    2.667    0.000    0.000    0.000    0.333 
#
# Total GULP energy -594780.093583 kJ/mol
# GULP energy per Si atom -12391.251950 kJ/mol
# Density = 1.211916 g / cm^3
# Si number density = 12.146806 Si / 1000 Ang^3
#
#
#
# Elastic Constant Matrix: (Units=GPa)
#
#
# Indices 1 2 3 4 5 6 
#
# 1 41.3454 30.6444 33.0095 0.0000 0.0000 0.0000
# 2 30.6444 83.8547 38.8609 0.0000 0.0000 0.0000
# 3 33.0095 38.8609 87.2691 0.0000 0.0000 0.0000
# 4 0.0000 0.0000 0.0000 4.3980 0.0000 0.0000
# 5 0.0000 0.0000 0.0000 0.0000 5.8011 0.0000
# 6 0.0000 0.0000 0.0000 0.0000 0.0000 4.6402
#
#
#
# Elastic Compliance Matrix: (Units=1/GPa)
#
#
# Indices 1 2 3 4 5 6 
#
# 1 0.039938 -0.009569 -0.010845 0.000000 0.000000 0.000000
# 2 -0.009569 0.017319 -0.004093 0.000000 0.000000 0.000000
# 3 -0.010845 -0.004093 0.017384 0.000000 0.000000 0.000000
# 4 0.000000 0.000000 0.000000 0.227375 0.000000 0.000000
# 5 0.000000 0.000000 0.000000 0.000000 0.172382 0.000000
# 6 0.000000 0.000000 0.000000 0.000000 0.000000 0.215507
#
#
# Mechanical properties :
#
#
# Convention : Reuss Voigt Hill
#
# Bulk Modulus (GPa) = 39.02266 46.38878 42.70572
# Shear Modulus (GPa) = 6.68931 10.29815 8.49373
#
# Velocity S-wave (km/s) = 2.34926 2.91487 2.64721
# Velocity P-wave (km/s) = 6.28922 7.04284 6.67667
#
# Compressibility (1/GPa) = 0.02562614
#
# Stress axis : x y z
#
# Youngs Moduli (GPa) = 25.03907 57.73998 57.52574
#
# Poissons Ratio (x) = 0.55251 0.62389
# Poissons Ratio (y) = 0.23960 0.23544
# Poissons Ratio (z) = 0.27156 0.23631
#
# Static dielectric constant tensor:
#      x y z
#    x 2.332780 0.000000 0.000000 
#    y 0.000000 2.568800 0.000000 
#    z 0.000000 0.000000 2.499350 
# 
# 
# High freq. dielectric constant tensor:
#      x y z
#    x 1.431560 0.000000 0.000000 
#    y 0.000000 1.437290 0.000000 
#    z 0.000000 0.000000 1.431610 
# 
# From -- ./inp_files/30048.got.cif
#   From: 2010.03.12/outbox.cif.g09.slc.cpg/sg47_16_cif.got.tgz:30048.got - 2010.04.14 03:12:58.
