data_PCOD8200791
_publ_section_title
;
Structure prediction by ZEFSAII (Michael W. Deem and Ramdas Pophale) SiO2 
 PCOD8200791
Probable space group: P M M M
;
_chemical_formula_sum "Si O2"
_cell_formula_units_Z 44
_cell_length_a 7.722354
_cell_length_b 30.083481
_cell_length_c 10.136094
_cell_angle_alpha 90.000000
_cell_angle_beta 90.000000
_cell_angle_gamma 90.000000
_cell_volume 2354.769615
_symmetry_space_group_name_H-M "P M M M"
_symmetry_group_IT_number 47
_symmetry_cell_setting 'orthorhombic'
loop_
_space_group_symop_operation_xyz
x,y,z
-x,-y,z
x,-y,-z
-x,y,-z
-x,-y,-z
x,y,-z
-x,y,z
x,-y,z
loop_
_atom_site_type_symbol
_atom_site_label
_atom_site_fract_x
_atom_site_fract_y
_atom_site_fract_z
Si Si1 0.706011 0.120343 0.647318
Si Si2 0.000000 0.449849 0.842399
Si Si3 0.307969 0.389335 0.843173
Si Si4 0.293955 0.219651 0.352587
Si Si5 0.705513 0.709606 0.853259
Si Si6 0.293946 0.950398 0.147416
O O1 0.771054 0.108381 0.500000
O O2 0.500000 0.118437 0.651365
O O3 0.768439 0.169982 0.685832
O O4 0.786750 0.085011 0.750062
O O5 0.171171 0.425080 0.787542
O O6 0.000000 0.500000 0.787917
O O7 0.000000 0.449172 0.000000
O O8 0.500000 0.399943 0.785697
O O9 0.245862 0.339824 0.802558
O O10 0.316499 0.391507 0.000000
O O11 0.228292 0.231575 0.500000
O O12 0.500000 0.221854 0.349462
O O13 0.214016 0.254554 0.248172
O O14 0.500000 0.713877 0.859558
O O15 0.782160 0.718253 0.000000
O O16 0.500000 0.948620 0.151685
O O17 0.230788 0.000000 0.185990
O O18 0.229280 0.938448 0.000000
#
# Coordination Sequence:
#
# PCOD8200791 Si02
#       6
#     8   4   8   8   8   8
#     4   8  13  19  25  34  49  69  94 130 179 228
#     4   9  16  24  36  56  81 111 143 171 208 255
#     4   8  14  24  36  52  77 106 136 172 209 247
#     4   8  13  20  29  43  63  83 107 145 189 233
#     4   8  13  21  33  48  67  93 121 149 188 236
#     4   8  13  19  24  30  42  63  95 136 179 223
#
# _framework density 18.685479999999998
#
# number of rings (size 3 to 8) (size 9 to 14) (size 15 to 20)
#    0.000    3.909    0.000    2.727    0.000    1.455 
#    0.000    7.273    0.000    0.000    0.000    0.636 
#    0.000    1.455    0.000    7.091    0.000    7.273 
#
# Total GULP energy -545158.714113 kJ/mol
# GULP energy per Si atom -12389.970775 kJ/mol
# Density = 1.864295 g / cm^3
# Si number density = 18.685480 Si / 1000 Ang^3
#
#
#
# Elastic Constant Matrix: (Units=GPa)
#
#
# Indices 1 2 3 4 5 6 
#
# 1 40.7096 37.1806 18.6674 0.0000 0.0000 0.0000
# 2 37.1806 184.3756 94.4876 0.0000 0.0000 0.0000
# 3 18.6674 94.4876 92.7338 0.0000 0.0000 0.0000
# 4 0.0000 0.0000 0.0000 12.2001 0.0000 0.0000
# 5 0.0000 0.0000 0.0000 0.0000 -1.5085 0.0000
# 6 0.0000 0.0000 0.0000 0.0000 0.0000 -6.1564
#
#
#
# Elastic Compliance Matrix: (Units=1/GPa)
#
#
# Indices 1 2 3 4 5 6 
#
# 1 0.030113 -0.006207 0.000263 0.000000 0.000000 0.000000
# 2 -0.006207 0.012630 -0.011619 0.000000 0.000000 0.000000
# 3 0.000263 -0.011619 0.022570 0.000000 0.000000 0.000000
# 4 0.000000 0.000000 0.000000 0.081966 0.000000 0.000000
# 5 0.000000 0.000000 0.000000 0.000000 -0.662930 0.000000
# 6 0.000000 0.000000 0.000000 0.000000 0.000000 -0.162431
#
#
# Mechanical properties :
#
#
# Convention : Reuss Voigt Hill
#
# Bulk Modulus (GPa) = 33.12886 68.72111 50.92499
# Shear Modulus (GPa) = -7.90023 12.07260 2.08619
#
# Velocity S-wave (km/s) = -2.05844 2.54460 1.05778
# Velocity P-wave (km/s) = 3.48119 6.74470 5.36701
#
# Compressibility (1/GPa) = 0.03018516
#
# Stress axis : x y z
#
# Youngs Moduli (GPa) = 33.20848 79.17606 44.30687
#
# Poissons Ratio (x) = 0.49145 -0.01164
# Poissons Ratio (y) = 0.20613 0.51482
# Poissons Ratio (z) = -0.00873 0.91998
#
# Static dielectric constant tensor:
#      x y z
#    x 3.035290 0.000000 0.000000 
#    y 0.000000 3.760550 0.000000 
#    z 0.000000 0.000000 3.461040 
# 
# 
# High freq. dielectric constant tensor:
#      x y z
#    x 1.685690 0.000000 0.000000 
#    y 0.000000 1.726780 0.000000 
#    z 0.000000 0.000000 1.685550 
# 
# From -- ./inp_files/2180.got.cif
#   From: 2010.03.12/outbox.cif.g09.slc.cpg/sg47_2_cif.got.tgz:2180.got - 2010.04.14 03:12:58.
