data_PCOD8200007
_publ_section_title
;
Structure prediction by ZEFSAII (Michael W. Deem and Ramdas Pophale) SiO2 
 PCOD8200007
Probable space group: P M M M
;
_chemical_formula_sum "Si O2"
_cell_formula_units_Z 48
_cell_length_a 9.432828
_cell_length_b 9.348439
_cell_length_c 27.474728
_cell_angle_alpha 90.000000
_cell_angle_beta 90.000000
_cell_angle_gamma 90.000000
_cell_volume 2422.782431
_symmetry_space_group_name_H-M "P M M M"
_symmetry_group_IT_number 47
_symmetry_cell_setting 'orthorhombic'
loop_
_space_group_symop_operation_xyz
x,y,z
-x,-y,z
x,-y,-z
-x,y,-z
-x,-y,-z
x,y,-z
-x,y,z
x,-y,z
loop_
_atom_site_type_symbol
_atom_site_label
_atom_site_fract_x
_atom_site_fract_y
_atom_site_fract_z
Si Si1 0.334391 0.669037 0.227824
Si Si2 0.500000 0.344678 0.942919
Si Si3 0.763797 0.838042 0.053782
Si Si4 0.663196 0.165426 0.406891
Si Si5 0.668305 0.338944 0.500000
Si Si6 0.834545 0.166624 0.689394
Si Si7 0.845583 0.162103 0.843296
O O1 0.500000 0.709569 0.231707
O O2 0.312133 0.500000 0.229576
O O3 0.246401 0.740573 0.270891
O O4 0.271361 0.729208 0.177244
O O5 0.500000 0.500000 0.916882
O O6 0.636584 0.258466 0.927224
O O7 0.500000 0.365146 0.000000
O O8 0.872610 0.821199 0.098260
O O9 0.709090 0.000000 0.049301
O O10 0.824372 0.791215 0.000000
O O11 0.500000 0.203849 0.393794
O O12 0.721899 0.257639 0.451939
O O13 0.763404 0.203899 0.361947
O O14 0.675753 0.000000 0.421562
O O15 0.728939 0.500000 0.500000
O O16 0.500000 0.338274 0.500000
O O17 0.000000 0.208367 0.687476
O O18 0.814629 0.000000 0.702301
O O19 0.000000 0.191983 0.819240
O O20 0.796676 0.000000 0.831264
#
# Coordination Sequence:
#
# PCOD8200007 Si02
#       7
#     8   4   8   8   4   8   8
#     4  11  25  42  60  84 112 144 185 231 279 334
#     4   9  17  29  47  73 105 139 175 217 261 306
#     4   9  18  33  54  80 110 143 180 222 270 324
#     4   9  17  31  53  80 111 149 192 235 281 333
#     4   9  17  29  48  77 112 150 194 243 286 323
#     4  10  21  38  61  88 116 147 186 233 287 344
#     4  10  22  39  59  84 113 146 183 224 275 333
#
# _framework density 19.811931000000001
#
# number of rings (size 3 to 8) (size 9 to 14) (size 15 to 20)
#    0.000    2.333    0.000    2.000    1.167    8.333 
#    0.000    3.750    0.000    2.500    0.000    3.500 
#    0.000    0.000    0.000    0.000    0.000    0.000 
#
# Total GULP energy -594887.489073 kJ/mol
# GULP energy per Si atom -12393.489356 kJ/mol
# Density = 1.976684 g / cm^3
# Si number density = 19.811931 Si / 1000 Ang^3
#
#
#
# Elastic Constant Matrix: (Units=GPa)
#
#
# Indices 1 2 3 4 5 6 
#
# 1 120.7493 58.5825 59.7957 0.0000 0.0000 0.0000
# 2 58.5825 96.0629 60.5063 0.0000 0.0000 0.0000
# 3 59.7957 60.5063 140.9944 0.0000 0.0000 0.0000
# 4 0.0000 0.0000 0.0000 16.1774 0.0000 0.0000
# 5 0.0000 0.0000 0.0000 0.0000 17.0561 0.0000
# 6 0.0000 0.0000 0.0000 0.0000 0.0000 20.1873
#
#
#
# Elastic Compliance Matrix: (Units=1/GPa)
#
#
# Indices 1 2 3 4 5 6 
#
# 1 0.012511 -0.005876 -0.002784 0.000000 0.000000 0.000000
# 2 -0.005876 0.017026 -0.004814 0.000000 0.000000 0.000000
# 3 -0.002784 -0.004814 0.010339 0.000000 0.000000 0.000000
# 4 0.000000 0.000000 0.000000 0.061815 0.000000 0.000000
# 5 0.000000 0.000000 0.000000 0.000000 0.058630 0.000000
# 6 0.000000 0.000000 0.000000 0.000000 0.000000 0.049536
#
#
# Mechanical properties :
#
#
# Convention : Reuss Voigt Hill
#
# Bulk Modulus (GPa) = 77.35910 79.50840 78.43375
# Shear Modulus (GPa) = 20.73694 22.61230 21.67462
#
# Velocity S-wave (km/s) = 3.23877 3.38205 3.31118
# Velocity P-wave (km/s) = 7.28819 7.44780 7.36842
#
# Compressibility (1/GPa) = 0.01292673
#
# Stress axis : x y z
#
# Youngs Moduli (GPa) = 79.92796 58.73496 96.71770
#
# Poissons Ratio (x) = 0.34513 0.26930
# Poissons Ratio (y) = 0.46966 0.46563
# Poissons Ratio (z) = 0.22255 0.28277
#
# Static dielectric constant tensor:
#      x y z
#    x 3.655880 0.000000 0.000000 
#    y 0.000000 3.741530 0.000000 
#    z 0.000000 0.000000 3.684560 
# 
# 
# High freq. dielectric constant tensor:
#      x y z
#    x 1.759390 0.000000 0.000000 
#    y 0.000000 1.765530 0.000000 
#    z 0.000000 0.000000 1.780630 
# 
# From -- ./inp_files/34212.got.cif
#   From: 2010.03.12/outbox.cif.g09.slc.cpg/sg47_18_cif.got.tgz:34212.got - 2010.04.14 03:12:58.
