data_PCOD8200729
_publ_section_title
;
Structure prediction by ZEFSAII (Michael W. Deem and Ramdas Pophale) SiO2 
 PCOD8200729
Probable space group: P M M M
;
_chemical_formula_sum "Si O2"
_cell_formula_units_Z 52
_cell_length_a 26.486229
_cell_length_b 9.390247
_cell_length_c 13.890846
_cell_angle_alpha 90.000000
_cell_angle_beta 90.000000
_cell_angle_gamma 90.000000
_cell_volume 3454.823319
_symmetry_space_group_name_H-M "P M M M"
_symmetry_group_IT_number 47
_symmetry_cell_setting 'orthorhombic'
loop_
_space_group_symop_operation_xyz
x,y,z
-x,-y,z
x,-y,-z
-x,y,-z
-x,-y,-z
x,y,-z
-x,y,z
x,-y,z
loop_
_atom_site_type_symbol
_atom_site_label
_atom_site_fract_x
_atom_site_fract_y
_atom_site_fract_z
Si Si1 0.500000 0.165894 0.611125
Si Si2 0.200438 0.331209 0.605832
Si Si3 0.756411 0.668784 0.893768
Si Si4 0.856669 0.668549 0.790095
Si Si5 0.057972 0.835214 0.890179
Si Si6 0.609338 0.168723 0.612450
Si Si7 0.301278 0.331607 0.291139
O O1 0.500000 0.201947 0.500000
O O2 0.553865 0.223335 0.650972
O O3 0.500000 0.000000 0.629116
O O4 0.188861 0.266688 0.500000
O O5 0.201095 0.500000 0.602485
O O6 0.157483 0.282979 0.681257
O O7 0.255751 0.281128 0.639849
O O8 0.758328 0.500000 0.896534
O O9 0.811572 0.721636 0.859761
O O10 0.713100 0.714552 0.818180
O O11 0.744470 0.731822 0.000000
O O12 0.864213 0.500000 0.797068
O O13 0.908474 0.743002 0.818442
O O14 0.000000 0.806596 0.862925
O O15 0.071516 0.000000 0.876765
O O16 0.068199 0.788158 0.000000
O O17 0.616943 0.207972 0.500000
O O18 0.648843 0.249559 0.678707
O O19 0.615259 0.000000 0.626525
O O20 0.310702 0.500000 0.298995
#
# Coordination Sequence:
#
# PCOD8200729 Si02
#       7
#     4   8   8   8   8   8   8
#     4   7  12  24  39  53  72 103 136 158 189 241
#     4   8  14  25  40  59  85 112 132 154 192 238
#     4   8  14  25  40  59  84 109 130 156 195 239
#     4   9  16  26  44  66  81 100 135 170 192 219
#     4   9  18  31  44  59  82 109 130 153 198 252
#     4   9  16  26  40  57  79 106 133 162 196 234
#     4   9  16  25  40  61  81 105 135 162 192 232
#
# _framework density 15.05142
#
# number of rings (size 3 to 8) (size 9 to 14) (size 15 to 20)
#    0.000    3.462    0.000    4.154    0.000    2.154 
#    0.000    4.231    0.000    4.615    0.000    3.769 
#    0.000    4.308    0.000    0.000    0.000    0.000 
#
# Total GULP energy -644225.096024 kJ/mol
# GULP energy per Si atom -12388.944154 kJ/mol
# Density = 1.501716 g / cm^3
# Si number density = 15.051420 Si / 1000 Ang^3
#
#
#
# Elastic Constant Matrix: (Units=GPa)
#
#
# Indices 1 2 3 4 5 6 
#
# 1 122.3454 39.3376 66.8250 0.0000 0.0000 0.0000
# 2 39.3376 29.8088 28.2423 0.0000 0.0000 0.0000
# 3 66.8250 28.2423 121.8315 0.0000 0.0000 0.0000
# 4 0.0000 0.0000 0.0000 15.7322 0.0000 0.0000
# 5 0.0000 0.0000 0.0000 0.0000 24.5458 0.0000
# 6 0.0000 0.0000 0.0000 0.0000 0.0000 29.4989
#
#
#
# Elastic Compliance Matrix: (Units=1/GPa)
#
#
# Indices 1 2 3 4 5 6 
#
# 1 0.016328 -0.016738 -0.005076 0.000000 0.000000 0.000000
# 2 -0.016738 0.060148 -0.004762 0.000000 0.000000 0.000000
# 3 -0.005076 -0.004762 0.012096 0.000000 0.000000 0.000000
# 4 0.000000 0.000000 0.000000 0.063564 0.000000 0.000000
# 5 0.000000 0.000000 0.000000 0.000000 0.040740 0.000000
# 6 0.000000 0.000000 0.000000 0.000000 0.000000 0.033900
#
#
# Mechanical properties :
#
#
# Convention : Reuss Voigt Hill
#
# Bulk Modulus (GPa) = 28.23302 60.31062 44.27182
# Shear Modulus (GPa) = 17.13891 23.26076 20.19983
#
# Velocity S-wave (km/s) = 3.37811 3.93545 3.66738
# Velocity P-wave (km/s) = 5.83215 7.79789 6.88553
#
# Compressibility (1/GPa) = 0.03541952
#
# Stress axis : x y z
#
# Youngs Moduli (GPa) = 61.24558 16.62570 82.67178
#
# Poissons Ratio (x) = 0.27828 0.41961
# Poissons Ratio (y) = 1.02514 0.39370
# Poissons Ratio (z) = 0.31086 0.07918
#
# Static dielectric constant tensor:
#      x y z
#    x 2.947620 0.000000 0.000000 
#    y 0.000000 2.513900 0.000000 
#    z 0.000000 0.000000 3.189020 
# 
# 
# High freq. dielectric constant tensor:
#      x y z
#    x 1.574170 0.000000 0.000000 
#    y 0.000000 1.540890 0.000000 
#    z 0.000000 0.000000 1.564140 
# 
# From -- ./inp_files/25459.got.cif
#   From: 2010.03.12/outbox.cif.g09.slc.cpg/sg47_13_cif.got.tgz:25459.got - 2010.04.14 03:12:58.
