data_PCOD8200017
_publ_section_title
;
Structure prediction by ZEFSAII (Michael W. Deem and Ramdas Pophale) SiO2 
 PCOD8200017
Probable space group: P M M M
;
_chemical_formula_sum "Si O2"
_cell_formula_units_Z 48
_cell_length_a 8.739247
_cell_length_b 15.484176
_cell_length_c 17.800555
_cell_angle_alpha 90.000000
_cell_angle_beta 90.000000
_cell_angle_gamma 90.000000
_cell_volume 2408.771791
_symmetry_space_group_name_H-M "P M M M"
_symmetry_group_IT_number 47
_symmetry_cell_setting 'orthorhombic'
loop_
_space_group_symop_operation_xyz
x,y,z
-x,-y,z
x,-y,-z
-x,y,-z
-x,-y,-z
x,y,-z
-x,y,z
x,-y,z
loop_
_atom_site_type_symbol
_atom_site_label
_atom_site_fract_x
_atom_site_fract_y
_atom_site_fract_z
Si Si1 0.676751 0.402696 0.342204
Si Si2 0.317845 0.097613 0.000000
Si Si3 0.179904 0.649536 0.810220
Si Si4 0.822168 0.756313 0.585166
Si Si5 0.181742 0.500000 0.916990
Si Si6 0.821735 0.903568 0.301247
Si Si7 0.680262 0.168250 0.157374
O O1 0.500000 0.386947 0.321186
O O2 0.700252 0.500000 0.374239
O O3 0.781637 0.392323 0.269282
O O4 0.729150 0.332351 0.403253
O O5 0.253417 0.144196 0.925011
O O6 0.500000 0.100000 0.000000
O O7 0.257058 0.000000 0.000000
O O8 0.238744 0.585261 0.874726
O O9 0.271348 0.736567 0.820507
O O10 0.000000 0.667849 0.814843
O O11 0.796401 0.787586 0.500000
O O12 0.759345 0.832295 0.639667
O O13 0.000000 0.737926 0.601420
O O14 0.000000 0.500000 0.919198
O O15 0.253484 0.500000 0.000000
O O16 0.741488 0.896545 0.220610
O O17 0.000000 0.887729 0.288551
O O18 0.789980 0.000000 0.333067
O O19 0.500000 0.160130 0.156254
#
# Coordination Sequence:
#
# PCOD8200017 Si02
#       7
#     8   4   8   8   4   8   8
#     4  11  23  39  61  88 119 155 196 242 294 350
#     4   9  20  38  57  80 115 156 194 236 288 349
#     4  11  21  36  59  84 114 153 196 241 290 346
#     4  10  22  40  62  89 122 160 199 241 293 354
#     4   9  20  36  55  83 116 153 194 239 293 350
#     4  10  21  38  61  89 120 155 198 245 294 351
#     4  11  22  37  59  86 117 155 199 242 293 349
#
# _framework density 19.927168999999999
#
# number of rings (size 3 to 8) (size 9 to 14) (size 15 to 20)
#    0.000    1.667    2.500    2.000    1.167    3.000 
#    0.000    4.583    0.000    5.000    0.000    2.333 
#    0.000    0.000    0.000    0.000    0.000    0.000 
#
# Total GULP energy -595258.487513 kJ/mol
# GULP energy per Si atom -12401.218490 kJ/mol
# Density = 1.988181 g / cm^3
# Si number density = 19.927169 Si / 1000 Ang^3
#
#
#
# Elastic Constant Matrix: (Units=GPa)
#
#
# Indices 1 2 3 4 5 6 
#
# 1 30.3074 29.3947 26.1733 0.0000 0.0000 0.0000
# 2 29.3947 132.6444 48.2895 0.0000 0.0000 0.0000
# 3 26.1733 48.2895 123.7542 0.0000 0.0000 0.0000
# 4 0.0000 0.0000 0.0000 32.0582 0.0000 0.0000
# 5 0.0000 0.0000 0.0000 0.0000 23.0803 0.0000
# 6 0.0000 0.0000 0.0000 0.0000 0.0000 20.7103
#
#
#
# Elastic Compliance Matrix: (Units=1/GPa)
#
#
# Indices 1 2 3 4 5 6 
#
# 1 0.046428 -0.007826 -0.006766 0.000000 0.000000 0.000000
# 2 -0.007826 0.010106 -0.002288 0.000000 0.000000 0.000000
# 3 -0.006766 -0.002288 0.010404 0.000000 0.000000 0.000000
# 4 0.000000 0.000000 0.000000 0.031193 0.000000 0.000000
# 5 0.000000 0.000000 0.000000 0.000000 0.043327 0.000000
# 6 0.000000 0.000000 0.000000 0.000000 0.000000 0.048285
#
#
# Mechanical properties :
#
#
# Convention : Reuss Voigt Hill
#
# Bulk Modulus (GPa) = 30.13940 54.93566 42.53753
# Shear Modulus (GPa) = 21.31623 27.35966 24.33795
#
# Velocity S-wave (km/s) = 3.27419 3.70940 3.49857
# Velocity P-wave (km/s) = 5.42691 6.78043 6.14107
#
# Compressibility (1/GPa) = 0.03317916
#
# Stress axis : x y z
#
# Youngs Moduli (GPa) = 21.53877 98.94858 96.11332
#
# Poissons Ratio (x) = 0.77433 0.65027
# Poissons Ratio (y) = 0.16855 0.21995
# Poissons Ratio (z) = 0.14572 0.22644
#
# Static dielectric constant tensor:
#      x y z
#    x 3.430780 0.000000 0.000000 
#    y 0.000000 3.831020 0.000000 
#    z 0.000000 0.000000 3.797310 
# 
# 
# High freq. dielectric constant tensor:
#      x y z
#    x 1.758590 0.000000 0.000000 
#    y 0.000000 1.790630 0.000000 
#    z 0.000000 0.000000 1.778900 
# 
# From -- ./inp_files/6418.got.cif
#   From: 2010.03.12/outbox.cif.g09.slc.cpg/sg47_4_cif.got.tgz:6418.got - 2010.04.14 03:12:58.
