data_PCOD8200759
_publ_section_title
;
Structure prediction by ZEFSAII (Michael W. Deem and Ramdas Pophale) SiO2 
 PCOD8200759
Probable space group: P M M M
;
_chemical_formula_sum "Si O2"
_cell_formula_units_Z 44
_cell_length_a 9.133648
_cell_length_b 13.967743
_cell_length_c 21.709325
_cell_angle_alpha 90.000000
_cell_angle_beta 90.000000
_cell_angle_gamma 90.000000
_cell_volume 2769.598570
_symmetry_space_group_name_H-M "P M M M"
_symmetry_group_IT_number 47
_symmetry_cell_setting 'orthorhombic'
loop_
_space_group_symop_operation_xyz
x,y,z
-x,-y,z
x,-y,-z
-x,y,-z
-x,-y,-z
x,y,-z
-x,y,z
x,-y,z
loop_
_atom_site_type_symbol
_atom_site_label
_atom_site_fract_x
_atom_site_fract_y
_atom_site_fract_z
Si Si1 0.173939 0.710216 0.756204
Si Si2 0.825740 0.211143 0.567722
Si Si3 0.335071 0.613737 0.000000
Si Si4 0.828011 0.611191 0.121222
Si Si5 0.174448 0.105882 0.687695
Si Si6 0.174170 0.394803 0.636052
O O1 0.234021 0.674074 0.821865
O O2 0.227590 0.818503 0.739868
O O3 0.231116 0.638933 0.703063
O O4 0.000000 0.707030 0.757882
O O5 0.763075 0.184009 0.500000
O O6 0.767931 0.137844 0.619900
O O7 0.773383 0.318916 0.584643
O O8 0.000000 0.207874 0.566615
O O9 0.252585 0.651154 0.060718
O O10 0.331909 0.500000 0.000000
O O11 0.500000 0.653637 0.000000
O O12 0.791598 0.500000 0.133966
O O13 0.000000 0.625612 0.111255
O O14 0.000000 0.104751 0.686311
O O15 0.236646 0.000000 0.702857
O O16 0.239052 0.500000 0.621111
O O17 0.000000 0.398608 0.637277
#
# Coordination Sequence:
#
# PCOD8200759 Si02
#       6
#     8   8   4   8   8   8
#     4   8  13  20  30  45  62  80 108 146 182 213
#     4   8  13  18  22  31  48  73 109 146 175 210
#     4   9  17  27  37  53  80 107 124 140 167 205
#     4   9  15  23  37  55  74  97 124 150 174 203
#     4   8  13  20  28  38  55  79 106 141 185 222
#     4   8  12  17  24  34  51  75 103 139 180 213
#
# _framework density 15.88678
#
# number of rings (size 3 to 8) (size 9 to 14) (size 15 to 20)
#    0.000    3.727    0.000    3.000    0.000    4.000 
#    0.000    3.636    0.000    0.000    0.000    0.636 
#    0.000    5.818    0.000    0.000    0.000   14.545 
#
# Total GULP energy -545082.280508 kJ/mol
# GULP energy per Si atom -12388.233648 kJ/mol
# Density = 1.585062 g / cm^3
# Si number density = 15.886780 Si / 1000 Ang^3
#
#
#
# Elastic Constant Matrix: (Units=GPa)
#
#
# Indices 1 2 3 4 5 6 
#
# 1 14.7123 9.9530 19.9622 0.0000 0.0000 0.0000
# 2 9.9530 106.3138 49.6088 0.0000 0.0000 0.0000
# 3 19.9622 49.6088 135.1855 0.0000 0.0000 0.0000
# 4 0.0000 0.0000 0.0000 18.9734 0.0000 0.0000
# 5 0.0000 0.0000 0.0000 0.0000 0.2510 0.0000
# 6 0.0000 0.0000 0.0000 0.0000 0.0000 2.4970
#
#
#
# Elastic Compliance Matrix: (Units=1/GPa)
#
#
# Indices 1 2 3 4 5 6 
#
# 1 0.085571 -0.002552 -0.011699 0.000000 0.000000 0.000000
# 2 -0.002552 0.011426 -0.003816 0.000000 0.000000 0.000000
# 3 -0.011699 -0.003816 0.010525 0.000000 0.000000 0.000000
# 4 0.000000 0.000000 0.000000 0.052705 0.000000 0.000000
# 5 0.000000 0.000000 0.000000 0.000000 3.983781 0.000000
# 6 0.000000 0.000000 0.000000 0.000000 0.000000 0.400484
#
#
# Mechanical properties :
#
#
# Convention : Reuss Voigt Hill
#
# Bulk Modulus (GPa) = 14.00810 46.13995 30.07402
# Shear Modulus (GPa) = 1.08591 16.12346 8.60469
#
# Velocity S-wave (km/s) = 0.82766 3.18920 2.32981
# Velocity P-wave (km/s) = 3.12249 6.53203 5.11944
#
# Compressibility (1/GPa) = 0.07138727
#
# Stress axis : x y z
#
# Youngs Moduli (GPa) = 11.68621 87.52213 95.00990
#
# Poissons Ratio (x) = 0.22334 1.11157
# Poissons Ratio (y) = 0.02982 0.36256
# Poissons Ratio (z) = 0.13672 0.33399
#
# Static dielectric constant tensor:
#      x y z
#    x 2.347460 0.000000 0.000000 
#    y 0.000000 3.225540 0.000000 
#    z 0.000000 0.000000 3.259000 
# 
# 
# High freq. dielectric constant tensor:
#      x y z
#    x 1.532970 0.000000 0.000000 
#    y 0.000000 1.595360 0.000000 
#    z 0.000000 0.000000 1.611880 
# 
# From -- ./inp_files/24903.got.cif
#   From: 2010.03.12/outbox.cif.g09.slc.cpg/sg47_13_cif.got.tgz:24903.got - 2010.04.14 03:12:58.
