data_PCOD8200180
_publ_section_title
;
Structure prediction by ZEFSAII (Michael W. Deem and Ramdas Pophale) SiO2 
 PCOD8200180
Probable space group: P M M M
;
_chemical_formula_sum "Si O2"
_cell_formula_units_Z 32
_cell_length_a 8.971775
_cell_length_b 10.520120
_cell_length_c 17.336809
_cell_angle_alpha 90.000000
_cell_angle_beta 90.000000
_cell_angle_gamma 90.000000
_cell_volume 1636.319974
_symmetry_space_group_name_H-M "P M M M"
_symmetry_group_IT_number 47
_symmetry_cell_setting 'orthorhombic'
loop_
_space_group_symop_operation_xyz
x,y,z
-x,-y,z
x,-y,-z
-x,y,-z
-x,-y,-z
x,y,-z
-x,y,z
x,-y,z
loop_
_atom_site_type_symbol
_atom_site_label
_atom_site_fract_x
_atom_site_fract_y
_atom_site_fract_z
Si Si1 0.824515 0.356161 0.807828
Si Si2 0.338332 0.357563 0.500000
Si Si3 0.324342 0.000000 0.590524
Si Si4 0.325901 0.857299 0.910524
Si Si5 0.824134 0.250291 0.357789
O O1 0.766011 0.500000 0.824831
O O2 0.756753 0.253607 0.865399
O O3 0.779633 0.318922 0.721256
O O4 0.000000 0.351604 0.818728
O O5 0.388346 0.500000 0.500000
O O6 0.500000 0.280215 0.500000
O O7 0.237698 0.335006 0.573813
O O8 0.256595 0.883664 0.636965
O O9 0.500000 0.000000 0.599297
O O10 0.276120 0.000000 0.500000
O O11 0.500000 0.842480 0.894904
O O12 0.274597 0.000000 0.884591
O O13 0.288316 0.838892 0.000000
O O14 0.000000 0.232142 0.366266
#
# Coordination Sequence:
#
# PCOD8200180 Si02
#       5
#     8   4   4   8   8
#     4  10  23  41  60  88 124 158 197 245 296 353
#     4  11  23  38  57  82 113 151 197 247 298 351
#     4  11  23  39  59  85 117 150 193 248 306 359
#     4   9  20  40  64  91 122 156 197 243 293 352
#     4  11  23  39  60  84 115 154 199 245 294 353
#
# _framework density 19.556077999999999
#
# number of rings (size 3 to 8) (size 9 to 14) (size 15 to 20)
#    0.000    1.750    1.250    3.000    1.750    6.500 
#    0.000    3.750    0.000    0.000    0.000    0.000 
#    0.000    0.000    0.000    0.000    0.000    0.000 
#
# Total GULP energy -396688.016106 kJ/mol
# GULP energy per Si atom -12396.500503 kJ/mol
# Density = 1.951157 g / cm^3
# Si number density = 19.556078 Si / 1000 Ang^3
#
#
#
# Elastic Constant Matrix: (Units=GPa)
#
#
# Indices 1 2 3 4 5 6 
#
# 1 58.9496 52.2410 41.6814 0.0000 0.0000 0.0000
# 2 52.2410 183.5673 81.1947 0.0000 0.0000 0.0000
# 3 41.6814 81.1947 106.5926 0.0000 0.0000 0.0000
# 4 0.0000 0.0000 0.0000 44.0431 0.0000 0.0000
# 5 0.0000 0.0000 0.0000 0.0000 30.5159 0.0000
# 6 0.0000 0.0000 0.0000 0.0000 0.0000 32.7407
#
#
#
# Elastic Compliance Matrix: (Units=1/GPa)
#
#
# Indices 1 2 3 4 5 6 
#
# 1 0.025509 -0.004294 -0.006704 0.000000 0.000000 0.000000
# 2 -0.004294 0.008939 -0.005130 0.000000 0.000000 0.000000
# 3 -0.006704 -0.005130 0.015910 0.000000 0.000000 0.000000
# 4 0.000000 0.000000 0.000000 0.022705 0.000000 0.000000
# 5 0.000000 0.000000 0.000000 0.000000 0.032770 0.000000
# 6 0.000000 0.000000 0.000000 0.000000 0.000000 0.030543
#
#
# Mechanical properties :
#
#
# Convention : Reuss Voigt Hill
#
# Bulk Modulus (GPa) = 55.24056 77.70487 66.47272
# Shear Modulus (GPa) = 28.62605 33.05945 30.84275
#
# Velocity S-wave (km/s) = 3.83011 4.11602 3.97564
# Velocity P-wave (km/s) = 6.91868 7.89997 7.42555
#
# Compressibility (1/GPa) = 0.01810264
#
# Stress axis : x y z
#
# Youngs Moduli (GPa) = 39.20113 111.87430 62.85251
#
# Poissons Ratio (x) = 0.48044 0.42136
# Poissons Ratio (y) = 0.16835 0.32240
# Poissons Ratio (z) = 0.26280 0.57386
#
# Static dielectric constant tensor:
#      x y z
#    x 3.545910 0.000000 0.000000 
#    y 0.000000 3.911520 0.000000 
#    z 0.000000 0.000000 3.589330 
# 
# 
# High freq. dielectric constant tensor:
#      x y z
#    x 1.765240 0.000000 0.000000 
#    y 0.000000 1.780630 0.000000 
#    z 0.000000 0.000000 1.760420 
# 
# From -- ./inp_files/5229.got.cif
#   From: 2010.03.12/outbox.cif.g09.slc.cpg/sg47_3_cif.got.tgz:5229.got - 2010.04.14 03:12:58.
