data_PCOD8200679
_publ_section_title
;
Structure prediction by ZEFSAII (Michael W. Deem and Ramdas Pophale) SiO2 
 PCOD8200679
Probable space group: P M M M
;
_chemical_formula_sum "Si O2"
_cell_formula_units_Z 36
_cell_length_a 22.976154
_cell_length_b 9.976622
_cell_length_c 9.596910
_cell_angle_alpha 90.000000
_cell_angle_beta 90.000000
_cell_angle_gamma 90.000000
_cell_volume 2199.845970
_symmetry_space_group_name_H-M "P M M M"
_symmetry_group_IT_number 47
_symmetry_cell_setting 'orthorhombic'
loop_
_space_group_symop_operation_xyz
x,y,z
-x,-y,z
x,-y,-z
-x,y,-z
-x,-y,-z
x,y,-z
-x,y,z
x,-y,z
loop_
_atom_site_type_symbol
_atom_site_label
_atom_site_fract_x
_atom_site_fract_y
_atom_site_fract_z
Si Si1 0.278495 0.148624 0.334314
Si Si2 0.067446 0.347380 0.161030
Si Si3 0.852263 0.844448 0.338032
Si Si4 0.500000 0.341175 0.347834
Si Si5 0.374956 0.349362 0.667204
O O1 0.281490 0.148445 0.500000
O O2 0.213428 0.189818 0.288643
O O3 0.325244 0.252443 0.271128
O O4 0.293423 0.000000 0.278039
O O5 0.084416 0.500000 0.198775
O O6 0.103992 0.246073 0.252735
O O7 0.000000 0.322472 0.193838
O O8 0.080774 0.318646 0.000000
O O9 0.860213 0.810806 0.500000
O O10 0.866080 0.000000 0.309276
O O11 0.500000 0.500000 0.366260
O O12 0.500000 0.272600 0.500000
O O13 0.561276 0.301683 0.272992
O O14 0.377030 0.344656 0.500000
O O15 0.360483 0.500000 0.717489
#
# Coordination Sequence:
#
# PCOD8200679 Si02
#       5
#     8   8   8   4   8
#     4   8  14  24  35  49  74 104 131 165 208 246
#     4   9  19  35  51  67  89 115 142 175 216 259
#     4   9  18  31  46  66  91 117 146 180 216 255
#     4   7  10  16  25  39  61  89 124 167 206 237
#     4   8  12  18  29  44  63  92 131 169 203 242
#
# _framework density 16.364782999999999
#
# number of rings (size 3 to 8) (size 9 to 14) (size 15 to 20)
#    0.000    3.667    0.000    3.333    0.000    2.667 
#    0.000    6.111    0.000    3.333    0.000    0.000 
#    0.000    0.000    0.000    1.000    0.000   20.667 
#
# Total GULP energy -445987.054197 kJ/mol
# GULP energy per Si atom -12388.529283 kJ/mol
# Density = 1.632754 g / cm^3
# Si number density = 16.364783 Si / 1000 Ang^3
#
#
#
# Elastic Constant Matrix: (Units=GPa)
#
#
# Indices 1 2 3 4 5 6 
#
# 1 141.8347 95.2450 44.4178 0.0000 0.0000 0.0000
# 2 95.2450 106.8421 38.7824 0.0000 0.0000 0.0000
# 3 44.4178 38.7824 29.6083 0.0000 0.0000 0.0000
# 4 0.0000 0.0000 0.0000 18.3746 0.0000 0.0000
# 5 0.0000 0.0000 0.0000 0.0000 -3.3368 0.0000
# 6 0.0000 0.0000 0.0000 0.0000 0.0000 18.2445
#
#
#
# Elastic Compliance Matrix: (Units=1/GPa)
#
#
# Indices 1 2 3 4 5 6 
#
# 1 0.019729 -0.013048 -0.012506 0.000000 0.000000 0.000000
# 2 -0.013048 0.026473 -0.015101 0.000000 0.000000 0.000000
# 3 -0.012506 -0.015101 0.072316 0.000000 0.000000 0.000000
# 4 0.000000 0.000000 0.000000 0.054423 0.000000 0.000000
# 5 0.000000 0.000000 0.000000 0.000000 -0.299691 0.000000
# 6 0.000000 0.000000 0.000000 0.000000 0.000000 0.054811
#
#
# Mechanical properties :
#
#
# Convention : Reuss Voigt Hill
#
# Bulk Modulus (GPa) = 26.87644 70.57505 48.72575
# Shear Modulus (GPa) = 229.64380 13.31246 121.47813
#
# Velocity S-wave (km/s) = 11.85886 2.85526 8.62511
# Velocity P-wave (km/s) = 14.28178 7.35458 11.35912
#
# Compressibility (1/GPa) = 0.03720730
#
# Stress axis : x y z
#
# Youngs Moduli (GPa) = 50.68718 37.77487 13.82820
#
# Poissons Ratio (x) = 0.49288 0.17294
# Poissons Ratio (y) = 0.66136 0.20882
# Poissons Ratio (z) = 0.63391 0.57044
#
# Static dielectric constant tensor:
#      x y z
#    x 3.432320 0.000000 0.000000 
#    y 0.000000 3.138870 0.000000 
#    z 0.000000 0.000000 2.477250 
# 
# 
# High freq. dielectric constant tensor:
#      x y z
#    x 1.646290 0.000000 0.000000 
#    y 0.000000 1.622920 0.000000 
#    z 0.000000 0.000000 1.561340 
# 
# From -- ./inp_files/3748.got.cif
#   From: 2010.03.12/outbox.cif.g09.slc.cpg/sg47_2_cif.got.tgz:3748.got - 2010.04.14 03:12:58.
