data_PCOD8200618
_publ_section_title
;
Structure prediction by ZEFSAII (Michael W. Deem and Ramdas Pophale) SiO2 
 PCOD8200618
Probable space group: P M M M
;
_chemical_formula_sum "Si O2"
_cell_formula_units_Z 40
_cell_length_a 9.789203
_cell_length_b 27.196216
_cell_length_c 8.178600
_cell_angle_alpha 90.000000
_cell_angle_beta 90.000000
_cell_angle_gamma 90.000000
_cell_volume 2177.382783
_symmetry_space_group_name_H-M "P M M M"
_symmetry_group_IT_number 47
_symmetry_cell_setting 'orthorhombic'
loop_
_space_group_symop_operation_xyz
x,y,z
-x,-y,z
x,-y,-z
-x,y,-z
-x,-y,-z
x,y,-z
-x,y,z
x,-y,z
loop_
_atom_site_type_symbol
_atom_site_label
_atom_site_fract_x
_atom_site_fract_y
_atom_site_fract_z
Si Si1 0.651447 0.500000 0.310666
Si Si2 0.652211 0.224623 0.310618
Si Si3 0.851656 0.693550 0.190683
Si Si4 0.155181 0.415114 0.807086
Si Si5 0.337291 0.114241 0.317189
Si Si6 0.662725 0.944155 0.000000
O O1 0.500000 0.500000 0.226068
O O2 0.626888 0.500000 0.500000
O O3 0.735354 0.451616 0.267035
O O4 0.648494 0.237344 0.500000
O O5 0.500000 0.227974 0.235896
O O6 0.743973 0.264249 0.222784
O O7 0.712137 0.169877 0.282411
O O8 0.807045 0.639884 0.257742
O O9 0.000000 0.708177 0.265965
O O10 0.869151 0.687114 0.000000
O O11 0.000000 0.428427 0.752316
O O12 0.166668 0.419163 0.000000
O O13 0.285885 0.097075 0.500000
O O14 0.500000 0.112962 0.319842
O O15 0.280487 0.080836 0.167709
O O16 0.500000 0.941152 0.000000
O O17 0.714922 0.000000 0.000000
#
# Coordination Sequence:
#
# PCOD8200618 Si02
#       6
#     4   8   8   8   8   4
#     4  11  24  37  50  74 104 129 158 201 246 288
#     4   9  18  31  47  69  97 131 167 200 242 297
#     4   9  19  34  51  74 101 126 158 202 247 292
#     4   9  19  37  57  74  95 126 163 201 243 293
#     4   8  15  27  40  59  91 126 162 206 251 298
#     4   9  16  24  38  62  89 125 171 208 247 300
#
# _framework density 18.370681000000001
#
# number of rings (size 3 to 8) (size 9 to 14) (size 15 to 20)
#    0.000    3.000    0.000    3.000    1.400    5.200 
#    0.000    8.000    0.000    0.000    0.000    0.000 
#    0.000    1.600    0.000    4.400    0.000    4.400 
#
# Total GULP energy -495597.055575 kJ/mol
# GULP energy per Si atom -12389.926389 kJ/mol
# Density = 1.832887 g / cm^3
# Si number density = 18.370681 Si / 1000 Ang^3
#
#
#
# Elastic Constant Matrix: (Units=GPa)
#
#
# Indices 1 2 3 4 5 6 
#
# 1 70.5589 53.6185 29.8084 0.0000 0.0000 0.0000
# 2 53.6185 134.1224 58.2386 0.0000 0.0000 0.0000
# 3 29.8084 58.2386 80.7856 0.0000 0.0000 0.0000
# 4 0.0000 0.0000 0.0000 184.1358 0.0000 0.0000
# 5 0.0000 0.0000 0.0000 0.0000 25.8274 0.0000
# 6 0.0000 0.0000 0.0000 0.0000 0.0000 1175.8733
#
#
#
# Elastic Compliance Matrix: (Units=1/GPa)
#
#
# Indices 1 2 3 4 5 6 
#
# 1 0.020680 -0.007211 -0.002432 0.000000 0.000000 0.000000
# 2 -0.007211 0.013368 -0.006976 0.000000 0.000000 0.000000
# 3 -0.002432 -0.006976 0.018305 0.000000 0.000000 0.000000
# 4 0.000000 0.000000 0.000000 0.005431 0.000000 0.000000
# 5 0.000000 0.000000 0.000000 0.000000 0.038719 0.000000
# 6 0.000000 0.000000 0.000000 0.000000 0.000000 0.000850
#
#
# Mechanical properties :
#
#
# Convention : Reuss Voigt Hill
#
# Bulk Modulus (GPa) = 52.31740 63.19975 57.75857
# Shear Modulus (GPa) = 36.50640 286.75406 161.63023
#
# Velocity S-wave (km/s) = 4.46265 12.50729 9.39009
# Velocity P-wave (km/s) = 7.42255 15.59017 12.20958
#
# Compressibility (1/GPa) = 0.01911410
#
# Stress axis : x y z
#
# Youngs Moduli (GPa) = 48.35630 74.80584 54.63027
#
# Poissons Ratio (x) = 0.53945 0.13285
# Poissons Ratio (y) = 0.34871 0.38111
# Poissons Ratio (z) = 0.11759 0.52186
#
# Static dielectric constant tensor:
#      x y z
#    x 3.315790 0.000000 0.000000 
#    y 0.000000 1.459930 0.000000 
#    z 0.000000 0.000000 3.447050 
# 
# 
# High freq. dielectric constant tensor:
#      x y z
#    x 1.671260 0.000000 0.000000 
#    y 0.000000 1.716770 0.000000 
#    z 0.000000 0.000000 1.710430 
# 
# From -- ./inp_files/1702.got.cif
#   From: 2010.03.12/outbox.cif.g09.slc.cpg/sg47_1_cif.got.tgz:1702.got - 2010.04.14 03:12:58.
