data_PCOD8200200
_publ_section_title
;
Structure prediction by ZEFSAII (Michael W. Deem and Ramdas Pophale) SiO2 
 PCOD8200200
Probable space group: P M M M
;
_chemical_formula_sum "Si O2"
_cell_formula_units_Z 64
_cell_length_a 9.079191
_cell_length_b 18.380306
_cell_length_c 26.213083
_cell_angle_alpha 90.000000
_cell_angle_beta 90.000000
_cell_angle_gamma 90.000000
_cell_volume 4374.394960
_symmetry_space_group_name_H-M "P M M M"
_symmetry_group_IT_number 47
_symmetry_cell_setting 'orthorhombic'
loop_
_space_group_symop_operation_xyz
x,y,z
-x,-y,z
x,-y,-z
-x,y,-z
-x,-y,-z
x,y,-z
-x,y,z
x,-y,z
loop_
_atom_site_type_symbol
_atom_site_label
_atom_site_fract_x
_atom_site_fract_y
_atom_site_fract_z
Si Si1 0.337304 0.711922 0.799094
Si Si2 0.824857 0.918336 0.943726
Si Si3 0.174731 0.665554 0.645138
Si Si4 0.826846 0.916313 0.254512
Si Si5 0.668930 0.583688 0.440796
Si Si6 0.665943 0.794732 0.307489
Si Si7 0.672385 0.416888 0.265119
Si Si8 0.173034 0.166240 0.847304
O O1 0.500000 0.712232 0.823110
O O2 0.334762 0.753636 0.745836
O O3 0.286051 0.629563 0.785772
O O4 0.231829 0.751742 0.839371
O O5 0.759625 0.866065 0.899783
O O6 0.000000 0.919749 0.939885
O O7 0.764832 0.000000 0.934871
O O8 0.775999 0.890374 0.000000
O O9 0.222397 0.636105 0.590029
O O10 0.243432 0.745920 0.652410
O O11 0.232503 0.608526 0.686941
O O12 0.000000 0.671544 0.648892
O O13 0.744297 0.872702 0.299509
O O14 0.779157 0.886337 0.198995
O O15 0.000000 0.906163 0.262555
O O16 0.778737 0.000000 0.257904
O O17 0.693340 0.600752 0.500000
O O18 0.500000 0.599057 0.425047
O O19 0.708103 0.500000 0.428801
O O20 0.500000 0.806923 0.327806
O O21 0.500000 0.404927 0.278536
O O22 0.709278 0.500000 0.252671
O O23 0.000000 0.172052 0.851195
#
# Coordination Sequence:
#
# PCOD8200200 Si02
#       8
#     8   8   8   8   8   8   8   8
#     4   8  15  26  38  53  73  98 127 159 193 228
#     4   8  13  21  34  53  75  98 128 164 193 220
#     4  11  20  28  41  61  84 108 134 166 204 238
#     4   9  16  25  38  58  83 106 129 162 203 242
#     4   9  18  32  47  61  80 109 142 171 198 231
#     4   9  17  29  42  55  75 105 139 168 193 231
#     4   9  17  29  43  57  76 104 135 162 190 232
#     4   9  15  23  37  55  75 102 132 159 192 233
#
# _framework density 14.630595
#
# number of rings (size 3 to 8) (size 9 to 14) (size 15 to 20)
#    0.000    3.000    0.000    3.750    0.000    7.000 
#    0.000    0.625    0.000    1.500    0.000    0.875 
#    0.000    1.000    0.000   11.500    0.000    2.250 
#
# Total GULP energy -793288.492633 kJ/mol
# GULP energy per Si atom -12395.132697 kJ/mol
# Density = 1.459730 g / cm^3
# Si number density = 14.630595 Si / 1000 Ang^3
#
#
#
# Elastic Constant Matrix: (Units=GPa)
#
#
# Indices 1 2 3 4 5 6 
#
# 1 60.3483 41.9082 34.7007 0.0000 0.0000 0.0000
# 2 41.9082 108.1661 51.1721 0.0000 0.0000 0.0000
# 3 34.7007 51.1721 71.9339 0.0000 0.0000 0.0000
# 4 0.0000 0.0000 0.0000 25.9914 0.0000 0.0000
# 5 0.0000 0.0000 0.0000 0.0000 14.3617 0.0000
# 6 0.0000 0.0000 0.0000 0.0000 0.0000 23.2770
#
#
#
# Elastic Compliance Matrix: (Units=1/GPa)
#
#
# Indices 1 2 3 4 5 6 
#
# 1 0.025332 -0.006080 -0.007895 0.000000 0.000000 0.000000
# 2 -0.006080 0.015394 -0.008018 0.000000 0.000000 0.000000
# 3 -0.007895 -0.008018 0.023414 0.000000 0.000000 0.000000
# 4 0.000000 0.000000 0.000000 0.038474 0.000000 0.000000
# 5 0.000000 0.000000 0.000000 0.000000 0.069630 0.000000
# 6 0.000000 0.000000 0.000000 0.000000 0.000000 0.042961
#
#
# Mechanical properties :
#
#
# Convention : Reuss Voigt Hill
#
# Bulk Modulus (GPa) = 49.61711 55.11226 52.36468
# Shear Modulus (GPa) = 18.80344 20.23718 19.52031
#
# Velocity S-wave (km/s) = 3.58888 3.72319 3.65665
# Velocity P-wave (km/s) = 7.15264 7.49892 7.32783
#
# Compressibility (1/GPa) = 0.02015434
#
# Stress axis : x y z
#
# Youngs Moduli (GPa) = 39.47544 64.96142 42.70932
#
# Poissons Ratio (x) = 0.39494 0.33720
# Poissons Ratio (y) = 0.24000 0.34244
# Poissons Ratio (z) = 0.31167 0.52086
#
# Static dielectric constant tensor:
#      x y z
#    x 2.774320 0.000000 0.000000 
#    y 0.000000 2.992650 0.000000 
#    z 0.000000 0.000000 2.733310 
# 
# 
# High freq. dielectric constant tensor:
#      x y z
#    x 1.550410 0.000000 0.000000 
#    y 0.000000 1.551050 0.000000 
#    z 0.000000 0.000000 1.526030 
# 
# From -- ./inp_files/10249.got.cif
#   From: 2010.03.12/outbox.cif.g09.slc.cpg/sg47_6_cif.got.tgz:10249.got - 2010.04.14 03:12:58.
