data_PCOD8200008
_publ_section_title
;
Structure prediction by ZEFSAII (Michael W. Deem and Ramdas Pophale) SiO2 
 PCOD8200008
Probable space group: P M M M
;
_chemical_formula_sum "Si O2"
_cell_formula_units_Z 40
_cell_length_a 8.989187
_cell_length_b 29.550112
_cell_length_c 7.479590
_cell_angle_alpha 90.000000
_cell_angle_beta 90.000000
_cell_angle_gamma 90.000000
_cell_volume 1986.814581
_symmetry_space_group_name_H-M "P M M M"
_symmetry_group_IT_number 47
_symmetry_cell_setting 'orthorhombic'
loop_
_space_group_symop_operation_xyz
x,y,z
-x,-y,z
x,-y,-z
-x,y,-z
-x,-y,-z
x,y,-z
-x,y,z
x,-y,z
loop_
_atom_site_type_symbol
_atom_site_label
_atom_site_fract_x
_atom_site_fract_y
_atom_site_fract_z
Si Si1 0.671863 0.053334 0.500000
Si Si2 0.667055 0.797702 0.212233
Si Si3 0.323713 0.550253 0.500000
Si Si4 0.832789 0.290237 0.212601
Si Si5 0.825092 0.888990 0.792377
Si Si6 0.674887 0.619024 0.796136
O O1 0.500000 0.068004 0.500000
O O2 0.750054 0.071478 0.321240
O O3 0.691066 0.000000 0.500000
O O4 0.500000 0.801056 0.288977
O O5 0.744856 0.752862 0.291478
O O6 0.759840 0.841234 0.274724
O O7 0.664309 0.794948 0.000000
O O8 0.252425 0.500000 0.500000
O O9 0.500000 0.546334 0.500000
O O10 0.270844 0.576796 0.322834
O O11 0.754061 0.336044 0.277670
O O12 0.000000 0.289286 0.287947
O O13 0.832054 0.288149 0.000000
O O14 0.000000 0.888506 0.757220
O O15 0.787608 0.897799 0.000000
O O16 0.500000 0.627418 0.777513
O O17 0.720194 0.608260 0.000000
#
# Coordination Sequence:
#
# PCOD8200008 Si02
#       6
#     4   8   4   8   8   8
#     4  11  25  43  62  85 114 149 191 240 290 339
#     4   9  16  28  50  80 113 147 182 220 264 318
#     4   9  18  32  50  73  98 123 159 210 260 305
#     4   9  16  27  46  73 105 139 174 212 255 306
#     4  10  21  38  61  88 118 152 190 233 282 336
#     4   9  17  30  49  72  98 129 165 205 251 304
#
# _framework density 20.132726999999999
#
# number of rings (size 3 to 8) (size 9 to 14) (size 15 to 20)
#    0.000    2.600    0.000    2.100    0.000    7.600 
#    0.000    5.500    0.000    2.400    0.000    2.800 
#    0.000    0.000    0.000    0.000    0.000    0.000 
#
# Total GULP energy -496015.571041 kJ/mol
# GULP energy per Si atom -12400.389276 kJ/mol
# Density = 2.008690 g / cm^3
# Si number density = 20.132727 Si / 1000 Ang^3
#
#
#
# Elastic Constant Matrix: (Units=GPa)
#
#
# Indices 1 2 3 4 5 6 
#
# 1 126.4901 75.5009 40.0641 0.0000 0.0000 0.0000
# 2 75.5009 165.5097 58.9204 0.0000 0.0000 0.0000
# 3 40.0641 58.9204 81.5263 0.0000 0.0000 0.0000
# 4 0.0000 0.0000 0.0000 -54.8722 0.0000 0.0000
# 5 0.0000 0.0000 0.0000 0.0000 14.1086 0.0000
# 6 0.0000 0.0000 0.0000 0.0000 0.0000 15.2730
#
#
#
# Elastic Compliance Matrix: (Units=1/GPa)
#
#
# Indices 1 2 3 4 5 6 
#
# 1 0.011214 -0.004246 -0.002442 0.000000 0.000000 0.000000
# 2 -0.004246 0.009743 -0.004955 0.000000 0.000000 0.000000
# 3 -0.002442 -0.004955 0.017047 0.000000 0.000000 0.000000
# 4 0.000000 0.000000 0.000000 -0.018224 0.000000 0.000000
# 5 0.000000 0.000000 0.000000 0.000000 0.070879 0.000000
# 6 0.000000 0.000000 0.000000 0.000000 0.000000 0.065475
#
#
# Mechanical properties :
#
#
# Convention : Reuss Voigt Hill
#
# Bulk Modulus (GPa) = 67.94448 80.27745 74.11096
# Shear Modulus (GPa) = 27.12614 8.17125 17.64870
#
# Velocity S-wave (km/s) = 3.67463 2.01680 2.96398
# Velocity P-wave (km/s) = 7.19899 6.73677 6.97171
#
# Compressibility (1/GPa) = 0.01471790
#
# Stress axis : x y z
#
# Youngs Moduli (GPa) = 89.17713 102.64147 58.66200
#
# Poissons Ratio (x) = 0.43582 0.14325
# Poissons Ratio (y) = 0.37865 0.29065
# Poissons Ratio (z) = 0.21777 0.50855
#
# Static dielectric constant tensor:
#      x y z
#    x 3.688750 0.000000 0.000000 
#    y 0.000000 3.772480 0.000000 
#    z 0.000000 0.000000 3.484080 
# 
# 
# High freq. dielectric constant tensor:
#      x y z
#    x 1.781140 0.000000 0.000000 
#    y 0.000000 1.785770 0.000000 
#    z 0.000000 0.000000 1.774710 
# 
# From -- ./inp_files/1770.got.cif
#   From: 2010.03.12/outbox.cif.g09.slc.cpg/sg47_1_cif.got.tgz:1770.got - 2010.04.14 03:12:58.
