data_PCOD8200497
_publ_section_title
;
Structure prediction by ZEFSAII (Michael W. Deem and Ramdas Pophale) SiO2 
 PCOD8200497
Probable space group: P M M M
;
_chemical_formula_sum "Si O2"
_cell_formula_units_Z 48
_cell_length_a 18.864673
_cell_length_b 15.307724
_cell_length_c 8.991475
_cell_angle_alpha 90.000000
_cell_angle_beta 90.000000
_cell_angle_gamma 90.000000
_cell_volume 2596.515060
_symmetry_space_group_name_H-M "P M M M"
_symmetry_group_IT_number 47
_symmetry_cell_setting 'orthorhombic'
loop_
_space_group_symop_operation_xyz
x,y,z
-x,-y,z
x,-y,-z
-x,y,-z
-x,-y,-z
x,y,-z
-x,y,z
x,-y,z
loop_
_atom_site_type_symbol
_atom_site_label
_atom_site_fract_x
_atom_site_fract_y
_atom_site_fract_z
Si Si1 0.917407 0.782251 0.675776
Si Si2 0.415698 0.500000 0.167025
Si Si3 0.580528 0.328383 0.673565
Si Si4 0.915858 0.592651 0.667282
Si Si5 0.583774 0.000000 0.169087
Si Si6 0.337569 0.845037 0.324497
Si Si7 0.804417 0.102105 0.174730
O O1 0.902149 0.789902 0.500000
O O2 0.891215 0.685774 0.736703
O O3 0.877014 0.856978 0.765510
O O4 0.000000 0.796471 0.709112
O O5 0.500000 0.500000 0.176143
O O6 0.386893 0.413258 0.246683
O O7 0.387072 0.500000 0.000000
O O8 0.581664 0.347482 0.500000
O O9 0.500000 0.308315 0.726442
O O10 0.630554 0.248499 0.717390
O O11 0.886564 0.589391 0.500000
O O12 0.891498 0.500000 0.746906
O O13 0.000000 0.595762 0.663666
O O14 0.611164 0.084649 0.252250
O O15 0.500000 0.000000 0.173319
O O16 0.612774 0.000000 0.000000
O O17 0.334850 0.860947 0.500000
O O18 0.259435 0.850014 0.257937
O O19 0.803324 0.000000 0.214425
O O20 0.797690 0.117868 0.000000
#
# Coordination Sequence:
#
# PCOD8200497 Si02
#       7
#     8   4   8   8   4   8   8
#     4   9  18  33  56  85 111 137 178 228 270 316
#     4   9  17  29  49  79 111 145 182 217 262 321
#     4   9  18  33  54  81 111 141 177 225 275 319
#     4   7  10  20  43  76 109 135 161 202 257 310
#     4  11  23  37  55  83 118 149 178 219 273 331
#     4  11  22  37  59  82 106 142 188 234 276 322
#     4  11  24  40  56  74 104 145 184 225 281 341
#
# _framework density 18.486317
#
# number of rings (size 3 to 8) (size 9 to 14) (size 15 to 20)
#    0.000    2.500    0.833    3.500    0.000    5.333 
#    0.000    3.333    1.833    0.500    0.000    2.333 
#    0.000    0.000    0.000    0.000    0.000    0.000 
#
# Total GULP energy -594854.976309 kJ/mol
# GULP energy per Si atom -12392.812006 kJ/mol
# Density = 1.844424 g / cm^3
# Si number density = 18.486317 Si / 1000 Ang^3
#
#
#
# Elastic Constant Matrix: (Units=GPa)
#
#
# Indices 1 2 3 4 5 6 
#
# 1 73.0773 63.2875 41.5439 0.0000 0.0000 0.0000
# 2 63.2875 164.1252 75.7887 0.0000 0.0000 0.0000
# 3 41.5439 75.7887 77.6284 0.0000 0.0000 0.0000
# 4 0.0000 0.0000 0.0000 47.0840 0.0000 0.0000
# 5 0.0000 0.0000 0.0000 0.0000 21.8955 0.0000
# 6 0.0000 0.0000 0.0000 0.0000 0.0000 9.4009
#
#
#
# Elastic Compliance Matrix: (Units=1/GPa)
#
#
# Indices 1 2 3 4 5 6 
#
# 1 0.022166 -0.005590 -0.006406 0.000000 0.000000 0.000000
# 2 -0.005590 0.012504 -0.009217 0.000000 0.000000 0.000000
# 3 -0.006406 -0.009217 0.025308 0.000000 0.000000 0.000000
# 4 0.000000 0.000000 0.000000 0.021239 0.000000 0.000000
# 5 0.000000 0.000000 0.000000 0.000000 0.045672 0.000000
# 6 0.000000 0.000000 0.000000 0.000000 0.000000 0.106372
#
#
# Mechanical properties :
#
#
# Convention : Reuss Voigt Hill
#
# Bulk Modulus (GPa) = 56.96287 75.11902 66.04094
# Shear Modulus (GPa) = 17.75969 24.62347 21.19158
#
# Velocity S-wave (km/s) = 3.10287 3.65359 3.38944
# Velocity P-wave (km/s) = 6.61192 7.64993 7.14979
#
# Compressibility (1/GPa) = 0.01755530
#
# Stress axis : x y z
#
# Youngs Moduli (GPa) = 45.11334 79.97296 39.51313
#
# Poissons Ratio (x) = 0.44701 0.25310
# Poissons Ratio (y) = 0.25216 0.36418
# Poissons Ratio (z) = 0.28898 0.73708
#
# Static dielectric constant tensor:
#      x y z
#    x 3.138540 0.000000 0.000000 
#    y 0.000000 3.020770 0.000000 
#    z 0.000000 0.000000 3.282050 
# 
# 
# High freq. dielectric constant tensor:
#      x y z
#    x 1.688750 0.000000 0.000000 
#    y 0.000000 1.739500 0.000000 
#    z 0.000000 0.000000 1.699170 
# 
# From -- ./inp_files/9187.got.cif
#   From: 2010.03.12/outbox.cif.g09.slc.cpg/sg47_5_cif.got.tgz:9187.got - 2010.04.14 03:12:58.
