data_PCOD8200407
_publ_section_title
;
Structure prediction by ZEFSAII (Michael W. Deem and Ramdas Pophale) SiO2 
 PCOD8200407
Probable space group: P M M M
;
_chemical_formula_sum "Si O2"
_cell_formula_units_Z 40
_cell_length_a 10.288606
_cell_length_b 8.783761
_cell_length_c 24.152406
_cell_angle_alpha 90.000000
_cell_angle_beta 90.000000
_cell_angle_gamma 90.000000
_cell_volume 2182.717082
_symmetry_space_group_name_H-M "P M M M"
_symmetry_group_IT_number 47
_symmetry_cell_setting 'orthorhombic'
loop_
_space_group_symop_operation_xyz
x,y,z
-x,-y,z
x,-y,-z
-x,y,-z
-x,-y,-z
x,y,-z
-x,y,z
x,-y,z
loop_
_atom_site_type_symbol
_atom_site_label
_atom_site_fract_x
_atom_site_fract_y
_atom_site_fract_z
Si Si1 0.744326 0.320399 0.376314
Si Si2 0.354902 0.818835 0.062079
Si Si3 0.500000 0.819911 0.563314
Si Si4 0.000000 0.680875 0.438160
Si Si5 0.855407 0.818920 0.852718
Si Si6 0.150184 0.177627 0.728014
O O1 0.726581 0.500000 0.381092
O O2 0.624590 0.240574 0.405069
O O3 0.872674 0.259072 0.407101
O O4 0.755839 0.272966 0.312120
O O5 0.500000 0.762637 0.078342
O O6 0.249509 0.748713 0.104571
O O7 0.350670 0.000000 0.064489
O O8 0.320336 0.763482 0.000000
O O9 0.500000 0.760191 0.500000
O O10 0.500000 0.000000 0.565060
O O11 0.000000 0.500000 0.439087
O O12 0.000000 0.748122 0.500000
O O13 0.816401 0.770666 0.790533
O O14 0.000000 0.757153 0.867375
O O15 0.857402 0.000000 0.856429
O O16 0.000000 0.215200 0.715053
O O17 0.178555 0.000000 0.719618
#
# Coordination Sequence:
#
# PCOD8200407 Si02
#       6
#     8   8   4   4   8   8
#     4  11  21  36  58  81 107 139 174 214 259 308
#     4   8  13  21  33  52  82 118 157 204 254 301
#     4  11  25  43  59  79 109 141 172 209 258 313
#     4   9  18  32  53  81 105 127 164 209 252 302
#     4   8  14  24  38  57  84 123 164 200 246 302
#     4   9  17  31  50  72 103 137 170 213 261 309
#
# _framework density 18.325783999999999
#
# number of rings (size 3 to 8) (size 9 to 14) (size 15 to 20)
#    0.000    2.800    1.000    3.300    0.000    2.000 
#    1.800    2.000    0.000    2.400    0.000    0.000 
#    0.000    0.800    0.000    6.600    0.000    8.000 
#
# Total GULP energy -495871.550039 kJ/mol
# GULP energy per Si atom -12396.788751 kJ/mol
# Density = 1.828407 g / cm^3
# Si number density = 18.325784 Si / 1000 Ang^3
#
#
#
# Elastic Constant Matrix: (Units=GPa)
#
#
# Indices 1 2 3 4 5 6 
#
# 1 149.7311 25.1812 101.3274 0.0000 0.0000 0.0000
# 2 25.1812 28.8135 23.1271 0.0000 0.0000 0.0000
# 3 101.3274 23.1271 160.5489 0.0000 0.0000 0.0000
# 4 0.0000 0.0000 0.0000 8.9245 0.0000 0.0000
# 5 0.0000 0.0000 0.0000 0.0000 30.3237 0.0000
# 6 0.0000 0.0000 0.0000 0.0000 0.0000 -113.5107
#
#
#
# Elastic Compliance Matrix: (Units=1/GPa)
#
#
# Indices 1 2 3 4 5 6 
#
# 1 0.012288 -0.005104 -0.007020 0.000000 0.000000 0.000000
# 2 -0.005104 0.041364 -0.002737 0.000000 0.000000 0.000000
# 3 -0.007020 -0.002737 0.011053 0.000000 0.000000 0.000000
# 4 0.000000 0.000000 0.000000 0.112051 0.000000 0.000000
# 5 0.000000 0.000000 0.000000 0.000000 0.032977 0.000000
# 6 0.000000 0.000000 0.000000 0.000000 0.000000 -0.008810
#
#
# Mechanical properties :
#
#
# Convention : Reuss Voigt Hill
#
# Bulk Modulus (GPa) = 28.58577 70.92942 49.75759
# Shear Modulus (GPa) = 20.63504 -2.22197 9.20653
#
# Velocity S-wave (km/s) = 3.35925 -1.10232 2.24382
# Velocity P-wave (km/s) = 5.53883 6.09660 5.82440
#
# Compressibility (1/GPa) = 0.03498245
#
# Stress axis : x y z
#
# Youngs Moduli (GPa) = 81.38337 24.17589 90.47064
#
# Poissons Ratio (x) = 0.12340 0.63508
# Poissons Ratio (y) = 0.41539 0.24762
# Poissons Ratio (z) = 0.57129 0.06617
#
# Static dielectric constant tensor:
#      x y z
#    x 3.373100 0.000000 0.000000 
#    y 0.000000 2.848620 0.000000 
#    z 0.000000 0.000000 3.648570 
# 
# 
# High freq. dielectric constant tensor:
#      x y z
#    x 1.709870 0.000000 0.000000 
#    y 0.000000 1.659350 0.000000 
#    z 0.000000 0.000000 1.722390 
# 
# From -- ./inp_files/33083.got.cif
#   From: 2010.03.12/outbox.cif.g09.slc.cpg/sg47_17_cif.got.tgz:33083.got - 2010.04.14 03:12:58.
