data_PCOD8200954
_publ_section_title
;
Structure prediction by ZEFSAII (Michael W. Deem and Ramdas Pophale) SiO2 
 PCOD8200954
Probable space group: P M M M
;
_chemical_formula_sum "Si O2"
_cell_formula_units_Z 44
_cell_length_a 28.530414
_cell_length_b 9.439349
_cell_length_c 9.302114
_cell_angle_alpha 90.000000
_cell_angle_beta 90.000000
_cell_angle_gamma 90.000000
_cell_volume 2505.138692
_symmetry_space_group_name_H-M "P M M M"
_symmetry_group_IT_number 47
_symmetry_cell_setting 'orthorhombic'
loop_
_space_group_symop_operation_xyz
x,y,z
-x,-y,z
x,-y,-z
-x,y,-z
-x,-y,-z
x,y,-z
-x,y,z
x,-y,z
loop_
_atom_site_type_symbol
_atom_site_label
_atom_site_fract_x
_atom_site_fract_y
_atom_site_fract_z
Si Si1 0.089522 0.831421 0.837249
Si Si2 0.361234 0.668875 0.838527
Si Si3 0.000000 0.169037 0.663303
Si Si4 0.728928 0.664003 0.333136
Si Si5 0.448268 0.668497 0.661449
Si Si6 0.819870 0.164980 0.333708
O O1 0.136909 0.778584 0.760903
O O2 0.045516 0.772436 0.746932
O O3 0.087954 0.000000 0.838035
O O4 0.087476 0.772337 0.000000
O O5 0.362744 0.500000 0.835645
O O6 0.315543 0.722837 0.754080
O O7 0.408144 0.731692 0.764685
O O8 0.359042 0.727704 0.000000
O O9 0.000000 0.227173 0.500000
O O10 0.000000 0.000000 0.661632
O O11 0.718010 0.688970 0.500000
O O12 0.738545 0.500000 0.299376
O O13 0.774172 0.750781 0.282531
O O14 0.439381 0.724414 0.500000
O O15 0.500000 0.717262 0.715012
O O16 0.445661 0.500000 0.661802
O O17 0.831688 0.195368 0.500000
O O18 0.810373 0.000000 0.306968
#
# Coordination Sequence:
#
# PCOD8200954 Si02
#       6
#     8   8   4   8   8   8
#     4   9  16  25  38  58  84 111 137 167 205 247
#     4   9  16  24  35  53  77 104 134 169 206 242
#     4   9  15  23  37  57  82 111 140 169 202 242
#     4   9  17  29  44  60  80 109 142 172 203 242
#     4   8  13  21  33  49  71 101 134 165 200 244
#     4   9  17  29  44  62  84 109 138 172 207 241
#
# _framework density 17.563897000000001
#
# number of rings (size 3 to 8) (size 9 to 14) (size 15 to 20)
#    0.000    3.182    0.000    1.909    0.000    6.545 
#    0.000    1.818    0.000    0.000    0.000    0.636 
#    0.000    5.818    0.000    8.364    0.000   10.727 
#
# Total GULP energy -545466.876885 kJ/mol
# GULP energy per Si atom -12396.974475 kJ/mol
# Density = 1.752392 g / cm^3
# Si number density = 17.563897 Si / 1000 Ang^3
#
#
#
# Elastic Constant Matrix: (Units=GPa)
#
#
# Indices 1 2 3 4 5 6 
#
# 1 200.8641 27.6834 108.2525 0.0000 0.0000 0.0000
# 2 27.6834 13.8623 17.4418 0.0000 0.0000 0.0000
# 3 108.2525 17.4418 133.9646 0.0000 0.0000 0.0000
# 4 0.0000 0.0000 0.0000 8.2045 0.0000 0.0000
# 5 0.0000 0.0000 0.0000 0.0000 24.6471 0.0000
# 6 0.0000 0.0000 0.0000 0.0000 0.0000 -12.1597
#
#
#
# Elastic Compliance Matrix: (Units=1/GPa)
#
#
# Indices 1 2 3 4 5 6 
#
# 1 0.010261 -0.012029 -0.006725 0.000000 0.000000 0.000000
# 2 -0.012029 0.100373 -0.003348 0.000000 0.000000 0.000000
# 3 -0.006725 -0.003348 0.013335 0.000000 0.000000 0.000000
# 4 0.000000 0.000000 0.000000 0.121885 0.000000 0.000000
# 5 0.000000 0.000000 0.000000 0.000000 0.040573 0.000000
# 6 0.000000 0.000000 0.000000 0.000000 0.000000 -0.082239
#
#
# Mechanical properties :
#
#
# Convention : Reuss Voigt Hill
#
# Bulk Modulus (GPa) = 12.53693 72.82736 42.68215
# Shear Modulus (GPa) = 18.18312 17.15929 17.67120
#
# Velocity S-wave (km/s) = 3.22103 3.12903 3.17536
# Velocity P-wave (km/s) = 4.58113 7.38977 6.14799
#
# Compressibility (1/GPa) = 0.07976435
#
# Stress axis : x y z
#
# Youngs Moduli (GPa) = 97.45746 9.96282 74.99052
#
# Poissons Ratio (x) = 0.11985 0.50433
# Poissons Ratio (y) = 1.17235 0.25105
# Poissons Ratio (z) = 0.65543 0.03335
#
# Static dielectric constant tensor:
#      x y z
#    x 3.548440 0.000000 0.000000 
#    y 0.000000 2.561960 0.000000 
#    z 0.000000 0.000000 3.422650 
# 
# 
# High freq. dielectric constant tensor:
#      x y z
#    x 1.697620 0.000000 0.000000 
#    y 0.000000 1.595500 0.000000 
#    z 0.000000 0.000000 1.683990 
# 
# From -- ./inp_files/2066.got.cif
#   From: 2010.03.12/outbox.cif.g09.slc.cpg/sg47_2_cif.got.tgz:2066.got - 2010.04.14 03:12:58.
