data_PCOD8200719
_publ_section_title
;
Structure prediction by ZEFSAII (Michael W. Deem and Ramdas Pophale) SiO2 
 PCOD8200719
Probable space group: P M M M
;
_chemical_formula_sum "Si O2"
_cell_formula_units_Z 36
_cell_length_a 9.744603
_cell_length_b 23.568245
_cell_length_c 9.392661
_cell_angle_alpha 90.000000
_cell_angle_beta 90.000000
_cell_angle_gamma 90.000000
_cell_volume 2157.148497
_symmetry_space_group_name_H-M "P M M M"
_symmetry_group_IT_number 47
_symmetry_cell_setting 'orthorhombic'
loop_
_space_group_symop_operation_xyz
x,y,z
-x,-y,z
x,-y,-z
-x,y,-z
-x,-y,-z
x,y,-z
-x,y,z
x,-y,z
loop_
_atom_site_type_symbol
_atom_site_label
_atom_site_fract_x
_atom_site_fract_y
_atom_site_fract_z
Si Si1 0.654044 0.378364 0.170152
Si Si2 0.159301 0.276019 0.166123
Si Si3 0.836592 0.167019 0.660141
Si Si4 0.662641 0.500000 0.155608
Si Si5 0.163230 0.062838 0.840189
O O1 0.500000 0.363594 0.222589
O O2 0.757271 0.330121 0.224604
O O3 0.702783 0.440300 0.232984
O O4 0.656550 0.382321 0.000000
O O5 0.213454 0.221541 0.251735
O O6 0.000000 0.287958 0.195755
O O7 0.187130 0.264674 0.000000
O O8 0.778600 0.170452 0.500000
O O9 0.776115 0.110276 0.734107
O O10 0.000000 0.164723 0.659792
O O11 0.500000 0.500000 0.137037
O O12 0.732902 0.500000 0.000000
O O13 0.000000 0.065869 0.840081
O O14 0.211070 0.000000 0.790062
O O15 0.216955 0.074944 0.000000
#
# Coordination Sequence:
#
# PCOD8200719 Si02
#       5
#     8   8   8   4   8
#     4   8  13  22  37  56  77 101 128 157 191 232
#     4   9  16  25  37  54  77 103 129 158 193 230
#     4   9  16  24  34  49  71 101 133 161 191 229
#     4   7  10  18  33  53  76  99 122 152 192 233
#     4   8  13  21  33  49  70  97 128 161 196 231
#
# _framework density 16.688697999999999
#
# number of rings (size 3 to 8) (size 9 to 14) (size 15 to 20)
#    0.000    3.667    0.000    2.667    0.000    3.111 
#    0.000    2.778    0.000    4.000    0.000    0.778 
#    0.000    7.111    0.000   10.222    0.000   13.111 
#
# Total GULP energy -445970.867419 kJ/mol
# GULP energy per Si atom -12388.079651 kJ/mol
# Density = 1.665071 g / cm^3
# Si number density = 16.688698 Si / 1000 Ang^3
#
#
#
# Elastic Constant Matrix: (Units=GPa)
#
#
# Indices 1 2 3 4 5 6 
#
# 1 28.6187 43.4122 18.1567 0.0000 0.0000 0.0000
# 2 43.4122 198.5081 68.8577 0.0000 0.0000 0.0000
# 3 18.1567 68.8577 66.6443 0.0000 0.0000 0.0000
# 4 0.0000 0.0000 0.0000 4.8457 0.0000 0.0000
# 5 0.0000 0.0000 0.0000 0.0000 4.4745 0.0000
# 6 0.0000 0.0000 0.0000 0.0000 0.0000 4.4917
#
#
#
# Elastic Compliance Matrix: (Units=1/GPa)
#
#
# Indices 1 2 3 4 5 6 
#
# 1 0.052909 -0.010241 -0.003833 0.000000 0.000000 0.000000
# 2 -0.010241 0.009834 -0.007370 0.000000 0.000000 0.000000
# 3 -0.003833 -0.007370 0.023664 0.000000 0.000000 0.000000
# 4 0.000000 0.000000 0.000000 0.206367 0.000000 0.000000
# 5 0.000000 0.000000 0.000000 0.000000 0.223490 0.000000
# 6 0.000000 0.000000 0.000000 0.000000 0.000000 0.222635
#
#
# Mechanical properties :
#
#
# Convention : Reuss Voigt Hill
#
# Bulk Modulus (GPa) = 22.97915 61.62491 42.30203
# Shear Modulus (GPa) = 6.27908 13.65202 9.96555
#
# Velocity S-wave (km/s) = 1.94181 2.86324 2.44630
# Velocity P-wave (km/s) = 4.33897 6.92367 5.77771
#
# Compressibility (1/GPa) = 0.04351771
#
# Stress axis : x y z
#
# Youngs Moduli (GPa) = 18.90037 101.69015 42.25741
#
# Poissons Ratio (x) = 1.04141 0.16199
# Poissons Ratio (y) = 0.19356 0.31145
# Poissons Ratio (z) = 0.07245 0.74949
#
# Static dielectric constant tensor:
#      x y z
#    x 2.600130 0.000000 0.000000 
#    y 0.000000 3.677380 0.000000 
#    z 0.000000 0.000000 2.910690 
# 
# 
# High freq. dielectric constant tensor:
#      x y z
#    x 1.573950 0.000000 0.000000 
#    y 0.000000 1.668270 0.000000 
#    z 0.000000 0.000000 1.603210 
# 
# From -- ./inp_files/3910.got.cif
#   From: 2010.03.12/outbox.cif.g09.slc.cpg/sg47_2_cif.got.tgz:3910.got - 2010.04.14 03:12:58.
