data_PCOD8200962
_publ_section_title
;
Structure prediction by ZEFSAII (Michael W. Deem and Ramdas Pophale) SiO2 
 PCOD8200962
Probable space group: P M M M
;
_chemical_formula_sum "Si O2"
_cell_formula_units_Z 44
_cell_length_a 9.558069
_cell_length_b 27.967597
_cell_length_c 9.976449
_cell_angle_alpha 90.000000
_cell_angle_beta 90.000000
_cell_angle_gamma 90.000000
_cell_volume 2666.866655
_symmetry_space_group_name_H-M "P M M M"
_symmetry_group_IT_number 47
_symmetry_cell_setting 'orthorhombic'
loop_
_space_group_symop_operation_xyz
x,y,z
-x,-y,z
x,-y,-z
-x,y,-z
-x,-y,-z
x,y,-z
-x,y,z
x,-y,z
loop_
_atom_site_type_symbol
_atom_site_label
_atom_site_fract_x
_atom_site_fract_y
_atom_site_fract_z
Si Si1 0.337955 0.055270 0.347447
Si Si2 0.162622 0.878098 0.844556
Si Si3 0.657799 0.500000 0.339930
Si Si4 0.166621 0.692144 0.649224
Si Si5 0.156013 0.413501 0.340524
Si Si6 0.166386 0.229410 0.851416
O O1 0.299518 0.069113 0.500000
O O2 0.500000 0.065596 0.319761
O O3 0.248029 0.085959 0.246050
O O4 0.303183 0.000000 0.321638
O O5 0.210807 0.824093 0.809282
O O6 0.000000 0.885005 0.812067
O O7 0.192924 0.889157 0.000000
O O8 0.500000 0.500000 0.283883
O O9 0.657897 0.500000 0.500000
O O10 0.737168 0.546917 0.284075
O O11 0.227124 0.701214 0.500000
O O12 0.209271 0.639333 0.702430
O O13 0.230752 0.732273 0.747595
O O14 0.000000 0.695260 0.644587
O O15 0.149336 0.415642 0.500000
O O16 0.000000 0.423696 0.283390
O O17 0.000000 0.232635 0.853081
O O18 0.224015 0.241230 0.000000
#
# Coordination Sequence:
#
# PCOD8200962 Si02
#       6
#     8   8   4   8   8   8
#     4   9  19  35  51  67  90 120 153 188 225 266
#     4   9  18  31  47  70  97 121 148 184 223 264
#     4   9  15  21  31  49  74 103 130 158 200 249
#     4   8  13  21  35  56  79 104 137 172 203 242
#     4   8  13  21  33  50  73 100 130 164 199 236
#     4   8  14  25  40  60  88 116 139 169 211 253
#
# _framework density 16.498761999999999
#
# number of rings (size 3 to 8) (size 9 to 14) (size 15 to 20)
#    0.000    3.545    0.000    3.000    0.000    3.273 
#    0.000    4.545    0.000    1.091    0.000    3.182 
#    0.000    5.091    0.000    0.000    0.000    0.000 
#
# Total GULP energy -545297.803458 kJ/mol
# GULP energy per Si atom -12393.131897 kJ/mol
# Density = 1.646121 g / cm^3
# Si number density = 16.498762 Si / 1000 Ang^3
#
#
#
# Elastic Constant Matrix: (Units=GPa)
#
#
# Indices 1 2 3 4 5 6 
#
# 1 60.1008 61.6655 40.7642 0.0000 0.0000 0.0000
# 2 61.6655 147.3504 79.8397 0.0000 0.0000 0.0000
# 3 40.7642 79.8397 76.7940 0.0000 0.0000 0.0000
# 4 0.0000 0.0000 0.0000 4.1854 0.0000 0.0000
# 5 0.0000 0.0000 0.0000 0.0000 16.9713 0.0000
# 6 0.0000 0.0000 0.0000 0.0000 0.0000 -0.3117
#
#
#
# Elastic Compliance Matrix: (Units=1/GPa)
#
#
# Indices 1 2 3 4 5 6 
#
# 1 0.030598 -0.009170 -0.006708 0.000000 0.000000 0.000000
# 2 -0.009170 0.018290 -0.014147 0.000000 0.000000 0.000000
# 3 -0.006708 -0.014147 0.031291 0.000000 0.000000 0.000000
# 4 0.000000 0.000000 0.000000 0.238928 0.000000 0.000000
# 5 0.000000 0.000000 0.000000 0.000000 0.058923 0.000000
# 6 0.000000 0.000000 0.000000 0.000000 0.000000 -3.208257
#
#
# Mechanical properties :
#
#
# Convention : Reuss Voigt Hill
#
# Bulk Modulus (GPa) = 49.68402 72.08712 60.88557
# Shear Modulus (GPa) = -1.80932 10.96737 4.57902
#
# Velocity S-wave (km/s) = -1.04834 2.58105 1.66775
# Velocity P-wave (km/s) = 5.35853 7.25739 6.37901
#
# Compressibility (1/GPa) = 0.02012720
#
# Stress axis : x y z
#
# Youngs Moduli (GPa) = 32.68232 54.67500 31.95797
#
# Poissons Ratio (x) = 0.50139 0.21437
# Poissons Ratio (y) = 0.29971 0.45212
# Poissons Ratio (z) = 0.21923 0.77351
#
# Static dielectric constant tensor:
#      x y z
#    x 2.802360 0.000000 0.000000 
#    y 0.000000 3.373200 0.000000 
#    z 0.000000 0.000000 3.020340 
# 
# 
# High freq. dielectric constant tensor:
#      x y z
#    x 1.594570 0.000000 0.000000 
#    y 0.000000 1.648100 0.000000 
#    z 0.000000 0.000000 1.605090 
# 
# From -- ./inp_files/2300.got.cif
#   From: 2010.03.12/outbox.cif.g09.slc.cpg/sg47_2_cif.got.tgz:2300.got - 2010.04.14 03:12:58.
