data_PCOD8200319
_publ_section_title
;
Structure prediction by ZEFSAII (Michael W. Deem and Ramdas Pophale) SiO2 
 PCOD8200319
Probable space group: P M M M
;
_chemical_formula_sum "Si O2"
_cell_formula_units_Z 48
_cell_length_a 19.369211
_cell_length_b 20.465816
_cell_length_c 9.382266
_cell_angle_alpha 90.000000
_cell_angle_beta 90.000000
_cell_angle_gamma 90.000000
_cell_volume 3719.193182
_symmetry_space_group_name_H-M "P M M M"
_symmetry_group_IT_number 47
_symmetry_cell_setting 'orthorhombic'
loop_
_space_group_symop_operation_xyz
x,y,z
-x,-y,z
x,-y,-z
-x,y,-z
-x,-y,-z
x,y,-z
-x,y,z
x,-y,z
loop_
_atom_site_type_symbol
_atom_site_label
_atom_site_fract_x
_atom_site_fract_y
_atom_site_fract_z
Si Si1 0.082522 0.500000 0.659277
Si Si2 0.575538 0.077677 0.838892
Si Si3 0.081921 0.619308 0.842508
Si Si4 0.853129 0.880572 0.332108
Si Si5 0.081831 0.000000 0.164086
Si Si6 0.919195 0.233833 0.834851
Si Si7 0.297130 0.925538 0.663825
O O1 0.111681 0.500000 0.500000
O O2 0.111936 0.565039 0.735400
O O3 0.000000 0.500000 0.661289
O O4 0.500000 0.102127 0.784268
O O5 0.638244 0.106858 0.746420
O O6 0.577398 0.000000 0.828557
O O7 0.586698 0.101198 0.000000
O O8 0.103133 0.692264 0.795283
O O9 0.000000 0.614990 0.847322
O O10 0.111314 0.604340 0.000000
O O11 0.870232 0.887658 0.500000
O O12 0.876953 0.811130 0.272811
O O13 0.771383 0.884424 0.304567
O O14 0.892042 0.936387 0.245430
O O15 0.000000 0.000000 0.167392
O O16 0.108239 0.000000 0.000000
O O17 0.000000 0.222680 0.808024
O O18 0.901602 0.218211 0.000000
O O19 0.317750 0.923562 0.500000
O O20 0.282765 0.000000 0.713144
#
# Coordination Sequence:
#
# PCOD8200319 Si02
#       7
#     4   8   8   8   4   8   8
#     4   9  15  21  33  55  77  91 109 139 172 211
#     4   8  14  24  38  57  76  90 108 135 167 206
#     4   8  14  25  39  52  69  93 116 140 174 216
#     4  11  21  32  43  56  73  92 117 153 193 229
#     4  11  23  35  45  55  66  85 118 157 195 236
#     4   9  18  31  43  55  71  92 122 156 188 227
#     4   9  17  29  40  52  72  93 115 142 175 220
#
# _framework density 12.906026000000001
#
# number of rings (size 3 to 8) (size 9 to 14) (size 15 to 20)
#    0.000    2.833    0.833    3.000    0.000    6.333 
#    0.000    3.333    0.000    0.000    0.000    0.000 
#    0.000    0.000    0.000    0.000    0.000    0.000 
#
# Total GULP energy -594942.828332 kJ/mol
# GULP energy per Si atom -12394.642257 kJ/mol
# Density = 1.287665 g / cm^3
# Si number density = 12.906026 Si / 1000 Ang^3
#
#
#
# Elastic Constant Matrix: (Units=GPa)
#
#
# Indices 1 2 3 4 5 6 
#
# 1 65.6756 29.3368 45.9442 0.0000 0.0000 0.0000
# 2 29.3368 79.7548 52.7329 0.0000 0.0000 0.0000
# 3 45.9442 52.7329 91.6444 0.0000 0.0000 0.0000
# 4 0.0000 0.0000 0.0000 17.5462 0.0000 0.0000
# 5 0.0000 0.0000 0.0000 0.0000 20.9350 0.0000
# 6 0.0000 0.0000 0.0000 0.0000 0.0000 -0.0541
#
#
#
# Elastic Compliance Matrix: (Units=1/GPa)
#
#
# Indices 1 2 3 4 5 6 
#
# 1 0.023545 -0.001382 -0.011009 0.000000 0.000000 0.000000
# 2 -0.001382 0.020319 -0.010999 0.000000 0.000000 0.000000
# 3 -0.011009 -0.010999 0.022760 0.000000 0.000000 0.000000
# 4 0.000000 0.000000 0.000000 0.056993 0.000000 0.000000
# 5 0.000000 0.000000 0.000000 0.000000 0.047767 0.000000
# 6 0.000000 0.000000 0.000000 0.000000 0.000000-18.488839
#
#
# Mechanical properties :
#
#
# Convention : Reuss Voigt Hill
#
# Bulk Modulus (GPa) = 50.39161 54.78917 52.59039
# Shear Modulus (GPa) = -0.27376 14.95614 7.34119
#
# Velocity S-wave (km/s) = -0.46106 3.40788 2.38758
# Velocity P-wave (km/s) = 6.23268 7.61770 6.95973
#
# Compressibility (1/GPa) = 0.01984458
#
# Stress axis : x y z
#
# Youngs Moduli (GPa) = 42.47208 49.21460 43.93750
#
# Poissons Ratio (x) = 0.06801 0.48369
# Poissons Ratio (y) = 0.05869 0.48327
# Poissons Ratio (z) = 0.46756 0.54131
#
# Static dielectric constant tensor:
#      x y z
#    x 2.531200 0.000000 0.000000 
#    y 0.000000 2.533480 0.000000 
#    z 0.000000 0.000000 2.782490 
# 
# 
# High freq. dielectric constant tensor:
#      x y z
#    x 1.456530 0.000000 0.000000 
#    y 0.000000 1.462120 0.000000 
#    z 0.000000 0.000000 1.502060 
# 
# From -- ./inp_files/11435.got.cif
#   From: 2010.03.12/outbox.cif.g09.slc.cpg/sg47_6_cif.got.tgz:11435.got - 2010.04.14 03:12:58.
