data_PCOD8200063
_publ_section_title
;
Structure prediction by ZEFSAII (Michael W. Deem and Ramdas Pophale) SiO2 
 PCOD8200063
Probable space group: P M M M
;
_chemical_formula_sum "Si O2"
_cell_formula_units_Z 40
_cell_length_a 27.205547
_cell_length_b 7.742483
_cell_length_c 9.445266
_cell_angle_alpha 90.000000
_cell_angle_beta 90.000000
_cell_angle_gamma 90.000000
_cell_volume 1989.536522
_symmetry_space_group_name_H-M "P M M M"
_symmetry_group_IT_number 47
_symmetry_cell_setting 'orthorhombic'
loop_
_space_group_symop_operation_xyz
x,y,z
-x,-y,z
x,-y,-z
-x,y,-z
-x,-y,-z
x,y,-z
-x,y,z
x,-y,z
loop_
_atom_site_type_symbol
_atom_site_label
_atom_site_fract_x
_atom_site_fract_y
_atom_site_fract_z
Si Si1 0.804233 0.795951 0.158609
Si Si2 0.000000 0.706465 0.340791
Si Si3 0.558076 0.000000 0.836832
Si Si4 0.393366 0.695311 0.335969
Si Si5 0.910307 0.298534 0.157975
Si Si6 0.714073 0.200411 0.337848
O O1 0.856566 0.738958 0.224119
O O2 0.759131 0.719359 0.248804
O O3 0.800833 0.000000 0.160651
O O4 0.799796 0.721270 0.000000
O O5 0.951922 0.780428 0.260165
O O6 0.000000 0.500000 0.343835
O O7 0.000000 0.780331 0.500000
O O8 0.577194 0.826919 0.762022
O O9 0.500000 0.000000 0.825415
O O10 0.575629 0.000000 0.000000
O O11 0.401150 0.748801 0.500000
O O12 0.412378 0.500000 0.308612
O O13 0.335690 0.700257 0.298016
O O14 0.919589 0.500000 0.145854
O O15 0.914072 0.215356 0.000000
O O16 0.728399 0.228613 0.500000
O O17 0.705018 0.000000 0.302867
#
# Coordination Sequence:
#
# PCOD8200063 Si02
#       6
#     8   4   4   8   8   8
#     4   9  18  31  47  70 100 134 171 211 258 318
#     4   9  17  29  46  67  88 114 154 205 258 310
#     4  11  25  43  63  89 125 165 201 246 303 354
#     4  10  21  39  64  92 121 157 204 251 294 350
#     4   9  17  30  47  65  88 121 161 204 252 310
#     4   9  17  32  53  77 108 145 181 223 277 333
#
# _framework density 20.105186
#
# number of rings (size 3 to 8) (size 9 to 14) (size 15 to 20)
#    0.000    2.600    1.000    0.600    0.000    5.200 
#    0.000    2.500    0.000    3.000    0.000    0.000 
#    0.000    0.000    0.000    0.000    0.000    0.000 
#
# Total GULP energy -495924.900284 kJ/mol
# GULP energy per Si atom -12398.122507 kJ/mol
# Density = 2.005943 g / cm^3
# Si number density = 20.105186 Si / 1000 Ang^3
#
#
#
# Elastic Constant Matrix: (Units=GPa)
#
#
# Indices 1 2 3 4 5 6 
#
# 1 124.9283 39.2848 79.9751 0.0000 0.0000 0.0000
# 2 39.2848 61.3594 41.7062 0.0000 0.0000 0.0000
# 3 79.9751 41.7062 117.5368 0.0000 0.0000 0.0000
# 4 0.0000 0.0000 0.0000 16.2724 0.0000 0.0000
# 5 0.0000 0.0000 0.0000 0.0000 36.1575 0.0000
# 6 0.0000 0.0000 0.0000 0.0000 0.0000 -195.3439
#
#
#
# Elastic Compliance Matrix: (Units=1/GPa)
#
#
# Indices 1 2 3 4 5 6 
#
# 1 0.014715 -0.003447 -0.008790 0.000000 0.000000 0.000000
# 2 -0.003447 0.022285 -0.005562 0.000000 0.000000 0.000000
# 3 -0.008790 -0.005562 0.016462 0.000000 0.000000 0.000000
# 4 0.000000 0.000000 0.000000 0.061454 0.000000 0.000000
# 5 0.000000 0.000000 0.000000 0.000000 0.027657 0.000000
# 6 0.000000 0.000000 0.000000 0.000000 0.000000 -0.005119
#
#
# Mechanical properties :
#
#
# Convention : Reuss Voigt Hill
#
# Bulk Modulus (GPa) = 55.97473 69.52852 62.75163
# Shear Modulus (GPa) = 27.93202 -19.05889 4.43656
#
# Velocity S-wave (km/s) = 3.73137 -3.08223 1.48710
# Velocity P-wave (km/s) = 6.81656 4.68941 5.85047
#
# Compressibility (1/GPa) = 0.01786520
#
# Stress axis : x y z
#
# Youngs Moduli (GPa) = 67.95617 44.87344 60.74505
#
# Poissons Ratio (x) = 0.15468 0.53392
# Poissons Ratio (y) = 0.23425 0.33786
# Poissons Ratio (z) = 0.59731 0.24959
#
# Static dielectric constant tensor:
#      x y z
#    x 3.758780 0.000000 0.000000 
#    y 0.000000 3.439420 0.000000 
#    z 0.000000 0.000000 3.815280 
# 
# 
# High freq. dielectric constant tensor:
#      x y z
#    x 1.789800 0.000000 0.000000 
#    y 0.000000 1.768630 0.000000 
#    z 0.000000 0.000000 1.773140 
# 
# From -- ./inp_files/12998.got.cif
#   From: 2010.03.12/outbox.cif.g09.slc.cpg/sg47_7_cif.got.tgz:12998.got - 2010.04.14 03:12:58.
