data_PCOD8200509
_publ_section_title
;
Structure prediction by ZEFSAII (Michael W. Deem and Ramdas Pophale) SiO2 
 PCOD8200509
Probable space group: P M M M
;
_chemical_formula_sum "Si O2"
_cell_formula_units_Z 40
_cell_length_a 15.590909
_cell_length_b 14.257267
_cell_length_c 8.832135
_cell_angle_alpha 90.000000
_cell_angle_beta 90.000000
_cell_angle_gamma 90.000000
_cell_volume 1963.240109
_symmetry_space_group_name_H-M "P M M M"
_symmetry_group_IT_number 47
_symmetry_cell_setting 'orthorhombic'
loop_
_space_group_symop_operation_xyz
x,y,z
-x,-y,z
x,-y,-z
-x,y,-z
-x,-y,-z
x,y,-z
-x,y,z
x,-y,z
loop_
_atom_site_type_symbol
_atom_site_label
_atom_site_fract_x
_atom_site_fract_y
_atom_site_fract_z
Si Si1 0.099728 0.605995 0.325484
Si Si2 0.600539 0.605941 0.173500
Si Si3 0.000000 0.105638 0.180071
Si Si4 0.659284 0.213064 0.322216
Si Si5 0.500000 0.110002 0.175939
Si Si6 0.166071 0.216453 0.178074
O O1 0.116629 0.632289 0.500000
O O2 0.130052 0.500000 0.292228
O O3 0.154012 0.674246 0.218639
O O4 0.000000 0.616578 0.285802
O O5 0.500000 0.624247 0.192989
O O6 0.623703 0.500000 0.222518
O O7 0.651105 0.677039 0.280993
O O8 0.627668 0.623765 0.000000
O O9 0.915384 0.158322 0.240314
O O10 0.000000 0.000000 0.243573
O O11 0.000000 0.106661 0.000000
O O12 0.655251 0.199612 0.500000
O O13 0.584495 0.152971 0.248430
O O14 0.749827 0.175328 0.259545
O O15 0.500000 0.000000 0.206155
O O16 0.500000 0.135666 0.000000
O O17 0.177831 0.204872 0.000000
#
# Coordination Sequence:
#
# PCOD8200509 Si02
#       6
#     8   8   4   8   4   8
#     4   9  18  34  57  85 121 163 202 246 305 367
#     4   9  18  35  61  90 122 162 206 251 297 352
#     4   9  20  40  64  89 116 148 195 253 306 355
#     4  12  25  40  62  94 129 164 201 249 305 366
#     4  11  25  47  72  93 118 157 203 254 310 365
#     4  11  22  38  62  91 121 159 205 252 302 360
#
# _framework density 20.374480999999999
#
# number of rings (size 3 to 8) (size 9 to 14) (size 15 to 20)
#    0.000    1.800    2.000    3.900    0.000    3.200 
#    0.000    4.000    0.000    4.200    0.000    0.000 
#    0.000    0.000    0.000    0.000    0.000    0.000 
#
# Total GULP energy -496138.664832 kJ/mol
# GULP energy per Si atom -12403.466621 kJ/mol
# Density = 2.032811 g / cm^3
# Si number density = 20.374481 Si / 1000 Ang^3
#
#
#
# Elastic Constant Matrix: (Units=GPa)
#
#
# Indices 1 2 3 4 5 6 
#
# 1 154.4971 68.8445 63.2114 0.0000 0.0000 0.0000
# 2 68.8445 107.5409 58.5083 0.0000 0.0000 0.0000
# 3 63.2114 58.5083 106.5333 0.0000 0.0000 0.0000
# 4 0.0000 0.0000 0.0000 8.1411 0.0000 0.0000
# 5 0.0000 0.0000 0.0000 0.0000 30.7810 0.0000
# 6 0.0000 0.0000 0.0000 0.0000 0.0000 8.5597
#
#
#
# Elastic Compliance Matrix: (Units=1/GPa)
#
#
# Indices 1 2 3 4 5 6 
#
# 1 0.009848 -0.004457 -0.003395 0.000000 0.000000 0.000000
# 2 -0.004457 0.015278 -0.005746 0.000000 0.000000 0.000000
# 3 -0.003395 -0.005746 0.014557 0.000000 0.000000 0.000000
# 4 0.000000 0.000000 0.000000 0.122834 0.000000 0.000000
# 5 0.000000 0.000000 0.000000 0.000000 0.032488 0.000000
# 6 0.000000 0.000000 0.000000 0.000000 0.000000 0.116826
#
#
# Mechanical properties :
#
#
# Convention : Reuss Voigt Hill
#
# Bulk Modulus (GPa) = 80.08979 83.29998 81.69488
# Shear Modulus (GPa) = 14.56917 21.36350 17.96634
#
# Velocity S-wave (km/s) = 2.67698 3.24163 2.97274
# Velocity P-wave (km/s) = 6.99637 7.41513 7.20879
#
# Compressibility (1/GPa) = 0.01248599
#
# Stress axis : x y z
#
# Youngs Moduli (GPa) = 101.54449 65.45194 68.69396
#
# Poissons Ratio (x) = 0.29172 0.23325
# Poissons Ratio (y) = 0.45259 0.39474
# Poissons Ratio (z) = 0.34479 0.37611
#
# Static dielectric constant tensor:
#      x y z
#    x 3.762730 0.000000 0.000000 
#    y 0.000000 3.757490 0.000000 
#    z 0.000000 0.000000 3.483800 
# 
# 
# High freq. dielectric constant tensor:
#      x y z
#    x 1.803540 0.000000 0.000000 
#    y 0.000000 1.794340 0.000000 
#    z 0.000000 0.000000 1.782260 
# 
# From -- ./inp_files/5705.got.cif
#   From: 2010.03.12/outbox.cif.g09.slc.cpg/sg47_3_cif.got.tgz:5705.got - 2010.04.14 03:12:58.
