data_PCOD8200120
_publ_section_title
;
Structure prediction by ZEFSAII (Michael W. Deem and Ramdas Pophale) SiO2 
 PCOD8200120
Probable space group: P M M M
;
_chemical_formula_sum "Si O2"
_cell_formula_units_Z 40
_cell_length_a 13.154880
_cell_length_b 17.366651
_cell_length_c 9.044841
_cell_angle_alpha 90.000000
_cell_angle_beta 90.000000
_cell_angle_gamma 90.000000
_cell_volume 2066.350094
_symmetry_space_group_name_H-M "P M M M"
_symmetry_group_IT_number 47
_symmetry_cell_setting 'orthorhombic'
loop_
_space_group_symop_operation_xyz
x,y,z
-x,-y,z
x,-y,-z
-x,y,-z
-x,-y,-z
x,y,-z
-x,y,z
x,-y,z
loop_
_atom_site_type_symbol
_atom_site_label
_atom_site_fract_x
_atom_site_fract_y
_atom_site_fract_z
Si Si1 0.389566 0.414193 0.674813
Si Si2 0.702532 0.088294 0.826580
Si Si3 0.885045 0.802662 0.171606
Si Si4 0.500000 0.908457 0.668013
Si Si5 0.116196 0.500000 0.838451
Si Si6 0.815066 0.349537 0.674704
O O1 0.395528 0.419583 0.500000
O O2 0.500000 0.388846 0.738342
O O3 0.360584 0.500000 0.735173
O O4 0.304824 0.351545 0.719974
O O5 0.803587 0.133699 0.775631
O O6 0.602502 0.122787 0.746175
O O7 0.720698 0.000000 0.780302
O O8 0.683240 0.096120 0.000000
O O9 0.868423 0.725233 0.261717
O O10 0.000000 0.833105 0.201217
O O11 0.869457 0.783574 0.000000
O O12 0.500000 0.878877 0.500000
O O13 0.500000 0.000000 0.679279
O O14 0.137108 0.574754 0.742004
O O15 0.000000 0.500000 0.876933
O O16 0.173090 0.500000 0.000000
O O17 0.831432 0.350551 0.500000
#
# Coordination Sequence:
#
# PCOD8200120 Si02
#       6
#     8   8   8   4   4   8
#     4   8  14  28  51  76 102 131 167 214 265 315
#     4   9  18  35  60  85 110 146 190 231 274 331
#     4  10  22  39  56  78 113 150 183 229 286 334
#     4   9  17  31  55  87 119 146 177 224 279 333
#     4  11  23  37  54  75 102 140 183 227 278 329
#     4  11  21  35  56  81 107 140 184 229 272 327
#
# _framework density 19.357804999999999
#
# number of rings (size 3 to 8) (size 9 to 14) (size 15 to 20)
#    0.000    2.400    1.000    2.400    0.000    6.000 
#    1.800    2.000    0.000    2.400    0.000    4.200 
#    0.000    0.000    0.000    0.000    0.000    0.000 
#
# Total GULP energy -495757.841916 kJ/mol
# GULP energy per Si atom -12393.946048 kJ/mol
# Density = 1.931375 g / cm^3
# Si number density = 19.357805 Si / 1000 Ang^3
#
#
#
# Elastic Constant Matrix: (Units=GPa)
#
#
# Indices 1 2 3 4 5 6 
#
# 1 161.2013 58.6007 53.1337 0.0000 0.0000 0.0000
# 2 58.6007 86.9526 41.9597 0.0000 0.0000 0.0000
# 3 53.1337 41.9597 68.7724 0.0000 0.0000 0.0000
# 4 0.0000 0.0000 0.0000 23.5030 0.0000 0.0000
# 5 0.0000 0.0000 0.0000 0.0000 23.1977 0.0000
# 6 0.0000 0.0000 0.0000 0.0000 0.0000 38.7021
#
#
#
# Elastic Compliance Matrix: (Units=1/GPa)
#
#
# Indices 1 2 3 4 5 6 
#
# 1 0.009176 -0.003916 -0.004700 0.000000 0.000000 0.000000
# 2 -0.003916 0.017971 -0.007939 0.000000 0.000000 0.000000
# 3 -0.004700 -0.007939 0.023016 0.000000 0.000000 0.000000
# 4 0.000000 0.000000 0.000000 0.042548 0.000000 0.000000
# 5 0.000000 0.000000 0.000000 0.000000 0.043108 0.000000
# 6 0.000000 0.000000 0.000000 0.000000 0.000000 0.025838
#
#
# Mechanical properties :
#
#
# Convention : Reuss Voigt Hill
#
# Bulk Modulus (GPa) = 58.64265 69.36828 64.00546
# Shear Modulus (GPa) = 24.94375 27.96271 26.45323
#
# Velocity S-wave (km/s) = 3.59355 3.80481 3.70069
# Velocity P-wave (km/s) = 6.89768 7.43066 7.16912
#
# Compressibility (1/GPa) = 0.01705244
#
# Stress axis : x y z
#
# Youngs Moduli (GPa) = 108.97641 55.64642 43.44838
#
# Poissons Ratio (x) = 0.21792 0.20422
# Poissons Ratio (y) = 0.42676 0.34493
# Poissons Ratio (z) = 0.51223 0.44176
#
# Static dielectric constant tensor:
#      x y z
#    x 4.099460 0.000000 0.000000 
#    y 0.000000 3.227050 0.000000 
#    z 0.000000 0.000000 3.384990 
# 
# 
# High freq. dielectric constant tensor:
#      x y z
#    x 1.773750 0.000000 0.000000 
#    y 0.000000 1.727930 0.000000 
#    z 0.000000 0.000000 1.736410 
# 
# From -- ./inp_files/5771.got.cif
#   From: 2010.03.12/outbox.cif.g09.slc.cpg/sg47_3_cif.got.tgz:5771.got - 2010.04.14 03:12:58.
