data_PCOD8200912
_publ_section_title
;
Structure prediction by ZEFSAII (Michael W. Deem and Ramdas Pophale) SiO2 
 PCOD8200912
Probable space group: P M M M
;
_chemical_formula_sum "Si O2"
_cell_formula_units_Z 44
_cell_length_a 9.525567
_cell_length_b 9.952603
_cell_length_c 28.077028
_cell_angle_alpha 90.000000
_cell_angle_beta 90.000000
_cell_angle_gamma 90.000000
_cell_volume 2661.819805
_symmetry_space_group_name_H-M "P M M M"
_symmetry_group_IT_number 47
_symmetry_cell_setting 'orthorhombic'
loop_
_space_group_symop_operation_xyz
x,y,z
-x,-y,z
x,-y,-z
-x,y,-z
-x,-y,-z
x,y,-z
-x,y,z
x,-y,z
loop_
_atom_site_type_symbol
_atom_site_label
_atom_site_fract_x
_atom_site_fract_y
_atom_site_fract_z
Si Si1 0.657679 0.160556 0.000000
Si Si2 0.332979 0.150180 0.447045
Si Si3 0.844540 0.159160 0.914248
Si Si4 0.336986 0.343720 0.261540
Si Si5 0.666729 0.648547 0.368883
Si Si6 0.834674 0.153823 0.807354
O O1 0.736003 0.217047 0.046954
O O2 0.500000 0.217683 0.000000
O O3 0.656865 0.000000 0.000000
O O4 0.285859 0.196617 0.500000
O O5 0.500000 0.151410 0.443879
O O6 0.267284 0.249087 0.407412
O O7 0.277173 0.000000 0.436801
O O8 0.794172 0.197282 0.861158
O O9 0.000000 0.218731 0.924317
O O10 0.853293 0.000000 0.918575
O O11 0.500000 0.310991 0.253217
O O12 0.306627 0.500000 0.251025
O O13 0.291842 0.307540 0.315532
O O14 0.245841 0.252032 0.227491
O O15 0.500000 0.645312 0.373024
O O16 0.726484 0.500000 0.379898
O O17 0.000000 0.169658 0.799332
O O18 0.788644 0.000000 0.797673
#
# Coordination Sequence:
#
# PCOD8200912 Si02
#       6
#     4   8   8   8   8   8
#     4   9  15  21  33  57  86 113 142 175 210 252
#     4   8  13  20  30  47  73 104 137 172 209 251
#     4   8  14  25  39  55  80 113 143 173 213 258
#     4   9  18  31  45  63  88 117 149 184 223 269
#     4   8  14  24  36  51  74 104 138 175 212 253
#     4   9  18  31  46  66  90 115 148 188 224 262
#
# _framework density 16.530044
#
# number of rings (size 3 to 8) (size 9 to 14) (size 15 to 20)
#    0.000    3.545    0.000    3.000    0.000    3.636 
#    0.000    5.455    0.000    0.000    0.000    0.636 
#    0.000    5.818    0.000    8.000    0.000   13.091 
#
# Total GULP energy -545270.027668 kJ/mol
# GULP energy per Si atom -12392.500629 kJ/mol
# Density = 1.649242 g / cm^3
# Si number density = 16.530044 Si / 1000 Ang^3
#
#
#
# Elastic Constant Matrix: (Units=GPa)
#
#
# Indices 1 2 3 4 5 6 
#
# 1 51.0825 35.6008 58.4159 0.0000 0.0000 0.0000
# 2 35.6008 71.9012 80.4301 0.0000 0.0000 0.0000
# 3 58.4159 80.4301 164.3916 0.0000 0.0000 0.0000
# 4 0.0000 0.0000 0.0000 2.7844 0.0000 0.0000
# 5 0.0000 0.0000 0.0000 0.0000 -0.1864 0.0000
# 6 0.0000 0.0000 0.0000 0.0000 0.0000 16.8122
#
#
#
# Elastic Compliance Matrix: (Units=1/GPa)
#
#
# Indices 1 2 3 4 5 6 
#
# 1 0.034710 -0.007486 -0.008671 0.000000 0.000000 0.000000
# 2 -0.007486 0.032336 -0.013161 0.000000 0.000000 0.000000
# 3 -0.008671 -0.013161 0.015603 0.000000 0.000000 0.000000
# 4 0.000000 0.000000 0.000000 0.359150 0.000000 0.000000
# 5 0.000000 0.000000 0.000000 0.000000 -5.363753 0.000000
# 6 0.000000 0.000000 0.000000 0.000000 0.000000 0.059481
#
#
# Mechanical properties :
#
#
# Convention : Reuss Voigt Hill
#
# Bulk Modulus (GPa) = 41.64380 70.69657 56.17018
# Shear Modulus (GPa) = -1.04257 11.41059 5.18401
#
# Velocity S-wave (km/s) = -0.79504 2.63019 1.77283
# Velocity P-wave (km/s) = 4.94011 7.21701 6.18425
#
# Compressibility (1/GPa) = 0.02401318
#
# Stress axis : x y z
#
# Youngs Moduli (GPa) = 28.81053 30.92481 64.08863
#
# Poissons Ratio (x) = 0.23150 0.55573
# Poissons Ratio (y) = 0.21568 0.84346
# Poissons Ratio (z) = 0.24982 0.40700
#
# Static dielectric constant tensor:
#      x y z
#    x 2.816880 0.000000 0.000000 
#    y 0.000000 3.019670 0.000000 
#    z 0.000000 0.000000 3.408890 
# 
# 
# High freq. dielectric constant tensor:
#      x y z
#    x 1.594850 0.000000 0.000000 
#    y 0.000000 1.606170 0.000000 
#    z 0.000000 0.000000 1.650150 
# 
# From -- ./inp_files/13621.got.cif
#   From: 2010.03.12/outbox.cif.g09.slc.cpg/sg47_7_cif.got.tgz:13621.got - 2010.04.14 03:12:58.
