data_PCOD8200917
_publ_section_title
;
Structure prediction by ZEFSAII (Michael W. Deem and Ramdas Pophale) SiO2 
 PCOD8200917
Probable space group: P M M M
;
_chemical_formula_sum "Si O2"
_cell_formula_units_Z 64
_cell_length_a 9.432227
_cell_length_b 21.554520
_cell_length_c 21.549561
_cell_angle_alpha 90.000000
_cell_angle_beta 90.000000
_cell_angle_gamma 90.000000
_cell_volume 4381.179303
_symmetry_space_group_name_H-M "P M M M"
_symmetry_group_IT_number 47
_symmetry_cell_setting 'orthorhombic'
loop_
_space_group_symop_operation_xyz
x,y,z
-x,-y,z
x,-y,-z
-x,y,-z
-x,-y,-z
x,y,-z
-x,y,z
x,-y,z
loop_
_atom_site_type_symbol
_atom_site_label
_atom_site_fract_x
_atom_site_fract_y
_atom_site_fract_z
Si Si1 0.340445 0.256739 0.152257
Si Si2 0.163712 0.828543 0.928948
Si Si3 0.830947 0.430616 0.332644
Si Si4 0.163720 0.928962 0.171550
Si Si5 0.157834 0.663300 0.232450
Si Si6 0.659556 0.152287 0.743202
Si Si7 0.842166 0.767485 0.663274
Si Si8 0.169052 0.667256 0.569399
O O1 0.500000 0.273832 0.132167
O O2 0.257048 0.229677 0.093206
O O3 0.263102 0.319192 0.176296
O O4 0.340372 0.206311 0.206325
O O5 0.201529 0.890117 0.890060
O O6 0.000000 0.810090 0.919712
O O7 0.199854 0.843501 0.000000
O O8 0.767396 0.500000 0.335075
O O9 0.784016 0.397744 0.268222
O O10 0.772630 0.391801 0.391740
O O11 0.000000 0.431643 0.335178
O O12 0.257037 0.906767 0.229772
O O13 0.000000 0.919736 0.189998
O O14 0.199915 0.000000 0.156634
O O15 0.149452 0.718899 0.281083
O O16 0.000000 0.651502 0.205319
O O17 0.500000 0.132212 0.726093
O O18 0.736895 0.176363 0.680750
O O19 0.784019 0.731683 0.602240
O O20 0.000000 0.794604 0.651459
O O21 0.232601 0.664784 0.500000
O O22 0.000000 0.664722 0.568372
#
# Coordination Sequence:
#
# PCOD8200917 Si02
#       8
#     8   8   8   8   8   8   8   8
#     4   9  16  25  38  55  73  94 123 160 198 230
#     4   9  17  28  41  57  78 104 131 156 182 215
#     4   8  13  20  31  50  76 105 135 164 193 226
#     4   9  17  28  41  57  78 104 131 156 182 215
#     4   8  13  22  36  52  71  96 125 158 196 233
#     4   9  16  25  38  55  73  94 123 160 198 230
#     4   8  13  22  36  52  71  96 125 158 196 233
#     4   8  13  20  31  50  76 105 135 164 193 226
#
# _framework density 14.607939
#
# number of rings (size 3 to 8) (size 9 to 14) (size 15 to 20)
#    0.000    3.500    0.000    2.250    0.000    4.000 
#    0.000    2.500    0.000    0.750    0.000    3.500 
#    0.000    1.000    0.000   21.250    0.000   14.250 
#
# Total GULP energy -793193.321887 kJ/mol
# GULP energy per Si atom -12393.645654 kJ/mol
# Density = 1.457469 g / cm^3
# Si number density = 14.607939 Si / 1000 Ang^3
#
#
#
# Elastic Constant Matrix: (Units=GPa)
#
#
# Indices 1 2 3 4 5 6 
#
# 1 68.2340 40.9796 40.9071 0.0000 0.0000 0.0000
# 2 40.9796 70.3589 66.0798 0.0000 0.0000 0.0000
# 3 40.9071 66.0798 70.1302 0.0000 0.0000 0.0000
# 4 0.0000 0.0000 0.0000 16.3594 0.0000 0.0000
# 5 0.0000 0.0000 0.0000 0.0000 8.4340 0.0000
# 6 0.0000 0.0000 0.0000 0.0000 0.0000 8.4333
#
#
#
# Elastic Compliance Matrix: (Units=1/GPa)
#
#
# Indices 1 2 3 4 5 6 
#
# 1 0.022915 -0.006893 -0.006872 0.000000 0.000000 0.000000
# 2 -0.006893 0.125598 -0.114324 0.000000 0.000000 0.000000
# 3 -0.006872 -0.114324 0.125988 0.000000 0.000000 0.000000
# 4 0.000000 0.000000 0.000000 0.061127 0.000000 0.000000
# 5 0.000000 0.000000 0.000000 0.000000 0.118568 0.000000
# 6 0.000000 0.000000 0.000000 0.000000 0.000000 0.118577
#
#
# Mechanical properties :
#
#
# Convention : Reuss Voigt Hill
#
# Bulk Modulus (GPa) = 54.56966 56.07291 55.32129
# Shear Modulus (GPa) = 5.98762 10.69577 8.34169
#
# Velocity S-wave (km/s) = 2.02676 2.70883 2.39223
# Velocity P-wave (km/s) = 6.55090 6.94639 6.75154
#
# Compressibility (1/GPa) = 0.01832520
#
# Stress axis : x y z
#
# Youngs Moduli (GPa) = 43.64034 7.96192 7.93725
#
# Poissons Ratio (x) = 0.05488 0.05454
# Poissons Ratio (y) = 0.30080 0.90741
# Poissons Ratio (z) = 0.29988 0.91023
#
# Static dielectric constant tensor:
#      x y z
#    x 2.828350 0.000000 0.000000 
#    y 0.000000 2.800340 0.000000 
#    z 0.000000 0.000000 2.799900 
# 
# 
# High freq. dielectric constant tensor:
#      x y z
#    x 1.540120 0.000000 0.000000 
#    y 0.000000 1.532060 0.000000 
#    z 0.000000 0.000000 1.532010 
# 
# From -- ./inp_files/30198.got.cif
#   From: 2010.03.12/outbox.cif.g09.slc.cpg/sg47_16_cif.got.tgz:30198.got - 2010.04.14 03:12:58.
