data_PCOD8200537
_publ_section_title
;
Structure prediction by ZEFSAII (Michael W. Deem and Ramdas Pophale) SiO2 
 PCOD8200537
Probable space group: P M M M
;
_chemical_formula_sum "Si O2"
_cell_formula_units_Z 40
_cell_length_a 20.683022
_cell_length_b 9.096188
_cell_length_c 13.990175
_cell_angle_alpha 90.000000
_cell_angle_beta 90.000000
_cell_angle_gamma 90.000000
_cell_volume 2632.064749
_symmetry_space_group_name_H-M "P M M M"
_symmetry_group_IT_number 47
_symmetry_cell_setting 'orthorhombic'
loop_
_space_group_symop_operation_xyz
x,y,z
-x,-y,z
x,-y,-z
-x,y,-z
-x,-y,-z
x,y,-z
-x,y,z
x,-y,z
loop_
_atom_site_type_symbol
_atom_site_label
_atom_site_fract_x
_atom_site_fract_y
_atom_site_fract_z
Si Si1 0.381047 0.674136 0.287699
Si Si2 0.121936 0.837808 0.613360
Si Si3 0.575458 0.831721 0.108757
Si Si4 0.000000 0.663348 0.614243
Si Si5 0.733660 0.171684 0.611465
Si Si6 0.500000 0.169288 0.613160
O O1 0.388701 0.500000 0.295539
O O2 0.384797 0.723752 0.177339
O O3 0.312245 0.723854 0.327776
O O4 0.436479 0.751889 0.348638
O O5 0.116640 0.844445 0.500000
O O6 0.193446 0.780876 0.640678
O O7 0.065030 0.737243 0.655883
O O8 0.111473 0.000000 0.656012
O O9 0.500000 0.813691 0.132091
O O10 0.596672 0.000000 0.126189
O O11 0.590123 0.785257 0.000000
O O12 0.000000 0.500000 0.654153
O O13 0.000000 0.668750 0.500000
O O14 0.720932 0.200671 0.500000
O O15 0.721486 0.000000 0.634806
O O16 0.500000 0.179681 0.500000
O O17 0.500000 0.000000 0.647804
#
# Coordination Sequence:
#
# PCOD8200537 Si02
#       6
#     8   8   8   4   8   4
#     4  12  23  32  46  69  92 113 138 178 228 270
#     4   8  14  25  40  56  75 105 147 186 214 246
#     4   9  18  34  55  72  85 107 140 176 215 264
#     4   9  15  21  33  55  81 107 136 175 222 261
#     4   9  18  32  47  61  82 118 158 188 216 255
#     4  11  23  37  50  61  80 115 155 188 214 249
#
# _framework density 15.197194
#
# number of rings (size 3 to 8) (size 9 to 14) (size 15 to 20)
#    0.000    2.400    1.000    4.800    0.000    6.000 
#    0.000    3.000    0.000    0.000    0.000    0.000 
#    0.000    0.000    0.000    0.900    0.000   17.500 
#
# Total GULP energy -495898.802093 kJ/mol
# GULP energy per Si atom -12397.470052 kJ/mol
# Density = 1.516260 g / cm^3
# Si number density = 15.197194 Si / 1000 Ang^3
#
#
#
# Elastic Constant Matrix: (Units=GPa)
#
#
# Indices 1 2 3 4 5 6 
#
# 1 119.3790 68.9123 37.6944 0.0000 0.0000 0.0000
# 2 68.9123 117.2032 42.9468 0.0000 0.0000 0.0000
# 3 37.6944 42.9468 57.1968 0.0000 0.0000 0.0000
# 4 0.0000 0.0000 0.0000 14.8238 0.0000 0.0000
# 5 0.0000 0.0000 0.0000 0.0000 3.4435 0.0000
# 6 0.0000 0.0000 0.0000 0.0000 0.0000 13.3094
#
#
#
# Elastic Compliance Matrix: (Units=1/GPa)
#
#
# Indices 1 2 3 4 5 6 
#
# 1 0.013311 -0.006363 -0.003995 0.000000 0.000000 0.000000
# 2 -0.006363 0.014812 -0.006929 0.000000 0.000000 0.000000
# 3 -0.003995 -0.006929 0.025319 0.000000 0.000000 0.000000
# 4 0.000000 0.000000 0.000000 0.067459 0.000000 0.000000
# 5 0.000000 0.000000 0.000000 0.000000 0.290405 0.000000
# 6 0.000000 0.000000 0.000000 0.000000 0.000000 0.075135
#
#
# Mechanical properties :
#
#
# Convention : Reuss Voigt Hill
#
# Bulk Modulus (GPa) = 52.99578 65.87623 59.43600
# Shear Modulus (GPa) = 9.48222 15.93037 12.70630
#
# Velocity S-wave (km/s) = 2.50060 3.24117 2.89467
# Velocity P-wave (km/s) = 6.57914 7.57949 7.09696
#
# Compressibility (1/GPa) = 0.01886943
#
# Stress axis : x y z
#
# Youngs Moduli (GPa) = 75.12611 67.51237 39.49655
#
# Poissons Ratio (x) = 0.42956 0.15778
# Poissons Ratio (y) = 0.47800 0.27366
# Poissons Ratio (z) = 0.30012 0.46777
#
# Static dielectric constant tensor:
#      x y z
#    x 3.026110 0.000000 0.000000 
#    y 0.000000 2.990040 0.000000 
#    z 0.000000 0.000000 2.647600 
# 
# 
# High freq. dielectric constant tensor:
#      x y z
#    x 1.580330 0.000000 0.000000 
#    y 0.000000 1.585530 0.000000 
#    z 0.000000 0.000000 1.536910 
# 
# From -- ./inp_files/24839.got.cif
#   From: 2010.03.12/outbox.cif.g09.slc.cpg/sg47_13_cif.got.tgz:24839.got - 2010.04.14 03:12:58.
