data_PCOD8200872
_publ_section_title
;
Structure prediction by ZEFSAII (Michael W. Deem and Ramdas Pophale) SiO2 
 PCOD8200872
Probable space group: P M M M
;
_chemical_formula_sum "Si O2"
_cell_formula_units_Z 40
_cell_length_a 9.962728
_cell_length_b 20.190564
_cell_length_c 15.269783
_cell_angle_alpha 90.000000
_cell_angle_beta 90.000000
_cell_angle_gamma 90.000000
_cell_volume 3071.564146
_symmetry_space_group_name_H-M "P M M M"
_symmetry_group_IT_number 47
_symmetry_cell_setting 'orthorhombic'
loop_
_space_group_symop_operation_xyz
x,y,z
-x,-y,z
x,-y,-z
-x,y,-z
-x,-y,-z
x,y,-z
-x,y,z
x,-y,z
loop_
_atom_site_type_symbol
_atom_site_label
_atom_site_fract_x
_atom_site_fract_y
_atom_site_fract_z
Si Si1 0.155987 0.077386 0.748619
Si Si2 0.650152 0.921390 0.597237
Si Si3 0.840687 0.170398 0.096762
Si Si4 0.650098 0.573803 0.104164
Si Si5 0.149279 0.683060 0.104039
O O1 0.241013 0.105149 0.666574
O O2 0.209144 0.115518 0.834587
O O3 0.000000 0.092127 0.729369
O O4 0.181215 0.000000 0.765393
O O5 0.686449 0.894498 0.500000
O O6 0.500000 0.897827 0.623674
O O7 0.655304 0.000000 0.595788
O O8 0.795538 0.243709 0.128438
O O9 0.000000 0.169889 0.090237
O O10 0.781025 0.154087 0.000000
O O11 0.500000 0.589058 0.138555
O O12 0.694514 0.500000 0.133880
O O13 0.751856 0.627763 0.144856
O O14 0.651640 0.578105 0.000000
O O15 0.000000 0.671497 0.142937
O O16 0.143056 0.676864 0.000000
#
# Coordination Sequence:
#
# PCOD8200872 Si02
#       5
#     8   8   8   8   8
#     4   9  16  24  36  54  70  85 111 146 177 203
#     4   8  14  25  39  52  67  87 106 127 165 215
#     4   8  14  24  35  47  66  91 117 145 175 202
#     4   8  13  20  29  42  60  78  96 126 168 203
#     4   8  13  21  32  43  56  79 110 138 161 190
#
# _framework density 13.022681
#
# number of rings (size 3 to 8) (size 9 to 14) (size 15 to 20)
#    0.000    3.800    0.000    2.400    0.000    1.200 
#    0.000    7.000    0.000    1.800    0.000    2.800 
#    0.000    0.000    0.000    0.000    0.000    1.000 
#
# Total GULP energy -495592.703869 kJ/mol
# GULP energy per Si atom -12389.817597 kJ/mol
# Density = 1.299304 g / cm^3
# Si number density = 13.022681 Si / 1000 Ang^3
#
#
#
# Elastic Constant Matrix: (Units=GPa)
#
#
# Indices 1 2 3 4 5 6 
#
# 1 61.1365 41.0550 38.7661 0.0000 0.0000 0.0000
# 2 41.0550 68.6326 38.2469 0.0000 0.0000 0.0000
# 3 38.7661 38.2469 64.7476 0.0000 0.0000 0.0000
# 4 0.0000 0.0000 0.0000 0.8447 0.0000 0.0000
# 5 0.0000 0.0000 0.0000 0.0000 11.5211 0.0000
# 6 0.0000 0.0000 0.0000 0.0000 0.0000 12.2019
#
#
#
# Elastic Compliance Matrix: (Units=1/GPa)
#
#
# Indices 1 2 3 4 5 6 
#
# 1 0.032503 -0.012817 -0.011889 0.000000 0.000000 0.000000
# 2 -0.012817 0.026775 -0.008142 0.000000 0.000000 0.000000
# 3 -0.011889 -0.008142 0.027372 0.000000 0.000000 0.000000
# 4 0.000000 0.000000 0.000000 1.183785 0.000000 0.000000
# 5 0.000000 0.000000 0.000000 0.000000 0.086798 0.000000
# 6 0.000000 0.000000 0.000000 0.000000 0.000000 0.081954
#
#
# Mechanical properties :
#
#
# Convention : Reuss Voigt Hill
#
# Bulk Modulus (GPa) = 47.72512 47.85031 47.78772
# Shear Modulus (GPa) = 3.30717 10.01012 6.65864
#
# Velocity S-wave (km/s) = 1.59532 2.77549 2.26367
# Velocity P-wave (km/s) = 6.33409 6.86256 6.60361
#
# Compressibility (1/GPa) = 0.02095332
#
# Stress axis : x y z
#
# Youngs Moduli (GPa) = 30.76663 37.34867 36.53318
#
# Poissons Ratio (x) = 0.47871 0.43434
# Poissons Ratio (y) = 0.39434 0.29745
# Poissons Ratio (z) = 0.36578 0.30409
#
# Static dielectric constant tensor:
#      x y z
#    x 2.732790 0.000000 0.000000 
#    y 0.000000 2.681410 0.000000 
#    z 0.000000 0.000000 2.542160 
# 
# 
# High freq. dielectric constant tensor:
#      x y z
#    x 1.487230 0.000000 0.000000 
#    y 0.000000 1.478710 0.000000 
#    z 0.000000 0.000000 1.447520 
# 
# From -- ./inp_files/6619.got.cif
#   From: 2010.03.12/outbox.cif.g09.slc.cpg/sg47_4_cif.got.tgz:6619.got - 2010.04.14 03:12:58.
