data_PCOD8200055
_publ_section_title
;
Structure prediction by ZEFSAII (Michael W. Deem and Ramdas Pophale) SiO2 
 PCOD8200055
Probable space group: P M M M
;
_chemical_formula_sum "Si O2"
_cell_formula_units_Z 48
_cell_length_a 28.746980
_cell_length_b 8.779131
_cell_length_c 9.566220
_cell_angle_alpha 90.000000
_cell_angle_beta 90.000000
_cell_angle_gamma 90.000000
_cell_volume 2414.260454
_symmetry_space_group_name_H-M "P M M M"
_symmetry_group_IT_number 47
_symmetry_cell_setting 'orthorhombic'
loop_
_space_group_symop_operation_xyz
x,y,z
-x,-y,z
x,-y,-z
-x,y,-z
-x,-y,-z
x,y,-z
-x,y,z
x,-y,z
loop_
_atom_site_type_symbol
_atom_site_label
_atom_site_fract_x
_atom_site_fract_y
_atom_site_fract_z
Si Si1 0.447479 0.321144 0.000000
Si Si2 0.301753 0.676516 0.661681
Si Si3 0.054120 0.676578 0.158655
Si Si4 0.130512 0.820554 0.340009
Si Si5 0.787295 0.320266 0.160685
Si Si6 0.553919 0.330726 0.500000
Si Si7 0.397226 0.821803 0.254324
O O1 0.415409 0.271711 0.874563
O O2 0.453383 0.500000 0.000000
O O3 0.500000 0.248969 0.000000
O O4 0.288418 0.706721 0.500000
O O5 0.314133 0.500000 0.686056
O O6 0.259675 0.729125 0.760551
O O7 0.345030 0.779036 0.704705
O O8 0.065946 0.500000 0.182620
O O9 0.081338 0.775613 0.272303
O O10 0.000000 0.708702 0.182788
O O11 0.068265 0.722672 0.000000
O O12 0.133537 0.759071 0.500000
O O13 0.170295 0.751109 0.243814
O O14 0.135769 0.000000 0.339307
O O15 0.793660 0.500000 0.164431
O O16 0.785940 0.261614 0.000000
O O17 0.578379 0.500000 0.500000
O O18 0.500000 0.360522 0.500000
O O19 0.567333 0.226820 0.372092
O O20 0.400094 0.000000 0.224241
#
# Coordination Sequence:
#
# PCOD8200055 Si02
#       7
#     4   8   8   8   8   4   8
#     4  11  25  45  67  89 119 163 209 251 298 361
#     4  10  21  39  63  89 121 161 202 243 293 361
#     4   9  19  37  61  88 118 155 202 255 306 360
#     4  11  24  39  56  84 123 164 203 249 304 361
#     4  10  22  40  64  93 119 152 201 253 301 355
#     4  11  23  41  65  91 121 163 211 249 292 359
#     4  12  25  40  62  94 128 160 197 251 311 361
#
# _framework density 19.881865999999999
#
# number of rings (size 3 to 8) (size 9 to 14) (size 15 to 20)
#    0.000    1.500    0.833    4.500    1.167    9.333 
#    0.000    2.500    0.000    0.000    0.000    0.000 
#    0.000    0.000    0.000    0.000    0.000    0.000 
#
# Total GULP energy -595196.215434 kJ/mol
# GULP energy per Si atom -12399.921155 kJ/mol
# Density = 1.983661 g / cm^3
# Si number density = 19.881866 Si / 1000 Ang^3
#
#
#
# Elastic Constant Matrix: (Units=GPa)
#
#
# Indices 1 2 3 4 5 6 
#
# 1 103.4223 29.5380 63.1917 0.0000 0.0000 0.0000
# 2 29.5380 49.0310 29.4471 0.0000 0.0000 0.0000
# 3 63.1917 29.4471 168.8779 0.0000 0.0000 0.0000
# 4 0.0000 0.0000 0.0000 75.1031 0.0000 0.0000
# 5 0.0000 0.0000 0.0000 0.0000 40.2539 0.0000
# 6 0.0000 0.0000 0.0000 0.0000 0.0000 -6.2225
#
#
#
# Elastic Compliance Matrix: (Units=1/GPa)
#
#
# Indices 1 2 3 4 5 6 
#
# 1 0.013896 -0.005863 -0.004177 0.000000 0.000000 0.000000
# 2 -0.005863 0.025254 -0.002210 0.000000 0.000000 0.000000
# 3 -0.004177 -0.002210 0.007870 0.000000 0.000000 0.000000
# 4 0.000000 0.000000 0.000000 0.013315 0.000000 0.000000
# 5 0.000000 0.000000 0.000000 0.000000 0.024842 0.000000
# 6 0.000000 0.000000 0.000000 0.000000 0.000000 -0.160708
#
#
# Mechanical properties :
#
#
# Convention : Reuss Voigt Hill
#
# Bulk Modulus (GPa) = 44.40408 62.85386 53.62897
# Shear Modulus (GPa) = -114.87795 35.10387 -39.88704
#
# Velocity S-wave (km/s) = -7.60958 4.20649 -4.48392
# Velocity P-wave (km/s) = 7.40440 7.43472 0.47428
#
# Compressibility (1/GPa) = 0.02252045
#
# Stress axis : x y z
#
# Youngs Moduli (GPa) = 71.96375 39.59724 127.06637
#
# Poissons Ratio (x) = 0.23214 0.53081
# Poissons Ratio (y) = 0.42189 0.28080
# Poissons Ratio (z) = 0.30062 0.08751
#
# Static dielectric constant tensor:
#      x y z
#    x 3.634380 0.000000 0.000000 
#    y 0.000000 3.563740 0.000000 
#    z 0.000000 0.000000 3.954540 
# 
# 
# High freq. dielectric constant tensor:
#      x y z
#    x 1.786970 0.000000 0.000000 
#    y 0.000000 1.768430 0.000000 
#    z 0.000000 0.000000 1.791840 
# 
# From -- ./inp_files/14002.got.cif
#   From: 2010.03.12/outbox.cif.g09.slc.cpg/sg47_8_cif.got.tgz:14002.got - 2010.04.14 03:12:58.
