data_PCOD8200392
_publ_section_title
;
Structure prediction by ZEFSAII (Michael W. Deem and Ramdas Pophale) SiO2 
 PCOD8200392
Probable space group: P M M M
;
_chemical_formula_sum "Si O2"
_cell_formula_units_Z 52
_cell_length_a 27.880319
_cell_length_b 11.759592
_cell_length_c 8.749849
_cell_angle_alpha 90.000000
_cell_angle_beta 90.000000
_cell_angle_gamma 90.000000
_cell_volume 2868.735785
_symmetry_space_group_name_H-M "P M M M"
_symmetry_group_IT_number 47
_symmetry_cell_setting 'orthorhombic'
loop_
_space_group_symop_operation_xyz
x,y,z
-x,-y,z
x,-y,-z
-x,y,-z
-x,-y,-z
x,y,-z
-x,y,z
x,-y,z
loop_
_atom_site_type_symbol
_atom_site_label
_atom_site_fract_x
_atom_site_fract_y
_atom_site_fract_z
Si Si1 0.144665 0.221094 0.320007
Si Si2 0.221645 0.630693 0.820144
Si Si3 0.054149 0.130569 0.821426
Si Si4 0.699219 0.000000 0.828316
Si Si5 0.500000 0.634542 0.831915
Si Si6 0.396162 0.633514 0.178529
Si Si7 0.310203 0.236225 0.320852
Si Si8 0.812319 0.000000 0.171866
O O1 0.147316 0.227865 0.500000
O O2 0.170812 0.331465 0.250954
O O3 0.089205 0.216168 0.267604
O O4 0.171758 0.110348 0.261922
O O5 0.231157 0.500000 0.775829
O O6 0.264503 0.707606 0.758883
O O7 0.218784 0.648489 0.000000
O O8 0.000000 0.152207 0.763804
O O9 0.069223 0.000000 0.787077
O O10 0.057849 0.155838 0.000000
O O11 0.680654 0.890283 0.738855
O O12 0.755908 0.000000 0.835798
O O13 0.677928 0.000000 0.000000
O O14 0.500000 0.500000 0.848119
O O15 0.550812 0.670461 0.755434
O O16 0.500000 0.688852 0.000000
O O17 0.388167 0.500000 0.196802
O O18 0.357665 0.693833 0.283894
O O19 0.390375 0.667586 0.000000
O O20 0.300350 0.234823 0.500000
O O21 0.834384 0.000000 0.000000
#
# Coordination Sequence:
#
# PCOD8200392 Si02
#       8
#     8   8   8   4   4   8   8   4
#     4  12  23  34  55  84 114 143 173 220 278 324
#     4  11  24  41  59  78 104 144 189 224 259 313
#     4   9  18  33  54  79 109 146 183 219 261 314
#     4  11  23  39  59  77 102 144 188 224 261 315
#     4   7  12  26  51  80 105 136 183 231 265 303
#     4   9  17  32  55  81 110 145 185 225 266 316
#     4  12  24  36  54  81 114 144 175 221 276 325
#     4  11  21  35  56  78 105 143 186 221 258 317
#
# _framework density 18.126450999999999
#
# number of rings (size 3 to 8) (size 9 to 14) (size 15 to 20)
#    0.000    1.615    2.308    5.538    0.000    4.308 
#    0.000    1.154    0.000    2.308    0.000    6.462 
#    0.000    0.000    0.000    0.000    0.000    0.000 
#
# Total GULP energy -644698.563422 kJ/mol
# GULP energy per Si atom -12398.049297 kJ/mol
# Density = 1.808519 g / cm^3
# Si number density = 18.126451 Si / 1000 Ang^3
#
#
#
# Elastic Constant Matrix: (Units=GPa)
#
#
# Indices 1 2 3 4 5 6 
#
# 1 108.3782 34.3089 35.3638 0.0000 0.0000 0.0000
# 2 34.3089 72.8577 41.6277 0.0000 0.0000 0.0000
# 3 35.3638 41.6277 98.2408 0.0000 0.0000 0.0000
# 4 0.0000 0.0000 0.0000 23.4258 0.0000 0.0000
# 5 0.0000 0.0000 0.0000 0.0000 6.3230 0.0000
# 6 0.0000 0.0000 0.0000 0.0000 0.0000 23.1935
#
#
#
# Elastic Compliance Matrix: (Units=1/GPa)
#
#
# Indices 1 2 3 4 5 6 
#
# 1 0.011250 -0.003937 -0.002382 0.000000 0.000000 0.000000
# 2 -0.003937 0.019488 -0.006840 0.000000 0.000000 0.000000
# 3 -0.002382 -0.006840 0.013935 0.000000 0.000000 0.000000
# 4 0.000000 0.000000 0.000000 0.042688 0.000000 0.000000
# 5 0.000000 0.000000 0.000000 0.000000 0.158152 0.000000
# 6 0.000000 0.000000 0.000000 0.000000 0.000000 0.043116
#
#
# Mechanical properties :
#
#
# Convention : Reuss Voigt Hill
#
# Bulk Modulus (GPa) = 54.48122 55.78640 55.13381
# Shear Modulus (GPa) = 15.57321 21.80021 18.68671
#
# Velocity S-wave (km/s) = 2.93429 3.47172 3.21426
# Velocity P-wave (km/s) = 6.44993 6.84934 6.65263
#
# Compressibility (1/GPa) = 0.01835495
#
# Stress axis : x y z
#
# Youngs Moduli (GPa) = 88.88570 51.31459 71.76292
#
# Poissons Ratio (x) = 0.20203 0.17090
# Poissons Ratio (y) = 0.34996 0.49088
# Poissons Ratio (z) = 0.21168 0.35100
#
# Static dielectric constant tensor:
#      x y z
#    x 3.659180 0.000000 0.000000 
#    y 0.000000 3.268860 0.000000 
#    z 0.000000 0.000000 3.296400 
# 
# 
# High freq. dielectric constant tensor:
#      x y z
#    x 1.713430 0.000000 0.000000 
#    y 0.000000 1.676570 0.000000 
#    z 0.000000 0.000000 1.698170 
# 
# From -- ./inp_files/13311.got.cif
#   From: 2010.03.12/outbox.cif.g09.slc.cpg/sg47_7_cif.got.tgz:13311.got - 2010.04.14 03:12:58.
