data_PCOD8200535
_publ_section_title
;
Structure prediction by ZEFSAII (Michael W. Deem and Ramdas Pophale) SiO2 
 PCOD8200535
Probable space group: P M M M
;
_chemical_formula_sum "Si O2"
_cell_formula_units_Z 56
_cell_length_a 15.207793
_cell_length_b 20.387085
_cell_length_c 9.051203
_cell_angle_alpha 90.000000
_cell_angle_beta 90.000000
_cell_angle_gamma 90.000000
_cell_volume 2806.258227
_symmetry_space_group_name_H-M "P M M M"
_symmetry_group_IT_number 47
_symmetry_cell_setting 'orthorhombic'
loop_
_space_group_symop_operation_xyz
x,y,z
-x,-y,z
x,-y,-z
-x,y,-z
-x,-y,-z
x,y,-z
-x,y,z
x,-y,z
loop_
_atom_site_type_symbol
_atom_site_label
_atom_site_fract_x
_atom_site_fract_y
_atom_site_fract_z
Si Si1 0.400650 0.670618 0.169184
Si Si2 0.266683 0.574401 0.670236
Si Si3 0.138231 0.751000 0.334445
Si Si4 0.719161 0.928853 0.675621
Si Si5 0.661606 0.790601 0.667362
Si Si6 0.093328 0.104762 0.673924
Si Si7 0.099115 0.622205 0.171803
O O1 0.500000 0.644025 0.184519
O O2 0.336387 0.622003 0.254306
O O3 0.399494 0.744794 0.232495
O O4 0.370132 0.672843 0.000000
O O5 0.260255 0.595291 0.500000
O O6 0.300072 0.500000 0.688701
O O7 0.169471 0.579383 0.738805
O O8 0.110820 0.729308 0.500000
O O9 0.242463 0.759267 0.327055
O O10 0.092107 0.818314 0.290001
O O11 0.106228 0.697834 0.217867
O O12 0.725680 0.920422 0.500000
O O13 0.663284 0.865941 0.732165
O O14 0.818912 0.928074 0.742271
O O15 0.676786 0.000000 0.718319
O O16 0.624969 0.790919 0.500000
O O17 0.096455 0.093064 0.500000
O O18 0.000000 0.075765 0.735922
O O19 0.000000 0.596591 0.204009
O O20 0.121610 0.616032 0.000000
#
# Coordination Sequence:
#
# PCOD8200535 Si02
#       7
#     8   8   8   8   8   8   8
#     4  11  24  41  64  93 120 147 182 229 289 353
#     4  11  25  44  65  89 118 153 192 234 281 335
#     4   9  16  28  48  73 103 143 191 240 287 333
#     4   8  14  24  40  67 104 145 189 236 285 336
#     4   9  17  31  54  82 111 147 190 235 285 338
#     4   8  13  20  33  59  96 138 184 233 283 331
#     4  11  23  36  54  83 118 157 199 240 284 333
#
# _framework density 19.955397999999999
#
# number of rings (size 3 to 8) (size 9 to 14) (size 15 to 20)
#    0.000    2.429    1.429    3.429    0.000    4.857 
#    0.000    4.286    0.000    0.857    0.000    3.000 
#    0.000    0.000    0.000   15.143    0.000   11.429 
#
# Total GULP energy -693916.089827 kJ/mol
# GULP energy per Si atom -12391.358747 kJ/mol
# Density = 1.990998 g / cm^3
# Si number density = 19.955398 Si / 1000 Ang^3
#
#
#
# Elastic Constant Matrix: (Units=GPa)
#
#
# Indices 1 2 3 4 5 6 
#
# 1 74.6011 39.0487 40.6025 0.0000 0.0000 0.0000
# 2 39.0487 118.2641 48.3581 0.0000 0.0000 0.0000
# 3 40.6025 48.3581 93.5373 0.0000 0.0000 0.0000
# 4 0.0000 0.0000 0.0000 0.1504 0.0000 0.0000
# 5 0.0000 0.0000 0.0000 0.0000 19.8445 0.0000
# 6 0.0000 0.0000 0.0000 0.0000 0.0000 3.1341
#
#
#
# Elastic Compliance Matrix: (Units=1/GPa)
#
#
# Indices 1 2 3 4 5 6 
#
# 1 0.018699 -0.003620 -0.006245 0.000000 0.000000 0.000000
# 2 -0.003620 0.011423 -0.004334 0.000000 0.000000 0.000000
# 3 -0.006245 -0.004334 0.015642 0.000000 0.000000 0.000000
# 4 0.000000 0.000000 0.000000 6.649562 0.000000 0.000000
# 5 0.000000 0.000000 0.000000 0.000000 0.050392 0.000000
# 6 0.000000 0.000000 0.000000 0.000000 0.000000 0.319067
#
#
# Mechanical properties :
#
#
# Convention : Reuss Voigt Hill
#
# Bulk Modulus (GPa) = 57.58632 60.26903 58.92768
# Shear Modulus (GPa) = 0.70433 15.18535 7.94484
#
# Velocity S-wave (km/s) = 0.59474 2.76155 1.99748
# Velocity P-wave (km/s) = 5.42142 6.35890 5.90878
#
# Compressibility (1/GPa) = 0.01736524
#
# Stress axis : x y z
#
# Youngs Moduli (GPa) = 53.48011 87.54033 63.92847
#
# Poissons Ratio (x) = 0.31693 0.39923
# Poissons Ratio (y) = 0.19362 0.27708
# Poissons Ratio (z) = 0.33398 0.37942
#
# Static dielectric constant tensor:
#      x y z
#    x 4.176310 0.000000 0.000000 
#    y 0.000000 3.764820 0.000000 
#    z 0.000000 0.000000 3.318410 
# 
# 
# High freq. dielectric constant tensor:
#      x y z
#    x 1.768190 0.000000 0.000000 
#    y 0.000000 1.783030 0.000000 
#    z 0.000000 0.000000 1.735650 
# 
# From -- ./inp_files/7280.got.cif
#   From: 2010.03.12/outbox.cif.g09.slc.cpg/sg47_4_cif.got.tgz:7280.got - 2010.04.14 03:12:58.
