data_PCOD8200761
_publ_section_title
;
Structure prediction by ZEFSAII (Michael W. Deem and Ramdas Pophale) SiO2 
 PCOD8200761
Probable space group: P M M M
;
_chemical_formula_sum "Si O2"
_cell_formula_units_Z 44
_cell_length_a 13.940612
_cell_length_b 7.559782
_cell_length_c 23.500114
_cell_angle_alpha 90.000000
_cell_angle_beta 90.000000
_cell_angle_gamma 90.000000
_cell_volume 2476.629724
_symmetry_space_group_name_H-M "P M M M"
_symmetry_group_IT_number 47
_symmetry_cell_setting 'orthorhombic'
loop_
_space_group_symop_operation_xyz
x,y,z
-x,-y,z
x,-y,-z
-x,y,-z
-x,-y,-z
x,y,-z
-x,y,z
x,-y,z
loop_
_atom_site_type_symbol
_atom_site_label
_atom_site_fract_x
_atom_site_fract_y
_atom_site_fract_z
Si Si1 0.886810 0.000000 0.562972
Si Si2 0.605925 0.710627 0.173498
Si Si3 0.710429 0.710369 0.937537
Si Si4 0.790611 0.709718 0.763984
Si Si5 0.112348 0.704442 0.649462
Si Si6 0.894757 0.289619 0.125104
O O1 0.854733 0.177547 0.595969
O O2 0.839533 0.000000 0.500000
O O3 0.000000 0.000000 0.556847
O O4 0.500000 0.786088 0.187722
O O5 0.604702 0.500000 0.172294
O O6 0.637493 0.780541 0.110848
O O7 0.682016 0.775428 0.221426
O O8 0.707011 0.500000 0.938582
O O9 0.818418 0.773893 0.922151
O O10 0.682987 0.786422 0.000000
O O11 0.793807 0.500000 0.763563
O O12 0.826768 0.778118 0.703013
O O13 0.861469 0.780785 0.813032
O O14 0.135415 0.500000 0.635379
O O15 0.000000 0.729437 0.663380
O O16 0.898239 0.500000 0.126508
O O17 0.000000 0.211531 0.110940
#
# Coordination Sequence:
#
# PCOD8200761 Si02
#       6
#     4   8   8   8   8   8
#     4   9  18  30  42  62  93 123 150 175 197 231
#     4   8  13  20  29  42  63  91 123 166 216 257
#     4   8  13  18  22  32  53  85 127 167 203 251
#     4   8  13  21  33  50  70  93 129 171 208 252
#     4   9  16  26  42  62  85 116 148 176 207 241
#     4   8  12  17  25  37  56  84 119 163 210 250
#
# _framework density 17.766079000000001
#
# number of rings (size 3 to 8) (size 9 to 14) (size 15 to 20)
#    0.000    3.727    0.000    2.727    0.000    3.273 
#    0.000    5.455    0.000    0.000    0.000    0.636 
#    0.000    1.455    0.000   20.182    0.000  147.818 
#
# Total GULP energy -545075.657743 kJ/mol
# GULP energy per Si atom -12388.083131 kJ/mol
# Density = 1.772564 g / cm^3
# Si number density = 17.766079 Si / 1000 Ang^3
#
#
#
# Elastic Constant Matrix: (Units=GPa)
#
#
# Indices 1 2 3 4 5 6 
#
# 1 109.6216 9.9008 44.5647 0.0000 0.0000 0.0000
# 2 9.9008 39.4986 29.1039 0.0000 0.0000 0.0000
# 3 44.5647 29.1039 140.8046 0.0000 0.0000 0.0000
# 4 0.0000 0.0000 0.0000 -25.8635 0.0000 0.0000
# 5 0.0000 0.0000 0.0000 0.0000 16.9564 0.0000
# 6 0.0000 0.0000 0.0000 0.0000 0.0000 -1.9901
#
#
#
# Elastic Compliance Matrix: (Units=1/GPa)
#
#
# Indices 1 2 3 4 5 6 
#
# 1 0.010471 -0.000216 -0.003269 0.000000 0.000000 0.000000
# 2 -0.000216 0.029870 -0.006106 0.000000 0.000000 0.000000
# 3 -0.003269 -0.006106 0.009399 0.000000 0.000000 0.000000
# 4 0.000000 0.000000 0.000000 -0.038665 0.000000 0.000000
# 5 0.000000 0.000000 0.000000 0.000000 0.058975 0.000000
# 6 0.000000 0.000000 0.000000 0.000000 0.000000 -0.502494
#
#
# Mechanical properties :
#
#
# Convention : Reuss Voigt Hill
#
# Bulk Modulus (GPa) = 32.72436 50.78485 41.75460
# Shear Modulus (GPa) = -12.40461 11.57759 -0.41351
#
# Velocity S-wave (km/s) = -2.64525 2.55555 -0.48297
# Velocity P-wave (km/s) = 3.02155 6.11188 4.82104
#
# Compressibility (1/GPa) = 0.03055828
#
# Stress axis : x y z
#
# Youngs Moduli (GPa) = 95.50265 33.47797 106.39544
#
# Poissons Ratio (x) = 0.00722 0.34786
# Poissons Ratio (y) = 0.02059 0.64964
# Poissons Ratio (z) = 0.31224 0.20441
#
# Static dielectric constant tensor:
#      x y z
#    x 3.510110 0.000000 0.000000 
#    y 0.000000 2.869590 0.000000 
#    z 0.000000 0.000000 3.462510 
# 
# 
# High freq. dielectric constant tensor:
#      x y z
#    x 1.664340 0.000000 0.000000 
#    y 0.000000 1.658520 0.000000 
#    z 0.000000 0.000000 1.663850 
# 
# From -- ./inp_files/30767.got.cif
#   From: 2010.03.12/outbox.cif.g09.slc.cpg/sg47_16_cif.got.tgz:30767.got - 2010.04.14 03:12:58.
