data_PCOD8200651
_publ_section_title
;
Structure prediction by ZEFSAII (Michael W. Deem and Ramdas Pophale) SiO2 
 PCOD8200651
Probable space group: P M M M
;
_chemical_formula_sum "Si O2"
_cell_formula_units_Z 32
_cell_length_a 9.455525
_cell_length_b 7.466258
_cell_length_c 24.164495
_cell_angle_alpha 90.000000
_cell_angle_beta 90.000000
_cell_angle_gamma 90.000000
_cell_volume 1705.950258
_symmetry_space_group_name_H-M "P M M M"
_symmetry_group_IT_number 47
_symmetry_cell_setting 'orthorhombic'
loop_
_space_group_symop_operation_xyz
x,y,z
-x,-y,z
x,-y,-z
-x,y,-z
-x,-y,-z
x,y,-z
-x,y,z
x,-y,z
loop_
_atom_site_type_symbol
_atom_site_label
_atom_site_fract_x
_atom_site_fract_y
_atom_site_fract_z
Si Si1 0.332326 0.500000 0.438534
Si Si2 0.834323 0.207971 0.871958
Si Si3 0.155770 0.212201 0.748410
Si Si4 0.334186 0.204853 0.645830
Si Si5 0.337504 0.500000 0.065417
O O1 0.500000 0.500000 0.443300
O O2 0.264656 0.500000 0.500000
O O3 0.281757 0.677567 0.406079
O O4 0.796459 0.273314 0.809587
O O5 0.739931 0.321878 0.913475
O O6 0.000000 0.241030 0.883673
O O7 0.796231 0.000000 0.880636
O O8 0.262935 0.281397 0.701625
O O9 0.000000 0.289458 0.735028
O O10 0.149967 0.000000 0.748363
O O11 0.500000 0.225096 0.655240
O O12 0.290616 0.000000 0.633552
O O13 0.500000 0.500000 0.085558
O O14 0.327848 0.500000 0.000000
#
# Coordination Sequence:
#
# PCOD8200651 Si02
#       5
#     4   8   8   8   4
#     4   9  18  31  45  64  92 125 164 207 242 277
#     4   9  19  37  60  83 106 136 176 219 261 309
#     4   8  15  30  52  77 103 128 156 196 250 306
#     4   9  17  29  47  71  96 123 157 197 242 293
#     4  11  25  40  53  76 110 145 180 217 260 311
#
# _framework density 18.757874000000001
#
# number of rings (size 3 to 8) (size 9 to 14) (size 15 to 20)
#    0.000    3.000    0.000    1.875    0.000    4.500 
#    0.000   10.625    0.000    1.500    0.000    3.500 
#    0.000    0.000    0.000    0.000    0.000    0.000 
#
# Total GULP energy -396672.654299 kJ/mol
# GULP energy per Si atom -12396.020447 kJ/mol
# Density = 1.871518 g / cm^3
# Si number density = 18.757874 Si / 1000 Ang^3
#
#
#
# Elastic Constant Matrix: (Units=GPa)
#
#
# Indices 1 2 3 4 5 6 
#
# 1 70.9552 46.3741 60.6593 0.0000 0.0000 0.0000
# 2 46.3741 98.1123 58.0065 0.0000 0.0000 0.0000
# 3 60.6593 58.0065 131.5354 0.0000 0.0000 0.0000
# 4 0.0000 0.0000 0.0000 -44.2027 0.0000 0.0000
# 5 0.0000 0.0000 0.0000 0.0000 12.2182 0.0000
# 6 0.0000 0.0000 0.0000 0.0000 0.0000 16.9560
#
#
#
# Elastic Compliance Matrix: (Units=1/GPa)
#
#
# Indices 1 2 3 4 5 6 
#
# 1 0.026545 -0.007182 -0.009074 0.000000 0.000000 0.000000
# 2 -0.007182 0.015730 -0.003625 0.000000 0.000000 0.000000
# 3 -0.009074 -0.003625 0.013386 0.000000 0.000000 0.000000
# 4 0.000000 0.000000 0.000000 -0.022623 0.000000 0.000000
# 5 0.000000 0.000000 0.000000 0.000000 0.081845 0.000000
# 6 0.000000 0.000000 0.000000 0.000000 0.000000 0.058976
#
#
# Mechanical properties :
#
#
# Convention : Reuss Voigt Hill
#
# Bulk Modulus (GPa) = 62.89844 70.07585 66.48715
# Shear Modulus (GPa) = 22.83929 6.03183 14.43556
#
# Velocity S-wave (km/s) = 3.49318 1.79516 2.77713
# Velocity P-wave (km/s) = 7.06217 6.46034 6.76795
#
# Compressibility (1/GPa) = 0.01589864
#
# Stress axis : x y z
#
# Youngs Moduli (GPa) = 37.67210 63.57230 74.70572
#
# Poissons Ratio (x) = 0.45656 0.67791
# Poissons Ratio (y) = 0.27055 0.27080
# Poissons Ratio (z) = 0.34185 0.23045
#
# Static dielectric constant tensor:
#      x y z
#    x 3.420660 0.000000 0.000000 
#    y 0.000000 3.403740 0.000000 
#    z 0.000000 0.000000 3.659270 
# 
# 
# High freq. dielectric constant tensor:
#      x y z
#    x 1.705720 0.000000 0.000000 
#    y 0.000000 1.730450 0.000000 
#    z 0.000000 0.000000 1.726730 
# 
# From -- ./inp_files/31614.got.cif
#   From: 2010.03.12/outbox.cif.g09.slc.cpg/sg47_16_cif.got.tgz:31614.got - 2010.04.14 03:12:58.
