data_PCOD8200458
_publ_section_title
;
Structure prediction by ZEFSAII (Michael W. Deem and Ramdas Pophale) SiO2 
 PCOD8200458
Probable space group: P M M M
;
_chemical_formula_sum "Si O2"
_cell_formula_units_Z 44
_cell_length_a 9.061126
_cell_length_b 14.841762
_cell_length_c 16.908738
_cell_angle_alpha 90.000000
_cell_angle_beta 90.000000
_cell_angle_gamma 90.000000
_cell_volume 2273.939090
_symmetry_space_group_name_H-M "P M M M"
_symmetry_group_IT_number 47
_symmetry_cell_setting 'orthorhombic'
loop_
_space_group_symop_operation_xyz
x,y,z
-x,-y,z
x,-y,-z
-x,y,-z
-x,-y,-z
x,y,-z
-x,y,z
x,-y,z
loop_
_atom_site_type_symbol
_atom_site_label
_atom_site_fract_x
_atom_site_fract_y
_atom_site_fract_z
Si Si1 0.173969 0.272360 0.144077
Si Si2 0.664354 0.099878 0.093365
Si Si3 0.675322 0.899274 0.588542
Si Si4 0.672451 0.735990 0.306990
Si Si5 0.164023 0.398888 0.407303
Si Si6 0.175513 0.396717 0.000000
O O1 0.215812 0.170256 0.122999
O O2 0.245097 0.294372 0.227843
O O3 0.000000 0.279790 0.150996
O O4 0.232826 0.343097 0.077815
O O5 0.500000 0.125861 0.124652
O O6 0.706507 0.000000 0.124871
O O7 0.663227 0.099177 0.000000
O O8 0.734014 0.874151 0.500000
O O9 0.500000 0.895215 0.586575
O O10 0.733386 0.829973 0.655425
O O11 0.729122 0.000000 0.611257
O O12 0.500000 0.741864 0.289387
O O13 0.705713 0.659097 0.370122
O O14 0.188176 0.397295 0.500000
O O15 0.178901 0.500000 0.374711
O O16 0.000000 0.361683 0.385770
O O17 0.235966 0.500000 0.000000
O O18 0.000000 0.397479 0.000000
#
# Coordination Sequence:
#
# PCOD8200458 Si02
#       6
#     8   8   8   8   8   4
#     4  11  22  37  57  82 110 144 188 236 283 337
#     4   9  18  34  57  82 109 142 177 219 277 337
#     4   8  15  30  52  77 107 146 189 226 262 312
#     4  11  22  34  53  84 117 148 183 230 284 337
#     4   9  19  37  59  81 108 145 186 228 280 341
#     4   9  20  40  62  79  98 134 185 235 284 339
#
# _framework density 19.349682999999999
#
# number of rings (size 3 to 8) (size 9 to 14) (size 15 to 20)
#    0.000    2.455    0.909    3.273    0.000    3.273 
#    0.000    5.455    0.000    5.455    0.000    6.364 
#    0.000    0.000    0.000    0.000    0.000    0.000 
#
# Total GULP energy -545387.092617 kJ/mol
# GULP energy per Si atom -12395.161196 kJ/mol
# Density = 1.930564 g / cm^3
# Si number density = 19.349683 Si / 1000 Ang^3
#
#
#
# Elastic Constant Matrix: (Units=GPa)
#
#
# Indices 1 2 3 4 5 6 
#
# 1 51.4701 33.5795 32.1941 0.0000 0.0000 0.0000
# 2 33.5795 122.1782 59.2480 0.0000 0.0000 0.0000
# 3 32.1941 59.2480 93.5251 0.0000 0.0000 0.0000
# 4 0.0000 0.0000 0.0000 11.9651 0.0000 0.0000
# 5 0.0000 0.0000 0.0000 0.0000 27.3151 0.0000
# 6 0.0000 0.0000 0.0000 0.0000 0.0000 29.5427
#
#
#
# Elastic Compliance Matrix: (Units=1/GPa)
#
#
# Indices 1 2 3 4 5 6 
#
# 1 0.026086 -0.004063 -0.006406 0.000000 0.000000 0.000000
# 2 -0.004063 0.012447 -0.006486 0.000000 0.000000 0.000000
# 3 -0.006406 -0.006486 0.017006 0.000000 0.000000 0.000000
# 4 0.000000 0.000000 0.000000 0.083577 0.000000 0.000000
# 5 0.000000 0.000000 0.000000 0.000000 0.036610 0.000000
# 6 0.000000 0.000000 0.000000 0.000000 0.000000 0.033849
#
#
# Mechanical properties :
#
#
# Convention : Reuss Voigt Hill
#
# Bulk Modulus (GPa) = 46.23399 57.46852 51.85125
# Shear Modulus (GPa) = 19.94447 23.24135 21.59291
#
# Velocity S-wave (km/s) = 3.21399 3.46948 3.34418
# Velocity P-wave (km/s) = 6.14156 6.76862 6.46270
#
# Compressibility (1/GPa) = 0.02162911
#
# Stress axis : x y z
#
# Youngs Moduli (GPa) = 38.33425 80.34049 58.80114
#
# Poissons Ratio (x) = 0.32645 0.37666
# Poissons Ratio (y) = 0.15576 0.38141
# Poissons Ratio (z) = 0.24555 0.52113
#
# Static dielectric constant tensor:
#      x y z
#    x 3.347100 0.000000 0.000000 
#    y 0.000000 4.194110 0.000000 
#    z 0.000000 0.000000 3.648550 
# 
# 
# High freq. dielectric constant tensor:
#      x y z
#    x 1.721170 0.000000 0.000000 
#    y 0.000000 1.759100 0.000000 
#    z 0.000000 0.000000 1.753610 
# 
# From -- ./inp_files/9014.got.cif
#   From: 2010.03.12/outbox.cif.g09.slc.cpg/sg47_5_cif.got.tgz:9014.got - 2010.04.14 03:12:58.
