data_PCOD8200691
_publ_section_title
;
Structure prediction by ZEFSAII (Michael W. Deem and Ramdas Pophale) SiO2 
 PCOD8200691
Probable space group: P M M M
;
_chemical_formula_sum "Si O2"
_cell_formula_units_Z 52
_cell_length_a 18.939148
_cell_length_b 9.693897
_cell_length_c 18.717496
_cell_angle_alpha 90.000000
_cell_angle_beta 90.000000
_cell_angle_gamma 90.000000
_cell_volume 3436.422768
_symmetry_space_group_name_H-M "P M M M"
_symmetry_group_IT_number 47
_symmetry_cell_setting 'orthorhombic'
loop_
_space_group_symop_operation_xyz
x,y,z
-x,-y,z
x,-y,-z
-x,y,-z
-x,-y,-z
x,y,-z
-x,y,z
x,-y,z
loop_
_atom_site_type_symbol
_atom_site_label
_atom_site_fract_x
_atom_site_fract_y
_atom_site_fract_z
Si Si1 0.919278 0.158376 0.652011
Si Si2 0.187932 0.657204 0.579828
Si Si3 0.421950 0.335532 0.346863
Si Si4 0.417215 0.648964 0.500000
Si Si5 0.078790 0.836304 0.079713
Si Si6 0.171505 0.840006 0.790996
Si Si7 0.279756 0.660206 0.715412
O O1 0.880526 0.248709 0.592389
O O2 0.885491 0.183643 0.729298
O O3 0.000000 0.205646 0.656623
O O4 0.912323 0.000000 0.628767
O O5 0.217751 0.685643 0.500000
O O6 0.162891 0.500000 0.588161
O O7 0.248294 0.692348 0.637071
O O8 0.500000 0.282931 0.322299
O O9 0.423293 0.500000 0.356333
O O10 0.399984 0.272190 0.425153
O O11 0.362497 0.295495 0.288522
O O12 0.377348 0.500000 0.500000
O O13 0.500000 0.621641 0.500000
O O14 0.136004 0.781141 0.136512
O O15 0.000000 0.778340 0.096202
O O16 0.075719 0.000000 0.085824
O O17 0.102279 0.790841 0.000000
O O18 0.242013 0.751992 0.775688
O O19 0.193294 0.000000 0.797740
O O20 0.270690 0.500000 0.736023
#
# Coordination Sequence:
#
# PCOD8200691 Si02
#       7
#     8   8   8   4   8   8   8
#     4   9  17  28  41  55  70  93 127 162 193 225
#     4   9  18  29  38  51  72  97 125 159 199 236
#     4   8  13  21  35  56  78  98 125 163 202 236
#     4   7  10  16  28  50  75  93 114 153 202 238
#     4   8  13  22  40  66  88 104 128 163 196 224
#     4   9  16  27  42  59  81 105 128 154 188 231
#     4   9  17  27  40  57  78 104 131 159 193 234
#
# _framework density 15.132015000000001
#
# number of rings (size 3 to 8) (size 9 to 14) (size 15 to 20)
#    0.000    3.462    0.000    1.846    1.077    2.769 
#    0.000    1.538    0.000    2.308    0.000    1.077 
#    0.000    2.462    0.000    7.692    0.000    0.000 
#
# Total GULP energy -644271.462729 kJ/mol
# GULP energy per Si atom -12389.835822 kJ/mol
# Density = 1.509757 g / cm^3
# Si number density = 15.132015 Si / 1000 Ang^3
#
#
#
# Elastic Constant Matrix: (Units=GPa)
#
#
# Indices 1 2 3 4 5 6 
#
# 1 105.7623 30.8483 46.0164 0.0000 0.0000 0.0000
# 2 30.8483 30.2311 23.6561 0.0000 0.0000 0.0000
# 3 46.0164 23.6561 82.9105 0.0000 0.0000 0.0000
# 4 0.0000 0.0000 0.0000 13.3920 0.0000 0.0000
# 5 0.0000 0.0000 0.0000 0.0000 22.7076 0.0000
# 6 0.0000 0.0000 0.0000 0.0000 0.0000 14.0424
#
#
#
# Elastic Compliance Matrix: (Units=1/GPa)
#
#
# Indices 1 2 3 4 5 6 
#
# 1 0.014958 -0.011287 -0.005082 0.000000 0.000000 0.000000
# 2 -0.011287 0.051104 -0.008316 0.000000 0.000000 0.000000
# 3 -0.005082 -0.008316 0.017254 0.000000 0.000000 0.000000
# 4 0.000000 0.000000 0.000000 0.074671 0.000000 0.000000
# 5 0.000000 0.000000 0.000000 0.000000 0.044038 0.000000
# 6 0.000000 0.000000 0.000000 0.000000 0.000000 0.071213
#
#
# Mechanical properties :
#
#
# Convention : Reuss Voigt Hill
#
# Bulk Modulus (GPa) = 29.45846 46.66060 38.05953
# Shear Modulus (GPa) = 14.97343 17.92063 16.44703
#
# Velocity S-wave (km/s) = 3.14908 3.44508 3.30040
# Velocity P-wave (km/s) = 5.72120 6.83574 6.30315
#
# Compressibility (1/GPa) = 0.03394610
#
# Stress axis : x y z
#
# Youngs Moduli (GPa) = 66.85213 19.56791 57.95631
#
# Poissons Ratio (x) = 0.22087 0.29451
# Poissons Ratio (y) = 0.75459 0.48199
# Poissons Ratio (z) = 0.33971 0.16273
#
# Static dielectric constant tensor:
#      x y z
#    x 3.006150 0.000000 0.000000 
#    y 0.000000 2.610770 0.000000 
#    z 0.000000 0.000000 2.900160 
# 
# 
# High freq. dielectric constant tensor:
#      x y z
#    x 1.574040 0.000000 0.000000 
#    y 0.000000 1.537990 0.000000 
#    z 0.000000 0.000000 1.555820 
# 
# From -- ./inp_files/11474.got.cif
#   From: 2010.03.12/outbox.cif.g09.slc.cpg/sg47_6_cif.got.tgz:11474.got - 2010.04.14 03:12:58.
