data_PCOD8200183
_publ_section_title
;
Structure prediction by ZEFSAII (Michael W. Deem and Ramdas Pophale) SiO2 
 PCOD8200183
Probable space group: P M M M
;
_chemical_formula_sum "Si O2"
_cell_formula_units_Z 40
_cell_length_a 8.850913
_cell_length_b 20.376213
_cell_length_c 11.827718
_cell_angle_alpha 90.000000
_cell_angle_beta 90.000000
_cell_angle_gamma 90.000000
_cell_volume 2133.106333
_symmetry_space_group_name_H-M "P M M M"
_symmetry_group_IT_number 47
_symmetry_cell_setting 'orthorhombic'
loop_
_space_group_symop_operation_xyz
x,y,z
-x,-y,z
x,-y,-z
-x,y,-z
-x,-y,-z
x,y,-z
-x,y,z
x,-y,z
loop_
_atom_site_type_symbol
_atom_site_label
_atom_site_fract_x
_atom_site_fract_y
_atom_site_fract_z
Si Si1 0.673646 0.927963 0.226261
Si Si2 0.322899 0.241820 0.000000
Si Si3 0.176539 0.186324 0.629766
Si Si4 0.823589 0.304769 0.785073
Si Si5 0.821248 0.102479 0.000000
Si Si6 0.322830 0.574414 0.869910
O O1 0.500000 0.911587 0.195725
O O2 0.733783 0.870960 0.307268
O O3 0.684890 0.000000 0.285779
O O4 0.772971 0.935220 0.112912
O O5 0.260846 0.274777 0.889709
O O6 0.272722 0.168054 0.000000
O O7 0.500000 0.249013 0.000000
O O8 0.226682 0.185927 0.500000
O O9 0.215227 0.259149 0.677095
O O10 0.000000 0.171316 0.645224
O O11 0.762826 0.379578 0.778031
O O12 0.000000 0.305986 0.808066
O O13 0.000000 0.115008 0.000000
O O14 0.500000 0.582328 0.851061
O O15 0.271645 0.500000 0.845600
O O16 0.281685 0.593338 0.000000
#
# Coordination Sequence:
#
# PCOD8200183 Si02
#       6
#     8   4   8   8   4   8
#     4  11  24  40  59  85 116 149 185 231 287 343
#     4  12  22  33  54  83 116 150 182 224 282 341
#     4  10  23  42  61  81 109 148 193 240 288 338
#     4  11  21  34  56  85 114 145 188 235 278 332
#     4  12  23  37  58  86 117 149 186 227 277 342
#     4   9  18  32  51  79 117 156 186 218 272 338
#
# _framework density 18.751995000000001
#
# number of rings (size 3 to 8) (size 9 to 14) (size 15 to 20)
#    0.000    1.400    3.000    3.900    0.000    4.800 
#    0.000    3.000    0.000    0.600    0.000    4.200 
#    0.000    0.000    0.000    0.000    0.000    0.000 
#
# Total GULP energy -495845.220138 kJ/mol
# GULP energy per Si atom -12396.130503 kJ/mol
# Density = 1.870931 g / cm^3
# Si number density = 18.751995 Si / 1000 Ang^3
#
#
#
# Elastic Constant Matrix: (Units=GPa)
#
#
# Indices 1 2 3 4 5 6 
#
# 1 144.8898 70.3275 54.1697 0.0000 0.0000 0.0000
# 2 70.3275 146.5705 56.1137 0.0000 0.0000 0.0000
# 3 54.1697 56.1137 106.2544 0.0000 0.0000 0.0000
# 4 0.0000 0.0000 0.0000 9.7978 0.0000 0.0000
# 5 0.0000 0.0000 0.0000 0.0000 -67.1253 0.0000
# 6 0.0000 0.0000 0.0000 0.0000 0.0000 38.1343
#
#
#
# Elastic Compliance Matrix: (Units=1/GPa)
#
#
# Indices 1 2 3 4 5 6 
#
# 1 0.009767 -0.003485 -0.003139 0.000000 0.000000 0.000000
# 2 -0.003485 0.009795 -0.003396 0.000000 0.000000 0.000000
# 3 -0.003139 -0.003396 0.012805 0.000000 0.000000 0.000000
# 4 0.000000 0.000000 0.000000 0.102063 0.000000 0.000000
# 5 0.000000 0.000000 0.000000 0.000000 -0.014898 0.000000
# 6 0.000000 0.000000 0.000000 0.000000 0.000000 0.026223
#
#
# Mechanical properties :
#
#
# Convention : Reuss Voigt Hill
#
# Bulk Modulus (GPa) = 81.12107 84.32628 82.72368
# Shear Modulus (GPa) = 29.42834 10.63497 20.03165
#
# Velocity S-wave (km/s) = 3.96579 2.38405 3.27194
# Velocity P-wave (km/s) = 8.02022 7.25570 7.64752
#
# Compressibility (1/GPa) = 0.01232725
#
# Stress axis : x y z
#
# Youngs Moduli (GPa) = 102.38872 102.09454 78.09285
#
# Poissons Ratio (x) = 0.35575 0.24513
# Poissons Ratio (y) = 0.35678 0.26523
# Poissons Ratio (z) = 0.32140 0.34674
#
# Static dielectric constant tensor:
#      x y z
#    x 3.553130 0.000000 0.000000 
#    y 0.000000 3.844980 0.000000 
#    z 0.000000 0.000000 3.291210 
# 
# 
# High freq. dielectric constant tensor:
#      x y z
#    x 1.735860 0.000000 0.000000 
#    y 0.000000 1.748540 0.000000 
#    z 0.000000 0.000000 1.693710 
# 
# From -- ./inp_files/15080.got.cif
#   From: 2010.03.12/outbox.cif.g09.slc.cpg/sg47_8_cif.got.tgz:15080.got - 2010.04.14 03:12:58.
