data_PCOD8200258
_publ_section_title
;
Structure prediction by ZEFSAII (Michael W. Deem and Ramdas Pophale) SiO2 
 PCOD8200258
Probable space group: P M M M
;
_chemical_formula_sum "Si O2"
_cell_formula_units_Z 52
_cell_length_a 12.337170
_cell_length_b 16.504357
_cell_length_c 14.125961
_cell_angle_alpha 90.000000
_cell_angle_beta 90.000000
_cell_angle_gamma 90.000000
_cell_volume 2876.286621
_symmetry_space_group_name_H-M "P M M M"
_symmetry_group_IT_number 47
_symmetry_cell_setting 'orthorhombic'
loop_
_space_group_symop_operation_xyz
x,y,z
-x,-y,z
x,-y,-z
-x,y,-z
-x,-y,-z
x,y,-z
-x,y,z
x,-y,z
loop_
_atom_site_type_symbol
_atom_site_label
_atom_site_fract_x
_atom_site_fract_y
_atom_site_fract_z
Si Si1 0.874531 0.908203 0.895690
Si Si2 0.500000 0.372747 0.893336
Si Si3 0.282465 0.371751 0.793509
Si Si4 0.500000 0.180221 0.893805
Si Si5 0.619478 0.594795 0.603446
Si Si6 0.707831 0.817174 0.781579
Si Si7 0.627383 0.092568 0.607827
Si Si8 0.871102 0.500000 0.112612
O O1 0.816426 0.859798 0.813794
O O2 0.000000 0.902826 0.872328
O O3 0.833946 0.000000 0.893677
O O4 0.850070 0.871243 0.000000
O O5 0.392687 0.405811 0.841238
O O6 0.500000 0.276559 0.892260
O O7 0.500000 0.406558 0.000000
O O8 0.289500 0.384555 0.680624
O O9 0.271067 0.276231 0.806116
O O10 0.181333 0.419650 0.839564
O O11 0.393740 0.147805 0.840660
O O12 0.500000 0.145669 0.000000
O O13 0.654085 0.629809 0.500000
O O14 0.500000 0.630966 0.631406
O O15 0.608010 0.500000 0.595024
O O16 0.688489 0.840377 0.671931
O O17 0.664539 0.107618 0.500000
O O18 0.500000 0.106914 0.617727
O O19 0.656407 0.000000 0.637958
O O20 0.000000 0.500000 0.132995
O O21 0.848541 0.500000 0.000000
#
# Coordination Sequence:
#
# PCOD8200258 Si02
#       8
#     8   4   8   4   8   8   8   4
#     4   9  19  36  56  77 102 136 182 232 275 319
#     4   9  18  31  49  76 107 141 176 216 272 331
#     4  11  21  35  56  81 112 146 181 228 279 332
#     4   9  18  30  43  72 115 144 170 214 270 331
#     4   9  17  31  53  80 110 140 172 215 266 319
#     4  11  20  32  54  82 112 147 182 223 278 331
#     4   9  18  33  53  80 118 160 194 222 261 324
#     4  11  26  45  60  77 106 147 195 240 282 334
#
# _framework density 18.078866000000001
#
# number of rings (size 3 to 8) (size 9 to 14) (size 15 to 20)
#    0.000    2.231    2.308    2.769    0.000    3.385 
#    0.000    3.846    0.000    3.231    0.000    4.308 
#    0.000    0.000    0.000    0.000    0.000    0.000 
#
# Total GULP energy -644552.320496 kJ/mol
# GULP energy per Si atom -12395.236933 kJ/mol
# Density = 1.803772 g / cm^3
# Si number density = 18.078866 Si / 1000 Ang^3
#
#
#
# Elastic Constant Matrix: (Units=GPa)
#
#
# Indices 1 2 3 4 5 6 
#
# 1 81.3890 42.9453 53.3050 0.0000 0.0000 0.0000
# 2 42.9453 67.8482 36.0529 0.0000 0.0000 0.0000
# 3 53.3050 36.0529 130.2313 0.0000 0.0000 0.0000
# 4 0.0000 0.0000 0.0000 24.4188 0.0000 0.0000
# 5 0.0000 0.0000 0.0000 0.0000 26.2401 0.0000
# 6 0.0000 0.0000 0.0000 0.0000 0.0000 23.8552
#
#
#
# Elastic Compliance Matrix: (Units=1/GPa)
#
#
# Indices 1 2 3 4 5 6 
#
# 1 0.021815 -0.010627 -0.005987 0.000000 0.000000 0.000000
# 2 -0.010627 0.022457 -0.001867 0.000000 0.000000 0.000000
# 3 -0.005987 -0.001867 0.010646 0.000000 0.000000 0.000000
# 4 0.000000 0.000000 0.000000 0.040952 0.000000 0.000000
# 5 0.000000 0.000000 0.000000 0.000000 0.038110 0.000000
# 6 0.000000 0.000000 0.000000 0.000000 0.000000 0.041920
#
#
# Mechanical properties :
#
#
# Convention : Reuss Voigt Hill
#
# Bulk Modulus (GPa) = 55.69165 60.45276 58.07221
# Shear Modulus (GPa) = 22.84685 24.71383 23.78034
#
# Velocity S-wave (km/s) = 3.55876 3.70131 3.63073
# Velocity P-wave (km/s) = 6.91072 7.19564 7.05462
#
# Compressibility (1/GPa) = 0.01795601
#
# Stress axis : x y z
#
# Youngs Moduli (GPa) = 45.83944 44.52881 93.92924
#
# Poissons Ratio (x) = 0.47319 0.56239
# Poissons Ratio (y) = 0.48712 0.17541
# Poissons Ratio (z) = 0.27446 0.08315
#
# Static dielectric constant tensor:
#      x y z
#    x 3.088300 0.000000 0.000000 
#    y 0.000000 3.209270 0.000000 
#    z 0.000000 0.000000 3.642040 
# 
# 
# High freq. dielectric constant tensor:
#      x y z
#    x 1.667010 0.000000 0.000000 
#    y 0.000000 1.690380 0.000000 
#    z 0.000000 0.000000 1.711110 
# 
# From -- ./inp_files/22927.got.cif
#   From: 2010.03.12/outbox.cif.g09.slc.cpg/sg47_12_cif.got.tgz:22927.got - 2010.04.14 03:12:58.
