data_PCOD8200365
_publ_section_title
;
Structure prediction by ZEFSAII (Michael W. Deem and Ramdas Pophale) SiO2 
 PCOD8200365
Probable space group: P M M M
;
_chemical_formula_sum "Si O2"
_cell_formula_units_Z 52
_cell_length_a 13.628653
_cell_length_b 8.808733
_cell_length_c 22.156840
_cell_angle_alpha 90.000000
_cell_angle_beta 90.000000
_cell_angle_gamma 90.000000
_cell_volume 2659.954464
_symmetry_space_group_name_H-M "P M M M"
_symmetry_group_IT_number 47
_symmetry_cell_setting 'orthorhombic'
loop_
_space_group_symop_operation_xyz
x,y,z
-x,-y,z
x,-y,-z
-x,y,-z
-x,-y,-z
x,y,-z
-x,y,z
x,-y,z
loop_
_atom_site_type_symbol
_atom_site_label
_atom_site_fract_x
_atom_site_fract_y
_atom_site_fract_z
Si Si1 0.613291 0.821208 0.734540
Si Si2 0.889814 0.680322 0.067706
Si Si3 0.385838 0.166062 0.934477
Si Si4 0.702570 0.320566 0.383541
Si Si5 0.111057 0.177525 0.569570
Si Si6 0.725539 0.325253 0.841917
Si Si7 0.615238 0.829725 0.500000
O O1 0.500000 0.776332 0.751417
O O2 0.642850 0.744577 0.672347
O O3 0.694329 0.767923 0.783040
O O4 0.621666 0.000000 0.727168
O O5 0.881978 0.500000 0.067793
O O6 0.820794 0.742432 0.122200
O O7 0.000000 0.733923 0.082731
O O8 0.860671 0.738716 0.000000
O O9 0.500000 0.161655 0.942218
O O10 0.361040 0.303754 0.890124
O O11 0.350413 0.000000 0.909644
O O12 0.337564 0.196618 0.000000
O O13 0.700240 0.500000 0.380228
O O14 0.815986 0.265956 0.385567
O O15 0.647911 0.262360 0.442164
O O16 0.139528 0.212590 0.500000
O O17 0.000000 0.232874 0.582375
O O18 0.119886 0.000000 0.582763
O O19 0.738639 0.500000 0.823464
O O20 0.500000 0.843783 0.500000
O O21 0.661893 0.000000 0.500000
#
# Coordination Sequence:
#
# PCOD8200365 Si02
#       7
#     8   8   8   8   8   8   4
#     4  11  25  44  62  78 106 155 204 240 286 356
#     4   8  15  30  53  82 116 151 185 225 280 345
#     4   9  18  32  49  71 103 143 182 219 267 333
#     4  12  24  38  60  91 121 150 189 246 305 351
#     4   9  18  35  61  90 121 158 194 228 273 337
#     4  11  21  33  54  83 110 140 183 238 292 337
#     4  11  23  39  60  85 116 155 195 236 290 361
#
# _framework density 19.549206999999999
#
# number of rings (size 3 to 8) (size 9 to 14) (size 15 to 20)
#    0.000    1.923    0.769    5.308    0.000    7.077 
#    0.000    2.308    0.000    4.615    0.000    5.385 
#    0.000    0.000    0.000    0.000    0.000    0.000 
#
# Total GULP energy -644391.221269 kJ/mol
# GULP energy per Si atom -12392.138871 kJ/mol
# Density = 1.950471 g / cm^3
# Si number density = 19.549207 Si / 1000 Ang^3
#
#
#
# Elastic Constant Matrix: (Units=GPa)
#
#
# Indices 1 2 3 4 5 6 
#
# 1 109.3223 44.7763 59.3942 0.0000 0.0000 0.0000
# 2 44.7763 84.4659 45.1755 0.0000 0.0000 0.0000
# 3 59.3942 45.1755 120.3221 0.0000 0.0000 0.0000
# 4 0.0000 0.0000 0.0000 33.0174 0.0000 0.0000
# 5 0.0000 0.0000 0.0000 0.0000 38.5975 0.0000
# 6 0.0000 0.0000 0.0000 0.0000 0.0000 25.7030
#
#
#
# Elastic Compliance Matrix: (Units=1/GPa)
#
#
# Indices 1 2 3 4 5 6 
#
# 1 0.013789 -0.004591 -0.005083 0.000000 0.000000 0.000000
# 2 -0.004591 0.016343 -0.003869 0.000000 0.000000 0.000000
# 3 -0.005083 -0.003869 0.012273 0.000000 0.000000 0.000000
# 4 0.000000 0.000000 0.000000 0.030287 0.000000 0.000000
# 5 0.000000 0.000000 0.000000 0.000000 0.025908 0.000000
# 6 0.000000 0.000000 0.000000 0.000000 0.000000 0.038906
#
#
# Mechanical properties :
#
#
# Convention : Reuss Voigt Hill
#
# Bulk Modulus (GPa) = 65.28574 68.08916 66.68745
# Shear Modulus (GPa) = 29.46385 30.44787 29.95586
#
# Velocity S-wave (km/s) = 3.88643 3.95080 3.91875
# Velocity P-wave (km/s) = 7.32170 7.46438 7.39338
#
# Compressibility (1/GPa) = 0.01531728
#
# Stress axis : x y z
#
# Youngs Moduli (GPa) = 72.51992 61.19000 81.48019
#
# Poissons Ratio (x) = 0.28094 0.41416
# Poissons Ratio (y) = 0.33296 0.31529
# Poissons Ratio (z) = 0.36861 0.23677
#
# Static dielectric constant tensor:
#      x y z
#    x 3.838490 0.000000 0.000000 
#    y 0.000000 3.494210 0.000000 
#    z 0.000000 0.000000 3.610830 
# 
# 
# High freq. dielectric constant tensor:
#      x y z
#    x 1.768700 0.000000 0.000000 
#    y 0.000000 1.748130 0.000000 
#    z 0.000000 0.000000 1.753390 
# 
# From -- ./inp_files/30844.got.cif
#   From: 2010.03.12/outbox.cif.g09.slc.cpg/sg47_16_cif.got.tgz:30844.got - 2010.04.14 03:12:58.
