data_PCOD8200768
_publ_section_title
;
Structure prediction by ZEFSAII (Michael W. Deem and Ramdas Pophale) SiO2 
 PCOD8200768
Probable space group: P M M M
;
_chemical_formula_sum "Si O2"
_cell_formula_units_Z 36
_cell_length_a 14.492769
_cell_length_b 18.159093
_cell_length_c 9.788723
_cell_angle_alpha 90.000000
_cell_angle_beta 90.000000
_cell_angle_gamma 90.000000
_cell_volume 2576.152462
_symmetry_space_group_name_H-M "P M M M"
_symmetry_group_IT_number 47
_symmetry_cell_setting 'orthorhombic'
loop_
_space_group_symop_operation_xyz
x,y,z
-x,-y,z
x,-y,-z
-x,y,-z
-x,-y,-z
x,y,-z
-x,y,z
x,-y,z
loop_
_atom_site_type_symbol
_atom_site_label
_atom_site_fract_x
_atom_site_fract_y
_atom_site_fract_z
Si Si1 0.789758 0.642554 0.662537
Si Si2 0.108050 0.212534 0.658996
Si Si3 0.103833 0.500000 0.662933
Si Si4 0.399222 0.583115 0.337646
Si Si5 0.890464 0.081510 0.152985
O O1 0.795149 0.642219 0.500000
O O2 0.835639 0.717517 0.716804
O O3 0.845832 0.572665 0.720218
O O4 0.683404 0.636018 0.714588
O O5 0.127395 0.198281 0.500000
O O6 0.146615 0.141757 0.740288
O O7 0.000000 0.227027 0.685694
O O8 0.105830 0.500000 0.500000
O O9 0.000000 0.500000 0.718883
O O10 0.397726 0.581512 0.500000
O O11 0.500000 0.611771 0.286449
O O12 0.382322 0.500000 0.283999
O O13 0.000000 0.080855 0.157339
O O14 0.853769 0.000000 0.194166
O O15 0.856623 0.101479 0.000000
#
# Coordination Sequence:
#
# PCOD8200768 Si02
#       5
#     8   8   4   8   8
#     4   9  14  20  28  42  66  93 119 148 178 206
#     4   9  16  23  32  50  75  98 118 143 176 211
#     4   9  14  18  25  37  58  92 125 146 168 202
#     4   8  12  18  28  41  59  87 121 151 180 212
#     4   8  14  25  39  52  67  91 122 149 172 204
#
# _framework density 13.974328999999999
#
# number of rings (size 3 to 8) (size 9 to 14) (size 15 to 20)
#    0.000    3.444    1.111    2.000    0.000    3.111 
#    0.000    2.222    0.000    0.000    0.000    0.778 
#    0.000    6.222    0.000   13.556    0.000    4.444 
#
# Total GULP energy -446028.368854 kJ/mol
# GULP energy per Si atom -12389.676913 kJ/mol
# Density = 1.394252 g / cm^3
# Si number density = 13.974329 Si / 1000 Ang^3
#
#
#
# Elastic Constant Matrix: (Units=GPa)
#
#
# Indices 1 2 3 4 5 6 
#
# 1 86.7900 54.0112 18.4758 0.0000 0.0000 0.0000
# 2 54.0112 129.7957 39.6014 0.0000 0.0000 0.0000
# 3 18.4758 39.6014 27.2391 0.0000 0.0000 0.0000
# 4 0.0000 0.0000 0.0000 2.8781 0.0000 0.0000
# 5 0.0000 0.0000 0.0000 0.0000 3.4623 0.0000
# 6 0.0000 0.0000 0.0000 0.0000 0.0000 8.6617
#
#
#
# Elastic Compliance Matrix: (Units=1/GPa)
#
#
# Indices 1 2 3 4 5 6 
#
# 1 0.015612 -0.005869 -0.002057 0.000000 0.000000 0.000000
# 2 -0.005869 0.016053 -0.019357 0.000000 0.000000 0.000000
# 3 -0.002057 -0.019357 0.066249 0.000000 0.000000 0.000000
# 4 0.000000 0.000000 0.000000 0.347448 0.000000 0.000000
# 5 0.000000 0.000000 0.000000 0.000000 0.288824 0.000000
# 6 0.000000 0.000000 0.000000 0.000000 0.000000 0.115451
#
#
# Mechanical properties :
#
#
# Convention : Reuss Voigt Hill
#
# Bulk Modulus (GPa) = 23.06895 52.00016 37.53455
# Shear Modulus (GPa) = 5.44275 11.78285 8.61280
#
# Velocity S-wave (km/s) = 1.97567 2.90690 2.48529
# Velocity P-wave (km/s) = 4.66351 6.96841 5.92904
#
# Compressibility (1/GPa) = 0.04334831
#
# Stress axis : x y z
#
# Youngs Moduli (GPa) = 64.05156 62.29473 15.09447
#
# Poissons Ratio (x) = 0.36562 0.03104
# Poissons Ratio (y) = 0.37593 0.29219
# Poissons Ratio (z) = 0.13174 1.20585
#
# Static dielectric constant tensor:
#      x y z
#    x 2.834450 0.000000 0.000000 
#    y 0.000000 2.957230 0.000000 
#    z 0.000000 0.000000 2.346170 
# 
# 
# High freq. dielectric constant tensor:
#      x y z
#    x 1.509780 0.000000 0.000000 
#    y 0.000000 1.529280 0.000000 
#    z 0.000000 0.000000 1.479010 
# 
# From -- ./inp_files/8848.got.cif
#   From: 2010.03.12/outbox.cif.g09.slc.cpg/sg47_5_cif.got.tgz:8848.got - 2010.04.14 03:12:58.
