data_PCOD8200638
_publ_section_title
;
Structure prediction by ZEFSAII (Michael W. Deem and Ramdas Pophale) SiO2 
 PCOD8200638
Probable space group: P M M M
;
_chemical_formula_sum "Si O2"
_cell_formula_units_Z 40
_cell_length_a 8.649106
_cell_length_b 25.668376
_cell_length_c 9.172664
_cell_angle_alpha 90.000000
_cell_angle_beta 90.000000
_cell_angle_gamma 90.000000
_cell_volume 2036.409420
_symmetry_space_group_name_H-M "P M M M"
_symmetry_group_IT_number 47
_symmetry_cell_setting 'orthorhombic'
loop_
_space_group_symop_operation_xyz
x,y,z
-x,-y,z
x,-y,-z
-x,y,-z
-x,-y,-z
x,y,-z
-x,y,z
x,-y,z
loop_
_atom_site_type_symbol
_atom_site_label
_atom_site_fract_x
_atom_site_fract_y
_atom_site_fract_z
Si Si1 0.681018 0.096608 0.667159
Si Si2 0.817844 0.000000 0.164131
Si Si3 0.179670 0.192110 0.830984
Si Si4 0.684852 0.500000 0.837752
Si Si5 0.320587 0.713848 0.328953
Si Si6 0.316628 0.402481 0.660932
O O1 0.738115 0.097716 0.500000
O O2 0.500000 0.086097 0.675202
O O3 0.765978 0.051039 0.751714
O O4 0.718913 0.151227 0.741691
O O5 0.000000 0.000000 0.155748
O O6 0.748471 0.000000 0.000000
O O7 0.214172 0.248975 0.767438
O O8 0.000000 0.178807 0.810907
O O9 0.227566 0.190031 0.000000
O O10 0.500000 0.500000 0.833647
O O11 0.751626 0.552191 0.762795
O O12 0.749732 0.500000 0.000000
O O13 0.288629 0.722774 0.500000
O O14 0.500000 0.724725 0.294077
O O15 0.272887 0.655156 0.282209
O O16 0.247153 0.411046 0.500000
O O17 0.500000 0.406729 0.653090
#
# Coordination Sequence:
#
# PCOD8200638 Si02
#       6
#     8   4   8   4   8   8
#     4  11  24  41  62  88 115 145 185 228 268 315
#     4  11  24  41  62  90 122 153 186 223 264 314
#     4  11  24  39  55  79 110 143 180 221 268 323
#     4   9  15  21  33  59  94 129 166 207 252 306
#     4   9  18  33  53  77 103 134 176 222 267 319
#     4   8  14  25  41  62  92 129 166 207 257 311
#
# _framework density 19.642413999999999
#
# number of rings (size 3 to 8) (size 9 to 14) (size 15 to 20)
#    0.000    2.200    0.000    4.500    0.000   12.400 
#    0.000    2.000    0.000    0.000    0.000    0.700 
#    0.000    5.600    0.000    0.000    0.000    0.000 
#
# Total GULP energy -496017.064043 kJ/mol
# GULP energy per Si atom -12400.426601 kJ/mol
# Density = 1.959771 g / cm^3
# Si number density = 19.642414 Si / 1000 Ang^3
#
#
#
# Elastic Constant Matrix: (Units=GPa)
#
#
# Indices 1 2 3 4 5 6 
#
# 1 35.9795 17.9998 30.1471 0.0000 0.0000 0.0000
# 2 17.9998 147.6189 78.1364 0.0000 0.0000 0.0000
# 3 30.1471 78.1364 144.0742 0.0000 0.0000 0.0000
# 4 0.0000 0.0000 0.0000 114.9400 0.0000 0.0000
# 5 0.0000 0.0000 0.0000 0.0000 23.8889 0.0000
# 6 0.0000 0.0000 0.0000 0.0000 0.0000 -21.7069
#
#
#
# Elastic Compliance Matrix: (Units=1/GPa)
#
#
# Indices 1 2 3 4 5 6 
#
# 1 0.033732 -0.000529 -0.006772 0.000000 0.000000 0.000000
# 2 -0.000529 0.009510 -0.005047 0.000000 0.000000 0.000000
# 3 -0.006772 -0.005047 0.011095 0.000000 0.000000 0.000000
# 4 0.000000 0.000000 0.000000 0.008700 0.000000 0.000000
# 5 0.000000 0.000000 0.000000 0.000000 0.041860 0.000000
# 6 0.000000 0.000000 0.000000 0.000000 0.000000 -0.046068
#
#
# Mechanical properties :
#
#
# Convention : Reuss Voigt Hill
#
# Bulk Modulus (GPa) = 33.73552 64.47102 49.10327
# Shear Modulus (GPa) = 53.53042 36.85037 45.19039
#
# Velocity S-wave (km/s) = 5.22605 4.33605 4.80172
# Velocity P-wave (km/s) = 7.32309 7.61328 7.46959
#
# Compressibility (1/GPa) = 0.02964235
#
# Stress axis : x y z
#
# Youngs Moduli (GPa) = 29.64545 105.15105 90.13106
#
# Poissons Ratio (x) = 0.05561 0.61032
# Poissons Ratio (y) = 0.01568 0.45489
# Poissons Ratio (z) = 0.20074 0.53070
#
# Static dielectric constant tensor:
#      x y z
#    x 3.192050 0.000000 0.000000 
#    y 0.000000 3.904250 0.000000 
#    z 0.000000 0.000000 3.803370 
# 
# 
# High freq. dielectric constant tensor:
#      x y z
#    x 1.730070 0.000000 0.000000 
#    y 0.000000 1.784110 0.000000 
#    z 0.000000 0.000000 1.771580 
# 
# From -- ./inp_files/1780.got.cif
#   From: 2010.03.12/outbox.cif.g09.slc.cpg/sg47_1_cif.got.tgz:1780.got - 2010.04.14 03:12:58.
