data_PCOD8200737
_publ_section_title
;
Structure prediction by ZEFSAII (Michael W. Deem and Ramdas Pophale) SiO2 
 PCOD8200737
Probable space group: P M M M
;
_chemical_formula_sum "Si O2"
_cell_formula_units_Z 40
_cell_length_a 25.859620
_cell_length_b 9.226585
_cell_length_c 9.792467
_cell_angle_alpha 90.000000
_cell_angle_beta 90.000000
_cell_angle_gamma 90.000000
_cell_volume 2336.443280
_symmetry_space_group_name_H-M "P M M M"
_symmetry_group_IT_number 47
_symmetry_cell_setting 'orthorhombic'
loop_
_space_group_symop_operation_xyz
x,y,z
-x,-y,z
x,-y,-z
-x,y,-z
-x,-y,-z
x,y,-z
-x,y,z
x,-y,z
loop_
_atom_site_type_symbol
_atom_site_label
_atom_site_fract_x
_atom_site_fract_y
_atom_site_fract_z
Si Si1 0.888544 0.327006 0.654961
Si Si2 0.307915 0.172122 0.151057
Si Si3 0.399169 0.169931 0.341849
Si Si4 0.500000 0.336296 0.662306
Si Si5 0.000000 0.657889 0.338684
Si Si6 0.807725 0.166642 0.159684
O O1 0.875614 0.278770 0.500000
O O2 0.889137 0.500000 0.665433
O O3 0.846295 0.264762 0.755732
O O4 0.945571 0.264088 0.700362
O O5 0.349700 0.230007 0.259398
O O6 0.250355 0.221719 0.193860
O O7 0.308521 0.000000 0.146879
O O8 0.321656 0.232334 0.000000
O O9 0.388998 0.204699 0.500000
O O10 0.449237 0.253310 0.284405
O O11 0.408466 0.000000 0.317923
O O12 0.500000 0.500000 0.719092
O O13 0.500000 0.333860 0.500000
O O14 0.000000 0.500000 0.268028
O O15 0.000000 0.636283 0.500000
O O16 0.814811 0.000000 0.203483
O O17 0.819251 0.186066 0.000000
#
# Coordination Sequence:
#
# PCOD8200737 Si02
#       6
#     8   8   8   4   4   8
#     4   9  17  30  49  71  92 117 153 194 232 272
#     4   8  15  29  47  65  87 116 148 181 218 260
#     4   9  16  27  46  69  87 107 143 185 215 247
#     4   9  17  29  44  63  90 120 142 167 214 266
#     4   7  12  26  46  65  88 118 150 187 230 271
#     4   9  18  32  48  67  94 126 155 185 227 277
#
# _framework density 17.120038999999998
#
# number of rings (size 3 to 8) (size 9 to 14) (size 15 to 20)
#    0.000    3.400    0.000    2.700    0.000    2.800 
#    0.000    4.500    0.000   12.000    0.000    0.000 
#    0.000    0.000    0.000    0.000    0.000    0.000 
#
# Total GULP energy -495639.853932 kJ/mol
# GULP energy per Si atom -12390.996348 kJ/mol
# Density = 1.708107 g / cm^3
# Si number density = 17.120039 Si / 1000 Ang^3
#
#
#
# Elastic Constant Matrix: (Units=GPa)
#
#
# Indices 1 2 3 4 5 6 
#
# 1 175.5514 43.3448 74.7662 0.0000 0.0000 0.0000
# 2 43.3448 37.7794 26.6170 0.0000 0.0000 0.0000
# 3 74.7662 26.6170 63.1282 0.0000 0.0000 0.0000
# 4 0.0000 0.0000 0.0000 19.8314 0.0000 0.0000
# 5 0.0000 0.0000 0.0000 0.0000 -0.0349 0.0000
# 6 0.0000 0.0000 0.0000 0.0000 0.0000 -19.1963
#
#
#
# Elastic Compliance Matrix: (Units=1/GPa)
#
#
# Indices 1 2 3 4 5 6 
#
# 1 0.012234 -0.005445 -0.012193 0.000000 0.000000 0.000000
# 2 -0.005445 0.040079 -0.010449 0.000000 0.000000 0.000000
# 3 -0.012193 -0.010449 0.034688 0.000000 0.000000 0.000000
# 4 0.000000 0.000000 0.000000 0.050425 0.000000 0.000000
# 5 0.000000 0.000000 0.000000 0.000000-28.630203 0.000000
# 6 0.000000 0.000000 0.000000 0.000000 0.000000 -0.052093
#
#
# Mechanical properties :
#
#
# Convention : Reuss Voigt Hill
#
# Bulk Modulus (GPa) = 32.44165 62.87943 47.66054
# Shear Modulus (GPa) = -0.17557 8.90211 4.36327
#
# Velocity S-wave (km/s) = -0.32059 2.28278 1.59818
# Velocity P-wave (km/s) = 4.34208 6.61486 5.59509
#
# Compressibility (1/GPa) = 0.03082457
#
# Stress axis : x y z
#
# Youngs Moduli (GPa) = 81.74005 24.95069 28.82862
#
# Poissons Ratio (x) = 0.13587 0.35152
# Poissons Ratio (y) = 0.44512 0.30124
# Poissons Ratio (z) = 0.99668 0.26072
#
# Static dielectric constant tensor:
#      x y z
#    x 3.600240 0.000000 0.000000 
#    y 0.000000 2.858350 0.000000 
#    z 0.000000 0.000000 3.080520 
# 
# 
# High freq. dielectric constant tensor:
#      x y z
#    x 1.678670 0.000000 0.000000 
#    y 0.000000 1.623210 0.000000 
#    z 0.000000 0.000000 1.637600 
# 
# From -- ./inp_files/1767.got.cif
#   From: 2010.03.12/outbox.cif.g09.slc.cpg/sg47_1_cif.got.tgz:1767.got - 2010.04.14 03:12:58.
