data_PCOD8200000
_publ_section_title
;
Structure prediction by ZEFSAII (Michael W. Deem and Ramdas Pophale) SiO2 
 PCOD8200000
Probable space group: P M M M
;
_chemical_formula_sum "Si O2"
_cell_formula_units_Z 36
_cell_length_a 22.766133
_cell_length_b 9.229798
_cell_length_c 8.910628
_cell_angle_alpha 90.000000
_cell_angle_beta 90.000000
_cell_angle_gamma 90.000000
_cell_volume 1872.361826
_symmetry_space_group_name_H-M "P M M M"
_symmetry_group_IT_number 47
_symmetry_cell_setting 'orthorhombic'
loop_
_space_group_symop_operation_xyz
x,y,z
-x,-y,z
x,-y,-z
-x,y,-z
-x,-y,-z
x,y,-z
-x,y,z
x,-y,z
loop_
_atom_site_type_symbol
_atom_site_label
_atom_site_fract_x
_atom_site_fract_y
_atom_site_fract_z
Si Si1 0.726993 0.833292 0.674419
Si Si2 0.606236 0.832902 0.176098
Si Si3 0.500000 0.330245 0.325756
Si Si4 0.067753 0.832755 0.672341
Si Si5 0.168559 0.669840 0.172601
O O1 0.714524 0.807954 0.500000
O O2 0.669608 0.783209 0.764809
O O3 0.781298 0.737147 0.724475
O O4 0.742277 0.000000 0.709229
O O5 0.557750 0.735444 0.253026
O O6 0.594235 0.000000 0.217739
O O7 0.603703 0.806628 0.000000
O O8 0.500000 0.500000 0.295088
O O9 0.500000 0.291817 0.500000
O O10 0.082880 0.796108 0.500000
O O11 0.105727 0.733735 0.781706
O O12 0.000000 0.799104 0.706338
O O13 0.082137 0.000000 0.705094
O O14 0.167071 0.500000 0.201205
O O15 0.181349 0.707969 0.000000
#
# Coordination Sequence:
#
# PCOD8200000 Si02
#       5
#     8   8   4   8   8
#     4  10  21  38  61  86 110 141 184 231 277 327
#     4  10  21  38  61  87 113 144 184 229 278 330
#     4  11  24  39  56  82 116 153 190 227 272 326
#     4   9  19  37  60  84 109 140 182 230 277 327
#     4  11  24  38  53  79 115 151 185 224 273 328
#
# _framework density 19.227055
#
# number of rings (size 3 to 8) (size 9 to 14) (size 15 to 20)
#    0.000    1.889    0.000    4.000    0.000   11.556 
#    0.000    3.333    0.000    0.000    0.000    0.000 
#    0.000    0.000    0.000    0.000    0.000    0.000 
#
# Total GULP energy -446602.815221 kJ/mol
# GULP energy per Si atom -12405.633756 kJ/mol
# Density = 1.918329 g / cm^3
# Si number density = 19.227055 Si / 1000 Ang^3
#
#
#
# Elastic Constant Matrix: (Units=GPa)
#
#
# Indices 1 2 3 4 5 6 
#
# 1 120.6112 59.8313 51.1492 0.0000 0.0000 0.0000
# 2 59.8313 78.4492 55.9317 0.0000 0.0000 0.0000
# 3 51.1492 55.9317 84.0560 0.0000 0.0000 0.0000
# 4 0.0000 0.0000 0.0000 33.3618 0.0000 0.0000
# 5 0.0000 0.0000 0.0000 0.0000 57.5123 0.0000
# 6 0.0000 0.0000 0.0000 0.0000 0.0000 -113.0287
#
#
#
# Elastic Compliance Matrix: (Units=1/GPa)
#
#
# Indices 1 2 3 4 5 6 
#
# 1 0.013634 -0.008530 -0.002621 0.000000 0.000000 0.000000
# 2 -0.008530 0.029590 -0.014499 0.000000 0.000000 0.000000
# 3 -0.002621 -0.014499 0.023139 0.000000 0.000000 0.000000
# 4 0.000000 0.000000 0.000000 0.029974 0.000000 0.000000
# 5 0.000000 0.000000 0.000000 0.000000 0.017388 0.000000
# 6 0.000000 0.000000 0.000000 0.000000 0.000000 -0.008847
#
#
# Mechanical properties :
#
#
# Convention : Reuss Voigt Hill
#
# Bulk Modulus (GPa) = 66.38183 68.54896 67.46540
# Shear Modulus (GPa) = 31.01799 3.31604 17.16702
#
# Velocity S-wave (km/s) = 4.02088 1.31469 2.99131
# Velocity P-wave (km/s) = 7.49379 6.16720 6.86262
#
# Compressibility (1/GPa) = 0.01506436
#
# Stress axis : x y z
#
# Youngs Moduli (GPa) = 73.34729 33.79556 43.21699
#
# Poissons Ratio (x) = 0.28827 0.11325
# Poissons Ratio (y) = 0.62564 0.62659
# Poissons Ratio (z) = 0.19221 0.48999
#
# Static dielectric constant tensor:
#      x y z
#    x 3.580580 0.000000 0.000000 
#    y 0.000000 3.470140 0.000000 
#    z 0.000000 0.000000 3.620260 
# 
# 
# High freq. dielectric constant tensor:
#      x y z
#    x 1.762190 0.000000 0.000000 
#    y 0.000000 1.742860 0.000000 
#    z 0.000000 0.000000 1.759120 
# 
# From -- ./inp_files/12049.got.cif
#   From: 2010.03.12/outbox.cif.g09.slc.cpg/sg47_7_cif.got.tgz:12049.got - 2010.04.14 03:12:58.
