data_PCOD8200609
_publ_section_title
;
Structure prediction by ZEFSAII (Michael W. Deem and Ramdas Pophale) SiO2 
 PCOD8200609
Probable space group: P M M M
;
_chemical_formula_sum "Si O2"
_cell_formula_units_Z 40
_cell_length_a 9.048547
_cell_length_b 25.528005
_cell_length_c 9.586035
_cell_angle_alpha 90.000000
_cell_angle_beta 90.000000
_cell_angle_gamma 90.000000
_cell_volume 2214.291195
_symmetry_space_group_name_H-M "P M M M"
_symmetry_group_IT_number 47
_symmetry_cell_setting 'orthorhombic'
loop_
_space_group_symop_operation_xyz
x,y,z
-x,-y,z
x,-y,-z
-x,y,-z
-x,-y,-z
x,y,-z
-x,y,z
x,-y,z
loop_
_atom_site_type_symbol
_atom_site_label
_atom_site_fract_x
_atom_site_fract_y
_atom_site_fract_z
Si Si1 0.672365 0.266437 0.662360
Si Si2 0.324598 0.850944 0.653980
Si Si3 0.670905 0.560804 0.341161
Si Si4 0.675699 0.057626 0.844024
Si Si5 0.174673 0.354482 0.160189
O O1 0.710522 0.276296 0.500000
O O2 0.500000 0.277010 0.688332
O O3 0.716399 0.207260 0.706571
O O4 0.765477 0.304013 0.760063
O O5 0.259008 0.859829 0.500000
O O6 0.500000 0.856107 0.648811
O O7 0.254274 0.895870 0.751698
O O8 0.715983 0.574970 0.500000
O O9 0.500000 0.575016 0.317876
O O10 0.700024 0.500000 0.311769
O O11 0.768139 0.592911 0.232828
O O12 0.500000 0.062205 0.844902
O O13 0.721677 0.000000 0.786165
O O14 0.737294 0.064569 0.000000
O O15 0.000000 0.354057 0.169190
O O16 0.229010 0.353399 0.000000
#
# Coordination Sequence:
#
# PCOD8200609 Si02
#       5
#     8   8   8   8   8
#     4   9  18  33  52  72  94 123 163 208 248 290
#     4   8  14  24  38  58  83 111 147 192 238 281
#     4   9  19  37  60  83 104 128 162 201 238 281
#     4   8  13  20  30  48  78 115 151 185 224 275
#     4  11  24  37  49  72 105 135 164 200 241 286
#
# _framework density 18.064473
#
# number of rings (size 3 to 8) (size 9 to 14) (size 15 to 20)
#    0.000    3.000    0.000    3.600    0.000    6.800 
#    0.000    7.000    0.000    0.000    0.000    0.000 
#    0.000    0.800    0.000    8.800    0.000   14.400 
#
# Total GULP energy -495809.267899 kJ/mol
# GULP energy per Si atom -12395.231697 kJ/mol
# Density = 1.802336 g / cm^3
# Si number density = 18.064473 Si / 1000 Ang^3
#
#
#
# Elastic Constant Matrix: (Units=GPa)
#
#
# Indices 1 2 3 4 5 6 
#
# 1 38.1184 36.9787 41.3453 0.0000 0.0000 0.0000
# 2 36.9787 146.2986 88.7827 0.0000 0.0000 0.0000
# 3 41.3453 88.7827 121.2223 0.0000 0.0000 0.0000
# 4 0.0000 0.0000 0.0000 21.8865 0.0000 0.0000
# 5 0.0000 0.0000 0.0000 0.0000 20.8844 0.0000
# 6 0.0000 0.0000 0.0000 0.0000 0.0000 -3.3162
#
#
#
# Elastic Compliance Matrix: (Units=1/GPa)
#
#
# Indices 1 2 3 4 5 6 
#
# 1 0.042617 -0.003512 -0.011963 0.000000 0.000000 0.000000
# 2 -0.003512 0.012593 -0.008026 0.000000 0.000000 0.000000
# 3 -0.011963 -0.008026 0.018207 0.000000 0.000000 0.000000
# 4 0.000000 0.000000 0.000000 0.045690 0.000000 0.000000
# 5 0.000000 0.000000 0.000000 0.000000 0.047883 0.000000
# 6 0.000000 0.000000 0.000000 0.000000 0.000000 -0.301554
#
#
# Mechanical properties :
#
#
# Convention : Reuss Voigt Hill
#
# Bulk Modulus (GPa) = 37.85527 71.09474 54.47501
# Shear Modulus (GPa) = -63.48707 17.12646 -23.18030
#
# Velocity S-wave (km/s) = -5.93473 3.08242 -3.58606
# Velocity P-wave (km/s) = 5.09512 7.21872 3.61592
#
# Compressibility (1/GPa) = 0.02641640
#
# Stress axis : x y z
#
# Youngs Moduli (GPa) = 23.46486 79.40679 54.92247
#
# Poissons Ratio (x) = 0.27887 0.65705
# Poissons Ratio (y) = 0.08241 0.44078
# Poissons Ratio (z) = 0.28072 0.63728
#
# Static dielectric constant tensor:
#      x y z
#    x 2.840690 0.000000 0.000000 
#    y 0.000000 3.602350 0.000000 
#    z 0.000000 0.000000 3.574170 
# 
# 
# High freq. dielectric constant tensor:
#      x y z
#    x 1.647400 0.000000 0.000000 
#    y 0.000000 1.718250 0.000000 
#    z 0.000000 0.000000 1.698610 
# 
# From -- ./inp_files/1664.got.cif
#   From: 2010.03.12/outbox.cif.g09.slc.cpg/sg47_1_cif.got.tgz:1664.got - 2010.04.14 03:12:58.
