data_PCOD8200697
_publ_section_title
;
Structure prediction by ZEFSAII (Michael W. Deem and Ramdas Pophale) SiO2 
 PCOD8200697
Probable space group: P M M M
;
_chemical_formula_sum "Si O2"
_cell_formula_units_Z 52
_cell_length_a 9.774948
_cell_length_b 13.535271
_cell_length_c 26.711088
_cell_angle_alpha 90.000000
_cell_angle_beta 90.000000
_cell_angle_gamma 90.000000
_cell_volume 3534.052439
_symmetry_space_group_name_H-M "P M M M"
_symmetry_group_IT_number 47
_symmetry_cell_setting 'orthorhombic'
loop_
_space_group_symop_operation_xyz
x,y,z
-x,-y,z
x,-y,-z
-x,y,-z
-x,-y,-z
x,y,-z
-x,y,z
x,-y,z
loop_
_atom_site_type_symbol
_atom_site_label
_atom_site_fract_x
_atom_site_fract_y
_atom_site_fract_z
Si Si1 0.658272 0.301272 0.197977
Si Si2 0.162207 0.391972 0.500000
Si Si3 0.343721 0.110576 0.138880
Si Si4 0.153589 0.381907 0.607316
Si Si5 0.844674 0.389897 0.116978
Si Si6 0.657832 0.385498 0.696619
Si Si7 0.841217 0.800021 0.057166
O O1 0.500000 0.328058 0.189034
O O2 0.690890 0.187463 0.183414
O O3 0.746462 0.374290 0.164051
O O4 0.697984 0.319500 0.255512
O O5 0.231975 0.500000 0.500000
O O6 0.202471 0.338377 0.552684
O O7 0.000000 0.404745 0.500000
O O8 0.500000 0.124883 0.121078
O O9 0.247622 0.126837 0.090997
O O10 0.319028 0.000000 0.159653
O O11 0.157397 0.500000 0.603935
O O12 0.254495 0.343452 0.650367
O O13 0.000000 0.345853 0.620132
O O14 0.821692 0.500000 0.095521
O O15 0.811447 0.313303 0.072632
O O16 0.000000 0.375481 0.135945
O O17 0.500000 0.372357 0.682259
O O18 0.691830 0.500000 0.708182
O O19 0.000000 0.827139 0.064499
O O20 0.795677 0.813749 0.000000
#
# Coordination Sequence:
#
# PCOD8200697 Si02
#       7
#     8   4   8   8   8   8   8
#     4   9  17  29  43  57  76 102 128 156 192 232
#     4   7  10  18  31  45  63  91 128 163 188 210
#     4   9  18  32  48  63  77  96 125 159 193 229
#     4   8  13  21  33  48  67  95 130 162 187 211
#     4   9  17  28  42  60  80 102 129 158 184 214
#     4   9  16  24  34  51  75 100 125 152 183 220
#     4   9  18  31  45  62  83 104 125 150 184 227
#
# _framework density 14.713986999999999
#
# number of rings (size 3 to 8) (size 9 to 14) (size 15 to 20)
#    0.000    3.308    0.000    1.385    0.000    2.769 
#    0.000    5.000    0.000    2.308    0.000    4.308 
#    0.000    0.000    0.000    0.692    0.000   16.077 
#
# Total GULP energy -644433.328758 kJ/mol
# GULP energy per Si atom -12392.948630 kJ/mol
# Density = 1.468050 g / cm^3
# Si number density = 14.713987 Si / 1000 Ang^3
#
#
#
# Elastic Constant Matrix: (Units=GPa)
#
#
# Indices 1 2 3 4 5 6 
#
# 1 49.8148 21.8097 50.7170 0.0000 0.0000 0.0000
# 2 21.8097 58.6463 32.0598 0.0000 0.0000 0.0000
# 3 50.7170 32.0598 126.0453 0.0000 0.0000 0.0000
# 4 0.0000 0.0000 0.0000 10.3998 0.0000 0.0000
# 5 0.0000 0.0000 0.0000 0.0000 23.9186 0.0000
# 6 0.0000 0.0000 0.0000 0.0000 0.0000 14.7325
#
#
#
# Elastic Compliance Matrix: (Units=1/GPa)
#
#
# Indices 1 2 3 4 5 6 
#
# 1 0.035925 -0.006339 -0.012843 0.000000 0.000000 0.000000
# 2 -0.006339 0.020924 -0.002771 0.000000 0.000000 0.000000
# 3 -0.012843 -0.002771 0.013806 0.000000 0.000000 0.000000
# 4 0.000000 0.000000 0.000000 0.096156 0.000000 0.000000
# 5 0.000000 0.000000 0.000000 0.000000 0.041808 0.000000
# 6 0.000000 0.000000 0.000000 0.000000 0.000000 0.067877
#
#
# Mechanical properties :
#
#
# Convention : Reuss Voigt Hill
#
# Bulk Modulus (GPa) = 37.38554 49.29773 43.34164
# Shear Modulus (GPa) = 15.18283 18.47151 16.82717
#
# Velocity S-wave (km/s) = 3.21575 3.54697 3.38541
# Velocity P-wave (km/s) = 6.26509 7.09587 6.69338
#
# Compressibility (1/GPa) = 0.02674831
#
# Stress axis : x y z
#
# Youngs Moduli (GPa) = 27.83553 47.79239 72.43151
#
# Poissons Ratio (x) = 0.30297 0.93023
# Poissons Ratio (y) = 0.17646 0.20073
# Poissons Ratio (z) = 0.35749 0.13244
#
# Static dielectric constant tensor:
#      x y z
#    x 2.885840 0.000000 0.000000 
#    y 0.000000 2.635080 0.000000 
#    z 0.000000 0.000000 3.001940 
# 
# 
# High freq. dielectric constant tensor:
#      x y z
#    x 1.561600 0.000000 0.000000 
#    y 0.000000 1.522880 0.000000 
#    z 0.000000 0.000000 1.558540 
# 
# From -- ./inp_files/8021.got.cif
#   From: 2010.03.12/outbox.cif.g09.slc.cpg/sg47_5_cif.got.tgz:8021.got - 2010.04.14 03:12:58.
