data_PCOD8200623
_publ_section_title
;
Structure prediction by ZEFSAII (Michael W. Deem and Ramdas Pophale) SiO2 
 PCOD8200623
Probable space group: P M M M
;
_chemical_formula_sum "Si O2"
_cell_formula_units_Z 48
_cell_length_a 14.199271
_cell_length_b 12.652771
_cell_length_c 15.938637
_cell_angle_alpha 90.000000
_cell_angle_beta 90.000000
_cell_angle_gamma 90.000000
_cell_volume 2863.537505
_symmetry_space_group_name_H-M "P M M M"
_symmetry_group_IT_number 47
_symmetry_cell_setting 'orthorhombic'
loop_
_space_group_symop_operation_xyz
x,y,z
-x,-y,z
x,-y,-z
-x,y,-z
-x,-y,-z
x,y,-z
-x,y,z
x,-y,z
loop_
_atom_site_type_symbol
_atom_site_label
_atom_site_fract_x
_atom_site_fract_y
_atom_site_fract_z
Si Si1 0.389513 0.120886 0.596100
Si Si2 0.602727 0.375107 0.000000
Si Si3 0.718075 0.305819 0.321232
Si Si4 0.103910 0.000000 0.599055
Si Si5 0.892998 0.228796 0.598856
Si Si6 0.105472 0.625515 0.000000
Si Si7 0.611600 0.500000 0.598045
Si Si8 0.747625 0.375098 0.137010
O O1 0.366686 0.153512 0.500000
O O2 0.500000 0.133230 0.613552
O O3 0.332776 0.195570 0.658825
O O4 0.357339 0.000000 0.611259
O O5 0.657129 0.340545 0.916651
O O6 0.594645 0.500000 0.000000
O O7 0.500000 0.321335 0.000000
O O8 0.821936 0.314086 0.362579
O O9 0.653052 0.398084 0.356584
O O10 0.737136 0.312075 0.222725
O O11 0.149708 0.887701 0.625683
O O12 0.095429 0.000000 0.500000
O O13 0.000000 0.000000 0.638235
O O14 0.893172 0.242531 0.500000
O O15 0.000000 0.245335 0.632450
O O16 0.159801 0.661437 0.915289
O O17 0.103187 0.500000 0.000000
O O18 0.000000 0.673573 0.000000
O O19 0.500000 0.500000 0.610716
O O20 0.638386 0.500000 0.500000
O O21 0.750461 0.500000 0.154986
#
# Coordination Sequence:
#
# PCOD8200623 Si02
#       8
#     8   4   8   4   8   4   4   8
#     4   9  19  35  52  71  97 133 182 234 273 302
#     4   8  15  29  50  69  91 121 151 194 252 301
#     4  12  21  32  51  75 104 138 172 215 261 303
#     4   7  12  26  46  66  89 118 159 212 257 292
#     4   9  18  31  47  69  97 131 172 213 254 297
#     4   8  15  31  56  73  95 134 166 200 250 300
#     4  11  24  38  49  66  99 146 189 214 244 305
#     4   9  18  32  45  73 105 125 163 204 240 305
#
# _framework density 16.762484000000001
#
# number of rings (size 3 to 8) (size 9 to 14) (size 15 to 20)
#    0.000    2.667    0.833    4.500    1.167    3.333 
#    0.000    0.417    0.000    1.500    0.000    2.333 
#    0.000    6.667    0.000    0.000    0.000    0.000 
#
# Total GULP energy -594788.144246 kJ/mol
# GULP energy per Si atom -12391.419672 kJ/mol
# Density = 1.672433 g / cm^3
# Si number density = 16.762484 Si / 1000 Ang^3
#
#
#
# Elastic Constant Matrix: (Units=GPa)
#
#
# Indices 1 2 3 4 5 6 
#
# 1 116.7833 41.0256 59.6572 0.0000 0.0000 0.0000
# 2 41.0256 58.2785 40.3791 0.0000 0.0000 0.0000
# 3 59.6572 40.3791 107.2884 0.0000 0.0000 0.0000
# 4 0.0000 0.0000 0.0000 11.8743 0.0000 0.0000
# 5 0.0000 0.0000 0.0000 0.0000 9.9271 0.0000
# 6 0.0000 0.0000 0.0000 0.0000 0.0000 21.1595
#
#
#
# Elastic Compliance Matrix: (Units=1/GPa)
#
#
# Indices 1 2 3 4 5 6 
#
# 1 0.013227 -0.005702 -0.005209 0.000000 0.000000 0.000000
# 2 -0.005702 0.025670 -0.006491 0.000000 0.000000 0.000000
# 3 -0.005209 -0.006491 0.014660 0.000000 0.000000 0.000000
# 4 0.000000 0.000000 0.000000 0.084215 0.000000 0.000000
# 5 0.000000 0.000000 0.000000 0.000000 0.100734 0.000000
# 6 0.000000 0.000000 0.000000 0.000000 0.000000 0.047260
#
#
# Mechanical properties :
#
#
# Convention : Reuss Voigt Hill
#
# Bulk Modulus (GPa) = 53.32227 62.71934 58.02080
# Shear Modulus (GPa) = 15.29894 18.01141 16.65517
#
# Velocity S-wave (km/s) = 3.02435 3.28152 3.15556
# Velocity P-wave (km/s) = 6.63891 7.20108 6.92570
#
# Compressibility (1/GPa) = 0.01875389
#
# Stress axis : x y z
#
# Youngs Moduli (GPa) = 75.60406 38.95571 68.21440
#
# Poissons Ratio (x) = 0.22214 0.35530
# Poissons Ratio (y) = 0.43111 0.44275
# Poissons Ratio (z) = 0.39379 0.25284
#
# Static dielectric constant tensor:
#      x y z
#    x 3.617480 0.000000 0.000000 
#    y 0.000000 3.020650 0.000000 
#    z 0.000000 0.000000 2.934210 
# 
# 
# High freq. dielectric constant tensor:
#      x y z
#    x 1.664750 0.000000 0.000000 
#    y 0.000000 1.615860 0.000000 
#    z 0.000000 0.000000 1.618710 
# 
# From -- ./inp_files/23626.got.cif
#   From: 2010.03.12/outbox.cif.g09.slc.cpg/sg47_12_cif.got.tgz:23626.got - 2010.04.14 03:12:58.
