data_PCOD8200212
_publ_section_title
;
Structure prediction by ZEFSAII (Michael W. Deem and Ramdas Pophale) SiO2 
 PCOD8200212
Probable space group: P M M M
;
_chemical_formula_sum "Si O2"
_cell_formula_units_Z 64
_cell_length_a 14.138677
_cell_length_b 9.149848
_cell_length_c 31.142882
_cell_angle_alpha 90.000000
_cell_angle_beta 90.000000
_cell_angle_gamma 90.000000
_cell_volume 4028.853289
_symmetry_space_group_name_H-M "P M M M"
_symmetry_group_IT_number 47
_symmetry_cell_setting 'orthorhombic'
loop_
_space_group_symop_operation_xyz
x,y,z
-x,-y,z
x,-y,-z
-x,y,-z
-x,-y,-z
x,y,-z
-x,y,z
x,-y,z
loop_
_atom_site_type_symbol
_atom_site_label
_atom_site_fract_x
_atom_site_fract_y
_atom_site_fract_z
Si Si1 0.893944 0.673691 0.702928
Si Si2 0.607290 0.829945 0.754722
Si Si3 0.778968 0.326981 0.379339
Si Si4 0.782489 0.326734 0.213663
Si Si5 0.887424 0.168856 0.138341
Si Si6 0.105668 0.826757 0.045376
Si Si7 0.392337 0.168873 0.656065
Si Si8 0.108312 0.831963 0.450340
O O1 0.896616 0.500000 0.703003
O O2 0.841658 0.731591 0.660433
O O3 0.839431 0.731490 0.744827
O O4 0.000000 0.738156 0.703417
O O5 0.500000 0.796983 0.769265
O O6 0.676529 0.736636 0.784807
O O7 0.621193 0.782238 0.705352
O O8 0.630602 0.000000 0.760338
O O9 0.774567 0.500000 0.380523
O O10 0.673226 0.265754 0.374559
O O11 0.823325 0.271165 0.423405
O O12 0.777133 0.500000 0.212470
O O13 0.835640 0.272048 0.171712
O O14 0.848567 0.220885 0.090961
O O15 0.000000 0.191428 0.141313
O O16 0.861470 0.000000 0.147415
O O17 0.000000 0.762584 0.043865
O O18 0.099957 0.000000 0.046784
O O19 0.157182 0.777554 0.000000
O O20 0.500000 0.195893 0.641605
O O21 0.364916 0.000000 0.650645
O O22 0.132094 0.805618 0.500000
O O23 0.000000 0.788869 0.440756
O O24 0.126159 0.000000 0.437844
#
# Coordination Sequence:
#
# PCOD8200212 Si02
#       8
#     8   8   8   8   8   8   8   8
#     4   9  18  30  41  59  91 127 157 184 216 258
#     4   9  18  33  51  68  88 116 152 196 238 273
#     4  11  20  31  50  75 100 125 155 194 234 272
#     4  11  20  30  44  63  92 128 158 188 227 273
#     4   9  17  28  42  62  89 122 160 197 231 272
#     4   7  10  19  37  59  81 108 147 195 239 272
#     4   9  18  33  52  72  95 123 154 190 233 280
#     4   9  19  36  55  74  98 128 160 193 230 274
#
# _framework density 15.885412000000001
#
# number of rings (size 3 to 8) (size 9 to 14) (size 15 to 20)
#    0.000    2.750    1.250    3.750    0.000    2.250 
#    0.000    1.875    0.000    3.750    0.000    4.375 
#    0.000    0.500    0.000    5.750    0.000    1.875 
#
# Total GULP energy -793213.395247 kJ/mol
# GULP energy per Si atom -12393.959301 kJ/mol
# Density = 1.584926 g / cm^3
# Si number density = 15.885412 Si / 1000 Ang^3
#
#
#
# Elastic Constant Matrix: (Units=GPa)
#
#
# Indices 1 2 3 4 5 6 
#
# 1 86.4353 40.1898 46.9645 0.0000 0.0000 0.0000
# 2 40.1898 55.4754 39.6940 0.0000 0.0000 0.0000
# 3 46.9645 39.6940 102.9631 0.0000 0.0000 0.0000
# 4 0.0000 0.0000 0.0000 18.5491 0.0000 0.0000
# 5 0.0000 0.0000 0.0000 0.0000 9.6239 0.0000
# 6 0.0000 0.0000 0.0000 0.0000 0.0000 21.6045
#
#
#
# Elastic Compliance Matrix: (Units=1/GPa)
#
#
# Indices 1 2 3 4 5 6 
#
# 1 0.018913 -0.010397 -0.004619 0.000000 0.000000 0.000000
# 2 -0.010397 0.030608 -0.007058 0.000000 0.000000 0.000000
# 3 -0.004619 -0.007058 0.014540 0.000000 0.000000 0.000000
# 4 0.000000 0.000000 0.000000 0.053911 0.000000 0.000000
# 5 0.000000 0.000000 0.000000 0.000000 0.103908 0.000000
# 6 0.000000 0.000000 0.000000 0.000000 0.000000 0.046287
#
#
# Mechanical properties :
#
#
# Convention : Reuss Voigt Hill
#
# Bulk Modulus (GPa) = 50.21461 55.39671 52.80566
# Shear Modulus (GPa) = 15.67636 17.82387 16.75011
#
# Velocity S-wave (km/s) = 3.14481 3.35330 3.25073
# Velocity P-wave (km/s) = 6.69818 7.06691 6.88501
#
# Compressibility (1/GPa) = 0.01991452
#
# Stress axis : x y z
#
# Youngs Moduli (GPa) = 52.87303 32.67097 68.77737
#
# Poissons Ratio (x) = 0.33969 0.31765
# Poissons Ratio (y) = 0.54973 0.48540
# Poissons Ratio (z) = 0.24420 0.23058
#
# Static dielectric constant tensor:
#      x y z
#    x 2.890450 0.000000 0.000000 
#    y 0.000000 2.763950 0.000000 
#    z 0.000000 0.000000 3.168280 
# 
# 
# High freq. dielectric constant tensor:
#      x y z
#    x 1.589840 0.000000 0.000000 
#    y 0.000000 1.592300 0.000000 
#    z 0.000000 0.000000 1.605700 
# 
# From -- ./inp_files/14377.got.cif
#   From: 2010.03.12/outbox.cif.g09.slc.cpg/sg47_8_cif.got.tgz:14377.got - 2010.04.14 03:12:58.
