data_PCOD8200449
_publ_section_title
;
Structure prediction by ZEFSAII (Michael W. Deem and Ramdas Pophale) SiO2 
 PCOD8200449
Probable space group: P M M M
;
_chemical_formula_sum "Si O2"
_cell_formula_units_Z 52
_cell_length_a 13.635887
_cell_length_b 8.876368
_cell_length_c 26.752416
_cell_angle_alpha 90.000000
_cell_angle_beta 90.000000
_cell_angle_gamma 90.000000
_cell_volume 3238.036215
_symmetry_space_group_name_H-M "P M M M"
_symmetry_group_IT_number 47
_symmetry_cell_setting 'orthorhombic'
loop_
_space_group_symop_operation_xyz
x,y,z
-x,-y,z
x,-y,-z
-x,y,-z
-x,-y,-z
x,y,-z
-x,y,z
x,-y,z
loop_
_atom_site_type_symbol
_atom_site_label
_atom_site_fract_x
_atom_site_fract_y
_atom_site_fract_z
Si Si1 0.611964 0.323196 0.144944
Si Si2 0.208643 0.822649 0.096420
Si Si3 0.110321 0.327705 0.812433
Si Si4 0.113187 0.321441 0.000000
Si Si5 0.383513 0.168665 0.552889
Si Si6 0.705058 0.327781 0.751490
Si Si7 0.610124 0.179062 0.659867
O O1 0.500000 0.279324 0.133607
O O2 0.631705 0.500000 0.137647
O O3 0.680457 0.233103 0.106526
O O4 0.637894 0.276890 0.201766
O O5 0.138324 0.781936 0.142513
O O6 0.167576 0.742319 0.047930
O O7 0.209030 0.000000 0.087925
O O8 0.122214 0.500000 0.831513
O O9 0.181063 0.300668 0.765205
O O10 0.000000 0.293262 0.794850
O O11 0.121295 0.500000 0.000000
O O12 0.000000 0.269025 0.000000
O O13 0.351259 0.250642 0.500000
O O14 0.500000 0.161788 0.555332
O O15 0.350512 0.244231 0.605806
O O16 0.340939 0.000000 0.550619
O O17 0.683221 0.500000 0.737820
O O18 0.682758 0.228909 0.703305
O O19 0.500000 0.238774 0.671298
O O20 0.609276 0.000000 0.656663
#
# Coordination Sequence:
#
# PCOD8200449 Si02
#       7
#     8   8   8   4   8   8   8
#     4   9  18  34  53  69  90 125 163 188 209 251
#     4  11  22  34  51  77 103 120 141 181 228 267
#     4   9  18  34  52  66  85 117 153 182 212 260
#     4  11  23  39  58  75  94 123 155 184 216 261
#     4   7  10  18  32  49  71 103 143 180 209 243
#     4   9  17  28  43  64  87 112 144 180 217 256
#     4   9  16  24  36  57  84 113 144 177 213 253
#
# _framework density 16.059114999999998
#
# number of rings (size 3 to 8) (size 9 to 14) (size 15 to 20)
#    0.000    2.846    0.000    4.846    0.000    6.462 
#    0.000    0.385    0.000    2.769    0.000    2.154 
#    0.000    0.615    0.000    7.692    0.000    0.308 
#
# Total GULP energy -644334.299811 kJ/mol
# GULP energy per Si atom -12391.044227 kJ/mol
# Density = 1.602256 g / cm^3
# Si number density = 16.059115 Si / 1000 Ang^3
#
#
#
# Elastic Constant Matrix: (Units=GPa)
#
#
# Indices 1 2 3 4 5 6 
#
# 1 106.3145 28.5909 55.8509 0.0000 0.0000 0.0000
# 2 28.5909 46.1110 37.1205 0.0000 0.0000 0.0000
# 3 55.8509 37.1205 131.8387 0.0000 0.0000 0.0000
# 4 0.0000 0.0000 0.0000 33.0856 0.0000 0.0000
# 5 0.0000 0.0000 0.0000 0.0000 14.8402 0.0000
# 6 0.0000 0.0000 0.0000 0.0000 0.0000 14.5546
#
#
#
# Elastic Compliance Matrix: (Units=1/GPa)
#
#
# Indices 1 2 3 4 5 6 
#
# 1 0.012818 -0.004625 -0.004128 0.000000 0.000000 0.000000
# 2 -0.004625 0.029712 -0.006406 0.000000 0.000000 0.000000
# 3 -0.004128 -0.006406 0.011138 0.000000 0.000000 0.000000
# 4 0.000000 0.000000 0.000000 0.030225 0.000000 0.000000
# 5 0.000000 0.000000 0.000000 0.000000 0.067384 0.000000
# 6 0.000000 0.000000 0.000000 0.000000 0.000000 0.068707
#
#
# Mechanical properties :
#
#
# Convention : Reuss Voigt Hill
#
# Bulk Modulus (GPa) = 42.82819 58.59876 50.71348
# Shear Modulus (GPa) = 19.37345 23.34288 21.35816
#
# Velocity S-wave (km/s) = 3.47707 3.81669 3.65083
# Velocity P-wave (km/s) = 6.54576 7.48275 7.02988
#
# Compressibility (1/GPa) = 0.02334911
#
# Stress axis : x y z
#
# Youngs Moduli (GPa) = 78.01254 33.65678 89.78575
#
# Poissons Ratio (x) = 0.15565 0.37065
# Poissons Ratio (y) = 0.36079 0.57521
# Poissons Ratio (z) = 0.32205 0.21562
#
# Static dielectric constant tensor:
#      x y z
#    x 2.988690 0.000000 0.000000 
#    y 0.000000 2.846080 0.000000 
#    z 0.000000 0.000000 3.320250 
# 
# 
# High freq. dielectric constant tensor:
#      x y z
#    x 1.592510 0.000000 0.000000 
#    y 0.000000 1.598070 0.000000 
#    z 0.000000 0.000000 1.619310 
# 
# From -- ./inp_files/32667.got.cif
#   From: 2010.03.12/outbox.cif.g09.slc.cpg/sg47_17_cif.got.tgz:32667.got - 2010.04.14 03:12:58.
