data_PCOD8200476
_publ_section_title
;
Structure prediction by ZEFSAII (Michael W. Deem and Ramdas Pophale) SiO2 
 PCOD8200476
Probable space group: P M M M
;
_chemical_formula_sum "Si O2"
_cell_formula_units_Z 36
_cell_length_a 8.053567
_cell_length_b 11.737150
_cell_length_c 22.231203
_cell_angle_alpha 90.000000
_cell_angle_beta 90.000000
_cell_angle_gamma 90.000000
_cell_volume 2101.425003
_symmetry_space_group_name_H-M "P M M M"
_symmetry_group_IT_number 47
_symmetry_cell_setting 'orthorhombic'
loop_
_space_group_symop_operation_xyz
x,y,z
-x,-y,z
x,-y,-z
-x,y,-z
-x,-y,-z
x,y,-z
-x,y,z
x,-y,z
loop_
_atom_site_type_symbol
_atom_site_label
_atom_site_fract_x
_atom_site_fract_y
_atom_site_fract_z
Si Si1 0.196822 0.130321 0.728685
Si Si2 0.309220 0.500000 0.433729
Si Si3 0.314869 0.864669 0.142493
Si Si4 0.000000 0.135931 0.068262
Si Si5 0.192264 0.734155 0.385666
Si Si6 0.691296 0.133893 0.500000
O O1 0.282617 0.175926 0.789345
O O2 0.266773 0.207055 0.674074
O O3 0.000000 0.140081 0.736590
O O4 0.247747 0.000000 0.715262
O O5 0.500000 0.500000 0.447695
O O6 0.218772 0.500000 0.500000
O O7 0.268204 0.610295 0.394812
O O8 0.500000 0.822923 0.122147
O O9 0.168234 0.815794 0.099740
O O10 0.306476 0.000000 0.140067
O O11 0.000000 0.000000 0.071486
O O12 0.000000 0.179976 0.000000
O O13 0.222522 0.816056 0.441606
O O14 0.000000 0.716983 0.376073
O O15 0.500000 0.170475 0.500000
O O16 0.717421 0.000000 0.500000
#
# Coordination Sequence:
#
# PCOD8200476 Si02
#       6
#     8   4   8   4   8   4
#     4   9  17  31  49  70  97 125 157 202 253 298
#     4  11  23  39  55  69  94 126 158 199 252 311
#     4   9  16  26  42  63  90 127 166 202 242 289
#     4   9  16  26  40  60  92 130 167 206 238 274
#     4  11  22  35  55  75  92 122 164 206 248 298
#     4  11  23  36  49  70 101 127 153 197 250 299
#
# _framework density 17.131233999999999
#
# number of rings (size 3 to 8) (size 9 to 14) (size 15 to 20)
#    0.000    2.111    2.222    2.000    0.000    4.444 
#    0.000    4.444    0.000    0.000    0.000    0.000 
#    0.000    0.000    0.000    2.000    0.000    5.556 
#
# Total GULP energy -446284.543222 kJ/mol
# GULP energy per Si atom -12396.792867 kJ/mol
# Density = 1.709224 g / cm^3
# Si number density = 17.131234 Si / 1000 Ang^3
#
#
#
# Elastic Constant Matrix: (Units=GPa)
#
#
# Indices 1 2 3 4 5 6 
#
# 1 87.1070 22.5392 60.6342 0.0000 0.0000 0.0000
# 2 22.5392 63.1142 39.0726 0.0000 0.0000 0.0000
# 3 60.6342 39.0726 141.5734 0.0000 0.0000 0.0000
# 4 0.0000 0.0000 0.0000 9.2030 0.0000 0.0000
# 5 0.0000 0.0000 0.0000 0.0000 14.3190 0.0000
# 6 0.0000 0.0000 0.0000 0.0000 0.0000 20.9723
#
#
#
# Elastic Compliance Matrix: (Units=1/GPa)
#
#
# Indices 1 2 3 4 5 6 
#
# 1 0.016531 -0.001834 -0.006574 0.000000 0.000000 0.000000
# 2 -0.001834 0.019313 -0.004545 0.000000 0.000000 0.000000
# 3 -0.006574 -0.004545 0.011133 0.000000 0.000000 0.000000
# 4 0.000000 0.000000 0.000000 0.108660 0.000000 0.000000
# 5 0.000000 0.000000 0.000000 0.000000 0.069837 0.000000
# 6 0.000000 0.000000 0.000000 0.000000 0.000000 0.047682
#
#
# Mechanical properties :
#
#
# Convention : Reuss Voigt Hill
#
# Bulk Modulus (GPa) = 47.45611 59.58740 53.52176
# Shear Modulus (GPa) = 16.33538 20.20210 18.26874
#
# Velocity S-wave (km/s) = 3.09130 3.43775 3.26912
# Velocity P-wave (km/s) = 6.36421 7.11449 6.74978
#
# Compressibility (1/GPa) = 0.02107210
#
# Stress axis : x y z
#
# Youngs Moduli (GPa) = 60.49412 51.77948 89.82116
#
# Poissons Ratio (x) = 0.09495 0.59046
# Poissons Ratio (y) = 0.11093 0.40821
# Poissons Ratio (z) = 0.39767 0.23532
#
# Static dielectric constant tensor:
#      x y z
#    x 3.397840 0.000000 0.000000 
#    y 0.000000 2.829600 0.000000 
#    z 0.000000 0.000000 3.342400 
# 
# 
# High freq. dielectric constant tensor:
#      x y z
#    x 1.674180 0.000000 0.000000 
#    y 0.000000 1.606320 0.000000 
#    z 0.000000 0.000000 1.660240 
# 
# From -- ./inp_files/29283.got.cif
#   From: 2010.03.12/outbox.cif.g09.slc.cpg/sg47_15_cif.got.tgz:29283.got - 2010.04.14 03:12:58.
