data_PCOD8200959
_publ_section_title
;
Structure prediction by ZEFSAII (Michael W. Deem and Ramdas Pophale) SiO2 
 PCOD8200959
Probable space group: P M M M
;
_chemical_formula_sum "Si O2"
_cell_formula_units_Z 52
_cell_length_a 9.514687
_cell_length_b 33.424891
_cell_length_c 9.433963
_cell_angle_alpha 90.000000
_cell_angle_beta 90.000000
_cell_angle_gamma 90.000000
_cell_volume 3000.258497
_symmetry_space_group_name_H-M "P M M M"
_symmetry_group_IT_number 47
_symmetry_cell_setting 'orthorhombic'
loop_
_space_group_symop_operation_xyz
x,y,z
-x,-y,z
x,-y,-z
-x,y,-z
-x,-y,-z
x,y,-z
-x,y,z
x,-y,z
loop_
_atom_site_type_symbol
_atom_site_label
_atom_site_fract_x
_atom_site_fract_y
_atom_site_fract_z
Si Si1 0.162080 0.847231 0.335581
Si Si2 0.667178 0.544333 0.840915
Si Si3 0.332555 0.382553 0.340414
Si Si4 0.332938 0.000000 0.839605
Si Si5 0.162213 0.770169 0.835551
Si Si6 0.336516 0.306433 0.164213
Si Si7 0.336037 0.075930 0.664090
O O1 0.186641 0.838038 0.500000
O O2 0.215182 0.808744 0.249811
O O3 0.252929 0.884956 0.285439
O O4 0.000000 0.856704 0.301848
O O5 0.500000 0.546406 0.840620
O O6 0.716425 0.500000 0.791649
O O7 0.729213 0.577644 0.734723
O O8 0.722010 0.553066 0.000000
O O9 0.273460 0.380704 0.500000
O O10 0.500000 0.383994 0.339989
O O11 0.280405 0.343774 0.254975
O O12 0.278430 0.039183 0.757500
O O13 0.500000 0.000000 0.838530
O O14 0.274089 0.000000 0.000000
O O15 0.252069 0.732356 0.784241
O O16 0.000000 0.760883 0.802476
O O17 0.187998 0.779088 0.000000
O O18 0.500000 0.298151 0.192002
O O19 0.307155 0.316137 0.000000
O O20 0.305904 0.065881 0.500000
O O21 0.500000 0.083800 0.690579
#
# Coordination Sequence:
#
# PCOD8200959 Si02
#       7
#     8   8   8   4   8   8   8
#     4   9  18  32  48  66  89 116 144 175 214 258
#     4   8  13  21  33  49  72 106 144 175 206 251
#     4   9  16  24  35  54  80 108 138 175 217 254
#     4   9  17  29  46  69  94 118 146 181 218 252
#     4   9  18  32  48  65  86 113 144 178 216 256
#     4   9  17  29  44  61  83 112 143 174 211 256
#     4   9  17  30  48  68  90 118 150 180 211 251
#
# _framework density 17.331838999999999
#
# number of rings (size 3 to 8) (size 9 to 14) (size 15 to 20)
#    0.000    3.154    0.000    1.154    0.000    4.923 
#    0.000    1.923    0.000    2.308    0.000    0.000 
#    0.000    0.615    0.000    7.077    0.000    9.077 
#
# Total GULP energy -644741.125332 kJ/mol
# GULP energy per Si atom -12398.867795 kJ/mol
# Density = 1.729239 g / cm^3
# Si number density = 17.331839 Si / 1000 Ang^3
#
#
#
# Elastic Constant Matrix: (Units=GPa)
#
#
# Indices 1 2 3 4 5 6 
#
# 1 29.9955 48.6863 28.2128 0.0000 0.0000 0.0000
# 2 48.6863 196.0963 98.2821 0.0000 0.0000 0.0000
# 3 28.2128 98.2821 101.6430 0.0000 0.0000 0.0000
# 4 0.0000 0.0000 0.0000 35.9121 0.0000 0.0000
# 5 0.0000 0.0000 0.0000 0.0000 12.8722 0.0000
# 6 0.0000 0.0000 0.0000 0.0000 0.0000 1.5555
#
#
#
# Elastic Compliance Matrix: (Units=1/GPa)
#
#
# Indices 1 2 3 4 5 6 
#
# 1 0.056720 -0.012014 -0.004127 0.000000 0.000000 0.000000
# 2 -0.012014 0.012439 -0.008693 0.000000 0.000000 0.000000
# 3 -0.004127 -0.008693 0.019390 0.000000 0.000000 0.000000
# 4 0.000000 0.000000 0.000000 0.027846 0.000000 0.000000
# 5 0.000000 0.000000 0.000000 0.000000 0.077687 0.000000
# 6 0.000000 0.000000 0.000000 0.000000 0.000000 0.642863
#
#
# Mechanical properties :
#
#
# Convention : Reuss Voigt Hill
#
# Bulk Modulus (GPa) = 25.71973 75.34415 50.53194
# Shear Modulus (GPa) = 5.55819 20.23822 12.89820
#
# Velocity S-wave (km/s) = 1.79273 3.42086 2.73095
# Velocity P-wave (km/s) = 4.37687 7.69213 6.25803
#
# Compressibility (1/GPa) = 0.03888065
#
# Stress axis : x y z
#
# Youngs Moduli (GPa) = 17.63048 80.38977 51.57343
#
# Poissons Ratio (x) = 0.96579 0.21284
# Poissons Ratio (y) = 0.21181 0.44835
# Poissons Ratio (z) = 0.07276 0.69886
#
# Static dielectric constant tensor:
#      x y z
#    x 2.799900 0.000000 0.000000 
#    y 0.000000 3.442290 0.000000 
#    z 0.000000 0.000000 3.320910 
# 
# 
# High freq. dielectric constant tensor:
#      x y z
#    x 1.618070 0.000000 0.000000 
#    y 0.000000 1.681900 0.000000 
#    z 0.000000 0.000000 1.668860 
# 
# From -- ./inp_files/4519.got.cif
#   From: 2010.03.12/outbox.cif.g09.slc.cpg/sg47_3_cif.got.tgz:4519.got - 2010.04.14 03:12:58.
