data_PCOD8200665
_publ_section_title
;
Structure prediction by ZEFSAII (Michael W. Deem and Ramdas Pophale) SiO2 
 PCOD8200665
Probable space group: P M M M
;
_chemical_formula_sum "Si O2"
_cell_formula_units_Z 32
_cell_length_a 8.786075
_cell_length_b 14.185022
_cell_length_c 12.728399
_cell_angle_alpha 90.000000
_cell_angle_beta 90.000000
_cell_angle_gamma 90.000000
_cell_volume 1586.348859
_symmetry_space_group_name_H-M "P M M M"
_symmetry_group_IT_number 47
_symmetry_cell_setting 'orthorhombic'
loop_
_space_group_symop_operation_xyz
x,y,z
-x,-y,z
x,-y,-z
-x,y,-z
-x,-y,-z
x,y,-z
-x,y,z
x,-y,z
loop_
_atom_site_type_symbol
_atom_site_label
_atom_site_fract_x
_atom_site_fract_y
_atom_site_fract_z
Si Si1 0.818145 0.393245 0.772437
Si Si2 0.678099 0.214878 0.694185
Si Si3 0.179559 0.891666 0.500000
Si Si4 0.164628 0.610826 0.000000
Si Si5 0.174739 0.109583 0.119459
O O1 0.770442 0.500000 0.742715
O O2 0.741432 0.321989 0.690349
O O3 0.753284 0.364396 0.889424
O O4 0.000000 0.383195 0.770688
O O5 0.500000 0.216446 0.674249
O O6 0.756343 0.156024 0.603463
O O7 0.715223 0.168203 0.805909
O O8 0.000000 0.881233 0.500000
O O9 0.231020 0.000000 0.500000
O O10 0.136317 0.500000 0.000000
O O11 0.000000 0.662002 0.000000
O O12 0.000000 0.126618 0.152986
O O13 0.215779 0.000000 0.129431
O O14 0.201425 0.144227 0.000000
#
# Coordination Sequence:
#
# PCOD8200665 Si02
#       5
#     8   8   4   4   8
#     4   9  18  35  59  86 118 160 210 254 290 340
#     4  12  25  38  58  90 127 159 191 240 309 372
#     4  11  25  47  72  91 110 147 205 260 298 349
#     4   7  12  26  51  81 110 147 198 249 287 322
#     4   9  19  37  60  85 115 155 203 249 291 346
#
# _framework density 20.172108000000001
#
# number of rings (size 3 to 8) (size 9 to 14) (size 15 to 20)
#    0.000    2.250    0.000    5.625    1.750    5.500 
#    0.000    1.875    0.000    6.000    0.000    0.000 
#    0.000    0.000    0.000    0.000    0.000    0.000 
#
# Total GULP energy -396663.040842 kJ/mol
# GULP energy per Si atom -12395.720026 kJ/mol
# Density = 2.012620 g / cm^3
# Si number density = 20.172108 Si / 1000 Ang^3
#
#
#
# Elastic Constant Matrix: (Units=GPa)
#
#
# Indices 1 2 3 4 5 6 
#
# 1 57.8023 54.6874 39.5780 0.0000 0.0000 0.0000
# 2 54.6874 135.2517 74.2227 0.0000 0.0000 0.0000
# 3 39.5780 74.2227 99.0250 0.0000 0.0000 0.0000
# 4 0.0000 0.0000 0.0000 11.8837 0.0000 0.0000
# 5 0.0000 0.0000 0.0000 0.0000 -282.0281 0.0000
# 6 0.0000 0.0000 0.0000 0.0000 0.0000 -6.3685
#
#
#
# Elastic Compliance Matrix: (Units=1/GPa)
#
#
# Indices 1 2 3 4 5 6 
#
# 1 0.029308 -0.009211 -0.004810 0.000000 0.000000 0.000000
# 2 -0.009211 0.015455 -0.007902 0.000000 0.000000 0.000000
# 3 -0.004810 -0.007902 0.017944 0.000000 0.000000 0.000000
# 4 0.000000 0.000000 0.000000 0.084149 0.000000 0.000000
# 5 0.000000 0.000000 0.000000 0.000000 -0.003546 0.000000
# 6 0.000000 0.000000 0.000000 0.000000 0.000000 -0.157023
#
#
# Mechanical properties :
#
#
# Convention : Reuss Voigt Hill
#
# Bulk Modulus (GPa) = 53.02106 69.89502 61.45804
# Shear Modulus (GPa) = 137.28582 -47.06318 45.11132
#
# Velocity S-wave (km/s) = 8.25863 -4.83544 4.73411
# Velocity P-wave (km/s) = 10.82965 1.88395 7.77273
#
# Compressibility (1/GPa) = 0.01886043
#
# Stress axis : x y z
#
# Youngs Moduli (GPa) = 34.11999 64.70606 55.72896
#
# Poissons Ratio (x) = 0.59600 0.26806
# Poissons Ratio (y) = 0.31427 0.44039
# Poissons Ratio (z) = 0.16412 0.51133
#
# Static dielectric constant tensor:
#      x y z
#    x 3.325750 0.000000 0.000000 
#    y 0.000000 3.849810 0.000000 
#    z 0.000000 0.000000 3.055400 
# 
# 
# High freq. dielectric constant tensor:
#      x y z
#    x 1.753630 0.000000 0.000000 
#    y 0.000000 1.804800 0.000000 
#    z 0.000000 0.000000 1.778660 
# 
# From -- ./inp_files/3414.got.cif
#   From: 2010.03.12/outbox.cif.g09.slc.cpg/sg47_2_cif.got.tgz:3414.got - 2010.04.14 03:12:58.
