data_PCOD8200360
_publ_section_title
;
Structure prediction by ZEFSAII (Michael W. Deem and Ramdas Pophale) SiO2 
 PCOD8200360
Probable space group: P M M M
;
_chemical_formula_sum "Si O2"
_cell_formula_units_Z 32
_cell_length_a 7.744434
_cell_length_b 19.657882
_cell_length_c 11.702323
_cell_angle_alpha 90.000000
_cell_angle_beta 90.000000
_cell_angle_gamma 90.000000
_cell_volume 1781.551937
_symmetry_space_group_name_H-M "P M M M"
_symmetry_group_IT_number 47
_symmetry_cell_setting 'orthorhombic'
loop_
_space_group_symop_operation_xyz
x,y,z
-x,-y,z
x,-y,-z
-x,y,-z
-x,-y,-z
x,y,-z
-x,y,z
x,-y,z
loop_
_atom_site_type_symbol
_atom_site_label
_atom_site_fract_x
_atom_site_fract_y
_atom_site_fract_z
Si Si1 0.000000 0.078283 0.365125
Si Si2 0.301652 0.715678 0.872980
Si Si3 0.796769 0.427425 0.130724
Si Si4 0.198731 0.080105 0.000000
Si Si5 0.698353 0.852697 0.229357
O O1 0.825476 0.113173 0.320324
O O2 0.000000 0.084469 0.500000
O O3 0.000000 0.000000 0.323954
O O4 0.500000 0.731947 0.890052
O O5 0.276789 0.641589 0.811963
O O6 0.230437 0.775537 0.791680
O O7 0.212688 0.716900 0.000000
O O8 0.731939 0.500000 0.185691
O O9 0.000000 0.424622 0.139988
O O10 0.734269 0.427087 0.000000
O O11 0.296392 0.107831 0.110209
O O12 0.000000 0.104300 0.000000
O O13 0.212646 0.000000 0.000000
O O14 0.500000 0.854358 0.275448
#
# Coordination Sequence:
#
# PCOD8200360 Si02
#       5
#     4   8   8   4   8
#     4  11  26  45  61  79 102 134 182 230 273 324
#     4   9  17  28  43  69 103 137 172 207 251 307
#     4   8  14  23  36  58  92 137 180 208 236 286
#     4  11  21  33  53  82 112 141 171 209 265 329
#     4  11  22  37  57  82 111 141 176 219 268 324
#
# _framework density 17.961867999999999
#
# number of rings (size 3 to 8) (size 9 to 14) (size 15 to 20)
#    0.000    2.250    2.500    1.875    1.750    3.500 
#    0.000    3.750    0.000    0.000    0.000    0.000 
#    0.000    2.000    0.000    5.500    0.000    0.250 
#
# Total GULP energy -396438.345538 kJ/mol
# GULP energy per Si atom -12388.698298 kJ/mol
# Density = 1.792099 g / cm^3
# Si number density = 17.961868 Si / 1000 Ang^3
#
#
#
# Elastic Constant Matrix: (Units=GPa)
#
#
# Indices 1 2 3 4 5 6 
#
# 1 71.0942 47.6551 20.5676 0.0000 0.0000 0.0000
# 2 47.6551 182.8046 39.4086 0.0000 0.0000 0.0000
# 3 20.5676 39.4086 45.0448 0.0000 0.0000 0.0000
# 4 0.0000 0.0000 0.0000 -406.9535 0.0000 0.0000
# 5 0.0000 0.0000 0.0000 0.0000 47.0572 0.0000
# 6 0.0000 0.0000 0.0000 0.0000 0.0000 26.5515
#
#
#
# Elastic Compliance Matrix: (Units=1/GPa)
#
#
# Indices 1 2 3 4 5 6 
#
# 1 0.017930 -0.003586 -0.005050 0.000000 0.000000 0.000000
# 2 -0.003586 0.007459 -0.004888 0.000000 0.000000 0.000000
# 3 -0.005050 -0.004888 0.028783 0.000000 0.000000 0.000000
# 4 0.000000 0.000000 0.000000 -0.002457 0.000000 0.000000
# 5 0.000000 0.000000 0.000000 0.000000 0.021251 0.000000
# 6 0.000000 0.000000 0.000000 0.000000 0.000000 0.037663
#
#
# Mechanical properties :
#
#
# Convention : Reuss Voigt Hill
#
# Bulk Modulus (GPa) = 36.86799 57.13401 47.00100
# Shear Modulus (GPa) = 34.07910 -53.91481 -9.91786
#
# Velocity S-wave (km/s) = 4.36053 -5.48465 -2.35236
# Velocity P-wave (km/s) = 6.77662 2.86897 4.34117
#
# Compressibility (1/GPa) = 0.02712380
#
# Stress axis : x y z
#
# Youngs Moduli (GPa) = 55.77166 134.06874 34.74297
#
# Poissons Ratio (x) = 0.48071 0.17546
# Poissons Ratio (y) = 0.19997 0.16984
# Poissons Ratio (z) = 0.28165 0.65538
#
# Static dielectric constant tensor:
#      x y z
#    x 3.303930 0.000000 0.000000 
#    y 0.000000 3.968110 0.000000 
#    z 0.000000 0.000000 2.739870 
# 
# 
# High freq. dielectric constant tensor:
#      x y z
#    x 1.697960 0.000000 0.000000 
#    y 0.000000 1.729780 0.000000 
#    z 0.000000 0.000000 1.606370 
# 
# From -- ./inp_files/8593.got.cif
#   From: 2010.03.12/outbox.cif.g09.slc.cpg/sg47_5_cif.got.tgz:8593.got - 2010.04.14 03:12:58.
