data_PCOD8200939
_publ_section_title
;
Structure prediction by ZEFSAII (Michael W. Deem and Ramdas Pophale) SiO2 
 PCOD8200939
Probable space group: P M M M
;
_chemical_formula_sum "Si O2"
_cell_formula_units_Z 52
_cell_length_a 13.447434
_cell_length_b 9.810758
_cell_length_c 22.842465
_cell_angle_alpha 90.000000
_cell_angle_beta 90.000000
_cell_angle_gamma 90.000000
_cell_volume 3013.595459
_symmetry_space_group_name_H-M "P M M M"
_symmetry_group_IT_number 47
_symmetry_cell_setting 'orthorhombic'
loop_
_space_group_symop_operation_xyz
x,y,z
-x,-y,z
x,-y,-z
-x,y,-z
-x,-y,-z
x,y,-z
-x,y,z
x,-y,z
loop_
_atom_site_type_symbol
_atom_site_label
_atom_site_fract_x
_atom_site_fract_y
_atom_site_fract_z
Si Si1 0.890255 0.338030 0.566401
Si Si2 0.235942 0.844383 0.934436
Si Si3 0.696499 0.339133 0.631232
Si Si4 0.114182 0.157311 0.177594
Si Si5 0.613924 0.343534 0.875876
Si Si6 0.500000 0.337509 0.433057
Si Si7 0.264830 0.657090 0.238093
O O1 0.873186 0.288920 0.500000
O O2 0.888539 0.500000 0.569426
O O3 0.799710 0.277365 0.605172
O O4 0.000000 0.287154 0.588367
O O5 0.149103 0.809209 0.888534
O O6 0.330197 0.748833 0.922962
O O7 0.271362 0.000000 0.927025
O O8 0.195287 0.817713 0.000000
O O9 0.697381 0.500000 0.621683
O O10 0.599099 0.278841 0.598699
O O11 0.689487 0.300772 0.699526
O O12 0.169716 0.249963 0.224879
O O13 0.000000 0.196591 0.181337
O O14 0.133923 0.000000 0.193185
O O15 0.500000 0.301618 0.878096
O O16 0.631236 0.500000 0.893568
O O17 0.650908 0.315551 0.810051
O O18 0.500000 0.500000 0.429704
O O19 0.500000 0.286888 0.500000
O O20 0.229733 0.500000 0.238335
#
# Coordination Sequence:
#
# PCOD8200939 Si02
#       7
#     8   8   8   8   8   4   8
#     4   8  13  21  32  47  73 109 143 176 220 272
#     4   9  18  32  49  70  93 115 146 188 229 273
#     4   9  16  24  37  58  84 117 154 191 229 270
#     4   9  18  33  51  69  92 122 151 183 228 278
#     4   9  18  31  46  63  88 123 156 187 227 273
#     4   9  16  24  36  58  91 127 158 191 234 284
#     4   9  18  30  45  67  92 120 154 193 229 267
#
# _framework density 17.255136
#
# number of rings (size 3 to 8) (size 9 to 14) (size 15 to 20)
#    0.000    3.154    0.000    0.923    1.077    4.000 
#    0.000    4.615    0.000    0.000    0.000    4.308 
#    0.000    3.077    0.000    8.462    0.000    6.462 
#
# Total GULP energy -644602.574239 kJ/mol
# GULP energy per Si atom -12396.203351 kJ/mol
# Density = 1.721586 g / cm^3
# Si number density = 17.255136 Si / 1000 Ang^3
#
#
#
# Elastic Constant Matrix: (Units=GPa)
#
#
# Indices 1 2 3 4 5 6 
#
# 1 118.0094 30.4755 44.7272 0.0000 0.0000 0.0000
# 2 30.4755 33.8291 24.4159 0.0000 0.0000 0.0000
# 3 44.7272 24.4159 100.3470 0.0000 0.0000 0.0000
# 4 0.0000 0.0000 0.0000 11.9033 0.0000 0.0000
# 5 0.0000 0.0000 0.0000 0.0000 18.5664 0.0000
# 6 0.0000 0.0000 0.0000 0.0000 0.0000 19.3515
#
#
#
# Elastic Compliance Matrix: (Units=1/GPa)
#
#
# Indices 1 2 3 4 5 6 
#
# 1 0.011861 -0.008333 -0.003259 0.000000 0.000000 0.000000
# 2 -0.008333 0.041712 -0.006435 0.000000 0.000000 0.000000
# 3 -0.003259 -0.006435 0.012984 0.000000 0.000000 0.000000
# 4 0.000000 0.000000 0.000000 0.084011 0.000000 0.000000
# 5 0.000000 0.000000 0.000000 0.000000 0.053861 0.000000
# 6 0.000000 0.000000 0.000000 0.000000 0.000000 0.051676
#
#
# Mechanical properties :
#
#
# Convention : Reuss Voigt Hill
#
# Bulk Modulus (GPa) = 32.78426 50.15806 41.47116
# Shear Modulus (GPa) = 16.53849 20.13537 18.33693
#
# Velocity S-wave (km/s) = 3.09927 3.41973 3.26344
# Velocity P-wave (km/s) = 5.64343 6.68762 6.18759
#
# Compressibility (1/GPa) = 0.03050244
#
# Stress axis : x y z
#
# Youngs Moduli (GPa) = 84.30865 23.97416 77.01875
#
# Poissons Ratio (x) = 0.19978 0.25103
# Poissons Ratio (y) = 0.70254 0.49560
# Poissons Ratio (z) = 0.27479 0.15427
#
# Static dielectric constant tensor:
#      x y z
#    x 3.407370 0.000000 0.000000 
#    y 0.000000 2.831590 0.000000 
#    z 0.000000 0.000000 3.281710 
# 
# 
# High freq. dielectric constant tensor:
#      x y z
#    x 1.671020 0.000000 0.000000 
#    y 0.000000 1.615320 0.000000 
#    z 0.000000 0.000000 1.670160 
# 
# From -- ./inp_files/30847.got.cif
#   From: 2010.03.12/outbox.cif.g09.slc.cpg/sg47_16_cif.got.tgz:30847.got - 2010.04.14 03:12:58.
