data_PCOD8200879
_publ_section_title
;
Structure prediction by ZEFSAII (Michael W. Deem and Ramdas Pophale) SiO2 
 PCOD8200879
Probable space group: P M M M
;
_chemical_formula_sum "Si O2"
_cell_formula_units_Z 48
_cell_length_a 9.894941
_cell_length_b 30.427305
_cell_length_c 9.894487
_cell_angle_alpha 90.000000
_cell_angle_beta 90.000000
_cell_angle_gamma 90.000000
_cell_volume 2978.996405
_symmetry_space_group_name_H-M "P M M M"
_symmetry_group_IT_number 47
_symmetry_cell_setting 'orthorhombic'
loop_
_space_group_symop_operation_xyz
x,y,z
-x,-y,z
x,-y,-z
-x,y,-z
-x,-y,-z
x,y,-z
-x,y,z
x,-y,z
loop_
_atom_site_type_symbol
_atom_site_label
_atom_site_fract_x
_atom_site_fract_y
_atom_site_fract_z
Si Si1 0.838863 0.622455 0.349567
Si Si2 0.658053 0.891436 0.656406
Si Si3 0.849722 0.280554 0.338919
Si Si4 0.350576 0.792439 0.339640
Si Si5 0.160757 0.548842 0.848744
Si Si6 0.845775 0.948582 0.154638
O O1 0.781464 0.613821 0.500000
O O2 0.796054 0.670967 0.296955
O O3 0.776723 0.585313 0.251359
O O4 0.000000 0.620234 0.353137
O O5 0.694310 0.899789 0.500000
O O6 0.500000 0.900353 0.681630
O O7 0.695592 0.841603 0.698917
O O8 0.744969 0.923651 0.747156
O O9 0.854227 0.277997 0.500000
O O10 0.752130 0.243251 0.276886
O O11 0.000000 0.272288 0.280562
O O12 0.354953 0.788178 0.500000
O O13 0.500000 0.782958 0.280935
O O14 0.206769 0.500000 0.802361
O O15 0.000000 0.551574 0.846591
O O16 0.213744 0.558377 0.000000
O O17 0.000000 0.935551 0.189089
O O18 0.823898 0.000000 0.177838
O O19 0.812525 0.936038 0.000000
#
# Coordination Sequence:
#
# PCOD8200879 Si02
#       6
#     8   8   8   8   8   8
#     4   8  13  20  30  46  68  93 122 156 191 227
#     4   9  18  31  47  70  96 118 145 183 222 259
#     4   8  13  21  34  53  76 102 133 166 198 236
#     4   8  14  25  40  59  85 113 138 167 204 245
#     4   8  13  20  29  42  63  93 125 153 186 232
#     4   9  19  35  51  67  90 120 152 184 218 259
#
# _framework density 16.11281
#
# number of rings (size 3 to 8) (size 9 to 14) (size 15 to 20)
#    0.000    3.667    0.000    3.000    0.000    2.333 
#    0.000    5.833    0.000    1.000    0.000    2.333 
#    0.000    0.667    0.000    8.333    0.000    9.667 
#
# Total GULP energy -594806.522691 kJ/mol
# GULP energy per Si atom -12391.802556 kJ/mol
# Density = 1.607614 g / cm^3
# Si number density = 16.112810 Si / 1000 Ang^3
#
#
#
# Elastic Constant Matrix: (Units=GPa)
#
#
# Indices 1 2 3 4 5 6 
#
# 1 59.3830 61.7214 39.9387 0.0000 0.0000 0.0000
# 2 61.7214 127.0945 63.8913 0.0000 0.0000 0.0000
# 3 39.9387 63.8913 64.7540 0.0000 0.0000 0.0000
# 4 0.0000 0.0000 0.0000 2.7252 0.0000 0.0000
# 5 0.0000 0.0000 0.0000 0.0000 15.7589 0.0000
# 6 0.0000 0.0000 0.0000 0.0000 0.0000 3.6075
#
#
#
# Elastic Compliance Matrix: (Units=1/GPa)
#
#
# Indices 1 2 3 4 5 6 
#
# 1 0.037070 -0.012914 -0.010122 0.000000 0.000000 0.000000
# 2 -0.012914 0.020111 -0.011878 0.000000 0.000000 0.000000
# 3 -0.010122 -0.011878 0.033405 0.000000 0.000000 0.000000
# 4 0.000000 0.000000 0.000000 0.366947 0.000000 0.000000
# 5 0.000000 0.000000 0.000000 0.000000 0.063456 0.000000
# 6 0.000000 0.000000 0.000000 0.000000 0.000000 0.277197
#
#
# Mechanical properties :
#
#
# Convention : Reuss Voigt Hill
#
# Bulk Modulus (GPa) = 48.17213 64.70383 56.43798
# Shear Modulus (GPa) = 5.71472 10.13033 7.92253
#
# Velocity S-wave (km/s) = 1.88531 2.51014 2.21982
# Velocity P-wave (km/s) = 5.89075 6.97460 6.45546
#
# Compressibility (1/GPa) = 0.02075889
#
# Stress axis : x y z
#
# Youngs Moduli (GPa) = 26.97594 49.72480 29.93537
#
# Poissons Ratio (x) = 0.64216 0.30300
# Poissons Ratio (y) = 0.34837 0.35556
# Poissons Ratio (z) = 0.27304 0.59061
#
# Static dielectric constant tensor:
#      x y z
#    x 2.888990 0.000000 0.000000 
#    y 0.000000 3.314690 0.000000 
#    z 0.000000 0.000000 2.859190 
# 
# 
# High freq. dielectric constant tensor:
#      x y z
#    x 1.582090 0.000000 0.000000 
#    y 0.000000 1.631050 0.000000 
#    z 0.000000 0.000000 1.584310 
# 
# From -- ./inp_files/4435.got.cif
#   From: 2010.03.12/outbox.cif.g09.slc.cpg/sg47_3_cif.got.tgz:4435.got - 2010.04.14 03:12:58.
