data_PCOD8200143
_publ_section_title
;
Structure prediction by ZEFSAII (Michael W. Deem and Ramdas Pophale) SiO2 
 PCOD8200143
Probable space group: P M M M
;
_chemical_formula_sum "Si O2"
_cell_formula_units_Z 48
_cell_length_a 18.613518
_cell_length_b 10.002579
_cell_length_c 14.335883
_cell_angle_alpha 90.000000
_cell_angle_beta 90.000000
_cell_angle_gamma 90.000000
_cell_volume 2669.100346
_symmetry_space_group_name_H-M "P M M M"
_symmetry_group_IT_number 47
_symmetry_cell_setting 'orthorhombic'
loop_
_space_group_symop_operation_xyz
x,y,z
-x,-y,z
x,-y,-z
-x,y,-z
-x,-y,-z
x,y,-z
-x,y,z
x,-y,z
loop_
_atom_site_type_symbol
_atom_site_label
_atom_site_fract_x
_atom_site_fract_y
_atom_site_fract_z
Si Si1 0.416181 0.000000 0.351775
Si Si2 0.215209 0.845698 0.785487
Si Si3 0.638218 0.500000 0.603318
Si Si4 0.920710 0.158097 0.895638
Si Si5 0.420167 0.500000 0.796041
Si Si6 0.701941 0.786302 0.396048
Si Si7 0.340412 0.267726 0.897221
Si Si8 0.580629 0.000000 0.868101
O O1 0.373069 0.867767 0.383971
O O2 0.500000 0.000000 0.388310
O O3 0.415130 0.000000 0.242016
O O4 0.134593 0.798703 0.813282
O O5 0.235549 0.828064 0.676536
O O6 0.264249 0.753789 0.849695
O O7 0.227473 0.000000 0.812881
O O8 0.602212 0.500000 0.500000
O O9 0.577965 0.500000 0.683342
O O10 0.687969 0.370460 0.616373
O O11 0.000000 0.216485 0.871496
O O12 0.925095 0.000000 0.897787
O O13 0.896997 0.207396 0.000000
O O14 0.500000 0.500000 0.835424
O O15 0.383075 0.366970 0.831350
O O16 0.731442 0.816335 0.500000
O O17 0.382004 0.129870 0.908622
O O18 0.329700 0.330340 0.000000
O O19 0.500000 0.000000 0.904886
#
# Coordination Sequence:
#
# PCOD8200143 Si02
#       8
#     4   8   4   8   4   8   8   4
#     4  11  21  37  55  76 105 137 175 229 291 337
#     4  11  19  33  54  83 111 141 177 223 266 313
#     4  10  22  40  59  76  98 132 181 231 273 322
#     4   8  15  28  49  80 117 151 178 208 254 313
#     4  12  25  41  54  71 105 140 177 227 276 329
#     4  11  21  36  56  79 104 137 180 226 282 333
#     4  12  23  36  53  75 101 139 181 218 264 317
#     4  11  21  35  53  72  99 132 174 225 266 308
#
# _framework density 17.983588000000001
#
# number of rings (size 3 to 8) (size 9 to 14) (size 15 to 20)
#    0.000    1.333    5.000    2.250    0.000    5.500 
#    0.000    1.667    0.000    0.500    0.000    4.667 
#    0.000    8.667    0.000    0.000    0.000    0.000 
#
# Total GULP energy -594916.227407 kJ/mol
# GULP energy per Si atom -12394.088071 kJ/mol
# Density = 1.794266 g / cm^3
# Si number density = 17.983588 Si / 1000 Ang^3
#
#
#
# Elastic Constant Matrix: (Units=GPa)
#
#
# Indices 1 2 3 4 5 6 
#
# 1 131.7698 32.8011 65.7268 0.0000 0.0000 0.0000
# 2 32.8011 85.7896 20.2663 0.0000 0.0000 0.0000
# 3 65.7268 20.2663 144.1260 0.0000 0.0000 0.0000
# 4 0.0000 0.0000 0.0000 24.6816 0.0000 0.0000
# 5 0.0000 0.0000 0.0000 0.0000 14.8517 0.0000
# 6 0.0000 0.0000 0.0000 0.0000 0.0000 11.8775
#
#
#
# Elastic Compliance Matrix: (Units=1/GPa)
#
#
# Indices 1 2 3 4 5 6 
#
# 1 0.010515 -0.002987 -0.004375 0.000000 0.000000 0.000000
# 2 -0.002987 0.012905 -0.000453 0.000000 0.000000 0.000000
# 3 -0.004375 -0.000453 0.008997 0.000000 0.000000 0.000000
# 4 0.000000 0.000000 0.000000 0.040516 0.000000 0.000000
# 5 0.000000 0.000000 0.000000 0.000000 0.067332 0.000000
# 6 0.000000 0.000000 0.000000 0.000000 0.000000 0.084193
#
#
# Mechanical properties :
#
#
# Convention : Reuss Voigt Hill
#
# Bulk Modulus (GPa) = 59.56512 66.58598 63.07555
# Shear Modulus (GPa) = 20.35140 26.47492 23.41316
#
# Velocity S-wave (km/s) = 3.36767 3.84105 3.61212
# Velocity P-wave (km/s) = 6.95093 7.53511 7.24891
#
# Compressibility (1/GPa) = 0.01678835
#
# Stress axis : x y z
#
# Youngs Moduli (GPa) = 95.10403 77.48753 111.14500
#
# Poissons Ratio (x) = 0.23143 0.48628
# Poissons Ratio (y) = 0.28405 0.05031
# Poissons Ratio (z) = 0.41610 0.03507
#
# Static dielectric constant tensor:
#      x y z
#    x 3.446800 0.000000 0.000000 
#    y 0.000000 3.267180 0.000000 
#    z 0.000000 0.000000 3.577400 
# 
# 
# High freq. dielectric constant tensor:
#      x y z
#    x 1.668140 0.000000 0.000000 
#    y 0.000000 1.683250 0.000000 
#    z 0.000000 0.000000 1.710740 
# 
# From -- ./inp_files/24545.got.cif
#   From: 2010.03.12/outbox.cif.g09.slc.cpg/sg47_13_cif.got.tgz:24545.got - 2010.04.14 03:12:58.
