data_PCOD8200442
_publ_section_title
;
Structure prediction by ZEFSAII (Michael W. Deem and Ramdas Pophale) SiO2 
 PCOD8200442
Probable space group: P M M M
;
_chemical_formula_sum "Si O2"
_cell_formula_units_Z 64
_cell_length_a 14.906324
_cell_length_b 9.282426
_cell_length_c 23.884652
_cell_angle_alpha 90.000000
_cell_angle_beta 90.000000
_cell_angle_gamma 90.000000
_cell_volume 3304.844048
_symmetry_space_group_name_H-M "P M M M"
_symmetry_group_IT_number 47
_symmetry_cell_setting 'orthorhombic'
loop_
_space_group_symop_operation_xyz
x,y,z
-x,-y,z
x,-y,-z
-x,y,-z
-x,-y,-z
x,y,-z
-x,y,z
x,-y,z
loop_
_atom_site_type_symbol
_atom_site_label
_atom_site_fract_x
_atom_site_fract_y
_atom_site_fract_z
Si Si1 0.768461 0.829451 0.181259
Si Si2 0.764992 0.167614 0.939330
Si Si3 0.596677 0.656241 0.065052
Si Si4 0.263723 0.165533 0.435989
Si Si5 0.101844 0.333973 0.391291
Si Si6 0.604197 0.334674 0.642974
Si Si7 0.602521 0.330721 0.228961
Si Si8 0.896120 0.663473 0.261710
O O1 0.813944 0.793362 0.119454
O O2 0.671430 0.753184 0.188606
O O3 0.838189 0.775133 0.226768
O O4 0.754598 0.000000 0.187836
O O5 0.664518 0.214771 0.924092
O O6 0.766580 0.000000 0.949140
O O7 0.798544 0.237137 0.000000
O O8 0.500000 0.693025 0.093134
O O9 0.630905 0.500000 0.088784
O O10 0.582270 0.638205 0.000000
O O11 0.294270 0.183368 0.500000
O O12 0.167024 0.238584 0.428652
O O13 0.339031 0.235630 0.397652
O O14 0.254329 0.000000 0.418709
O O15 0.113754 0.500000 0.408194
O O16 0.126715 0.312220 0.326431
O O17 0.000000 0.284142 0.402751
O O18 0.500000 0.310299 0.629670
O O19 0.631350 0.500000 0.632290
O O20 0.625658 0.291924 0.706850
O O21 0.500000 0.284847 0.215518
O O22 0.614746 0.500000 0.219300
O O23 0.871571 0.500000 0.244370
O O24 0.000000 0.694365 0.249829
#
# Coordination Sequence:
#
# PCOD8200442 Si02
#       8
#     8   8   8   8   8   8   8   8
#     4  11  22  33  51  80 108 135 171 216 262 310
#     4   9  19  34  47  62  92 134 173 206 245 297
#     4   8  14  25  41  61  84 112 153 204 248 285
#     4  11  24  37  50  76 114 150 181 216 262 313
#     4   9  19  37  60  83 106 136 175 215 256 308
#     4   9  19  37  59  79 100 134 183 231 269 309
#     4   9  19  36  56  78 106 140 176 216 266 320
#     4   9  19  37  60  84 108 133 164 208 264 321
#
# _framework density 19.365511999999999
#
# number of rings (size 3 to 8) (size 9 to 14) (size 15 to 20)
#    0.000    2.625    0.000    3.375    0.000    8.250 
#    0.000    8.750    0.000    0.375    0.000    2.625 
#    0.000    0.000    0.000    0.000    0.000    0.000 
#
# Total GULP energy -792917.485673 kJ/mol
# GULP energy per Si atom -12389.335714 kJ/mol
# Density = 1.932144 g / cm^3
# Si number density = 19.365512 Si / 1000 Ang^3
#
#
#
# Elastic Constant Matrix: (Units=GPa)
#
#
# Indices 1 2 3 4 5 6 
#
# 1 50.6409 26.9675 32.3821 0.0000 0.0000 0.0000
# 2 26.9675 59.7825 45.2705 0.0000 0.0000 0.0000
# 3 32.3821 45.2705 103.7225 0.0000 0.0000 0.0000
# 4 0.0000 0.0000 0.0000 -50.9490 0.0000 0.0000
# 5 0.0000 0.0000 0.0000 0.0000 -0.9015 0.0000
# 6 0.0000 0.0000 0.0000 0.0000 0.0000 6.3636
#
#
#
# Elastic Compliance Matrix: (Units=1/GPa)
#
#
# Indices 1 2 3 4 5 6 
#
# 1 0.027461 -0.008806 -0.004730 0.000000 0.000000 0.000000
# 2 -0.008806 0.027809 -0.009388 0.000000 0.000000 0.000000
# 3 -0.004730 -0.009388 0.015215 0.000000 0.000000 0.000000
# 4 0.000000 0.000000 0.000000 -0.019627 0.000000 0.000000
# 5 0.000000 0.000000 0.000000 0.000000 -1.109206 0.000000
# 6 0.000000 0.000000 0.000000 0.000000 0.000000 0.157143
#
#
# Mechanical properties :
#
#
# Convention : Reuss Voigt Hill
#
# Bulk Modulus (GPa) = 40.58899 47.04291 43.81595
# Shear Modulus (GPa) = -5.90217 -1.79567 -3.84892
#
# Velocity S-wave (km/s) = -1.74768 -0.96398 -1.41132
# Velocity P-wave (km/s) = 4.11490 4.80685 4.47427
#
# Compressibility (1/GPa) = 0.02463722
#
# Stress axis : x y z
#
# Youngs Moduli (GPa) = 36.41584 35.95991 65.72294
#
# Poissons Ratio (x) = 0.31665 0.31086
# Poissons Ratio (y) = 0.32066 0.61703
# Poissons Ratio (z) = 0.17224 0.33760
#
# Static dielectric constant tensor:
#      x y z
#    x 3.468710 0.000000 0.000000 
#    y 0.000000 3.438850 0.000000 
#    z 0.000000 0.000000 3.760020 
# 
# 
# High freq. dielectric constant tensor:
#      x y z
#    x 1.733410 0.000000 0.000000 
#    y 0.000000 1.743050 0.000000 
#    z 0.000000 0.000000 1.768220 
# 
# From -- ./inp_files/12681.got.cif
#   From: 2010.03.12/outbox.cif.g09.slc.cpg/sg47_7_cif.got.tgz:12681.got - 2010.04.14 03:12:58.
