data_PCOD8200067
_publ_section_title
;
Structure prediction by ZEFSAII (Michael W. Deem and Ramdas Pophale) SiO2 
 PCOD8200067
Probable space group: P M M M
;
_chemical_formula_sum "Si O2"
_cell_formula_units_Z 44
_cell_length_a 7.852481
_cell_length_b 30.034344
_cell_length_c 9.332329
_cell_angle_alpha 90.000000
_cell_angle_beta 90.000000
_cell_angle_gamma 90.000000
_cell_volume 2200.974880
_symmetry_space_group_name_H-M "P M M M"
_symmetry_group_IT_number 47
_symmetry_cell_setting 'orthorhombic'
loop_
_space_group_symop_operation_xyz
x,y,z
-x,-y,z
x,-y,-z
-x,y,-z
-x,-y,-z
x,y,-z
-x,y,z
x,-y,z
loop_
_atom_site_type_symbol
_atom_site_label
_atom_site_fract_x
_atom_site_fract_y
_atom_site_fract_z
Si Si1 0.803105 0.806842 0.663854
Si Si2 0.307393 0.903843 0.333849
Si Si3 0.796657 0.277473 0.160655
Si Si4 0.000000 0.947454 0.834837
Si Si5 0.699165 0.452363 0.333769
Si Si6 0.803775 0.641058 0.659342
O O1 0.777906 0.791950 0.500000
O O2 0.699296 0.851320 0.699706
O O3 0.731149 0.767064 0.761356
O O4 0.000000 0.817018 0.697060
O O5 0.261182 0.912394 0.500000
O O6 0.500000 0.920364 0.299760
O O7 0.172055 0.929831 0.238039
O O8 0.720416 0.320826 0.241664
O O9 0.000000 0.278618 0.160847
O O10 0.724137 0.277679 0.000000
O O11 0.000000 0.000000 0.819780
O O12 0.000000 0.932137 0.000000
O O13 0.747815 0.453084 0.500000
O O14 0.500000 0.448814 0.309459
O O15 0.764191 0.500000 0.267063
O O16 0.782150 0.407817 0.266446
O O17 0.718891 0.641819 0.500000
O O18 0.000000 0.652429 0.643721
#
# Coordination Sequence:
#
# PCOD8200067 Si02
#       6
#     8   8   8   4   8   8
#     4   9  16  30  53  79 107 140 178 223 274 327
#     4  10  21  39  64  93 122 154 198 251 301 348
#     4   9  17  28  44  68  97 132 170 205 247 307
#     4  11  25  43  63  89 125 167 205 243 292 351
#     4   8  14  25  41  61  84 110 143 187 241 298
#     4   9  16  26  42  65  90 116 151 197 246 295
#
# _framework density 19.991140999999999
#
# number of rings (size 3 to 8) (size 9 to 14) (size 15 to 20)
#    0.000    2.818    0.909    1.364    0.000    4.727 
#    0.000    4.545    0.000    6.545    0.000    3.818 
#    0.000    0.000    0.000    0.000    0.000    0.000 
#
# Total GULP energy -545275.204525 kJ/mol
# GULP energy per Si atom -12392.618285 kJ/mol
# Density = 1.994564 g / cm^3
# Si number density = 19.991141 Si / 1000 Ang^3
#
#
#
# Elastic Constant Matrix: (Units=GPa)
#
#
# Indices 1 2 3 4 5 6 
#
# 1 63.7575 42.5710 39.1211 0.0000 0.0000 0.0000
# 2 42.5710 129.7332 76.3482 0.0000 0.0000 0.0000
# 3 39.1211 76.3482 109.8719 0.0000 0.0000 0.0000
# 4 0.0000 0.0000 0.0000 10.1843 0.0000 0.0000
# 5 0.0000 0.0000 0.0000 0.0000 10.9947 0.0000
# 6 0.0000 0.0000 0.0000 0.0000 0.0000 4.0550
#
#
#
# Elastic Compliance Matrix: (Units=1/GPa)
#
#
# Indices 1 2 3 4 5 6 
#
# 1 0.021395 -0.004293 -0.004635 0.000000 0.000000 0.000000
# 2 -0.004293 0.013903 -0.008132 0.000000 0.000000 0.000000
# 3 -0.004635 -0.008132 0.016403 0.000000 0.000000 0.000000
# 4 0.000000 0.000000 0.000000 0.098191 0.000000 0.000000
# 5 0.000000 0.000000 0.000000 0.000000 0.090953 0.000000
# 6 0.000000 0.000000 0.000000 0.000000 0.000000 0.246611
#
#
# Mechanical properties :
#
#
# Convention : Reuss Voigt Hill
#
# Bulk Modulus (GPa) = 56.88182 68.82701 62.85442
# Shear Modulus (GPa) = 9.47984 14.73494 12.10739
#
# Velocity S-wave (km/s) = 2.17998 2.71785 2.46364
# Velocity P-wave (km/s) = 5.90353 6.65977 6.29302
#
# Compressibility (1/GPa) = 0.01758031
#
# Stress axis : x y z
#
# Youngs Moduli (GPa) = 46.74064 71.92887 60.96580
#
# Poissons Ratio (x) = 0.30879 0.28256
# Poissons Ratio (y) = 0.20066 0.49578
# Poissons Ratio (z) = 0.21663 0.58494
#
# Static dielectric constant tensor:
#      x y z
#    x 3.378030 0.000000 0.000000 
#    y 0.000000 3.873080 0.000000 
#    z 0.000000 0.000000 3.522480 
# 
# 
# High freq. dielectric constant tensor:
#      x y z
#    x 1.755950 0.000000 0.000000 
#    y 0.000000 1.795060 0.000000 
#    z 0.000000 0.000000 1.742640 
# 
# From -- ./inp_files/2255.got.cif
#   From: 2010.03.12/outbox.cif.g09.slc.cpg/sg47_2_cif.got.tgz:2255.got - 2010.04.14 03:12:58.
