data_PCOD8200157
_publ_section_title
;
Structure prediction by ZEFSAII (Michael W. Deem and Ramdas Pophale) SiO2 
 PCOD8200157
Probable space group: P M M M
;
_chemical_formula_sum "Si O2"
_cell_formula_units_Z 40
_cell_length_a 19.824656
_cell_length_b 8.845739
_cell_length_c 11.745848
_cell_angle_alpha 90.000000
_cell_angle_beta 90.000000
_cell_angle_gamma 90.000000
_cell_volume 2059.795749
_symmetry_space_group_name_H-M "P M M M"
_symmetry_group_IT_number 47
_symmetry_cell_setting 'orthorhombic'
loop_
_space_group_symop_operation_xyz
x,y,z
-x,-y,z
x,-y,-z
-x,y,-z
-x,-y,-z
x,y,-z
-x,y,z
x,-y,z
loop_
_atom_site_type_symbol
_atom_site_label
_atom_site_fract_x
_atom_site_fract_y
_atom_site_fract_z
Si Si1 0.374677 0.319536 0.247825
Si Si2 0.134506 0.825249 0.796175
Si Si3 0.000000 0.678407 0.867978
Si Si4 0.636749 0.666153 0.000000
Si Si5 0.204831 0.331891 0.000000
Si Si6 0.500000 0.171070 0.634547
Si Si7 0.249910 0.824942 0.630028
O O1 0.376324 0.500000 0.245501
O O2 0.385030 0.253340 0.118528
O O3 0.433768 0.256819 0.325217
O O4 0.302922 0.270899 0.297640
O O5 0.183734 0.761525 0.891047
O O6 0.173875 0.800972 0.677104
O O7 0.064203 0.737350 0.798383
O O8 0.119399 0.000000 0.819766
O O9 0.000000 0.500000 0.865350
O O10 0.000000 0.736032 0.000000
O O11 0.716315 0.650432 0.000000
O O12 0.603619 0.500000 0.000000
O O13 0.170933 0.500000 0.000000
O O14 0.500000 0.172763 0.500000
O O15 0.500000 0.000000 0.681173
O O16 0.250675 0.768949 0.500000
O O17 0.271064 0.000000 0.639366
#
# Coordination Sequence:
#
# PCOD8200157 Si02
#       7
#     8   8   4   4   4   4   8
#     4  11  22  39  63  90 118 152 195 238 285 344
#     4  11  22  36  58  87 116 151 195 239 282 342
#     4  11  23  37  56  83 117 155 188 233 297 350
#     4   9  20  36  57  88 124 153 179 231 296 343
#     4  11  19  34  57  84 121 155 184 230 295 346
#     4  11  25  44  61  82 118 159 196 241 294 339
#     4  10  22  40  60  85 118 154 192 237 289 339
#
# _framework density 19.419402000000002
#
# number of rings (size 3 to 8) (size 9 to 14) (size 15 to 20)
#    0.000    1.400    3.000    2.700    0.000    5.200 
#    0.000    4.500    0.000    3.000    0.000    0.000 
#    0.000    0.000    0.000    0.000    0.000    0.000 
#
# Total GULP energy -495942.774789 kJ/mol
# GULP energy per Si atom -12398.569370 kJ/mol
# Density = 1.937520 g / cm^3
# Si number density = 19.419402 Si / 1000 Ang^3
#
#
#
# Elastic Constant Matrix: (Units=GPa)
#
#
# Indices 1 2 3 4 5 6 
#
# 1 97.2438 38.0276 33.5833 0.0000 0.0000 0.0000
# 2 38.0276 85.2219 40.6059 0.0000 0.0000 0.0000
# 3 33.5833 40.6059 125.3164 0.0000 0.0000 0.0000
# 4 0.0000 0.0000 0.0000 24.4752 0.0000 0.0000
# 5 0.0000 0.0000 0.0000 0.0000 30.8965 0.0000
# 6 0.0000 0.0000 0.0000 0.0000 0.0000 19.8397
#
#
#
# Elastic Compliance Matrix: (Units=1/GPa)
#
#
# Indices 1 2 3 4 5 6 
#
# 1 0.012817 -0.004828 -0.001870 0.000000 0.000000 0.000000
# 2 -0.004828 0.015695 -0.003792 0.000000 0.000000 0.000000
# 3 -0.001870 -0.003792 0.009710 0.000000 0.000000 0.000000
# 4 0.000000 0.000000 0.000000 0.040858 0.000000 0.000000
# 5 0.000000 0.000000 0.000000 0.000000 0.032366 0.000000
# 6 0.000000 0.000000 0.000000 0.000000 0.000000 0.050404
#
#
# Mechanical properties :
#
#
# Convention : Reuss Voigt Hill
#
# Bulk Modulus (GPa) = 57.99952 59.13510 58.56731
# Shear Modulus (GPa) = 26.51422 28.07997 27.29709
#
# Velocity S-wave (km/s) = 3.69907 3.80672 3.75328
# Velocity P-wave (km/s) = 6.94088 7.05969 7.00053
#
# Compressibility (1/GPa) = 0.01724152
#
# Stress axis : x y z
#
# Youngs Moduli (GPa) = 78.01844 63.71380 102.98979
#
# Poissons Ratio (x) = 0.30762 0.19264
# Poissons Ratio (y) = 0.37669 0.39051
# Poissons Ratio (z) = 0.14593 0.24159
#
# Static dielectric constant tensor:
#      x y z
#    x 3.526910 0.000000 0.000000 
#    y 0.000000 3.646040 0.000000 
#    z 0.000000 0.000000 3.662160 
# 
# 
# High freq. dielectric constant tensor:
#      x y z
#    x 1.758630 0.000000 0.000000 
#    y 0.000000 1.755440 0.000000 
#    z 0.000000 0.000000 1.759540 
# 
# From -- ./inp_files/18998.got.cif
#   From: 2010.03.12/outbox.cif.g09.slc.cpg/sg47_10_cif.got.tgz:18998.got - 2010.04.14 03:12:58.
