data_PCOD8200882
_publ_section_title
;
Structure prediction by ZEFSAII (Michael W. Deem and Ramdas Pophale) SiO2 
 PCOD8200882
Probable space group: P M M M
;
_chemical_formula_sum "Si O2"
_cell_formula_units_Z 48
_cell_length_a 31.151359
_cell_length_b 9.595190
_cell_length_c 9.712594
_cell_angle_alpha 90.000000
_cell_angle_beta 90.000000
_cell_angle_gamma 90.000000
_cell_volume 2903.125508
_symmetry_space_group_name_H-M "P M M M"
_symmetry_group_IT_number 47
_symmetry_cell_setting 'orthorhombic'
loop_
_space_group_symop_operation_xyz
x,y,z
-x,-y,z
x,-y,-z
-x,y,-z
-x,-y,-z
x,y,-z
-x,y,z
x,-y,z
loop_
_atom_site_type_symbol
_atom_site_label
_atom_site_fract_x
_atom_site_fract_y
_atom_site_fract_z
Si Si1 0.377267 0.345242 0.336086
Si Si2 0.124642 0.157559 0.836149
Si Si3 0.716752 0.334224 0.346867
Si Si4 0.952204 0.656281 0.163784
Si Si5 0.547342 0.156018 0.336319
Si Si6 0.794582 0.338007 0.839487
O O1 0.380561 0.351244 0.500000
O O2 0.382955 0.500000 0.274415
O O3 0.330357 0.282287 0.296671
O O4 0.415219 0.251475 0.271765
O O5 0.082163 0.233765 0.776301
O O6 0.165695 0.245680 0.786904
O O7 0.126858 0.000000 0.777637
O O8 0.122885 0.154941 0.000000
O O9 0.727278 0.276525 0.500000
O O10 0.715135 0.500000 0.351600
O O11 0.752916 0.282378 0.241355
O O12 0.941291 0.500000 0.216460
O O13 0.000000 0.699953 0.213188
O O14 0.950176 0.656744 0.000000
O O15 0.550846 0.155966 0.500000
O O16 0.500000 0.211541 0.292468
O O17 0.553901 0.000000 0.279863
O O18 0.804614 0.500000 0.807621
O O19 0.785590 0.315161 0.000000
#
# Coordination Sequence:
#
# PCOD8200882 Si02
#       6
#     8   8   8   8   8   8
#     4   8  13  21  33  48  66  90 119 148 179 217
#     4   9  16  24  34  50  74 102 128 156 192 229
#     4   8  14  25  40  57  77 100 126 158 194 227
#     4   8  13  21  33  49  70  97 128 159 189 224
#     4   8  13  20  29  43  66  94 119 143 175 216
#     4   9  16  26  41  58  75  99 131 161 188 223
#
# _framework density 16.533905000000001
#
# number of rings (size 3 to 8) (size 9 to 14) (size 15 to 20)
#    0.000    3.667    0.000    2.500    0.000    2.667 
#    0.000    4.167    0.000    1.500    0.000    0.000 
#    0.000    1.333    0.000   16.000    0.000   19.500 
#
# Total GULP energy -594750.782824 kJ/mol
# GULP energy per Si atom -12390.641309 kJ/mol
# Density = 1.649627 g / cm^3
# Si number density = 16.533905 Si / 1000 Ang^3
#
#
#
# Elastic Constant Matrix: (Units=GPa)
#
#
# Indices 1 2 3 4 5 6 
#
# 1 183.0763 84.4666 30.0646 0.0000 0.0000 0.0000
# 2 84.4666 90.2960 16.0046 0.0000 0.0000 0.0000
# 3 30.0646 16.0046 17.3634 0.0000 0.0000 0.0000
# 4 0.0000 0.0000 0.0000 5.4388 0.0000 0.0000
# 5 0.0000 0.0000 0.0000 0.0000 16.1945 0.0000
# 6 0.0000 0.0000 0.0000 0.0000 0.0000 14.5498
#
#
#
# Elastic Compliance Matrix: (Units=1/GPa)
#
#
# Indices 1 2 3 4 5 6 
#
# 1 0.011315 -0.008501 -0.011756 0.000000 0.000000 0.000000
# 2 -0.008501 0.019624 -0.003369 0.000000 0.000000 0.000000
# 3 -0.011756 -0.003369 0.081054 0.000000 0.000000 0.000000
# 4 0.000000 0.000000 0.000000 0.183863 0.000000 0.000000
# 5 0.000000 0.000000 0.000000 0.000000 0.061750 0.000000
# 6 0.000000 0.000000 0.000000 0.000000 0.000000 0.068730
#
#
# Mechanical properties :
#
#
# Convention : Reuss Voigt Hill
#
# Bulk Modulus (GPa) = 15.44633 61.31193 38.37913
# Shear Modulus (GPa) = 10.09762 17.91661 14.00711
#
# Velocity S-wave (km/s) = 2.47396 3.29542 2.91378
# Velocity P-wave (km/s) = 4.18606 7.18629 5.88073
#
# Compressibility (1/GPa) = 0.06474030
#
# Stress axis : x y z
#
# Youngs Moduli (GPa) = 88.38075 50.95902 12.33748
#
# Poissons Ratio (x) = 0.43318 0.14504
# Poissons Ratio (y) = 0.75128 0.04157
# Poissons Ratio (z) = 1.03901 0.17170
#
# Static dielectric constant tensor:
#      x y z
#    x 3.553400 0.000000 0.000000 
#    y 0.000000 3.189400 0.000000 
#    z 0.000000 0.000000 2.483470 
# 
# 
# High freq. dielectric constant tensor:
#      x y z
#    x 1.656170 0.000000 0.000000 
#    y 0.000000 1.620150 0.000000 
#    z 0.000000 0.000000 1.553820 
# 
# From -- ./inp_files/4708.got.cif
#   From: 2010.03.12/outbox.cif.g09.slc.cpg/sg47_3_cif.got.tgz:4708.got - 2010.04.14 03:12:58.
