data_PCOD8200814
_publ_section_title
;
Structure prediction by ZEFSAII (Michael W. Deem and Ramdas Pophale) SiO2 
 PCOD8200814
Probable space group: P M M M
;
_chemical_formula_sum "Si O2"
_cell_formula_units_Z 48
_cell_length_a 9.623316
_cell_length_b 31.064657
_cell_length_c 9.761786
_cell_angle_alpha 90.000000
_cell_angle_beta 90.000000
_cell_angle_gamma 90.000000
_cell_volume 2918.237221
_symmetry_space_group_name_H-M "P M M M"
_symmetry_group_IT_number 47
_symmetry_cell_setting 'orthorhombic'
loop_
_space_group_symop_operation_xyz
x,y,z
-x,-y,z
x,-y,-z
-x,y,-z
-x,-y,-z
x,y,-z
-x,y,z
x,-y,z
loop_
_atom_site_type_symbol
_atom_site_label
_atom_site_fract_x
_atom_site_fract_y
_atom_site_fract_z
Si Si1 0.344216 0.952154 0.662874
Si Si2 0.834932 0.452355 0.846407
Si Si3 0.837604 0.624248 0.659222
Si Si4 0.843055 0.875084 0.336298
Si Si5 0.656196 0.797883 0.662955
Si Si6 0.344513 0.297445 0.337349
O O1 0.342933 0.950647 0.500000
O O2 0.500000 0.941128 0.714763
O O3 0.235636 0.917341 0.721485
O O4 0.300589 0.000000 0.713159
O O5 0.779999 0.500000 0.804720
O O6 0.777555 0.416985 0.740458
O O7 0.000000 0.452550 0.841159
O O8 0.784350 0.440922 0.000000
O O9 0.804957 0.616407 0.500000
O O10 0.761147 0.666573 0.718300
O O11 0.000000 0.631230 0.685644
O O12 0.842625 0.875078 0.500000
O O13 0.764073 0.832897 0.278426
O O14 0.000000 0.875047 0.279500
O O15 0.658662 0.799056 0.500000
O O16 0.500000 0.808868 0.713650
O O17 0.700011 0.750151 0.715133
O O18 0.340836 0.297373 0.500000
O O19 0.500000 0.308243 0.285695
#
# Coordination Sequence:
#
# PCOD8200814 Si02
#       6
#     8   8   8   8   8   8
#     4   8  13  20  27  32  40  59  88 121 158 202
#     4   8  14  25  40  57  78 104 130 153 181 221
#     4   9  16  24  37  59  80  95 118 156 193 218
#     4   9  15  19  24  36  51  66  87 120 163 205
#     4   8  13  21  31  40  52  74 102 126 151 195
#     4   8  14  24  36  49  67  92 116 137 170 218
#
# _framework density 16.448286
#
# number of rings (size 3 to 8) (size 9 to 14) (size 15 to 20)
#    0.000    3.667    0.000    2.500    0.000    3.333 
#    0.000    6.667    0.000    1.000    0.000    3.500 
#    0.000    0.000    0.000    0.000    0.000    0.000 
#
# Total GULP energy -594745.249620 kJ/mol
# GULP energy per Si atom -12390.526034 kJ/mol
# Density = 1.641085 g / cm^3
# Si number density = 16.448286 Si / 1000 Ang^3
#
#
#
# Elastic Constant Matrix: (Units=GPa)
#
#
# Indices 1 2 3 4 5 6 
#
# 1 94.4523 87.8897 18.0349 0.0000 0.0000 0.0000
# 2 87.8897 177.2096 31.8241 0.0000 0.0000 0.0000
# 3 18.0349 31.8241 18.1882 0.0000 0.0000 0.0000
# 4 0.0000 0.0000 0.0000 1.1579 0.0000 0.0000
# 5 0.0000 0.0000 0.0000 0.0000 3.2710 0.0000
# 6 0.0000 0.0000 0.0000 0.0000 0.0000 28.4127
#
#
#
# Elastic Compliance Matrix: (Units=1/GPa)
#
#
# Indices 1 2 3 4 5 6 
#
# 1 0.019819 -0.009187 -0.003577 0.000000 0.000000 0.000000
# 2 -0.009187 0.012487 -0.012740 0.000000 0.000000 0.000000
# 3 -0.003577 -0.012740 0.080818 0.000000 0.000000 0.000000
# 4 0.000000 0.000000 0.000000 0.863612 0.000000 0.000000
# 5 0.000000 0.000000 0.000000 0.000000 0.305716 0.000000
# 6 0.000000 0.000000 0.000000 0.000000 0.000000 0.035195
#
#
# Mechanical properties :
#
#
# Convention : Reuss Voigt Hill
#
# Bulk Modulus (GPa) = 16.09866 62.81641 39.45753
# Shear Modulus (GPa) = 3.59877 16.70843 10.15360
#
# Velocity S-wave (km/s) = 1.48077 3.19064 2.48726
# Velocity P-wave (km/s) = 3.56823 7.20047 5.68239
#
# Compressibility (1/GPa) = 0.06211696
#
# Stress axis : x y z
#
# Youngs Moduli (GPa) = 50.45579 80.08051 12.37345
#
# Poissons Ratio (x) = 0.73572 0.04426
# Poissons Ratio (y) = 0.46355 0.15763
# Poissons Ratio (z) = 0.18049 1.02019
#
# Static dielectric constant tensor:
#      x y z
#    x 3.106300 0.000000 0.000000 
#    y 0.000000 3.627280 0.000000 
#    z 0.000000 0.000000 2.440190 
# 
# 
# High freq. dielectric constant tensor:
#      x y z
#    x 1.616950 0.000000 0.000000 
#    y 0.000000 1.652480 0.000000 
#    z 0.000000 0.000000 1.547980 
# 
# From -- ./inp_files/4713.got.cif
#   From: 2010.03.12/outbox.cif.g09.slc.cpg/sg47_3_cif.got.tgz:4713.got - 2010.04.14 03:12:58.
