data_PCOD8200519
_publ_section_title
;
Structure prediction by ZEFSAII (Michael W. Deem and Ramdas Pophale) SiO2 
 PCOD8200519
Probable space group: P M M M
;
_chemical_formula_sum "Si O2"
_cell_formula_units_Z 44
_cell_length_a 15.194368
_cell_length_b 9.580424
_cell_length_c 17.632562
_cell_angle_alpha 90.000000
_cell_angle_beta 90.000000
_cell_angle_gamma 90.000000
_cell_volume 2566.745387
_symmetry_space_group_name_H-M "P M M M"
_symmetry_group_IT_number 47
_symmetry_cell_setting 'orthorhombic'
loop_
_space_group_symop_operation_xyz
x,y,z
-x,-y,z
x,-y,-z
-x,y,-z
-x,-y,-z
x,y,-z
-x,y,z
x,-y,z
loop_
_atom_site_type_symbol
_atom_site_label
_atom_site_fract_x
_atom_site_fract_y
_atom_site_fract_z
Si Si1 0.226358 0.341851 0.689324
Si Si2 0.900846 0.839280 0.588948
Si Si3 0.845416 0.345006 0.856638
Si Si4 0.000000 0.163409 0.912270
Si Si5 0.657376 0.337545 0.917889
Si Si6 0.403028 0.665825 0.759295
O O1 0.229722 0.500000 0.657851
O O2 0.174210 0.249157 0.629676
O O3 0.177065 0.336844 0.768646
O O4 0.326276 0.281536 0.702218
O O5 0.887581 0.818485 0.500000
O O6 0.000000 0.790727 0.611975
O O7 0.888238 0.000000 0.611864
O O8 0.882456 0.500000 0.875350
O O9 0.761146 0.314014 0.908124
O O10 0.914941 0.226272 0.873081
O O11 0.000000 0.000000 0.897418
O O12 0.000000 0.202719 0.000000
O O13 0.634572 0.500000 0.920515
O O14 0.607560 0.271041 0.844919
O O15 0.629414 0.271077 0.000000
O O16 0.500000 0.707140 0.728131
O O17 0.390843 0.500000 0.765899
#
# Coordination Sequence:
#
# PCOD8200519 Si02
#       6
#     8   8   8   4   8   8
#     4   9  18  31  49  74  99 124 158 195 230 277
#     4   9  19  35  53  74 100 128 155 185 230 285
#     4   9  18  31  45  62  87 121 157 193 235 282
#     4  11  23  33  41  59  86 117 160 207 241 274
#     4   8  13  22  38  60  85 116 156 196 233 277
#     4   8  14  25  41  64  95 126 155 193 240 281
#
# _framework density 17.142332
#
# number of rings (size 3 to 8) (size 9 to 14) (size 15 to 20)
#    0.000    3.182    0.000    3.545    1.273    3.273 
#    0.000    2.727    0.000    1.091    0.000    3.818 
#    0.000    0.000    0.000   19.273    0.000   14.545 
#
# Total GULP energy -545171.931143 kJ/mol
# GULP energy per Si atom -12390.271162 kJ/mol
# Density = 1.710332 g / cm^3
# Si number density = 17.142332 Si / 1000 Ang^3
#
#
#
# Elastic Constant Matrix: (Units=GPa)
#
#
# Indices 1 2 3 4 5 6 
#
# 1 128.5885 45.7671 51.7356 0.0000 0.0000 0.0000
# 2 45.7671 45.3597 29.0495 0.0000 0.0000 0.0000
# 3 51.7356 29.0495 61.0066 0.0000 0.0000 0.0000
# 4 0.0000 0.0000 0.0000 20.2130 0.0000 0.0000
# 5 0.0000 0.0000 0.0000 0.0000 18.8002 0.0000
# 6 0.0000 0.0000 0.0000 0.0000 0.0000-1039.2021
#
#
#
# Elastic Compliance Matrix: (Units=1/GPa)
#
#
# Indices 1 2 3 4 5 6 
#
# 1 0.014174 -0.009501 -0.007496 0.000000 0.000000 0.000000
# 2 -0.009501 0.038087 -0.010079 0.000000 0.000000 0.000000
# 3 -0.007496 -0.010079 0.027548 0.000000 0.000000 0.000000
# 4 0.000000 0.000000 0.000000 0.049473 0.000000 0.000000
# 5 0.000000 0.000000 0.000000 0.000000 0.053191 0.000000
# 6 0.000000 0.000000 0.000000 0.000000 0.000000 -0.000962
#
#
# Mechanical properties :
#
#
# Convention : Reuss Voigt Hill
#
# Bulk Modulus (GPa) = 38.97524 54.22881 46.60203
# Shear Modulus (GPa) = 20.47378 -192.81093 -86.16857
#
# Velocity S-wave (km/s) = 3.45967 -10.61700 -7.09758
# Velocity P-wave (km/s) = 6.22453 10.88995 6.31848
#
# Compressibility (1/GPa) = 0.02565731
#
# Stress axis : x y z
#
# Youngs Moduli (GPa) = 70.55058 26.25581 36.30035
#
# Poissons Ratio (x) = 0.24945 0.27212
# Poissons Ratio (y) = 0.67028 0.36587
# Poissons Ratio (z) = 0.52886 0.26463
#
# Static dielectric constant tensor:
#      x y z
#    x 3.304530 0.000000 0.000000 
#    y 0.000000 2.846660 0.000000 
#    z 0.000000 0.000000 3.119810 
# 
# 
# High freq. dielectric constant tensor:
#      x y z
#    x 1.665680 0.000000 0.000000 
#    y 0.000000 1.613580 0.000000 
#    z 0.000000 0.000000 1.651460 
# 
# From -- ./inp_files/6074.got.cif
#   From: 2010.03.12/outbox.cif.g09.slc.cpg/sg47_4_cif.got.tgz:6074.got - 2010.04.14 03:12:58.
