data_PCOD8200811
_publ_section_title
;
Structure prediction by ZEFSAII (Michael W. Deem and Ramdas Pophale) SiO2 
 PCOD8200811
Probable space group: P M M M
;
_chemical_formula_sum "Si O2"
_cell_formula_units_Z 52
_cell_length_a 9.498107
_cell_length_b 13.977722
_cell_length_c 26.591670
_cell_angle_alpha 90.000000
_cell_angle_beta 90.000000
_cell_angle_gamma 90.000000
_cell_volume 3530.360611
_symmetry_space_group_name_H-M "P M M M"
_symmetry_group_IT_number 47
_symmetry_cell_setting 'orthorhombic'
loop_
_space_group_symop_operation_xyz
x,y,z
-x,-y,z
x,-y,-z
-x,y,-z
-x,-y,-z
x,y,-z
-x,y,z
x,-y,z
loop_
_atom_site_type_symbol
_atom_site_label
_atom_site_fract_x
_atom_site_fract_y
_atom_site_fract_z
Si Si1 0.842119 0.385676 0.000000
Si Si2 0.831971 0.213588 0.444448
Si Si3 0.655611 0.613260 0.909342
Si Si4 0.167261 0.894240 0.347866
Si Si5 0.834463 0.287947 0.287762
Si Si6 0.665727 0.390411 0.203761
Si Si7 0.166533 0.604793 0.612356
O O1 0.764204 0.345340 0.950322
O O2 0.842806 0.500000 0.000000
O O3 0.000000 0.344876 0.000000
O O4 0.773105 0.187967 0.500000
O O5 0.776231 0.137965 0.403040
O O6 0.777357 0.319537 0.428817
O O7 0.000000 0.213127 0.444773
O O8 0.500000 0.655887 0.920032
O O9 0.646895 0.500000 0.914182
O O10 0.705200 0.639815 0.853149
O O11 0.212981 0.818940 0.304883
O O12 0.000000 0.895593 0.350410
O O13 0.227334 0.000000 0.335378
O O14 0.749385 0.316983 0.238548
O O15 0.792725 0.361224 0.331825
O O16 0.000000 0.291603 0.275853
O O17 0.500000 0.379549 0.213131
O O18 0.712512 0.500000 0.214230
O O19 0.233629 0.500000 0.602379
O O20 0.000000 0.599111 0.608268
#
# Coordination Sequence:
#
# PCOD8200811 Si02
#       7
#     4   8   8   8   8   8   8
#     4   9  15  21  31  49  71  95 128 167 194 209
#     4   8  13  19  27  43  67  94 123 150 178 219
#     4   8  14  24  35  46  65  97 131 157 185 221
#     4   8  14  24  36  50  69  93 121 153 191 234
#     4   9  16  25  38  54  71  95 126 157 189 227
#     4   9  17  27  38  54  76 101 129 160 192 224
#     4   8  13  20  29  43  65  92 120 149 183 223
#
# _framework density 14.729373000000001
#
# number of rings (size 3 to 8) (size 9 to 14) (size 15 to 20)
#    0.000    3.615    0.000    3.462    0.000    3.077 
#    0.000    4.615    0.000    0.462    0.000    0.000 
#    0.000    9.846    0.000   40.077    0.000   48.538 
#
# Total GULP energy -644277.839297 kJ/mol
# GULP energy per Si atom -12389.958448 kJ/mol
# Density = 1.469585 g / cm^3
# Si number density = 14.729373 Si / 1000 Ang^3
#
#
#
# Elastic Constant Matrix: (Units=GPa)
#
#
# Indices 1 2 3 4 5 6 
#
# 1 38.8045 20.6158 45.4989 0.0000 0.0000 0.0000
# 2 20.6158 89.3259 46.0995 0.0000 0.0000 0.0000
# 3 45.4989 46.0995 123.1511 0.0000 0.0000 0.0000
# 4 0.0000 0.0000 0.0000 11.9518 0.0000 0.0000
# 5 0.0000 0.0000 0.0000 0.0000 3.8768 0.0000
# 6 0.0000 0.0000 0.0000 0.0000 0.0000 7.0642
#
#
#
# Elastic Compliance Matrix: (Units=1/GPa)
#
#
# Indices 1 2 3 4 5 6 
#
# 1 0.045837 -0.002280 -0.016081 0.000000 0.000000 0.000000
# 2 -0.002280 0.013989 -0.004394 0.000000 0.000000 0.000000
# 3 -0.016081 -0.004394 0.015706 0.000000 0.000000 0.000000
# 4 0.000000 0.000000 0.000000 0.083669 0.000000 0.000000
# 5 0.000000 0.000000 0.000000 0.000000 0.257942 0.000000
# 6 0.000000 0.000000 0.000000 0.000000 0.000000 0.141559
#
#
# Mechanical properties :
#
#
# Convention : Reuss Voigt Hill
#
# Bulk Modulus (GPa) = 33.30922 52.85668 43.08295
# Shear Modulus (GPa) = 8.14040 13.84972 10.99506
#
# Velocity S-wave (km/s) = 2.35343 3.06972 2.73513
# Velocity P-wave (km/s) = 5.48161 6.96616 6.26799
#
# Compressibility (1/GPa) = 0.03002171
#
# Stress axis : x y z
#
# Youngs Moduli (GPa) = 21.81646 71.48532 63.66821
#
# Poissons Ratio (x) = 0.16295 1.02388
# Poissons Ratio (y) = 0.04973 0.27978
# Poissons Ratio (z) = 0.35084 0.31413
#
# Static dielectric constant tensor:
#      x y z
#    x 2.510940 0.000000 0.000000 
#    y 0.000000 2.932740 0.000000 
#    z 0.000000 0.000000 2.972140 
# 
# 
# High freq. dielectric constant tensor:
#      x y z
#    x 1.519190 0.000000 0.000000 
#    y 0.000000 1.528370 0.000000 
#    z 0.000000 0.000000 1.565330 
# 
# From -- ./inp_files/8037.got.cif
#   From: 2010.03.12/outbox.cif.g09.slc.cpg/sg47_5_cif.got.tgz:8037.got - 2010.04.14 03:12:58.
