data_PCOD8200256
_publ_section_title
;
Structure prediction by ZEFSAII (Michael W. Deem and Ramdas Pophale) SiO2 
 PCOD8200256
Probable space group: P M M M
;
_chemical_formula_sum "Si O2"
_cell_formula_units_Z 48
_cell_length_a 8.962327
_cell_length_b 14.311321
_cell_length_c 20.580724
_cell_angle_alpha 90.000000
_cell_angle_beta 90.000000
_cell_angle_gamma 90.000000
_cell_volume 2639.740023
_symmetry_space_group_name_H-M "P M M M"
_symmetry_group_IT_number 47
_symmetry_cell_setting 'orthorhombic'
loop_
_space_group_symop_operation_xyz
x,y,z
-x,-y,z
x,-y,-z
-x,y,-z
-x,-y,-z
x,y,-z
-x,y,z
x,-y,z
loop_
_atom_site_type_symbol
_atom_site_label
_atom_site_fract_x
_atom_site_fract_y
_atom_site_fract_z
Si Si1 0.829203 0.105149 0.733374
Si Si2 0.175264 0.391493 0.186796
Si Si3 0.677237 0.395288 0.428498
Si Si4 0.828969 0.894569 0.114381
Si Si5 0.670636 0.284466 0.926260
Si Si6 0.323543 0.284020 0.305309
O O1 0.810595 0.124131 0.809445
O O2 0.724026 0.175867 0.694362
O O3 0.000000 0.121222 0.712683
O O4 0.778843 0.000000 0.715984
O O5 0.217417 0.500000 0.190771
O O6 0.230533 0.351534 0.118270
O O7 0.252811 0.338358 0.245440
O O8 0.000000 0.374056 0.191717
O O9 0.732393 0.361452 0.500000
O O10 0.500000 0.395670 0.427044
O O11 0.736729 0.500000 0.415029
O O12 0.738920 0.327634 0.372416
O O13 0.725001 0.822708 0.076351
O O14 0.000000 0.879015 0.093467
O O15 0.779027 0.000000 0.096863
O O16 0.500000 0.288593 0.902483
O O17 0.685831 0.320409 0.000000
O O18 0.500000 0.292420 0.299807
#
# Coordination Sequence:
#
# PCOD8200256 Si02
#       6
#     8   8   8   8   8   8
#     4   9  18  33  53  77 107 142 177 214 259 314
#     4  11  24  40  57  77 103 138 179 219 261 315
#     4   8  15  29  49  76 112 149 179 209 254 313
#     4   9  18  34  56  79 104 138 177 214 257 314
#     4  11  24  39  55  78 107 137 171 218 273 320
#     4  11  20  31  55  87 112 136 173 222 269 310
#
# _framework density 18.183610000000002
#
# number of rings (size 3 to 8) (size 9 to 14) (size 15 to 20)
#    0.000    2.167    1.667    3.500    0.000    4.667 
#    0.000    5.000    0.000    2.500    0.000    9.333 
#    0.000    0.000    0.000    0.000    0.000    0.000 
#
# Total GULP energy -595199.839529 kJ/mol
# GULP energy per Si atom -12399.996657 kJ/mol
# Density = 1.814222 g / cm^3
# Si number density = 18.183610 Si / 1000 Ang^3
#
#
#
# Elastic Constant Matrix: (Units=GPa)
#
#
# Indices 1 2 3 4 5 6 
#
# 1 64.0869 47.3509 35.1034 0.0000 0.0000 0.0000
# 2 47.3509 119.3037 59.7207 0.0000 0.0000 0.0000
# 3 35.1034 59.7207 105.1614 0.0000 0.0000 0.0000
# 4 0.0000 0.0000 0.0000 30.2340 0.0000 0.0000
# 5 0.0000 0.0000 0.0000 0.0000 3.4134 0.0000
# 6 0.0000 0.0000 0.0000 0.0000 0.0000 26.9657
#
#
#
# Elastic Compliance Matrix: (Units=1/GPa)
#
#
# Indices 1 2 3 4 5 6 
#
# 1 0.022953 -0.007370 -0.003477 0.000000 0.000000 0.000000
# 2 -0.007370 0.014077 -0.005534 0.000000 0.000000 0.000000
# 3 -0.003477 -0.005534 0.013813 0.000000 0.000000 0.000000
# 4 0.000000 0.000000 0.000000 0.033075 0.000000 0.000000
# 5 0.000000 0.000000 0.000000 0.000000 0.292966 0.000000
# 6 0.000000 0.000000 0.000000 0.000000 0.000000 0.037084
#
#
# Mechanical properties :
#
#
# Convention : Reuss Voigt Hill
#
# Bulk Modulus (GPa) = 55.30447 63.65580 59.48013
# Shear Modulus (GPa) = 11.04343 21.88108 16.46226
#
# Velocity S-wave (km/s) = 2.46708 3.47268 3.01214
# Velocity P-wave (km/s) = 6.21255 7.15280 6.69919
#
# Compressibility (1/GPa) = 0.01808172
#
# Stress axis : x y z
#
# Youngs Moduli (GPa) = 43.56677 71.03603 72.39701
#
# Poissons Ratio (x) = 0.52351 0.25170
# Poissons Ratio (y) = 0.32107 0.40068
# Poissons Ratio (z) = 0.15147 0.39315
#
# Static dielectric constant tensor:
#      x y z
#    x 3.221150 0.000000 0.000000 
#    y 0.000000 3.532920 0.000000 
#    z 0.000000 0.000000 3.414360 
# 
# 
# High freq. dielectric constant tensor:
#      x y z
#    x 1.692460 0.000000 0.000000 
#    y 0.000000 1.710390 0.000000 
#    z 0.000000 0.000000 1.692850 
# 
# From -- ./inp_files/6355.got.cif
#   From: 2010.03.12/outbox.cif.g09.slc.cpg/sg47_4_cif.got.tgz:6355.got - 2010.04.14 03:12:58.
