data_PCOD8200441
_publ_section_title
;
Structure prediction by ZEFSAII (Michael W. Deem and Ramdas Pophale) SiO2 
 PCOD8200441
Probable space group: P M M M
;
_chemical_formula_sum "Si O2"
_cell_formula_units_Z 48
_cell_length_a 9.156050
_cell_length_b 38.167283
_cell_length_c 7.632433
_cell_angle_alpha 90.000000
_cell_angle_beta 90.000000
_cell_angle_gamma 90.000000
_cell_volume 2667.241878
_symmetry_space_group_name_H-M "P M M M"
_symmetry_group_IT_number 47
_symmetry_cell_setting 'orthorhombic'
loop_
_space_group_symop_operation_xyz
x,y,z
-x,-y,z
x,-y,-z
-x,y,-z
-x,-y,-z
x,y,-z
-x,y,z
x,-y,z
loop_
_atom_site_type_symbol
_atom_site_label
_atom_site_fract_x
_atom_site_fract_y
_atom_site_fract_z
Si Si1 0.828606 0.711349 0.301325
Si Si2 0.173573 0.418326 0.000000
Si Si3 0.328907 0.217333 0.301062
Si Si4 0.325185 0.087905 0.000000
Si Si5 0.668313 0.459376 0.299239
Si Si6 0.673163 0.833699 0.000000
Si Si7 0.326298 0.039083 0.694566
Si Si8 0.826985 0.660567 0.000000
O O1 0.788449 0.700540 0.500000
O O2 0.750750 0.747117 0.246217
O O3 0.771607 0.680632 0.173991
O O4 0.000000 0.717596 0.278596
O O5 0.229183 0.436807 0.824805
O O6 0.235426 0.378717 0.000000
O O7 0.000000 0.419613 0.000000
O O8 0.290384 0.206425 0.500000
O O9 0.500000 0.223989 0.276956
O O10 0.272920 0.186485 0.174033
O O11 0.260469 0.127199 0.000000
O O12 0.263874 0.067599 0.170201
O O13 0.500000 0.088431 0.000000
O O14 0.702417 0.449276 0.500000
O O15 0.500000 0.451594 0.254203
O O16 0.703031 0.500000 0.266486
O O17 0.500000 0.836219 0.000000
O O18 0.270706 0.048988 0.500000
O O19 0.500000 0.039498 0.699457
O O20 0.271899 0.000000 0.745749
O O21 0.000000 0.658981 0.000000
#
# Coordination Sequence:
#
# PCOD8200441 Si02
#       8
#     8   4   8   4   8   4   8   4
#     4   9  17  31  51  69  85 113 154 190 217 257
#     4  11  22  33  50  79 110 135 160 198 250 299
#     4   9  17  29  44  62  85 110 137 175 220 258
#     4   9  15  21  30  44  63  90 125 162 199 243
#     4   9  19  37  58  76  98 134 176 211 243 284
#     4   9  17  26  36  53  77 106 136 166 208 261
#     4   8  13  20  29  41  58  83 119 164 206 237
#     4   9  19  33  47  68  98 127 151 180 227 281
#
# _framework density 17.996117999999999
#
# number of rings (size 3 to 8) (size 9 to 14) (size 15 to 20)
#    0.000    3.000    0.000    2.250    0.000    4.000 
#    0.000    7.500    0.000    2.000    0.000    0.000 
#    0.000    0.000    0.000    0.000    0.000    6.667 
#
# Total GULP energy -595067.062053 kJ/mol
# GULP energy per Si atom -12397.230459 kJ/mol
# Density = 1.795516 g / cm^3
# Si number density = 17.996118 Si / 1000 Ang^3
#
#
#
# Elastic Constant Matrix: (Units=GPa)
#
#
# Indices 1 2 3 4 5 6 
#
# 1 27.7579 35.1476 30.2225 0.0000 0.0000 0.0000
# 2 35.1476 161.7372 105.3368 0.0000 0.0000 0.0000
# 3 30.2225 105.3368 146.9110 0.0000 0.0000 0.0000
# 4 0.0000 0.0000 0.0000 12.3381 0.0000 0.0000
# 5 0.0000 0.0000 0.0000 0.0000 17.2181 0.0000
# 6 0.0000 0.0000 0.0000 0.0000 0.0000 -23.5860
#
#
#
# Elastic Compliance Matrix: (Units=1/GPa)
#
#
# Indices 1 2 3 4 5 6 
#
# 1 0.051458 -0.008045 -0.004818 0.000000 0.000000 0.000000
# 2 -0.008045 0.012857 -0.007564 0.000000 0.000000 0.000000
# 3 -0.004818 -0.007564 0.013221 0.000000 0.000000 0.000000
# 4 0.000000 0.000000 0.000000 0.081050 0.000000 0.000000
# 5 0.000000 0.000000 0.000000 0.000000 0.058078 0.000000
# 6 0.000000 0.000000 0.000000 0.000000 0.000000 -0.042398
#
#
# Mechanical properties :
#
#
# Convention : Reuss Voigt Hill
#
# Bulk Modulus (GPa) = 27.26006 75.31332 51.28669
# Shear Modulus (GPa) = 21.99277 12.24064 17.11670
#
# Velocity S-wave (km/s) = 3.49962 2.61086 3.08739
# Velocity P-wave (km/s) = 5.61342 7.14349 6.42417
#
# Compressibility (1/GPa) = 0.03668370
#
# Stress axis : x y z
#
# Youngs Moduli (GPa) = 19.43343 77.77660 75.63538
#
# Poissons Ratio (x) = 0.62569 0.36439
# Poissons Ratio (y) = 0.15634 0.57210
# Poissons Ratio (z) = 0.09362 0.58829
#
# Static dielectric constant tensor:
#      x y z
#    x 2.839770 0.000000 0.000000 
#    y 0.000000 3.527640 0.000000 
#    z 0.000000 0.000000 3.597710 
# 
# 
# High freq. dielectric constant tensor:
#      x y z
#    x 1.643690 0.000000 0.000000 
#    y 0.000000 1.695410 0.000000 
#    z 0.000000 0.000000 1.714530 
# 
# From -- ./inp_files/2839.got.cif
#   From: 2010.03.12/outbox.cif.g09.slc.cpg/sg47_2_cif.got.tgz:2839.got - 2010.04.14 03:12:58.
