data_PCOD8200310
_publ_section_title
;
Structure prediction by ZEFSAII (Michael W. Deem and Ramdas Pophale) SiO2 
 PCOD8200310
Probable space group: P M M M
;
_chemical_formula_sum "Si O2"
_cell_formula_units_Z 40
_cell_length_a 8.103966
_cell_length_b 22.304912
_cell_length_c 14.297997
_cell_angle_alpha 90.000000
_cell_angle_beta 90.000000
_cell_angle_gamma 90.000000
_cell_volume 2584.480895
_symmetry_space_group_name_H-M "P M M M"
_symmetry_group_IT_number 47
_symmetry_cell_setting 'orthorhombic'
loop_
_space_group_symop_operation_xyz
x,y,z
-x,-y,z
x,-y,-z
-x,y,-z
-x,-y,-z
x,y,-z
-x,y,z
x,-y,z
loop_
_atom_site_type_symbol
_atom_site_label
_atom_site_fract_x
_atom_site_fract_y
_atom_site_fract_z
Si Si1 0.189749 0.614672 0.709784
Si Si2 0.000000 0.931771 0.388469
Si Si3 0.316453 0.140270 0.610968
Si Si4 0.689650 0.500000 0.398084
Si Si5 0.193492 0.731839 0.607713
Si Si6 0.305796 0.431679 0.895421
O O1 0.272799 0.558522 0.661177
O O2 0.262185 0.676884 0.669949
O O3 0.216704 0.611590 0.821415
O O4 0.000000 0.612245 0.683544
O O5 0.167725 0.900852 0.348345
O O6 0.000000 0.927362 0.500000
O O7 0.000000 0.000000 0.353554
O O8 0.309568 0.135992 0.500000
O O9 0.500000 0.119779 0.646239
O O10 0.288204 0.208874 0.641884
O O11 0.500000 0.500000 0.419081
O O12 0.781152 0.500000 0.500000
O O13 0.232864 0.716867 0.500000
O O14 0.000000 0.743398 0.622361
O O15 0.500000 0.427766 0.879923
O O16 0.245947 0.500000 0.880371
O O17 0.258123 0.410309 0.000000
#
# Coordination Sequence:
#
# PCOD8200310 Si02
#       6
#     8   4   8   4   8   8
#     4  11  21  31  47  68  85 106 140 182 226 270
#     4   9  16  26  40  58  84 113 142 183 224 253
#     4   9  16  26  41  59  80 110 148 184 217 256
#     4  11  23  35  44  57  84 115 141 178 222 265
#     4   9  17  30  44  58  83 116 145 178 220 264
#     4   9  18  33  50  64  82 108 135 171 221 273
#
# _framework density 15.476996
#
# number of rings (size 3 to 8) (size 9 to 14) (size 15 to 20)
#    0.000    2.400    2.000    2.100    0.000    4.000 
#    0.000    5.000    0.000    0.000    0.000    0.000 
#    0.000    0.000    0.000    0.000    0.000    2.000 
#
# Total GULP energy -495813.782471 kJ/mol
# GULP energy per Si atom -12395.344562 kJ/mol
# Density = 1.544177 g / cm^3
# Si number density = 15.476996 Si / 1000 Ang^3
#
#
#
# Elastic Constant Matrix: (Units=GPa)
#
#
# Indices 1 2 3 4 5 6 
#
# 1 79.5344 51.3137 16.5173 0.0000 0.0000 0.0000
# 2 51.3137 106.1859 32.8531 0.0000 0.0000 0.0000
# 3 16.5173 32.8531 64.0277 0.0000 0.0000 0.0000
# 4 0.0000 0.0000 0.0000 3.5061 0.0000 0.0000
# 5 0.0000 0.0000 0.0000 0.0000 15.0854 0.0000
# 6 0.0000 0.0000 0.0000 0.0000 0.0000 10.6569
#
#
#
# Elastic Compliance Matrix: (Units=1/GPa)
#
#
# Indices 1 2 3 4 5 6 
#
# 1 0.018272 -0.008762 -0.000218 0.000000 0.000000 0.000000
# 2 -0.008762 0.015397 -0.005640 0.000000 0.000000 0.000000
# 3 -0.000218 -0.005640 0.018568 0.000000 0.000000 0.000000
# 4 0.000000 0.000000 0.000000 0.285218 0.000000 0.000000
# 5 0.000000 0.000000 0.000000 0.000000 0.066289 0.000000
# 6 0.000000 0.000000 0.000000 0.000000 0.000000 0.093836
#
#
# Mechanical properties :
#
#
# Convention : Reuss Voigt Hill
#
# Bulk Modulus (GPa) = 43.48345 50.12401 46.80373
# Shear Modulus (GPa) = 9.35480 15.78727 12.57104
#
# Velocity S-wave (km/s) = 2.46119 3.19728 2.85307
# Velocity P-wave (km/s) = 6.01940 6.78871 6.41560
#
# Compressibility (1/GPa) = 0.02299725
#
# Stress axis : x y z
#
# Youngs Moduli (GPa) = 54.72976 64.94913 53.85568
#
# Poissons Ratio (x) = 0.56911 0.01172
# Poissons Ratio (y) = 0.47956 0.30373
# Poissons Ratio (z) = 0.01191 0.36629
#
# Static dielectric constant tensor:
#      x y z
#    x 3.081870 0.000000 0.000000 
#    y 0.000000 2.894590 0.000000 
#    z 0.000000 0.000000 2.750920 
# 
# 
# High freq. dielectric constant tensor:
#      x y z
#    x 1.603990 0.000000 0.000000 
#    y 0.000000 1.576910 0.000000 
#    z 0.000000 0.000000 1.544880 
# 
# From -- ./inp_files/6628.got.cif
#   From: 2010.03.12/outbox.cif.g09.slc.cpg/sg47_4_cif.got.tgz:6628.got - 2010.04.14 03:12:58.
