data_PCOD8200494
_publ_section_title
;
Structure prediction by ZEFSAII (Michael W. Deem and Ramdas Pophale) SiO2 
 PCOD8200494
Probable space group: P M M M
;
_chemical_formula_sum "Si O2"
_cell_formula_units_Z 40
_cell_length_a 22.611518
_cell_length_b 10.822940
_cell_length_c 8.979934
_cell_angle_alpha 90.000000
_cell_angle_beta 90.000000
_cell_angle_gamma 90.000000
_cell_volume 2197.597310
_symmetry_space_group_name_H-M "P M M M"
_symmetry_group_IT_number 47
_symmetry_cell_setting 'orthorhombic'
loop_
_space_group_symop_operation_xyz
x,y,z
-x,-y,z
x,-y,-z
-x,y,-z
-x,-y,-z
x,y,-z
-x,y,z
x,-y,z
loop_
_atom_site_type_symbol
_atom_site_label
_atom_site_fract_x
_atom_site_fract_y
_atom_site_fract_z
Si Si1 0.500000 0.140970 0.662575
Si Si2 0.608023 0.744552 0.823281
Si Si3 0.430259 0.500000 0.673233
Si Si4 0.851293 0.140234 0.676434
Si Si5 0.066897 0.637930 0.676930
Si Si6 0.730994 0.856755 0.167994
O O1 0.500000 0.212370 0.500000
O O2 0.441792 0.167721 0.756464
O O3 0.500000 0.000000 0.623678
O O4 0.600261 0.612021 0.754235
O O5 0.672878 0.787992 0.773379
O O6 0.601063 0.743324 0.000000
O O7 0.500000 0.500000 0.703144
O O8 0.414943 0.500000 0.500000
O O9 0.853432 0.140959 0.500000
O O10 0.894628 0.247205 0.741662
O O11 0.785798 0.177497 0.727343
O O12 0.867842 0.000000 0.733541
O O13 0.068926 0.642519 0.500000
O O14 0.089102 0.500000 0.728808
O O15 0.000000 0.657754 0.733678
O O16 0.715884 0.000000 0.175279
O O17 0.746966 0.816292 0.000000
#
# Coordination Sequence:
#
# PCOD8200494 Si02
#       6
#     4   8   4   8   8   8
#     4  11  23  36  53  80 109 133 163 211 268 317
#     4  11  22  37  58  78 100 133 175 215 253 306
#     4  11  23  39  57  77 106 136 165 206 263 318
#     4   9  17  29  48  75 103 131 168 212 255 302
#     4   8  14  26  45  70 102 136 168 207 255 304
#     4   9  19  36  55  75 102 135 168 206 254 304
#
# _framework density 18.201695999999998
#
# number of rings (size 3 to 8) (size 9 to 14) (size 15 to 20)
#    0.000    2.400    1.000    2.400    0.000    4.000 
#    1.800    4.000    0.000    0.600    0.000    4.200 
#    0.000    0.000    0.000    0.000    0.000    0.000 
#
# Total GULP energy -495754.535194 kJ/mol
# GULP energy per Si atom -12393.863380 kJ/mol
# Density = 1.816027 g / cm^3
# Si number density = 18.201696 Si / 1000 Ang^3
#
#
#
# Elastic Constant Matrix: (Units=GPa)
#
#
# Indices 1 2 3 4 5 6 
#
# 1 131.6433 87.0924 35.9233 0.0000 0.0000 0.0000
# 2 87.0924 128.8683 31.8837 0.0000 0.0000 0.0000
# 3 35.9233 31.8837 46.0504 0.0000 0.0000 0.0000
# 4 0.0000 0.0000 0.0000 19.7933 0.0000 0.0000
# 5 0.0000 0.0000 0.0000 0.0000 0.1518 0.0000
# 6 0.0000 0.0000 0.0000 0.0000 0.0000 47.0718
#
#
#
# Elastic Compliance Matrix: (Units=1/GPa)
#
#
# Indices 1 2 3 4 5 6 
#
# 1 0.014844 -0.008648 -0.005592 0.000000 0.000000 0.000000
# 2 -0.008648 0.014403 -0.003225 0.000000 0.000000 0.000000
# 3 -0.005592 -0.003225 0.028310 0.000000 0.000000 0.000000
# 4 0.000000 0.000000 0.000000 0.050522 0.000000 0.000000
# 5 0.000000 0.000000 0.000000 0.000000 6.586882 0.000000
# 6 0.000000 0.000000 0.000000 0.000000 0.000000 0.021244
#
#
# Mechanical properties :
#
#
# Convention : Reuss Voigt Hill
#
# Bulk Modulus (GPa) = 44.19677 68.48452 56.34065
# Shear Modulus (GPa) = 0.73979 23.51422 12.12701
#
# Velocity S-wave (km/s) = 0.63822 3.59816 2.58400
# Velocity P-wave (km/s) = 4.98773 7.41413 6.31850
#
# Compressibility (1/GPa) = 0.02262609
#
# Stress axis : x y z
#
# Youngs Moduli (GPa) = 67.36893 69.43188 35.32269
#
# Poissons Ratio (x) = 0.60047 0.19751
# Poissons Ratio (y) = 0.58263 0.11393
# Poissons Ratio (z) = 0.37670 0.22395
#
# Static dielectric constant tensor:
#      x y z
#    x 3.458010 0.000000 0.000000 
#    y 0.000000 3.670030 0.000000 
#    z 0.000000 0.000000 3.197920 
# 
# 
# High freq. dielectric constant tensor:
#      x y z
#    x 1.701730 0.000000 0.000000 
#    y 0.000000 1.715290 0.000000 
#    z 0.000000 0.000000 1.686550 
# 
# From -- ./inp_files/10679.got.cif
#   From: 2010.03.12/outbox.cif.g09.slc.cpg/sg47_6_cif.got.tgz:10679.got - 2010.04.14 03:12:58.
