data_PCOD8200489
_publ_section_title
;
Structure prediction by ZEFSAII (Michael W. Deem and Ramdas Pophale) SiO2 
 PCOD8200489
Probable space group: P M M M
;
_chemical_formula_sum "Si O2"
_cell_formula_units_Z 52
_cell_length_a 9.261038
_cell_length_b 14.028133
_cell_length_c 21.373386
_cell_angle_alpha 90.000000
_cell_angle_beta 90.000000
_cell_angle_gamma 90.000000
_cell_volume 2776.724998
_symmetry_space_group_name_H-M "P M M M"
_symmetry_group_IT_number 47
_symmetry_cell_setting 'orthorhombic'
loop_
_space_group_symop_operation_xyz
x,y,z
-x,-y,z
x,-y,-z
-x,y,-z
-x,-y,-z
x,y,-z
-x,y,z
x,-y,z
loop_
_atom_site_type_symbol
_atom_site_label
_atom_site_fract_x
_atom_site_fract_y
_atom_site_fract_z
Si Si1 0.670246 0.608364 0.686479
Si Si2 0.338325 0.392408 0.073762
Si Si3 0.167034 0.217033 0.108231
Si Si4 0.666947 0.732748 0.570211
Si Si5 0.833988 0.231848 0.751597
Si Si6 0.333534 0.112298 0.000000
Si Si7 0.169666 0.107913 0.634907
O O1 0.500000 0.611717 0.696528
O O2 0.727479 0.500000 0.690881
O O3 0.714768 0.650050 0.618412
O O4 0.741649 0.672205 0.740769
O O5 0.500000 0.367525 0.097752
O O6 0.298656 0.500000 0.092340
O O7 0.218555 0.326094 0.104720
O O8 0.332748 0.377387 0.000000
O O9 0.192414 0.186191 0.179997
O O10 0.259642 0.150985 0.062650
O O11 0.000000 0.209745 0.088567
O O12 0.698318 0.695854 0.500000
O O13 0.500000 0.757848 0.579786
O O14 0.754627 0.829927 0.581408
O O15 0.788741 0.150137 0.702755
O O16 0.000000 0.261680 0.743258
O O17 0.500000 0.145056 0.000000
O O18 0.317166 0.000000 0.000000
O O19 0.000000 0.111726 0.623087
O O20 0.227534 0.000000 0.631512
#
# Coordination Sequence:
#
# PCOD8200489 Si02
#       7
#     8   8   8   8   8   4   8
#     4   9  18  33  53  77 105 140 181 218 252 297
#     4   9  18  33  53  76 104 139 172 203 248 307
#     4  11  22  36  57  83 108 136 172 218 268 314
#     4   9  18  32  50  75 107 139 171 212 261 307
#     4   9  20  36  53  76 105 136 171 213 261 310
#     4  11  25  43  60  79 106 139 173 212 262 321
#     4   9  18  34  54  73  97 133 174 214 257 307
#
# _framework density 18.727097000000001
#
# number of rings (size 3 to 8) (size 9 to 14) (size 15 to 20)
#    0.000    2.538    0.769    1.154    0.000    4.923 
#    0.000    8.462    0.000    0.000    0.000    4.308 
#    0.000    0.000    0.000    0.000    0.000    0.000 
#
# Total GULP energy -644797.360857 kJ/mol
# GULP energy per Si atom -12399.949247 kJ/mol
# Density = 1.868447 g / cm^3
# Si number density = 18.727097 Si / 1000 Ang^3
#
#
#
# Elastic Constant Matrix: (Units=GPa)
#
#
# Indices 1 2 3 4 5 6 
#
# 1 66.2646 33.7196 35.2708 0.0000 0.0000 0.0000
# 2 33.7196 88.6082 24.5787 0.0000 0.0000 0.0000
# 3 35.2708 24.5787 87.9977 0.0000 0.0000 0.0000
# 4 0.0000 0.0000 0.0000 14.8305 0.0000 0.0000
# 5 0.0000 0.0000 0.0000 0.0000 27.6036 0.0000
# 6 0.0000 0.0000 0.0000 0.0000 0.0000 26.3152
#
#
#
# Elastic Compliance Matrix: (Units=1/GPa)
#
#
# Indices 1 2 3 4 5 6 
#
# 1 0.022144 -0.006466 -0.007070 0.000000 0.000000 0.000000
# 2 -0.006466 0.014121 -0.001353 0.000000 0.000000 0.000000
# 3 -0.007070 -0.001353 0.014575 0.000000 0.000000 0.000000
# 4 0.000000 0.000000 0.000000 0.067429 0.000000 0.000000
# 5 0.000000 0.000000 0.000000 0.000000 0.036227 0.000000
# 6 0.000000 0.000000 0.000000 0.000000 0.000000 0.038001
#
#
# Mechanical properties :
#
#
# Convention : Reuss Voigt Hill
#
# Bulk Modulus (GPa) = 47.47320 47.77876 47.62598
# Shear Modulus (GPa) = 21.80588 23.70329 22.75458
#
# Velocity S-wave (km/s) = 3.41604 3.56156 3.48956
# Velocity P-wave (km/s) = 6.40032 6.51778 6.45932
#
# Compressibility (1/GPa) = 0.02106452
#
# Stress axis : x y z
#
# Youngs Moduli (GPa) = 45.15834 70.81449 68.60863
#
# Poissons Ratio (x) = 0.45788 0.48505
# Poissons Ratio (y) = 0.29199 0.09280
# Poissons Ratio (z) = 0.31926 0.09579
#
# Static dielectric constant tensor:
#      x y z
#    x 3.446560 0.000000 0.000000 
#    y 0.000000 3.502700 0.000000 
#    z 0.000000 0.000000 3.474370 
# 
# 
# High freq. dielectric constant tensor:
#      x y z
#    x 1.722910 0.000000 0.000000 
#    y 0.000000 1.722230 0.000000 
#    z 0.000000 0.000000 1.727320 
# 
# From -- ./inp_files/11046.got.cif
#   From: 2010.03.12/outbox.cif.g09.slc.cpg/sg47_6_cif.got.tgz:11046.got - 2010.04.14 03:12:58.
