data_PCOD8200126
_publ_section_title
;
Structure prediction by ZEFSAII (Michael W. Deem and Ramdas Pophale) SiO2 
 PCOD8200126
Probable space group: P M M M
;
_chemical_formula_sum "Si O2"
_cell_formula_units_Z 52
_cell_length_a 11.791435
_cell_length_b 25.886326
_cell_length_c 8.754225
_cell_angle_alpha 90.000000
_cell_angle_beta 90.000000
_cell_angle_gamma 90.000000
_cell_volume 2672.112767
_symmetry_space_group_name_H-M "P M M M"
_symmetry_group_IT_number 47
_symmetry_cell_setting 'orthorhombic'
loop_
_space_group_symop_operation_xyz
x,y,z
-x,-y,z
x,-y,-z
-x,y,-z
-x,-y,-z
x,y,-z
-x,y,z
x,-y,z
loop_
_atom_site_type_symbol
_atom_site_label
_atom_site_fract_x
_atom_site_fract_y
_atom_site_fract_z
Si Si1 0.500000 0.794550 0.319726
Si Si2 0.870270 0.440303 0.175822
Si Si3 0.500000 0.681264 0.179108
Si Si4 0.500000 0.058714 0.334456
Si Si5 0.869239 0.744282 0.677118
Si Si6 0.268489 0.944103 0.821759
Si Si7 0.724489 0.645161 0.677905
Si Si8 0.730817 0.833483 0.179504
O O1 0.500000 0.789205 0.500000
O O2 0.500000 0.737017 0.255727
O O3 0.612046 0.825259 0.267613
O O4 0.839992 0.500000 0.201128
O O5 0.787755 0.407759 0.282980
O O6 0.000000 0.429620 0.223924
O O7 0.851627 0.424620 0.000000
O O8 0.390950 0.648408 0.227590
O O9 0.500000 0.689698 0.000000
O O10 0.500000 0.089138 0.500000
O O11 0.393565 0.071006 0.230410
O O12 0.500000 0.000000 0.381223
O O13 0.850189 0.757377 0.500000
O O14 0.804594 0.692595 0.725312
O O15 0.822611 0.791218 0.776147
O O16 0.000000 0.735803 0.717077
O O17 0.207833 0.889571 0.779913
O O18 0.225813 0.000000 0.748411
O O19 0.266315 0.953254 0.000000
O O20 0.694993 0.646322 0.500000
O O21 0.704469 0.830279 0.000000
#
# Coordination Sequence:
#
# PCOD8200126 Si02
#       8
#     4   8   4   4   8   8   8   8
#     4  12  23  37  55  79 114 154 186 225 281 339
#     4   9  19  37  61  90 125 164 205 249 293 334
#     4  12  24  39  60  86 117 154 196 238 281 340
#     4   9  16  25  40  66  96 126 165 208 254 313
#     4  10  22  39  58  81 112 148 183 228 288 345
#     4   9  18  32  48  68  99 137 176 221 274 331
#     4  11  22  38  61  89 120 156 193 235 290 347
#     4  11  22  35  55  82 109 143 187 232 280 337
#
# _framework density 19.460258
#
# number of rings (size 3 to 8) (size 9 to 14) (size 15 to 20)
#    0.000    1.769    1.538    3.923    0.000    6.154 
#    0.000    1.154    0.000    2.769    0.000    3.231 
#    0.000    0.000    0.000    0.000    0.000    0.000 
#
# Total GULP energy -644360.248299 kJ/mol
# GULP energy per Si atom -12391.543237 kJ/mol
# Density = 1.941597 g / cm^3
# Si number density = 19.460258 Si / 1000 Ang^3
#
#
#
# Elastic Constant Matrix: (Units=GPa)
#
#
# Indices 1 2 3 4 5 6 
#
# 1 91.7343 46.6747 34.3827 0.0000 0.0000 0.0000
# 2 46.6747 129.8440 42.9346 0.0000 0.0000 0.0000
# 3 34.3827 42.9346 67.8857 0.0000 0.0000 0.0000
# 4 0.0000 0.0000 0.0000 13.1774 0.0000 0.0000
# 5 0.0000 0.0000 0.0000 0.0000 26.8274 0.0000
# 6 0.0000 0.0000 0.0000 0.0000 0.0000 9.0589
#
#
#
# Elastic Compliance Matrix: (Units=1/GPa)
#
#
# Indices 1 2 3 4 5 6 
#
# 1 0.014648 -0.003556 -0.005170 0.000000 0.000000 0.000000
# 2 -0.003556 0.010601 -0.004904 0.000000 0.000000 0.000000
# 3 -0.005170 -0.004904 0.020451 0.000000 0.000000 0.000000
# 4 0.000000 0.000000 0.000000 0.075887 0.000000 0.000000
# 5 0.000000 0.000000 0.000000 0.000000 0.037275 0.000000
# 6 0.000000 0.000000 0.000000 0.000000 0.000000 0.110388
#
#
# Mechanical properties :
#
#
# Convention : Reuss Voigt Hill
#
# Bulk Modulus (GPa) = 54.22862 59.71643 56.97253
# Shear Modulus (GPa) = 16.52034 20.84423 18.68228
#
# Velocity S-wave (km/s) = 2.91680 3.27634 3.10178
# Velocity P-wave (km/s) = 6.26661 6.71309 6.49369
#
# Compressibility (1/GPa) = 0.01844045
#
# Stress axis : x y z
#
# Youngs Moduli (GPa) = 68.26834 94.32790 48.89849
#
# Poissons Ratio (x) = 0.33543 0.25280
# Poissons Ratio (y) = 0.24276 0.23979
# Poissons Ratio (z) = 0.35294 0.46257
#
# Static dielectric constant tensor:
#      x y z
#    x 3.370760 0.000000 0.000000 
#    y 0.000000 3.829830 0.000000 
#    z 0.000000 0.000000 3.531790 
# 
# 
# High freq. dielectric constant tensor:
#      x y z
#    x 1.727650 0.000000 0.000000 
#    y 0.000000 1.777710 0.000000 
#    z 0.000000 0.000000 1.759080 
# 
# From -- ./inp_files/4591.got.cif
#   From: 2010.03.12/outbox.cif.g09.slc.cpg/sg47_3_cif.got.tgz:4591.got - 2010.04.14 03:12:58.
