data_PCOD8200820
_publ_section_title
;
Structure prediction by ZEFSAII (Michael W. Deem and Ramdas Pophale) SiO2 
 PCOD8200820
Probable space group: P M M M
;
_chemical_formula_sum "Si O2"
_cell_formula_units_Z 52
_cell_length_a 30.773972
_cell_length_b 9.253161
_cell_length_c 12.542510
_cell_angle_alpha 90.000000
_cell_angle_beta 90.000000
_cell_angle_gamma 90.000000
_cell_volume 3571.561469
_symmetry_space_group_name_H-M "P M M M"
_symmetry_group_IT_number 47
_symmetry_cell_setting 'orthorhombic'
loop_
_space_group_symop_operation_xyz
x,y,z
-x,-y,z
x,-y,-z
-x,y,-z
-x,-y,-z
x,y,-z
-x,y,z
x,-y,z
loop_
_atom_site_type_symbol
_atom_site_label
_atom_site_fract_x
_atom_site_fract_y
_atom_site_fract_z
Si Si1 0.547998 0.837668 0.873230
Si Si2 0.051671 0.336885 0.500000
Si Si3 0.629457 0.337285 0.127215
Si Si4 0.950329 0.832282 0.294663
Si Si5 0.880250 0.832542 0.877954
Si Si6 0.287152 0.836406 0.127134
Si Si7 0.795891 0.336727 0.126865
O O1 0.500000 0.785576 0.835591
O O2 0.584867 0.731495 0.827111
O O3 0.556978 0.000000 0.831651
O O4 0.550010 0.837358 0.000000
O O5 0.069437 0.500000 0.500000
O O6 0.068799 0.256613 0.394424
O O7 0.000000 0.331213 0.500000
O O8 0.633510 0.500000 0.171091
O O9 0.669934 0.244106 0.170053
O O10 0.629175 0.337099 0.000000
O O11 0.922585 0.793136 0.190458
O O12 0.000000 0.789158 0.269147
O O13 0.946663 0.000000 0.324594
O O14 0.839935 0.739779 0.834026
O O15 0.867366 0.000000 0.866944
O O16 0.891305 0.793187 0.000000
O O17 0.245227 0.751704 0.172097
O O18 0.286727 0.000000 0.171113
O O19 0.286691 0.837095 0.000000
O O20 0.794358 0.500000 0.171365
O O21 0.794205 0.336530 0.000000
#
# Coordination Sequence:
#
# PCOD8200820 Si02
#       7
#     8   4   8   8   8   8   8
#     4   8  13  20  27  33  43  61  84 110 144 189
#     4   9  17  29  45  63  81 101 127 159 191 221
#     4   9  15  20  26  37  51  65  85 116 153 193
#     4   9  17  29  45  63  82 104 129 157 187 219
#     4   9  17  28  41  58  80 104 128 152 181 221
#     4   9  15  22  32  43  55  73  98 128 161 197
#     4   9  16  25  36  49  66  88 113 140 170 205
#
# _framework density 14.559459
#
# number of rings (size 3 to 8) (size 9 to 14) (size 15 to 20)
#    0.000    3.154    0.000    2.077    0.000    7.692 
#    0.000    3.077    0.000    0.000    0.000    4.308 
#    0.000    0.000    0.000    0.000    0.000    0.000 
#
# Total GULP energy -644601.473354 kJ/mol
# GULP energy per Si atom -12396.182180 kJ/mol
# Density = 1.452632 g / cm^3
# Si number density = 14.559459 Si / 1000 Ang^3
#
#
#
# Elastic Constant Matrix: (Units=GPa)
#
#
# Indices 1 2 3 4 5 6 
#
# 1 120.0227 70.3362 29.9200 0.0000 0.0000 0.0000
# 2 70.3362 113.7518 25.5528 0.0000 0.0000 0.0000
# 3 29.9200 25.5528 31.8802 0.0000 0.0000 0.0000
# 4 0.0000 0.0000 0.0000 7.8858 0.0000 0.0000
# 5 0.0000 0.0000 0.0000 0.0000 0.6701 0.0000
# 6 0.0000 0.0000 0.0000 0.0000 0.0000 23.4667
#
#
#
# Elastic Compliance Matrix: (Units=1/GPa)
#
#
# Indices 1 2 3 4 5 6 
#
# 1 0.014513 -0.007213 -0.007839 0.000000 0.000000 0.000000
# 2 -0.007213 0.014306 -0.004698 0.000000 0.000000 0.000000
# 3 -0.007839 -0.004698 0.042490 0.000000 0.000000 0.000000
# 4 0.000000 0.000000 0.000000 0.126811 0.000000 0.000000
# 5 0.000000 0.000000 0.000000 0.000000 1.492381 0.000000
# 6 0.000000 0.000000 0.000000 0.000000 0.000000 0.042614
#
#
# Mechanical properties :
#
#
# Convention : Reuss Voigt Hill
#
# Bulk Modulus (GPa) = 31.43683 57.47475 44.45579
# Shear Modulus (GPa) = 2.80392 15.72754 9.26573
#
# Velocity S-wave (km/s) = 1.38925 3.29025 2.52545
# Velocity P-wave (km/s) = 4.92060 7.34819 6.25333
#
# Compressibility (1/GPa) = 0.03180982
#
# Stress axis : x y z
#
# Youngs Moduli (GPa) = 68.90462 69.90001 23.53498
#
# Poissons Ratio (x) = 0.50417 0.18450
# Poissons Ratio (y) = 0.49699 0.11056
# Poissons Ratio (z) = 0.54016 0.32836
#
# Static dielectric constant tensor:
#      x y z
#    x 2.992850 0.000000 0.000000 
#    y 0.000000 3.036350 0.000000 
#    z 0.000000 0.000000 2.211570 
# 
# 
# High freq. dielectric constant tensor:
#      x y z
#    x 1.563290 0.000000 0.000000 
#    y 0.000000 1.570090 0.000000 
#    z 0.000000 0.000000 1.466490 
# 
# From -- ./inp_files/20016.got.cif
#   From: 2010.03.12/outbox.cif.g09.slc.cpg/sg47_11_cif.got.tgz:20016.got - 2010.04.14 03:12:58.
