data_PCOD8200797
_publ_section_title
;
Structure prediction by ZEFSAII (Michael W. Deem and Ramdas Pophale) SiO2 
 PCOD8200797
Probable space group: P M M M
;
_chemical_formula_sum "Si O2"
_cell_formula_units_Z 48
_cell_length_a 10.045497
_cell_length_b 9.130399
_cell_length_c 30.676571
_cell_angle_alpha 90.000000
_cell_angle_beta 90.000000
_cell_angle_gamma 90.000000
_cell_volume 2813.636556
_symmetry_space_group_name_H-M "P M M M"
_symmetry_group_IT_number 47
_symmetry_cell_setting 'orthorhombic'
loop_
_space_group_symop_operation_xyz
x,y,z
-x,-y,z
x,-y,-z
-x,y,-z
-x,-y,-z
x,y,-z
-x,y,z
x,-y,z
loop_
_atom_site_type_symbol
_atom_site_label
_atom_site_fract_x
_atom_site_fract_y
_atom_site_fract_z
Si Si1 0.652330 0.172126 0.121652
Si Si2 0.347739 0.672209 0.210303
Si Si3 0.148990 0.674335 0.380564
Si Si4 0.149031 0.173996 0.951515
Si Si5 0.648991 0.325670 0.451460
Si Si6 0.149028 0.325956 0.283514
O O1 0.500000 0.209708 0.109738
O O2 0.696599 0.250157 0.165949
O O3 0.744654 0.236203 0.083031
O O4 0.673198 0.000000 0.128066
O O5 0.500000 0.710365 0.222214
O O6 0.327494 0.500000 0.203978
O O7 0.255022 0.736105 0.248842
O O8 0.155842 0.500000 0.381734
O O9 0.250345 0.742772 0.415907
O O10 0.187484 0.729946 0.332023
O O11 0.000000 0.726759 0.392409
O O12 0.000000 0.225398 0.938466
O O13 0.155865 0.000000 0.951828
O O14 0.184598 0.232695 0.000000
O O15 0.690546 0.272988 0.500000
O O16 0.500000 0.270831 0.440525
O O17 0.653375 0.500000 0.449638
O O18 0.153208 0.500000 0.283167
O O19 0.000000 0.272064 0.271263
#
# Coordination Sequence:
#
# PCOD8200797 Si02
#       6
#     8   8   8   8   8   8
#     4   9  17  28  42  61  83 104 127 157 191 225
#     4   9  17  28  41  57  77 101 129 159 190 226
#     4   8  13  20  29  41  57  78 107 144 182 218
#     4   8  14  25  41  61  83 104 127 157 190 222
#     4   8  13  19  25  35  53  77 106 141 180 220
#     4   8  14  24  36  50  68  90 119 155 191 225
#
# _framework density 17.059773
#
# number of rings (size 3 to 8) (size 9 to 14) (size 15 to 20)
#    0.000    3.667    0.000    2.000    0.000    2.000 
#    0.000    6.667    0.000    0.500    0.000    3.500 
#    0.000    0.000    0.000    0.000    0.000    0.833 
#
# Total GULP energy -594836.774187 kJ/mol
# GULP energy per Si atom -12392.432796 kJ/mol
# Density = 1.702094 g / cm^3
# Si number density = 17.059773 Si / 1000 Ang^3
#
#
#
# Elastic Constant Matrix: (Units=GPa)
#
#
# Indices 1 2 3 4 5 6 
#
# 1 132.3105 12.1387 121.9980 0.0000 0.0000 0.0000
# 2 12.1387 6.0351 15.4991 0.0000 0.0000 0.0000
# 3 121.9980 15.4991 175.4332 0.0000 0.0000 0.0000
# 4 0.0000 0.0000 0.0000 -4.7267 0.0000 0.0000
# 5 0.0000 0.0000 0.0000 0.0000 44.8282 0.0000
# 6 0.0000 0.0000 0.0000 0.0000 0.0000 7.7697
#
#
#
# Elastic Compliance Matrix: (Units=1/GPa)
#
#
# Indices 1 2 3 4 5 6 
#
# 1 0.021243 -0.006194 -0.014225 0.000000 0.000000 0.000000
# 2 -0.006194 0.216133 -0.014788 0.000000 0.000000 0.000000
# 3 -0.014225 -0.014788 0.016899 0.000000 0.000000 0.000000
# 4 0.000000 0.000000 0.000000 -0.211563 0.000000 0.000000
# 5 0.000000 0.000000 0.000000 0.000000 0.022307 0.000000
# 6 0.000000 0.000000 0.000000 0.000000 0.000000 0.128705
#
#
# Mechanical properties :
#
#
# Convention : Reuss Voigt Hill
#
# Bulk Modulus (GPa) = 5.43888 68.11671 36.77780
# Shear Modulus (GPa) = 15.36455 20.51710 17.94082
#
# Velocity S-wave (km/s) = 3.00431 3.47170 3.24643
# Velocity P-wave (km/s) = 3.90250 7.48901 5.97138
#
# Compressibility (1/GPa) = 0.18386140
#
# Stress axis : x y z
#
# Youngs Moduli (GPa) = 47.07518 4.62678 59.17543
#
# Poissons Ratio (x) = 0.02866 0.84178
# Poissons Ratio (y) = 0.29158 0.87506
# Poissons Ratio (z) = 0.66965 0.06842
#
# Static dielectric constant tensor:
#      x y z
#    x 3.466860 0.000000 0.000000 
#    y 0.000000 2.490290 0.000000 
#    z 0.000000 0.000000 3.571460 
# 
# 
# High freq. dielectric constant tensor:
#      x y z
#    x 1.663940 0.000000 0.000000 
#    y 0.000000 1.580350 0.000000 
#    z 0.000000 0.000000 1.668020 
# 
# From -- ./inp_files/4318.got.cif
#   From: 2010.03.12/outbox.cif.g09.slc.cpg/sg47_3_cif.got.tgz:4318.got - 2010.04.14 03:12:58.
