data_PCOD8200861
_publ_section_title
;
Structure prediction by ZEFSAII (Michael W. Deem and Ramdas Pophale) SiO2 
 PCOD8200861
Probable space group: P M M M
;
_chemical_formula_sum "Si O2"
_cell_formula_units_Z 48
_cell_length_a 9.403784
_cell_length_b 9.281460
_cell_length_c 31.233008
_cell_angle_alpha 90.000000
_cell_angle_beta 90.000000
_cell_angle_gamma 90.000000
_cell_volume 2726.043332
_symmetry_space_group_name_H-M "P M M M"
_symmetry_group_IT_number 47
_symmetry_cell_setting 'orthorhombic'
loop_
_space_group_symop_operation_xyz
x,y,z
-x,-y,z
x,-y,-z
-x,y,-z
-x,-y,-z
x,y,-z
-x,y,z
x,-y,z
loop_
_atom_site_type_symbol
_atom_site_label
_atom_site_fract_x
_atom_site_fract_y
_atom_site_fract_z
Si Si1 0.840393 0.828617 0.952585
Si Si2 0.169155 0.662609 0.708753
Si Si3 0.834641 0.167753 0.207948
Si Si4 0.340075 0.828412 0.125912
Si Si5 0.169096 0.338204 0.452698
Si Si6 0.830157 0.162315 0.627360
O O1 0.734528 0.764889 0.916779
O O2 0.000000 0.772190 0.943463
O O3 0.840225 0.000000 0.950298
O O4 0.790323 0.778374 0.000000
O O5 0.229043 0.500000 0.708551
O O6 0.221497 0.743715 0.751305
O O7 0.229139 0.746592 0.667428
O O8 0.000000 0.662080 0.707292
O O9 0.746634 0.224189 0.167284
O O10 0.000000 0.196946 0.198524
O O11 0.807255 0.000000 0.217334
O O12 0.500000 0.767505 0.128191
O O13 0.340181 0.000000 0.124237
O O14 0.219797 0.286902 0.500000
O O15 0.224419 0.500000 0.443644
O O16 0.230349 0.231985 0.416459
O O17 0.000000 0.337754 0.450873
O O18 0.000000 0.163254 0.627427
O O19 0.771869 0.000000 0.630764
#
# Coordination Sequence:
#
# PCOD8200861 Si02
#       6
#     8   8   8   8   8   8
#     4   8  13  21  33  50  75 108 142 172 203 241
#     4   9  16  25  37  52  69  90 120 160 203 244
#     4   9  16  26  40  56  75 100 130 164 202 244
#     4   9  16  24  35  53  77 105 136 169 205 244
#     4   8  13  20  28  38  56  86 123 160 198 241
#     4   9  15  21  30  45  65  88 117 157 203 247
#
# _framework density 17.607937
#
# number of rings (size 3 to 8) (size 9 to 14) (size 15 to 20)
#    0.000    3.333    0.000    2.500    0.000    6.667 
#    0.000    3.333    0.000    0.500    0.000    0.000 
#    0.000    0.667    0.000    7.667    0.000   10.667 
#
# Total GULP energy -594930.340135 kJ/mol
# GULP energy per Si atom -12394.382086 kJ/mol
# Density = 1.756786 g / cm^3
# Si number density = 17.607937 Si / 1000 Ang^3
#
#
#
# Elastic Constant Matrix: (Units=GPa)
#
#
# Indices 1 2 3 4 5 6 
#
# 1 48.4602 21.5237 53.1104 0.0000 0.0000 0.0000
# 2 21.5237 83.0196 72.4931 0.0000 0.0000 0.0000
# 3 53.1104 72.4931 197.4471 0.0000 0.0000 0.0000
# 4 0.0000 0.0000 0.0000 9.7582 0.0000 0.0000
# 5 0.0000 0.0000 0.0000 0.0000 2.5087 0.0000
# 6 0.0000 0.0000 0.0000 0.0000 0.0000 3.2672
#
#
#
# Elastic Compliance Matrix: (Units=1/GPa)
#
#
# Indices 1 2 3 4 5 6 
#
# 1 0.029324 -0.001052 -0.007501 0.000000 0.000000 0.000000
# 2 -0.001052 0.017767 -0.006240 0.000000 0.000000 0.000000
# 3 -0.007501 -0.006240 0.009373 0.000000 0.000000 0.000000
# 4 0.000000 0.000000 0.000000 0.102478 0.000000 0.000000
# 5 0.000000 0.000000 0.000000 0.000000 0.398612 0.000000
# 6 0.000000 0.000000 0.000000 0.000000 0.000000 0.306075
#
#
# Mechanical properties :
#
#
# Convention : Reuss Voigt Hill
#
# Bulk Modulus (GPa) = 37.20665 69.24237 53.22451
# Shear Modulus (GPa) = 5.54216 15.22681 10.38448
#
# Velocity S-wave (km/s) = 1.77605 2.94389 2.43113
# Velocity P-wave (km/s) = 5.03809 7.13899 6.17849
#
# Compressibility (1/GPa) = 0.02687692
#
# Stress axis : x y z
#
# Youngs Moduli (GPa) = 34.10166 56.28378 106.68383
#
# Poissons Ratio (x) = 0.05923 0.80028
# Poissons Ratio (y) = 0.03589 0.66572
# Poissons Ratio (z) = 0.25581 0.35122
#
# Static dielectric constant tensor:
#      x y z
#    x 2.790930 0.000000 0.000000 
#    y 0.000000 3.032970 0.000000 
#    z 0.000000 0.000000 3.638170 
# 
# 
# High freq. dielectric constant tensor:
#      x y z
#    x 1.615370 0.000000 0.000000 
#    y 0.000000 1.643800 0.000000 
#    z 0.000000 0.000000 1.702610 
# 
# From -- ./inp_files/2515.got.cif
#   From: 2010.03.12/outbox.cif.g09.slc.cpg/sg47_2_cif.got.tgz:2515.got - 2010.04.14 03:12:58.
