data_PCOD8200417
_publ_section_title
;
Structure prediction by ZEFSAII (Michael W. Deem and Ramdas Pophale) SiO2 
 PCOD8200417
Probable space group: P M M M
;
_chemical_formula_sum "Si O2"
_cell_formula_units_Z 56
_cell_length_a 9.007071
_cell_length_b 13.918606
_cell_length_c 23.038040
_cell_angle_alpha 90.000000
_cell_angle_beta 90.000000
_cell_angle_gamma 90.000000
_cell_volume 2888.183984
_symmetry_space_group_name_H-M "P M M M"
_symmetry_group_IT_number 47
_symmetry_cell_setting 'orthorhombic'
loop_
_space_group_symop_operation_xyz
x,y,z
-x,-y,z
x,-y,-z
-x,y,-z
-x,-y,-z
x,y,-z
-x,y,z
x,-y,z
loop_
_atom_site_type_symbol
_atom_site_label
_atom_site_fract_x
_atom_site_fract_y
_atom_site_fract_z
Si Si1 0.825794 0.611703 0.221144
Si Si2 0.670838 0.892634 0.613969
Si Si3 0.827736 0.109428 0.933554
Si Si4 0.670972 0.702459 0.670492
Si Si5 0.834385 0.114172 0.500000
Si Si6 0.675863 0.284735 0.114135
Si Si7 0.167969 0.613452 0.434692
Si Si8 0.323544 0.392754 0.000000
O O1 0.781858 0.500000 0.221477
O O2 0.777642 0.658956 0.281269
O O3 0.740428 0.663912 0.169902
O O4 0.000000 0.626279 0.212686
O O5 0.500000 0.897087 0.595674
O O6 0.694530 0.818391 0.667209
O O7 0.756875 0.849425 0.558587
O O8 0.726640 0.000000 0.631998
O O9 0.732277 0.175395 0.890368
O O10 0.000000 0.135554 0.927089
O O11 0.798352 0.000000 0.914807
O O12 0.776069 0.125117 0.000000
O O13 0.500000 0.677642 0.684895
O O14 0.712290 0.658676 0.608353
O O15 0.000000 0.155510 0.500000
O O16 0.828968 0.000000 0.500000
O O17 0.500000 0.285629 0.118873
O O18 0.735640 0.339860 0.057248
O O19 0.196758 0.653048 0.500000
O O20 0.189568 0.500000 0.433980
O O21 0.000000 0.639439 0.415063
O O22 0.258084 0.500000 0.000000
O O23 0.500000 0.394241 0.000000
#
# Coordination Sequence:
#
# PCOD8200417 Si02
#       8
#     8   8   8   8   4   8   8   4
#     4  11  25  44  63  83 112 154 199 240 291 358
#     4   9  19  36  55  77 111 150 183 223 280 343
#     4   9  18  34  57  86 124 167 204 241 287 341
#     4  11  23  37  58  85 110 144 192 242 291 341
#     4   9  17  29  49  79 110 141 182 227 271 326
#     4  11  21  36  60  90 122 156 195 245 298 347
#     4   9  19  36  56  79 110 147 183 225 286 353
#     4   9  18  32  52  83 120 152 183 231 296 353
#
# _framework density 19.389347000000001
#
# number of rings (size 3 to 8) (size 9 to 14) (size 15 to 20)
#    0.000    2.143    0.714    3.214    1.000    6.286 
#    0.000    2.143    0.000    4.286    0.000    0.000 
#    0.000    0.000    0.000    0.000    0.000    0.000 
#
# Total GULP energy -694447.557926 kJ/mol
# GULP energy per Si atom -12400.849249 kJ/mol
# Density = 1.934522 g / cm^3
# Si number density = 19.389347 Si / 1000 Ang^3
#
#
#
# Elastic Constant Matrix: (Units=GPa)
#
#
# Indices 1 2 3 4 5 6 
#
# 1 76.9262 49.6383 39.5659 0.0000 0.0000 0.0000
# 2 49.6383 108.4047 57.5582 0.0000 0.0000 0.0000
# 3 39.5659 57.5582 100.8684 0.0000 0.0000 0.0000
# 4 0.0000 0.0000 0.0000 33.4538 0.0000 0.0000
# 5 0.0000 0.0000 0.0000 0.0000 34.4913 0.0000
# 6 0.0000 0.0000 0.0000 0.0000 0.0000 29.0195
#
#
#
# Elastic Compliance Matrix: (Units=1/GPa)
#
#
# Indices 1 2 3 4 5 6 
#
# 1 0.019337 -0.006925 -0.003633 0.000000 0.000000 0.000000
# 2 -0.006925 0.015715 -0.006251 0.000000 0.000000 0.000000
# 3 -0.003633 -0.006251 0.014906 0.000000 0.000000 0.000000
# 4 0.000000 0.000000 0.000000 0.029892 0.000000 0.000000
# 5 0.000000 0.000000 0.000000 0.000000 0.028993 0.000000
# 6 0.000000 0.000000 0.000000 0.000000 0.000000 0.034460
#
#
# Mechanical properties :
#
#
# Convention : Reuss Voigt Hill
#
# Bulk Modulus (GPa) = 61.20334 64.41379 62.80857
# Shear Modulus (GPa) = 27.41736 28.68872 28.05304
#
# Velocity S-wave (km/s) = 3.76445 3.85075 3.80784
# Velocity P-wave (km/s) = 7.10836 7.28453 7.19698
#
# Compressibility (1/GPa) = 0.01633898
#
# Stress axis : x y z
#
# Youngs Moduli (GPa) = 51.71490 63.63511 67.08761
#
# Poissons Ratio (x) = 0.44069 0.24374
# Poissons Ratio (y) = 0.35814 0.41935
# Poissons Ratio (z) = 0.18789 0.39777
#
# Static dielectric constant tensor:
#      x y z
#    x 3.460380 0.000000 0.000000 
#    y 0.000000 3.743880 0.000000 
#    z 0.000000 0.000000 3.486130 
# 
# 
# High freq. dielectric constant tensor:
#      x y z
#    x 1.750360 0.000000 0.000000 
#    y 0.000000 1.770790 0.000000 
#    z 0.000000 0.000000 1.736730 
# 
# From -- ./inp_files/29795.got.cif
#   From: 2010.03.12/outbox.cif.g09.slc.cpg/sg47_15_cif.got.tgz:29795.got - 2010.04.14 03:12:58.
