data_PCOD8200793
_publ_section_title
;
Structure prediction by ZEFSAII (Michael W. Deem and Ramdas Pophale) SiO2 
 PCOD8200793
Probable space group: P M M M
;
_chemical_formula_sum "Si O2"
_cell_formula_units_Z 44
_cell_length_a 7.799082
_cell_length_b 30.074179
_cell_length_c 10.057323
_cell_angle_alpha 90.000000
_cell_angle_beta 90.000000
_cell_angle_gamma 90.000000
_cell_volume 2358.955047
_symmetry_space_group_name_H-M "P M M M"
_symmetry_group_IT_number 47
_symmetry_cell_setting 'orthorhombic'
loop_
_space_group_symop_operation_xyz
x,y,z
-x,-y,z
x,-y,-z
-x,y,-z
-x,-y,-z
x,y,-z
-x,y,z
x,-y,z
loop_
_atom_site_type_symbol
_atom_site_label
_atom_site_fract_x
_atom_site_fract_y
_atom_site_fract_z
Si Si1 0.296184 0.794365 0.349473
Si Si2 0.704059 0.450487 0.648688
Si Si3 0.190133 0.109231 0.342243
Si Si4 0.500000 0.949861 0.658913
Si Si5 0.704050 0.621477 0.148570
Si Si6 0.296154 0.720596 0.851192
O O1 0.231060 0.785728 0.500000
O O2 0.500000 0.796046 0.346412
O O3 0.226179 0.840879 0.291824
O O4 0.221231 0.755532 0.255240
O O5 0.768653 0.439247 0.500000
O O6 0.500000 0.448625 0.652817
O O7 0.766033 0.500000 0.689731
O O8 0.784179 0.414393 0.749702
O O9 0.205347 0.109458 0.500000
O O10 0.330757 0.074965 0.284758
O O11 0.000000 0.094135 0.296110
O O12 0.500000 0.949681 0.500000
O O13 0.500000 0.000000 0.714173
O O14 0.500000 0.619968 0.154059
O O15 0.767586 0.671030 0.187473
O O16 0.767195 0.609582 0.000000
O O17 0.500000 0.721938 0.847952
O O18 0.231867 0.732761 0.000000
#
# Coordination Sequence:
#
# PCOD8200793 Si02
#       6
#     8   8   8   4   8   8
#     4   9  15  24  39  57  78 106 140 175 213 261
#     4   8  13  19  25  34  51  78 114 158 206 253
#     4   9  16  26  40  59  86 118 150 187 229 269
#     4   9  16  26  40  60  89 123 157 191 226 269
#     4   8  13  20  28  39  57  81 113 156 204 254
#     4   8  14  23  34  50  72  97 127 168 217 264
#
# _framework density 18.652327
#
# number of rings (size 3 to 8) (size 9 to 14) (size 15 to 20)
#    0.000    3.545    0.909    1.636    0.000    1.455 
#    0.000    7.273    0.000    0.545    0.000    0.000 
#    0.000    1.455    0.000    1.636    0.000    2.727 
#
# Total GULP energy -545243.923274 kJ/mol
# GULP energy per Si atom -12391.907347 kJ/mol
# Density = 1.860987 g / cm^3
# Si number density = 18.652327 Si / 1000 Ang^3
#
#
#
# Elastic Constant Matrix: (Units=GPa)
#
#
# Indices 1 2 3 4 5 6 
#
# 1 50.7086 41.8115 19.0948 0.0000 0.0000 0.0000
# 2 41.8115 182.9233 86.6983 0.0000 0.0000 0.0000
# 3 19.0948 86.6983 83.0120 0.0000 0.0000 0.0000
# 4 0.0000 0.0000 0.0000 11.6329 0.0000 0.0000
# 5 0.0000 0.0000 0.0000 0.0000 0.0382 0.0000
# 6 0.0000 0.0000 0.0000 0.0000 0.0000 -0.6366
#
#
#
# Elastic Compliance Matrix: (Units=1/GPa)
#
#
# Indices 1 2 3 4 5 6 
#
# 1 0.024308 -0.005755 0.000419 0.000000 0.000000 0.000000
# 2 -0.005755 0.012188 -0.011405 0.000000 0.000000 0.000000
# 3 0.000419 -0.011405 0.023862 0.000000 0.000000 0.000000
# 4 0.000000 0.000000 0.000000 0.085963 0.000000 0.000000
# 5 0.000000 0.000000 0.000000 0.000000 26.199966 0.000000
# 6 0.000000 0.000000 0.000000 0.000000 0.000000 -1.570859
#
#
# Mechanical properties :
#
#
# Convention : Reuss Voigt Hill
#
# Bulk Modulus (GPa) = 37.20910 67.98369 52.59639
# Shear Modulus (GPa) = 0.20147 13.47618 6.83882
#
# Velocity S-wave (km/s) = 0.32901 2.69084 1.91688
# Velocity P-wave (km/s) = 4.48736 6.79567 5.75836
#
# Compressibility (1/GPa) = 0.02687515
#
# Stress axis : x y z
#
# Youngs Moduli (GPa) = 41.13917 82.04931 41.90776
#
# Poissons Ratio (x) = 0.47216 -0.01755
# Poissons Ratio (y) = 0.23674 0.47797
# Poissons Ratio (z) = -0.01723 0.93580
#
# Static dielectric constant tensor:
#      x y z
#    x 3.038000 0.000000 0.000000 
#    y 0.000000 3.729590 0.000000 
#    z 0.000000 0.000000 3.365260 
# 
# 
# High freq. dielectric constant tensor:
#      x y z
#    x 1.691190 0.000000 0.000000 
#    y 0.000000 1.727080 0.000000 
#    z 0.000000 0.000000 1.682710 
# 
# From -- ./inp_files/15283.got.cif
#   From: 2010.03.12/outbox.cif.g09.slc.cpg/sg47_8_cif.got.tgz:15283.got - 2010.04.14 03:12:58.
