data_PCOD8200340
_publ_section_title
;
Structure prediction by ZEFSAII (Michael W. Deem and Ramdas Pophale) SiO2 
 PCOD8200340
Probable space group: P M M M
;
_chemical_formula_sum "Si O2"
_cell_formula_units_Z 44
_cell_length_a 12.523038
_cell_length_b 9.290594
_cell_length_c 24.607110
_cell_angle_alpha 90.000000
_cell_angle_beta 90.000000
_cell_angle_gamma 90.000000
_cell_volume 2862.950181
_symmetry_space_group_name_H-M "P M M M"
_symmetry_group_IT_number 47
_symmetry_cell_setting 'orthorhombic'
loop_
_space_group_symop_operation_xyz
x,y,z
-x,-y,z
x,-y,-z
-x,y,-z
-x,-y,-z
x,y,-z
-x,y,z
x,-y,z
loop_
_atom_site_type_symbol
_atom_site_label
_atom_site_fract_x
_atom_site_fract_y
_atom_site_fract_z
Si Si1 0.122494 0.335120 0.735930
Si Si2 0.194894 0.668546 0.382456
Si Si3 0.873025 0.661694 0.059883
Si Si4 0.623444 0.164152 0.437015
Si Si5 0.127432 0.838184 0.161011
Si Si6 0.000000 0.166122 0.564368
O O1 0.131562 0.500000 0.754282
O O2 0.189450 0.303335 0.681911
O O3 0.170033 0.240822 0.785030
O O4 0.000000 0.294415 0.723205
O O5 0.180770 0.500000 0.395737
O O6 0.309824 0.724047 0.401381
O O7 0.104573 0.756378 0.413508
O O8 0.830897 0.500000 0.069596
O O9 0.825169 0.763270 0.106882
O O10 0.000000 0.662736 0.062875
O O11 0.836390 0.716585 0.000000
O O12 0.647446 0.193608 0.500000
O O13 0.500000 0.191654 0.423767
O O14 0.655077 0.000000 0.422553
O O15 0.000000 0.831631 0.160122
O O16 0.170563 0.000000 0.161994
O O17 0.000000 0.177845 0.500000
O O18 0.000000 0.000000 0.583325
#
# Coordination Sequence:
#
# PCOD8200340 Si02
#       6
#     8   8   8   8   8   4
#     4   9  17  30  42  54  79 111 139 169 210 257
#     4  11  21  33  49  70  91 113 145 184 222 258
#     4   8  13  21  32  45  63  92 129 166 207 251
#     4   9  19  36  54  70  90 116 144 174 214 267
#     4   9  16  23  33  51  71  95 131 172 210 245
#     4  11  23  35  47  65  91 121 146 171 214 269
#
# _framework density 15.368762
#
# number of rings (size 3 to 8) (size 9 to 14) (size 15 to 20)
#    0.000    2.636    0.909    3.000    0.000    7.636 
#    0.000    2.727    0.000    0.000    0.000    0.000 
#    0.000    0.000    0.000    0.000    0.000    0.909 
#
# Total GULP energy -545517.805282 kJ/mol
# GULP energy per Si atom -12398.131938 kJ/mol
# Density = 1.533378 g / cm^3
# Si number density = 15.368762 Si / 1000 Ang^3
#
#
#
# Elastic Constant Matrix: (Units=GPa)
#
#
# Indices 1 2 3 4 5 6 
#
# 1 42.8392 34.9280 35.9235 0.0000 0.0000 0.0000
# 2 34.9280 117.9552 80.4749 0.0000 0.0000 0.0000
# 3 35.9235 80.4749 122.2622 0.0000 0.0000 0.0000
# 4 0.0000 0.0000 0.0000 19.1850 0.0000 0.0000
# 5 0.0000 0.0000 0.0000 0.0000 6.7085 0.0000
# 6 0.0000 0.0000 0.0000 0.0000 0.0000 18.6494
#
#
#
# Elastic Compliance Matrix: (Units=1/GPa)
#
#
# Indices 1 2 3 4 5 6 
#
# 1 0.032976 -0.005725 -0.005921 0.000000 0.000000 0.000000
# 2 -0.005725 0.016382 -0.009101 0.000000 0.000000 0.000000
# 3 -0.005921 -0.009101 0.015909 0.000000 0.000000 0.000000
# 4 0.000000 0.000000 0.000000 0.052124 0.000000 0.000000
# 5 0.000000 0.000000 0.000000 0.000000 0.149064 0.000000
# 6 0.000000 0.000000 0.000000 0.000000 0.000000 0.053621
#
#
# Mechanical properties :
#
#
# Convention : Reuss Voigt Hill
#
# Bulk Modulus (GPa) = 42.06314 65.07881 53.57098
# Shear Modulus (GPa) = 13.53200 17.69058 15.61129
#
# Velocity S-wave (km/s) = 2.97052 3.39643 3.19059
# Velocity P-wave (km/s) = 6.26051 7.60380 6.96462
#
# Compressibility (1/GPa) = 0.02377378
#
# Stress axis : x y z
#
# Youngs Moduli (GPa) = 30.32517 61.04227 62.85725
#
# Poissons Ratio (x) = 0.34948 0.37216
# Poissons Ratio (y) = 0.17362 0.57205
# Poissons Ratio (z) = 0.17955 0.55553
#
# Static dielectric constant tensor:
#      x y z
#    x 2.460470 0.000000 0.000000 
#    y 0.000000 3.097030 0.000000 
#    z 0.000000 0.000000 3.126610 
# 
# 
# High freq. dielectric constant tensor:
#      x y z
#    x 1.521330 0.000000 0.000000 
#    y 0.000000 1.600200 0.000000 
#    z 0.000000 0.000000 1.598760 
# 
# From -- ./inp_files/4331.got.cif
#   From: 2010.03.12/outbox.cif.g09.slc.cpg/sg47_3_cif.got.tgz:4331.got - 2010.04.14 03:12:58.
