data_PCOD8200922
_publ_section_title
;
Structure prediction by ZEFSAII (Michael W. Deem and Ramdas Pophale) SiO2 
 PCOD8200922
Probable space group: P M M M
;
_chemical_formula_sum "Si O2"
_cell_formula_units_Z 44
_cell_length_a 15.056129
_cell_length_b 22.727126
_cell_length_c 9.785358
_cell_angle_alpha 90.000000
_cell_angle_beta 90.000000
_cell_angle_gamma 90.000000
_cell_volume 3348.378664
_symmetry_space_group_name_H-M "P M M M"
_symmetry_group_IT_number 47
_symmetry_cell_setting 'orthorhombic'
loop_
_space_group_symop_operation_xyz
x,y,z
-x,-y,z
x,-y,-z
-x,y,-z
-x,-y,-z
x,y,-z
-x,y,z
x,-y,z
loop_
_atom_site_type_symbol
_atom_site_label
_atom_site_fract_x
_atom_site_fract_y
_atom_site_fract_z
Si Si1 0.245281 0.067527 0.657756
Si Si2 0.105398 0.734084 0.847090
Si Si3 0.401852 0.930128 0.153383
Si Si4 0.105669 0.396551 0.153595
Si Si5 0.101909 0.837552 0.657753
Si Si6 0.106061 0.500000 0.344808
O O1 0.271823 0.073458 0.500000
O O2 0.327589 0.094229 0.743303
O O3 0.157048 0.104024 0.692949
O O4 0.224950 0.000000 0.697203
O O5 0.140308 0.668866 0.806957
O O6 0.142268 0.782900 0.742867
O O7 0.000000 0.733505 0.839702
O O8 0.137209 0.750214 0.000000
O O9 0.500000 0.906440 0.194907
O O10 0.402952 0.000000 0.160723
O O11 0.378355 0.909224 0.000000
O O12 0.142965 0.442728 0.264543
O O13 0.000000 0.397772 0.155644
O O14 0.137960 0.413186 0.000000
O O15 0.110682 0.819997 0.500000
O O16 0.000000 0.851004 0.697474
O O17 0.142917 0.500000 0.500000
O O18 0.000000 0.500000 0.346160
#
# Coordination Sequence:
#
# PCOD8200922 Si02
#       6
#     8   8   8   8   8   4
#     4   9  17  27  38  53  71  90 113 140 171 209
#     4   8  14  24  36  47  58  77 108 142 172 202
#     4   8  14  25  40  56  72  88 105 128 163 206
#     4   8  13  21  31  41  55  76 100 127 162 201
#     4   9  17  27  37  49  66  89 116 146 178 207
#     4   9  15  19  25  41  61  77  95 123 160 199
#
# _framework density 13.140688000000001
#
# number of rings (size 3 to 8) (size 9 to 14) (size 15 to 20)
#    0.000    3.545    0.000    1.909    0.000    3.273 
#    0.000    7.273    0.000    0.000    0.000    5.091 
#    0.000    0.000    0.000    0.000    0.000    0.000 
#
# Total GULP energy -545246.405383 kJ/mol
# GULP energy per Si atom -12391.963759 kJ/mol
# Density = 1.311078 g / cm^3
# Si number density = 13.140688 Si / 1000 Ang^3
#
#
#
# Elastic Constant Matrix: (Units=GPa)
#
#
# Indices 1 2 3 4 5 6 
#
# 1 44.9057 30.3049 35.6396 0.0000 0.0000 0.0000
# 2 30.3049 81.5731 56.4295 0.0000 0.0000 0.0000
# 3 35.6396 56.4295 83.4713 0.0000 0.0000 0.0000
# 4 0.0000 0.0000 0.0000 23.4611 0.0000 0.0000
# 5 0.0000 0.0000 0.0000 0.0000 14.4679 0.0000
# 6 0.0000 0.0000 0.0000 0.0000 0.0000 0.8894
#
#
#
# Elastic Compliance Matrix: (Units=1/GPa)
#
#
# Indices 1 2 3 4 5 6 
#
# 1 0.034722 -0.004966 -0.011468 0.000000 0.000000 0.000000
# 2 -0.004966 0.023739 -0.013928 0.000000 0.000000 0.000000
# 3 -0.011468 -0.013928 0.026292 0.000000 0.000000 0.000000
# 4 0.000000 0.000000 0.000000 0.042624 0.000000 0.000000
# 5 0.000000 0.000000 0.000000 0.000000 0.069119 0.000000
# 6 0.000000 0.000000 0.000000 0.000000 0.000000 1.124313
#
#
# Mechanical properties :
#
#
# Convention : Reuss Voigt Hill
#
# Bulk Modulus (GPa) = 41.61621 50.52202 46.06911
# Shear Modulus (GPa) = 3.59831 13.60208 8.60019
#
# Velocity S-wave (km/s) = 1.65657 3.22081 2.56104
# Velocity P-wave (km/s) = 5.94958 7.23615 6.62418
#
# Compressibility (1/GPa) = 0.02402910
#
# Stress axis : x y z
#
# Youngs Moduli (GPa) = 28.80032 42.12530 38.03419
#
# Poissons Ratio (x) = 0.20921 0.43616
# Poissons Ratio (y) = 0.14303 0.52973
# Poissons Ratio (z) = 0.33027 0.58671
#
# Static dielectric constant tensor:
#      x y z
#    x 2.347720 0.000000 0.000000 
#    y 0.000000 2.731650 0.000000 
#    z 0.000000 0.000000 2.833610 
# 
# 
# High freq. dielectric constant tensor:
#      x y z
#    x 1.439810 0.000000 0.000000 
#    y 0.000000 1.486570 0.000000 
#    z 0.000000 0.000000 1.509020 
# 
# From -- ./inp_files/7533.got.cif
#   From: 2010.03.12/outbox.cif.g09.slc.cpg/sg47_4_cif.got.tgz:7533.got - 2010.04.14 03:12:58.
