data_PCOD8200661
_publ_section_title
;
Structure prediction by ZEFSAII (Michael W. Deem and Ramdas Pophale) SiO2 
 PCOD8200661
Probable space group: P M M M
;
_chemical_formula_sum "Si O2"
_cell_formula_units_Z 44
_cell_length_a 7.657717
_cell_length_b 29.855418
_cell_length_c 9.748355
_cell_angle_alpha 90.000000
_cell_angle_beta 90.000000
_cell_angle_gamma 90.000000
_cell_volume 2228.711247
_symmetry_space_group_name_H-M "P M M M"
_symmetry_group_IT_number 47
_symmetry_cell_setting 'orthorhombic'
loop_
_space_group_symop_operation_xyz
x,y,z
-x,-y,z
x,-y,-z
-x,y,-z
-x,-y,-z
x,y,-z
-x,y,z
x,-y,z
loop_
_atom_site_type_symbol
_atom_site_label
_atom_site_fract_x
_atom_site_fract_y
_atom_site_fract_z
Si Si1 0.500000 0.052943 0.158751
Si Si2 0.795699 0.198735 0.649995
Si Si3 0.701138 0.723761 0.148460
Si Si4 0.796174 0.097063 0.338937
Si Si5 0.706799 0.373506 0.844069
Si Si6 0.707851 0.549458 0.653802
O O1 0.674107 0.068029 0.239717
O O2 0.500000 0.000000 0.157677
O O3 0.500000 0.070681 0.000000
O O4 0.713132 0.207304 0.500000
O O5 0.720461 0.234788 0.752039
O O6 0.750609 0.148490 0.697412
O O7 0.000000 0.204783 0.641436
O O8 0.500000 0.714614 0.124305
O O9 0.776438 0.676062 0.203556
O O10 0.786497 0.735579 0.000000
O O11 0.757095 0.087347 0.500000
O O12 0.000000 0.086472 0.307974
O O13 0.500000 0.376562 0.829351
O O14 0.792073 0.412227 0.750325
O O15 0.765666 0.381861 0.000000
O O16 0.775057 0.558434 0.500000
O O17 0.500000 0.551394 0.657491
O O18 0.769807 0.500000 0.702959
#
# Coordination Sequence:
#
# PCOD8200661 Si02
#       6
#     4   8   8   8   8   8
#     4  11  25  41  59  89 125 157 191 235 286 339
#     4   9  19  35  53  75 102 131 168 213 256 301
#     4   9  18  30  44  67  98 129 162 201 246 299
#     4   9  20  40  63  86 115 152 194 240 285 332
#     4   8  14  24  35  50  78 113 148 188 232 283
#     4   8  13  20  30  46  70 102 142 188 235 284
#
# _framework density 19.742349999999998
#
# number of rings (size 3 to 8) (size 9 to 14) (size 15 to 20)
#    0.000    3.182    0.000    3.000    1.273    4.000 
#    0.000    7.273    0.000    0.000    0.000    0.000 
#    0.000    0.727    0.000    8.000    0.000   13.091 
#
# Total GULP energy -545081.868569 kJ/mol
# GULP energy per Si atom -12388.224286 kJ/mol
# Density = 1.969742 g / cm^3
# Si number density = 19.742350 Si / 1000 Ang^3
#
#
#
# Elastic Constant Matrix: (Units=GPa)
#
#
# Indices 1 2 3 4 5 6 
#
# 1 45.7909 36.9690 38.5764 0.0000 0.0000 0.0000
# 2 36.9690 122.6702 78.9029 0.0000 0.0000 0.0000
# 3 38.5764 78.9029 116.2425 0.0000 0.0000 0.0000
# 4 0.0000 0.0000 0.0000 43.7442 0.0000 0.0000
# 5 0.0000 0.0000 0.0000 0.0000 -11.5855 0.0000
# 6 0.0000 0.0000 0.0000 0.0000 0.0000 -41.6155
#
#
#
# Elastic Compliance Matrix: (Units=1/GPa)
#
#
# Indices 1 2 3 4 5 6 
#
# 1 0.031943 -0.004984 -0.007217 0.000000 0.000000 0.000000
# 2 -0.004984 0.015247 -0.008695 0.000000 0.000000 0.000000
# 3 -0.007217 -0.008695 0.016900 0.000000 0.000000 0.000000
# 4 0.000000 0.000000 0.000000 0.022860 0.000000 0.000000
# 5 0.000000 0.000000 0.000000 0.000000 -0.086315 0.000000
# 6 0.000000 0.000000 0.000000 0.000000 0.000000 -0.024030
#
#
# Mechanical properties :
#
#
# Convention : Reuss Voigt Hill
#
# Bulk Modulus (GPa) = 44.85121 65.95559 55.40340
# Shear Modulus (GPa) = 193.56828 6.79234 100.18031
#
# Velocity S-wave (km/s) = 9.91262 1.85687 7.13120
# Velocity P-wave (km/s) = 12.40085 6.17074 9.79436
#
# Compressibility (1/GPa) = 0.02229594
#
# Stress axis : x y z
#
# Youngs Moduli (GPa) = 31.30619 65.58725 59.17174
#
# Poissons Ratio (x) = 0.32690 0.42706
# Poissons Ratio (y) = 0.15604 0.51451
# Poissons Ratio (z) = 0.22595 0.57029
#
# Static dielectric constant tensor:
#      x y z
#    x 3.276160 0.000000 0.000000 
#    y 0.000000 4.395040 0.000000 
#    z 0.000000 0.000000 3.574090 
# 
# 
# High freq. dielectric constant tensor:
#      x y z
#    x 1.743360 0.000000 0.000000 
#    y 0.000000 1.776350 0.000000 
#    z 0.000000 0.000000 1.762340 
# 
# From -- ./inp_files/2322.got.cif
#   From: 2010.03.12/outbox.cif.g09.slc.cpg/sg47_2_cif.got.tgz:2322.got - 2010.04.14 03:12:58.
