data_PCOD8200462
_publ_section_title
;
Structure prediction by ZEFSAII (Michael W. Deem and Ramdas Pophale) SiO2 
 PCOD8200462
Probable space group: P M M M
;
_chemical_formula_sum "Si O2"
_cell_formula_units_Z 56
_cell_length_a 13.878631
_cell_length_b 9.838116
_cell_length_c 21.469148
_cell_angle_alpha 90.000000
_cell_angle_beta 90.000000
_cell_angle_gamma 90.000000
_cell_volume 2931.388487
_symmetry_space_group_name_H-M "P M M M"
_symmetry_group_IT_number 47
_symmetry_cell_setting 'orthorhombic'
loop_
_space_group_symop_operation_xyz
x,y,z
-x,-y,z
x,-y,-z
-x,y,-z
-x,-y,-z
x,y,-z
-x,y,z
x,-y,z
loop_
_atom_site_type_symbol
_atom_site_label
_atom_site_fract_x
_atom_site_fract_y
_atom_site_fract_z
Si Si1 0.293868 0.249607 0.362348
Si Si2 0.114038 0.847077 0.163265
Si Si3 0.388548 0.500000 0.426099
Si Si4 0.108702 0.159633 0.305366
Si Si5 0.226000 0.657016 0.930322
Si Si6 0.612270 0.154915 0.104953
Si Si7 0.611490 0.846669 0.754443
Si Si8 0.390790 0.000000 0.426262
O O1 0.326457 0.377482 0.400759
O O2 0.178198 0.239007 0.353591
O O3 0.337281 0.255452 0.292673
O O4 0.334171 0.128294 0.402573
O O5 0.143665 0.813698 0.234441
O O6 0.156311 0.735305 0.116790
O O7 0.000000 0.841116 0.157610
O O8 0.149866 0.000000 0.145521
O O9 0.500000 0.500000 0.402470
O O10 0.387935 0.500000 0.500000
O O11 0.000000 0.213138 0.315756
O O12 0.114643 0.000000 0.319330
O O13 0.239533 0.500000 0.908840
O O14 0.328744 0.734588 0.934128
O O15 0.181725 0.660985 0.000000
O O16 0.500000 0.190831 0.099545
O O17 0.651698 0.168766 0.175727
O O18 0.629509 0.000000 0.081482
O O19 0.500000 0.811356 0.755947
O O20 0.629884 0.000000 0.730107
O O21 0.500000 0.000000 0.399757
O O22 0.392820 0.000000 0.500000
#
# Coordination Sequence:
#
# PCOD8200462 Si02
#       8
#     8   8   4   8   8   8   8   4
#     4  12  20  35  60  83 113 157 193 235 287 338
#     4   9  19  38  64  89 113 142 181 232 287 340
#     4  11  26  44  57  77 119 165 199 236 282 332
#     4   9  18  36  63  95 122 144 181 239 299 348
#     4  11  24  38  52  75 113 156 192 230 281 341
#     4   9  19  36  57  80 108 144 189 241 290 338
#     4   9  16  29  53  84 111 134 174 235 296 347
#     4  11  22  34  55  87 115 147 199 244 274 328
#
# _framework density 19.103576
#
# number of rings (size 3 to 8) (size 9 to 14) (size 15 to 20)
#    0.000    2.000    1.429    4.714    0.000    5.714 
#    5.143    3.214    0.000    2.571    0.000    0.000 
#    0.000    0.000    0.000    0.000    0.000    0.000 
#
# Total GULP energy -694198.512659 kJ/mol
# GULP energy per Si atom -12396.402012 kJ/mol
# Density = 1.906010 g / cm^3
# Si number density = 19.103576 Si / 1000 Ang^3
#
#
#
# Elastic Constant Matrix: (Units=GPa)
#
#
# Indices 1 2 3 4 5 6 
#
# 1 71.8226 49.9539 48.7149 0.0000 0.0000 0.0000
# 2 49.9539 125.4666 47.2699 0.0000 0.0000 0.0000
# 3 48.7149 47.2699 75.1402 0.0000 0.0000 0.0000
# 4 0.0000 0.0000 0.0000 34.4128 0.0000 0.0000
# 5 0.0000 0.0000 0.0000 0.0000 25.3866 0.0000
# 6 0.0000 0.0000 0.0000 0.0000 0.0000 207.5903
#
#
#
# Elastic Compliance Matrix: (Units=1/GPa)
#
#
# Indices 1 2 3 4 5 6 
#
# 1 0.027514 -0.005549 -0.014347 0.000000 0.000000 0.000000
# 2 -0.005549 0.011565 -0.003678 0.000000 0.000000 0.000000
# 3 -0.014347 -0.003678 0.024923 0.000000 0.000000 0.000000
# 4 0.000000 0.000000 0.000000 0.029059 0.000000 0.000000
# 5 0.000000 0.000000 0.000000 0.000000 0.039391 0.000000
# 6 0.000000 0.000000 0.000000 0.000000 0.000000 0.004817
#
#
# Mechanical properties :
#
#
# Convention : Reuss Voigt Hill
#
# Bulk Modulus (GPa) = 59.33064 62.70075 61.01570
# Shear Modulus (GPa) = 26.31089 61.91067 44.11078
#
# Velocity S-wave (km/s) = 3.71519 5.69897 4.81045
# Velocity P-wave (km/s) = 7.03764 8.72909 7.92860
#
# Compressibility (1/GPa) = 0.01685470
#
# Stress axis : x y z
#
# Youngs Moduli (GPa) = 36.34555 86.46526 40.12290
#
# Poissons Ratio (x) = 0.47982 0.57563
# Poissons Ratio (y) = 0.20169 0.14757
# Poissons Ratio (z) = 0.52144 0.31801
#
# Static dielectric constant tensor:
#      x y z
#    x 3.601560 0.000000 0.000000 
#    y 0.000000 3.335700 0.000000 
#    z 0.000000 0.000000 3.520870 
# 
# 
# High freq. dielectric constant tensor:
#      x y z
#    x 1.750800 0.000000 0.000000 
#    y 0.000000 1.719290 0.000000 
#    z 0.000000 0.000000 1.739770 
# 
# From -- ./inp_files/31037.got.cif
#   From: 2010.03.12/outbox.cif.g09.slc.cpg/sg47_16_cif.got.tgz:31037.got - 2010.04.14 03:12:58.
