data_PCOD8200534
_publ_section_title
;
Structure prediction by ZEFSAII (Michael W. Deem and Ramdas Pophale) SiO2 
 PCOD8200534
Probable space group: P M M M
;
_chemical_formula_sum "Si O2"
_cell_formula_units_Z 48
_cell_length_a 14.538708
_cell_length_b 8.944915
_cell_length_c 18.797789
_cell_angle_alpha 90.000000
_cell_angle_beta 90.000000
_cell_angle_gamma 90.000000
_cell_volume 2444.605602
_symmetry_space_group_name_H-M "P M M M"
_symmetry_group_IT_number 47
_symmetry_cell_setting 'orthorhombic'
loop_
_space_group_symop_operation_xyz
x,y,z
-x,-y,z
x,-y,-z
-x,y,-z
-x,-y,-z
x,y,-z
-x,y,z
x,-y,z
loop_
_atom_site_type_symbol
_atom_site_label
_atom_site_fract_x
_atom_site_fract_y
_atom_site_fract_z
Si Si1 0.354160 0.670666 0.920649
Si Si2 0.862747 0.333959 0.078850
Si Si3 0.604018 0.828197 0.224965
Si Si4 0.104273 0.826276 0.417461
Si Si5 0.899478 0.165877 0.791388
Si Si6 0.766033 0.325016 0.305391
O O1 0.385706 0.500000 0.908623
O O2 0.245739 0.684250 0.918112
O O3 0.393739 0.767604 0.855966
O O4 0.388241 0.723748 0.000000
O O5 0.890898 0.500000 0.104808
O O6 0.910418 0.207465 0.126256
O O7 0.899998 0.307489 0.000000
O O8 0.500000 0.811157 0.253250
O O9 0.667833 0.744208 0.283069
O O10 0.635239 0.000000 0.222656
O O11 0.124894 0.800001 0.500000
O O12 0.185675 0.742750 0.375484
O O13 0.000000 0.768654 0.399766
O O14 0.110304 0.000000 0.397223
O O15 0.834815 0.292385 0.759102
O O16 0.000000 0.168757 0.754885
O O17 0.856618 0.000000 0.782441
O O18 0.752361 0.500000 0.316678
#
# Coordination Sequence:
#
# PCOD8200534 Si02
#       6
#     8   8   8   8   8   8
#     4   9  18  34  56  81 109 143 185 237 300 361
#     4   9  18  33  52  74 102 139 183 231 286 345
#     4  11  24  40  59  84 113 148 194 245 296 351
#     4   9  19  38  65  96 129 163 195 227 269 326
#     4  11  23  36  52  77 109 146 189 234 281 337
#     4  12  24  38  59  86 118 154 190 233 284 336
#
# _framework density 19.635069999999999
#
# number of rings (size 3 to 8) (size 9 to 14) (size 15 to 20)
#    0.000    1.833    1.667    4.500    0.000    6.667 
#    0.000    5.833    0.000    0.500    0.000    3.500 
#    0.000    0.000    0.000    0.000    0.000    0.000 
#
# Total GULP energy -594821.005333 kJ/mol
# GULP energy per Si atom -12392.104278 kJ/mol
# Density = 1.959038 g / cm^3
# Si number density = 19.635070 Si / 1000 Ang^3
#
#
#
# Elastic Constant Matrix: (Units=GPa)
#
#
# Indices 1 2 3 4 5 6 
#
# 1 106.8432 49.6388 42.7721 0.0000 0.0000 0.0000
# 2 49.6388 116.4693 57.0046 0.0000 0.0000 0.0000
# 3 42.7721 57.0046 108.1290 0.0000 0.0000 0.0000
# 4 0.0000 0.0000 0.0000 33.7254 0.0000 0.0000
# 5 0.0000 0.0000 0.0000 0.0000 227.4062 0.0000
# 6 0.0000 0.0000 0.0000 0.0000 0.0000 40.7476
#
#
#
# Elastic Compliance Matrix: (Units=1/GPa)
#
#
# Indices 1 2 3 4 5 6 
#
# 1 0.012280 -0.003850 -0.002828 0.000000 0.000000 0.000000
# 2 -0.003850 0.012779 -0.005214 0.000000 0.000000 0.000000
# 3 -0.002828 -0.005214 0.013116 0.000000 0.000000 0.000000
# 4 0.000000 0.000000 0.000000 0.029651 0.000000 0.000000
# 5 0.000000 0.000000 0.000000 0.000000 0.004397 0.000000
# 6 0.000000 0.000000 0.000000 0.000000 0.000000 0.024541
#
#
# Mechanical properties :
#
#
# Convention : Reuss Voigt Hill
#
# Bulk Modulus (GPa) = 69.48777 70.03030 69.75903
# Shear Modulus (GPa) = 39.88996 72.51091 56.20043
#
# Velocity S-wave (km/s) = 4.51218 6.08354 5.35580
# Velocity P-wave (km/s) = 7.91283 9.22439 8.59366
#
# Compressibility (1/GPa) = 0.01439102
#
# Stress axis : x y z
#
# Youngs Moduli (GPa) = 81.43196 78.25615 76.24450
#
# Poissons Ratio (x) = 0.30125 0.21563
# Poissons Ratio (y) = 0.31348 0.39754
# Poissons Ratio (z) = 0.23030 0.40803
#
# Static dielectric constant tensor:
#      x y z
#    x 3.577920 0.000000 0.000000 
#    y 0.000000 3.534740 0.000000 
#    z 0.000000 0.000000 3.702250 
# 
# 
# High freq. dielectric constant tensor:
#      x y z
#    x 1.763300 0.000000 0.000000 
#    y 0.000000 1.759020 0.000000 
#    z 0.000000 0.000000 1.754510 
# 
# From -- ./inp_files/24899.got.cif
#   From: 2010.03.12/outbox.cif.g09.slc.cpg/sg47_13_cif.got.tgz:24899.got - 2010.04.14 03:12:58.
