data_PCOD8200600
_publ_section_title
;
Structure prediction by ZEFSAII (Michael W. Deem and Ramdas Pophale) SiO2 
 PCOD8200600
Probable space group: P M M M
;
_chemical_formula_sum "Si O2"
_cell_formula_units_Z 44
_cell_length_a 9.498883
_cell_length_b 8.147307
_cell_length_c 29.968077
_cell_angle_alpha 90.000000
_cell_angle_beta 90.000000
_cell_angle_gamma 90.000000
_cell_volume 2319.238948
_symmetry_space_group_name_H-M "P M M M"
_symmetry_group_IT_number 47
_symmetry_cell_setting 'orthorhombic'
loop_
_space_group_symop_operation_xyz
x,y,z
-x,-y,z
x,-y,-z
-x,y,-z
-x,-y,-z
x,y,-z
-x,y,z
x,-y,z
loop_
_atom_site_type_symbol
_atom_site_label
_atom_site_fract_x
_atom_site_fract_y
_atom_site_fract_z
Si Si1 0.332272 0.500000 0.050677
Si Si2 0.339762 0.308589 0.449048
Si Si3 0.345293 0.308329 0.708135
Si Si4 0.332450 0.818320 0.896282
Si Si5 0.667290 0.317271 0.804397
Si Si6 0.842286 0.188563 0.629304
O O1 0.500000 0.500000 0.053461
O O2 0.273467 0.332593 0.073748
O O3 0.278422 0.500000 0.000000
O O4 0.298784 0.269720 0.500000
O O5 0.500000 0.253534 0.439706
O O6 0.323224 0.500000 0.438644
O O7 0.235624 0.208653 0.417723
O O8 0.500000 0.233209 0.696025
O O9 0.363868 0.500000 0.715447
O O10 0.288673 0.239657 0.756031
O O11 0.236837 0.280296 0.668703
O O12 0.500000 0.813510 0.898249
O O13 0.279021 0.794751 0.845261
O O14 0.280069 0.000000 0.912581
O O15 0.500000 0.327935 0.805354
O O16 0.730679 0.500000 0.811006
O O17 0.000000 0.260364 0.625013
O O18 0.846453 0.000000 0.642301
#
# Coordination Sequence:
#
# PCOD8200600 Si02
#       6
#     4   8   8   8   8   8
#     4   9  16  24  32  44  70 108 147 193 242 285
#     4   9  19  37  60  82 100 121 157 205 250 292
#     4   9  18  32  52  75  95 120 159 206 250 293
#     4   9  15  22  34  51  72 103 144 189 238 291
#     4   8  13  24  41  60  83 107 136 185 244 290
#     4  11  24  37  48  69 104 139 166 196 238 290
#
# _framework density 18.971741000000002
#
# number of rings (size 3 to 8) (size 9 to 14) (size 15 to 20)
#    0.000    2.818    0.909    2.727    0.000    6.182 
#    0.000    6.364    0.000    0.000    0.000    0.000 
#    0.000    0.000    0.000    0.000    0.000    1.818 
#
# Total GULP energy -545212.613350 kJ/mol
# GULP energy per Si atom -12391.195758 kJ/mol
# Density = 1.892856 g / cm^3
# Si number density = 18.971741 Si / 1000 Ang^3
#
#
#
# Elastic Constant Matrix: (Units=GPa)
#
#
# Indices 1 2 3 4 5 6 
#
# 1 57.0211 17.7129 41.7881 0.0000 0.0000 0.0000
# 2 17.7129 85.6953 47.1219 0.0000 0.0000 0.0000
# 3 41.7881 47.1219 143.3725 0.0000 0.0000 0.0000
# 4 0.0000 0.0000 0.0000 15.8100 0.0000 0.0000
# 5 0.0000 0.0000 0.0000 0.0000 -0.9647 0.0000
# 6 0.0000 0.0000 0.0000 0.0000 0.0000 14.1718
#
#
#
# Elastic Compliance Matrix: (Units=1/GPa)
#
#
# Indices 1 2 3 4 5 6 
#
# 1 0.022414 -0.001270 -0.006115 0.000000 0.000000 0.000000
# 2 -0.001270 0.014315 -0.004335 0.000000 0.000000 0.000000
# 3 -0.006115 -0.004335 0.010182 0.000000 0.000000 0.000000
# 4 0.000000 0.000000 0.000000 0.063251 0.000000 0.000000
# 5 0.000000 0.000000 0.000000 0.000000 -1.036577 0.000000
# 6 0.000000 0.000000 0.000000 0.000000 0.000000 0.070563
#
#
# Mechanical properties :
#
#
# Convention : Reuss Voigt Hill
#
# Bulk Modulus (GPa) = 42.60691 55.48164 49.04428
# Shear Modulus (GPa) = -6.06363 17.76782 5.85210
#
# Velocity S-wave (km/s) = -1.78971 3.06362 1.75822
# Velocity P-wave (km/s) = 4.27037 6.46701 5.47988
#
# Compressibility (1/GPa) = 0.02347037
#
# Stress axis : x y z
#
# Youngs Moduli (GPa) = 44.61590 69.85484 98.21299
#
# Poissons Ratio (x) = 0.08873 0.60060
# Poissons Ratio (y) = 0.05667 0.42573
# Poissons Ratio (z) = 0.27284 0.30281
#
# Static dielectric constant tensor:
#      x y z
#    x 3.006030 0.000000 0.000000 
#    y 0.000000 3.500880 0.000000 
#    z 0.000000 0.000000 3.721100 
# 
# 
# High freq. dielectric constant tensor:
#      x y z
#    x 1.667490 0.000000 0.000000 
#    y 0.000000 1.732080 0.000000 
#    z 0.000000 0.000000 1.749830 
# 
# From -- ./inp_files/2035.got.cif
#   From: 2010.03.12/outbox.cif.g09.slc.cpg/sg47_2_cif.got.tgz:2035.got - 2010.04.14 03:12:58.
