data_PCOD8200532
_publ_section_title
;
Structure prediction by ZEFSAII (Michael W. Deem and Ramdas Pophale) SiO2 
 PCOD8200532
Probable space group: P M M M
;
_chemical_formula_sum "Si O2"
_cell_formula_units_Z 44
_cell_length_a 7.886138
_cell_length_b 9.273251
_cell_length_c 31.868537
_cell_angle_alpha 90.000000
_cell_angle_beta 90.000000
_cell_angle_gamma 90.000000
_cell_volume 2330.550480
_symmetry_space_group_name_H-M "P M M M"
_symmetry_group_IT_number 47
_symmetry_cell_setting 'orthorhombic'
loop_
_space_group_symop_operation_xyz
x,y,z
-x,-y,z
x,-y,-z
-x,y,-z
-x,-y,-z
x,y,-z
-x,y,z
x,-y,z
loop_
_atom_site_type_symbol
_atom_site_label
_atom_site_fract_x
_atom_site_fract_y
_atom_site_fract_z
Si Si1 0.307602 0.671273 0.954648
Si Si2 0.803709 0.829662 0.328228
Si Si3 0.802247 0.842734 0.576991
Si Si4 0.694715 0.345368 0.500000
Si Si5 0.185316 0.671713 0.132965
Si Si6 0.500000 0.329157 0.814329
Si Si7 0.500000 0.672106 0.282165
O O1 0.500000 0.724374 0.949659
O O2 0.301031 0.500000 0.954140
O O3 0.204391 0.731706 0.914724
O O4 0.234839 0.725874 0.000000
O O5 0.761937 0.786737 0.376271
O O6 0.672857 0.738011 0.300761
O O7 0.000000 0.789892 0.317161
O O8 0.774753 0.000000 0.321278
O O9 0.735652 0.735334 0.542544
O O10 0.000000 0.859835 0.571166
O O11 0.717377 0.000000 0.570139
O O12 0.790921 0.500000 0.500000
O O13 0.500000 0.376207 0.500000
O O14 0.199106 0.500000 0.132531
O O15 0.331775 0.735024 0.163152
O O16 0.000000 0.720640 0.149713
O O17 0.500000 0.500000 0.818621
O O18 0.500000 0.282185 0.766267
O O19 0.500000 0.500000 0.288802
#
# Coordination Sequence:
#
# PCOD8200532 Si02
#       7
#     8   8   8   4   8   4   4
#     4   8  12  18  29  45  67  97 139 197 253 291
#     4   9  20  40  63  85 109 140 182 229 274 324
#     4   9  19  37  59  79 100 133 178 220 256 302
#     4  11  24  35  46  76 118 149 174 207 250 304
#     4   9  15  23  36  50  71 110 155 198 244 297
#     4   9  18  31  40  57  89 122 158 200 250 310
#     4  11  23  35  55  83 112 142 174 222 279 334
#
# _framework density 18.879660999999999
#
# number of rings (size 3 to 8) (size 9 to 14) (size 15 to 20)
#    0.000    2.818    0.909    2.455    1.273    4.364 
#    0.000    5.455    0.000    0.000    0.000    0.000 
#    0.000    0.000    0.000    0.000    0.000    7.273 
#
# Total GULP energy -545124.859251 kJ/mol
# GULP energy per Si atom -12389.201347 kJ/mol
# Density = 1.883669 g / cm^3
# Si number density = 18.879661 Si / 1000 Ang^3
#
#
#
# Elastic Constant Matrix: (Units=GPa)
#
#
# Indices 1 2 3 4 5 6 
#
# 1 123.3177 36.9765 91.8563 0.0000 0.0000 0.0000
# 2 36.9765 53.6444 50.9772 0.0000 0.0000 0.0000
# 3 91.8563 50.9772 155.8401 0.0000 0.0000 0.0000
# 4 0.0000 0.0000 0.0000 -28.6705 0.0000 0.0000
# 5 0.0000 0.0000 0.0000 0.0000 22.9635 0.0000
# 6 0.0000 0.0000 0.0000 0.0000 0.0000 19.1947
#
#
#
# Elastic Compliance Matrix: (Units=1/GPa)
#
#
# Indices 1 2 3 4 5 6 
#
# 1 0.014733 -0.002761 -0.007781 0.000000 0.000000 0.000000
# 2 -0.002761 0.027567 -0.007390 0.000000 0.000000 0.000000
# 3 -0.007781 -0.007390 0.013420 0.000000 0.000000 0.000000
# 4 0.000000 0.000000 0.000000 -0.034879 0.000000 0.000000
# 5 0.000000 0.000000 0.000000 0.000000 0.043547 0.000000
# 6 0.000000 0.000000 0.000000 0.000000 0.000000 0.052098
#
#
# Mechanical properties :
#
#
# Convention : Reuss Voigt Hill
#
# Bulk Modulus (GPa) = 50.36165 76.93579 63.64872
# Shear Modulus (GPa) = 31.45271 12.89700 22.17486
#
# Velocity S-wave (km/s) = 4.08604 2.61648 3.43087
# Velocity P-wave (km/s) = 6.99957 7.06874 7.03424
#
# Compressibility (1/GPa) = 0.01985638
#
# Stress axis : x y z
#
# Youngs Moduli (GPa) = 67.87643 36.27499 74.51436
#
# Poissons Ratio (x) = 0.10017 0.57976
# Poissons Ratio (y) = 0.18743 0.55066
# Poissons Ratio (z) = 0.52812 0.26807
#
# Static dielectric constant tensor:
#      x y z
#    x 3.575470 0.000000 0.000000 
#    y 0.000000 2.773510 0.000000 
#    z 0.000000 0.000000 3.628660 
# 
# 
# High freq. dielectric constant tensor:
#      x y z
#    x 1.739710 0.000000 0.000000 
#    y 0.000000 1.671520 0.000000 
#    z 0.000000 0.000000 1.742330 
# 
# From -- ./inp_files/33979.got.cif
#   From: 2010.03.12/outbox.cif.g09.slc.cpg/sg47_17_cif.got.tgz:33979.got - 2010.04.14 03:12:58.
