data_PCOD8200926
_publ_section_title
;
Structure prediction by ZEFSAII (Michael W. Deem and Ramdas Pophale) SiO2 
 PCOD8200926
Probable space group: P M M M
;
_chemical_formula_sum "Si O2"
_cell_formula_units_Z 40
_cell_length_a 9.406168
_cell_length_b 26.090764
_cell_length_c 9.186001
_cell_angle_alpha 90.000000
_cell_angle_beta 90.000000
_cell_angle_gamma 90.000000
_cell_volume 2254.374255
_symmetry_space_group_name_H-M "P M M M"
_symmetry_group_IT_number 47
_symmetry_cell_setting 'orthorhombic'
loop_
_space_group_symop_operation_xyz
x,y,z
-x,-y,z
x,-y,-z
-x,y,-z
-x,-y,-z
x,y,-z
-x,y,z
x,-y,z
loop_
_atom_site_type_symbol
_atom_site_label
_atom_site_fract_x
_atom_site_fract_y
_atom_site_fract_z
Si Si1 0.339165 0.097078 0.673696
Si Si2 0.330720 0.500000 0.835421
Si Si3 0.334081 0.400406 0.330691
Si Si4 0.839927 0.191776 0.326741
Si Si5 0.840521 0.695113 0.672889
Si Si6 0.838402 0.000000 0.673408
O O1 0.340719 0.097080 0.500000
O O2 0.500000 0.092749 0.733795
O O3 0.268477 0.149316 0.735065
O O4 0.245499 0.049703 0.731874
O O5 0.500000 0.500000 0.829159
O O6 0.272652 0.550472 0.754312
O O7 0.273775 0.500000 0.000000
O O8 0.298872 0.408590 0.500000
O O9 0.500000 0.393490 0.303446
O O10 0.260885 0.349381 0.265480
O O11 0.839315 0.190084 0.500000
O O12 0.791237 0.248410 0.272529
O O13 0.000000 0.179967 0.271477
O O14 0.834595 0.694499 0.500000
O O15 0.000000 0.684176 0.727624
O O16 0.841600 0.000000 0.500000
O O17 0.000000 0.000000 0.733974
#
# Coordination Sequence:
#
# PCOD8200926 Si02
#       6
#     8   4   8   8   8   4
#     4   9  15  20  26  37  53  73 101 141 185 223
#     4   9  17  29  44  61  82 108 134 159 192 236
#     4   9  16  26  42  62  80  99 128 165 198 229
#     4   8  13  21  31  42  58  81 107 135 173 223
#     4   8  14  24  37  53  73  95 118 147 187 234
#     4   9  15  21  27  33  45  71 107 143 180 225
#
# _framework density 17.743283000000002
#
# number of rings (size 3 to 8) (size 9 to 14) (size 15 to 20)
#    0.000    3.400    0.000    2.400    0.000    5.600 
#    0.000    4.500    0.000    3.600    0.000    0.000 
#    0.000    0.000    0.000    0.000    0.000    0.000 
#
# Total GULP energy -495722.172446 kJ/mol
# GULP energy per Si atom -12393.054311 kJ/mol
# Density = 1.770290 g / cm^3
# Si number density = 17.743283 Si / 1000 Ang^3
#
#
#
# Elastic Constant Matrix: (Units=GPa)
#
#
# Indices 1 2 3 4 5 6 
#
# 1 110.4846 94.8794 16.7257 0.0000 0.0000 0.0000
# 2 94.8794 200.9355 26.9655 0.0000 0.0000 0.0000
# 3 16.7257 26.9655 19.4095 0.0000 0.0000 0.0000
# 4 0.0000 0.0000 0.0000 0.6229 0.0000 0.0000
# 5 0.0000 0.0000 0.0000 0.0000 3.3547 0.0000
# 6 0.0000 0.0000 0.0000 0.0000 0.0000 37.6245
#
#
#
# Elastic Compliance Matrix: (Units=1/GPa)
#
#
# Indices 1 2 3 4 5 6 
#
# 1 0.015462 -0.006776 -0.003910 0.000000 0.000000 0.000000
# 2 -0.006776 0.009087 -0.006785 0.000000 0.000000 0.000000
# 3 -0.003910 -0.006785 0.064317 0.000000 0.000000 0.000000
# 4 0.000000 0.000000 0.000000 1.605366 0.000000 0.000000
# 5 0.000000 0.000000 0.000000 0.000000 0.298086 0.000000
# 6 0.000000 0.000000 0.000000 0.000000 0.000000 0.026578
#
#
# Mechanical properties :
#
#
# Convention : Reuss Voigt Hill
#
# Bulk Modulus (GPa) = 18.54478 67.55229 43.04853
# Shear Modulus (GPa) = 2.41334 21.13770 11.77552
#
# Velocity S-wave (km/s) = 1.16752 3.45528 2.57896
# Velocity P-wave (km/s) = 3.50598 7.35345 5.76043
#
# Compressibility (1/GPa) = 0.05392354
#
# Stress axis : x y z
#
# Youngs Moduli (GPa) = 64.67395 110.04724 15.54799
#
# Poissons Ratio (x) = 0.74572 0.06079
# Poissons Ratio (y) = 0.43825 0.10550
# Poissons Ratio (z) = 0.25286 0.74669
#
# Static dielectric constant tensor:
#      x y z
#    x 3.337890 0.000000 0.000000 
#    y 0.000000 3.785300 0.000000 
#    z 0.000000 0.000000 2.520950 
# 
# 
# High freq. dielectric constant tensor:
#      x y z
#    x 1.677130 0.000000 0.000000 
#    y 0.000000 1.708520 0.000000 
#    z 0.000000 0.000000 1.596980 
# 
# From -- ./inp_files/1749.got.cif
#   From: 2010.03.12/outbox.cif.g09.slc.cpg/sg47_1_cif.got.tgz:1749.got - 2010.04.14 03:12:58.
