data_PCOD8200892
_publ_section_title
;
Structure prediction by ZEFSAII (Michael W. Deem and Ramdas Pophale) SiO2 
 PCOD8200892
Probable space group: P M M M
;
_chemical_formula_sum "Si O2"
_cell_formula_units_Z 52
_cell_length_a 33.568664
_cell_length_b 9.813495
_cell_length_c 9.372536
_cell_angle_alpha 90.000000
_cell_angle_beta 90.000000
_cell_angle_gamma 90.000000
_cell_volume 3087.556260
_symmetry_space_group_name_H-M "P M M M"
_symmetry_group_IT_number 47
_symmetry_cell_setting 'orthorhombic'
loop_
_space_group_symop_operation_xyz
x,y,z
-x,-y,z
x,-y,-z
-x,y,-z
-x,-y,-z
x,y,-z
-x,y,z
x,-y,z
loop_
_atom_site_type_symbol
_atom_site_label
_atom_site_fract_x
_atom_site_fract_y
_atom_site_fract_z
Si Si1 0.272854 0.337916 0.839810
Si Si2 0.044175 0.847448 0.669708
Si Si3 0.500000 0.161726 0.160846
Si Si4 0.888115 0.651726 0.670185
Si Si5 0.199545 0.337584 0.659110
Si Si6 0.423690 0.157752 0.665654
Si Si7 0.650506 0.342913 0.334301
O O1 0.270818 0.500000 0.840311
O O2 0.233392 0.278131 0.763586
O O3 0.311816 0.289715 0.754809
O O4 0.274755 0.279607 0.000000
O O5 0.046803 0.845725 0.500000
O O6 0.077725 0.748621 0.735851
O O7 0.000000 0.798637 0.717635
O O8 0.052144 0.000000 0.726286
O O9 0.539151 0.213198 0.243176
O O10 0.500000 0.000000 0.160397
O O11 0.500000 0.220238 0.000000
O O12 0.890031 0.648318 0.500000
O O13 0.895448 0.500000 0.730926
O O14 0.844289 0.706535 0.715666
O O15 0.207265 0.279634 0.500000
O O16 0.201203 0.500000 0.653573
O O17 0.434391 0.177254 0.500000
O O18 0.386340 0.249150 0.711078
O O19 0.413941 0.000000 0.699447
O O20 0.661118 0.325204 0.500000
O O21 0.640126 0.500000 0.299016
#
# Coordination Sequence:
#
# PCOD8200892 Si02
#       7
#     8   8   4   8   8   8   8
#     4   9  16  25  39  60  84 109 137 168 201 240
#     4   8  13  20  29  43  67  98 126 152 188 234
#     4   9  17  29  46  67  88 112 144 177 208 246
#     4   8  13  20  31  48  68  92 124 158 190 227
#     4   8  13  22  36  53  74 101 133 167 200 235
#     4   9  17  30  48  67  86 110 141 175 207 241
#     4   9  17  29  45  65  88 113 140 170 206 246
#
# _framework density 16.841799000000002
#
# number of rings (size 3 to 8) (size 9 to 14) (size 15 to 20)
#    0.000    3.462    0.000    2.077    0.000    3.692 
#    0.000    1.923    0.000    3.231    0.000    4.308 
#    0.000    0.615    0.000    7.692    0.000    8.923 
#
# Total GULP energy -644503.309410 kJ/mol
# GULP energy per Si atom -12394.294412 kJ/mol
# Density = 1.680347 g / cm^3
# Si number density = 16.841799 Si / 1000 Ang^3
#
#
#
# Elastic Constant Matrix: (Units=GPa)
#
#
# Indices 1 2 3 4 5 6 
#
# 1 188.7161 62.2957 69.4635 0.0000 0.0000 0.0000
# 2 62.2957 47.8982 24.5722 0.0000 0.0000 0.0000
# 3 69.4635 24.5722 66.7386 0.0000 0.0000 0.0000
# 4 0.0000 0.0000 0.0000 7.8957 0.0000 0.0000
# 5 0.0000 0.0000 0.0000 0.0000 5.0283 0.0000
# 6 0.0000 0.0000 0.0000 0.0000 0.0000 10.7522
#
#
#
# Elastic Compliance Matrix: (Units=1/GPa)
#
#
# Indices 1 2 3 4 5 6 
#
# 1 0.012238 -0.011567 -0.008479 0.000000 0.000000 0.000000
# 2 -0.011567 0.036672 -0.001463 0.000000 0.000000 0.000000
# 3 -0.008479 -0.001463 0.024348 0.000000 0.000000 0.000000
# 4 0.000000 0.000000 0.000000 0.126652 0.000000 0.000000
# 5 0.000000 0.000000 0.000000 0.000000 0.198875 0.000000
# 6 0.000000 0.000000 0.000000 0.000000 0.000000 0.093004
#
#
# Mechanical properties :
#
#
# Convention : Reuss Voigt Hill
#
# Bulk Modulus (GPa) = 33.06866 68.44619 50.75742
# Shear Modulus (GPa) = 9.17620 14.53665 11.85643
#
# Velocity S-wave (km/s) = 2.33673 2.94109 2.65616
# Velocity P-wave (km/s) = 5.19210 7.22926 6.29365
#
# Compressibility (1/GPa) = 0.03024011
#
# Stress axis : x y z
#
# Youngs Moduli (GPa) = 81.71017 27.26870 41.07151
#
# Poissons Ratio (x) = 0.31542 0.34825
# Poissons Ratio (y) = 0.94515 0.06008
# Poissons Ratio (z) = 0.69284 0.03989
#
# Static dielectric constant tensor:
#      x y z
#    x 3.461640 0.000000 0.000000 
#    y 0.000000 2.902410 0.000000 
#    z 0.000000 0.000000 2.968650 
# 
# 
# High freq. dielectric constant tensor:
#      x y z
#    x 1.665140 0.000000 0.000000 
#    y 0.000000 1.603310 0.000000 
#    z 0.000000 0.000000 1.614290 
# 
# From -- ./inp_files/14092.got.cif
#   From: 2010.03.12/outbox.cif.g09.slc.cpg/sg47_8_cif.got.tgz:14092.got - 2010.04.14 03:12:58.
