data_PCOD8200475
_publ_section_title
;
Structure prediction by ZEFSAII (Michael W. Deem and Ramdas Pophale) SiO2 
 PCOD8200475
Probable space group: P M M M
;
_chemical_formula_sum "Si O2"
_cell_formula_units_Z 48
_cell_length_a 9.916972
_cell_length_b 18.080084
_cell_length_c 14.359437
_cell_angle_alpha 90.000000
_cell_angle_beta 90.000000
_cell_angle_gamma 90.000000
_cell_volume 2574.642557
_symmetry_space_group_name_H-M "P M M M"
_symmetry_group_IT_number 47
_symmetry_cell_setting 'orthorhombic'
loop_
_space_group_symop_operation_xyz
x,y,z
-x,-y,z
x,-y,-z
-x,y,-z
-x,-y,-z
x,y,-z
-x,y,z
x,-y,z
loop_
_atom_site_type_symbol
_atom_site_label
_atom_site_fract_x
_atom_site_fract_y
_atom_site_fract_z
Si Si1 0.840225 0.582348 0.896796
Si Si2 0.000000 0.912806 0.604110
Si Si3 0.246034 0.152114 0.714023
Si Si4 0.500000 0.087444 0.610863
Si Si5 0.649495 0.583449 0.390136
Si Si6 0.161593 0.680781 0.273593
Si Si7 0.846414 0.087217 0.104132
O O1 0.786398 0.500000 0.869940
O O2 0.791611 0.644247 0.824059
O O3 0.000000 0.579993 0.896810
O O4 0.787362 0.604138 0.000000
O O5 0.127857 0.887339 0.660006
O O6 0.000000 0.878539 0.500000
O O7 0.000000 0.000000 0.597627
O O8 0.376172 0.129040 0.657225
O O9 0.226585 0.239255 0.717526
O O10 0.252167 0.124405 0.820920
O O11 0.500000 0.100172 0.500000
O O12 0.500000 0.000000 0.633930
O O13 0.654873 0.587036 0.500000
O O14 0.500000 0.610324 0.356378
O O15 0.673503 0.500000 0.355106
O O16 0.772249 0.632848 0.354542
O O17 0.000000 0.683202 0.285532
O O18 0.000000 0.114241 0.121625
O O19 0.838368 0.000000 0.115461
O O20 0.800679 0.110664 0.000000
#
# Coordination Sequence:
#
# PCOD8200475 Si02
#       7
#     8   4   8   4   8   8   8
#     4   8  15  30  54  83 117 157 195 230 273 331
#     4  11  22  38  61  83 110 151 197 247 299 356
#     4  12  23  39  58  88 121 153 195 246 306 358
#     4  11  26  46  65  83 108 153 209 259 309 366
#     4   9  20  39  60  80 107 151 198 233 276 340
#     4  11  22  35  54  89 123 151 186 236 295 347
#     4   9  17  32  58  88 116 150 191 235 287 349
#
# _framework density 18.643366
#
# number of rings (size 3 to 8) (size 9 to 14) (size 15 to 20)
#    0.000    2.000    1.667    4.000    1.167    4.667 
#    0.000    2.917    0.000    2.000    0.000    2.333 
#    0.000    0.000    0.000    0.000    0.000    0.000 
#
# Total GULP energy -594986.767907 kJ/mol
# GULP energy per Si atom -12395.557665 kJ/mol
# Density = 1.860093 g / cm^3
# Si number density = 18.643366 Si / 1000 Ang^3
#
#
#
# Elastic Constant Matrix: (Units=GPa)
#
#
# Indices 1 2 3 4 5 6 
#
# 1 100.7059 54.8991 54.2029 0.0000 0.0000 0.0000
# 2 54.8991 119.8963 62.1847 0.0000 0.0000 0.0000
# 3 54.2029 62.1847 118.6734 0.0000 0.0000 0.0000
# 4 0.0000 0.0000 0.0000 -21.1220 0.0000 0.0000
# 5 0.0000 0.0000 0.0000 0.0000 27.5775 0.0000
# 6 0.0000 0.0000 0.0000 0.0000 0.0000 30.7982
#
#
#
# Elastic Compliance Matrix: (Units=1/GPa)
#
#
# Indices 1 2 3 4 5 6 
#
# 1 0.014726 -0.004469 -0.004384 0.000000 0.000000 0.000000
# 2 -0.004469 0.012809 -0.004671 0.000000 0.000000 0.000000
# 3 -0.004384 -0.004671 0.012877 0.000000 0.000000 0.000000
# 4 0.000000 0.000000 0.000000 -0.047344 0.000000 0.000000
# 5 0.000000 0.000000 0.000000 0.000000 0.036261 0.000000
# 6 0.000000 0.000000 0.000000 0.000000 0.000000 0.032469
#
#
# Mechanical properties :
#
#
# Convention : Reuss Voigt Hill
#
# Bulk Modulus (GPa) = 74.83011 75.76100 75.29556
# Shear Modulus (GPa) = 53.58989 18.65000 36.11995
#
# Velocity S-wave (km/s) = 5.36723 3.16627 4.40638
# Velocity P-wave (km/s) = 8.86760 7.35474 8.14637
#
# Compressibility (1/GPa) = 0.01336360
#
# Stress axis : x y z
#
# Youngs Moduli (GPa) = 67.90818 78.06740 77.66079
#
# Poissons Ratio (x) = 0.34888 0.34048
# Poissons Ratio (y) = 0.30348 0.36275
# Poissons Ratio (z) = 0.29772 0.36465
#
# Static dielectric constant tensor:
#      x y z
#    x 3.212750 0.000000 0.000000 
#    y 0.000000 3.484630 0.000000 
#    z 0.000000 0.000000 3.808420 
# 
# 
# High freq. dielectric constant tensor:
#      x y z
#    x 1.697410 0.000000 0.000000 
#    y 0.000000 1.725680 0.000000 
#    z 0.000000 0.000000 1.737870 
# 
# From -- ./inp_files/21159.got.cif
#   From: 2010.03.12/outbox.cif.g09.slc.cpg/sg47_11_cif.got.tgz:21159.got - 2010.04.14 03:12:58.
