data_PCOD8200666
_publ_section_title
;
Structure prediction by ZEFSAII (Michael W. Deem and Ramdas Pophale) SiO2 
 PCOD8200666
Probable space group: P M M M
;
_chemical_formula_sum "Si O2"
_cell_formula_units_Z 48
_cell_length_a 15.302981
_cell_length_b 8.732393
_cell_length_c 17.380013
_cell_angle_alpha 90.000000
_cell_angle_beta 90.000000
_cell_angle_gamma 90.000000
_cell_volume 2322.519713
_symmetry_space_group_name_H-M "P M M M"
_symmetry_group_IT_number 47
_symmetry_cell_setting 'orthorhombic'
loop_
_space_group_symop_operation_xyz
x,y,z
-x,-y,z
x,-y,-z
-x,y,-z
-x,-y,-z
x,y,-z
-x,y,z
x,-y,z
loop_
_atom_site_type_symbol
_atom_site_label
_atom_site_fract_x
_atom_site_fract_y
_atom_site_fract_z
Si Si1 0.903733 0.170750 0.590513
Si Si2 0.316042 0.330618 0.089964
Si Si3 0.000000 0.681204 0.911150
Si Si4 0.167643 0.823028 0.167188
Si Si5 0.399767 0.180221 0.411980
Si Si6 0.500000 0.681257 0.083821
Si Si7 0.758186 0.677532 0.678132
O O1 0.908963 0.171644 0.500000
O O2 0.832658 0.295082 0.614735
O O3 0.000000 0.212351 0.624252
O O4 0.876863 0.000000 0.619345
O O5 0.288581 0.500000 0.121950
O O6 0.243049 0.204278 0.104810
O O7 0.409202 0.275389 0.127757
O O8 0.332160 0.344818 0.000000
O O9 0.917078 0.734860 0.862414
O O10 0.000000 0.500000 0.914531
O O11 0.000000 0.744647 0.000000
O O12 0.207359 0.762757 0.246526
O O13 0.143604 0.000000 0.174234
O O14 0.378780 0.230627 0.500000
O O15 0.500000 0.224371 0.391786
O O16 0.335057 0.262420 0.352261
O O17 0.385601 0.000000 0.403972
O O18 0.500000 0.500000 0.073472
O O19 0.500000 0.761951 0.000000
O O20 0.748026 0.500000 0.696066
#
# Coordination Sequence:
#
# PCOD8200666 Si02
#       7
#     8   8   4   8   8   4   8
#     4   9  19  37  61  87 117 156 199 242 294 358
#     4   9  17  34  60  88 118 152 193 242 295 354
#     4  11  25  47  73  97 122 155 200 257 317 379
#     4  12  26  42  61  87 121 163 204 249 306 367
#     4   9  19  39  67  95 125 165 212 261 314 374
#     4   7  12  26  53  85 113 145 182 223 278 341
#     4  12  25  39  58  87 125 164 205 256 309 361
#
# _framework density 20.667209
#
# number of rings (size 3 to 8) (size 9 to 14) (size 15 to 20)
#    0.000    2.000    0.000    6.250    1.167    6.333 
#    1.500    2.083    0.000    1.500    0.000    0.000 
#    0.000    0.000    0.000    0.000    0.000    0.000 
#
# Total GULP energy -594785.383273 kJ/mol
# GULP energy per Si atom -12391.362152 kJ/mol
# Density = 2.062017 g / cm^3
# Si number density = 20.667209 Si / 1000 Ang^3
#
#
#
# Elastic Constant Matrix: (Units=GPa)
#
#
# Indices 1 2 3 4 5 6 
#
# 1 164.8480 42.9412 52.6829 0.0000 0.0000 0.0000
# 2 42.9412 86.6470 31.7474 0.0000 0.0000 0.0000
# 3 52.6829 31.7474 75.3016 0.0000 0.0000 0.0000
# 4 0.0000 0.0000 0.0000 26.2455 0.0000 0.0000
# 5 0.0000 0.0000 0.0000 0.0000 26.6895 0.0000
# 6 0.0000 0.0000 0.0000 0.0000 0.0000 -6.4947
#
#
#
# Elastic Compliance Matrix: (Units=1/GPa)
#
#
# Indices 1 2 3 4 5 6 
#
# 1 0.008188 -0.002317 -0.004752 0.000000 0.000000 0.000000
# 2 -0.002317 0.014305 -0.004410 0.000000 0.000000 0.000000
# 3 -0.004752 -0.004410 0.018464 0.000000 0.000000 0.000000
# 4 0.000000 0.000000 0.000000 0.038102 0.000000 0.000000
# 5 0.000000 0.000000 0.000000 0.000000 0.037468 0.000000
# 6 0.000000 0.000000 0.000000 0.000000 0.000000 -0.153971
#
#
# Mechanical properties :
#
#
# Convention : Reuss Voigt Hill
#
# Bulk Modulus (GPa) = 55.55753 64.61549 60.08651
# Shear Modulus (GPa) = -589.18917 22.58307 -283.30305
#
# Velocity S-wave (km/s) = -16.90275 3.30919 -11.72076
# Velocity P-wave (km/s) = 18.81481 6.77743 12.41095
#
# Compressibility (1/GPa) = 0.01799936
#
# Stress axis : x y z
#
# Youngs Moduli (GPa) = 122.12412 69.90468 54.15993
#
# Poissons Ratio (x) = 0.16197 0.25737
# Poissons Ratio (y) = 0.28296 0.23885
# Poissons Ratio (z) = 0.58033 0.30829
#
# Static dielectric constant tensor:
#      x y z
#    x 4.580980 0.000000 0.000000 
#    y 0.000000 4.181420 0.000000 
#    z 0.000000 0.000000 3.749340 
# 
# 
# High freq. dielectric constant tensor:
#      x y z
#    x 1.834230 0.000000 0.000000 
#    y 0.000000 1.786980 0.000000 
#    z 0.000000 0.000000 1.793870 
# 
# From -- ./inp_files/28006.got.cif
#   From: 2010.03.12/outbox.cif.g09.slc.cpg/sg47_15_cif.got.tgz:28006.got - 2010.04.14 03:12:58.
