data_PCOD8200529
_publ_section_title
;
Structure prediction by ZEFSAII (Michael W. Deem and Ramdas Pophale) SiO2 
 PCOD8200529
Probable space group: P M M M
;
_chemical_formula_sum "Si O2"
_cell_formula_units_Z 44
_cell_length_a 21.110069
_cell_length_b 13.822863
_cell_length_c 9.170139
_cell_angle_alpha 90.000000
_cell_angle_beta 90.000000
_cell_angle_gamma 90.000000
_cell_volume 2675.861156
_symmetry_space_group_name_H-M "P M M M"
_symmetry_group_IT_number 47
_symmetry_cell_setting 'orthorhombic'
loop_
_space_group_symop_operation_xyz
x,y,z
-x,-y,z
x,-y,-z
-x,y,-z
-x,-y,-z
x,y,-z
-x,y,z
x,-y,z
loop_
_atom_site_type_symbol
_atom_site_label
_atom_site_fract_x
_atom_site_fract_y
_atom_site_fract_z
Si Si1 0.310805 0.107041 0.672928
Si Si2 0.251934 0.605569 0.327513
Si Si3 0.381261 0.704505 0.671988
Si Si4 0.071925 0.889802 0.830417
Si Si5 0.500000 0.387785 0.826950
Si Si6 0.184222 0.792485 0.327093
O O1 0.307816 0.105680 0.500000
O O2 0.364381 0.184790 0.719041
O O3 0.241034 0.138125 0.729098
O O4 0.327481 0.000000 0.734924
O O5 0.248776 0.600770 0.500000
O O6 0.237304 0.500000 0.258750
O O7 0.322372 0.637496 0.283271
O O8 0.200334 0.683467 0.273464
O O9 0.396573 0.697993 0.500000
O O10 0.439752 0.667565 0.764351
O O11 0.117694 0.820494 0.741410
O O12 0.000000 0.858084 0.797108
O O13 0.082583 0.000000 0.779831
O O14 0.087097 0.879227 0.000000
O O15 0.500000 0.500000 0.776971
O O16 0.500000 0.379363 0.000000
O O17 0.178048 0.798311 0.500000
#
# Coordination Sequence:
#
# PCOD8200529 Si02
#       6
#     8   8   8   8   4   8
#     4   8  14  26  45  70  97 117 137 175 222 259
#     4   8  14  26  45  69  94 115 139 178 223 260
#     4   9  17  30  50  71  87 113 152 181 206 255
#     4   9  18  31  44  60  87 121 150 177 215 261
#     4  11  23  35  46  63  90 118 141 179 234 269
#     4   9  16  26  45  71  92 113 144 181 219 257
#
# _framework density 16.443304000000001
#
# number of rings (size 3 to 8) (size 9 to 14) (size 15 to 20)
#    0.000    3.182    0.000    4.091    0.000    2.909 
#    0.000    5.000    0.000    6.545    0.000    3.818 
#    0.000    0.000    0.000    0.000    0.000    0.000 
#
# Total GULP energy -545293.060679 kJ/mol
# GULP energy per Si atom -12393.024106 kJ/mol
# Density = 1.640588 g / cm^3
# Si number density = 16.443304 Si / 1000 Ang^3
#
#
#
# Elastic Constant Matrix: (Units=GPa)
#
#
# Indices 1 2 3 4 5 6 
#
# 1 116.0092 75.9379 39.1015 0.0000 0.0000 0.0000
# 2 75.9379 159.7889 33.2758 0.0000 0.0000 0.0000
# 3 39.1015 33.2758 33.5420 0.0000 0.0000 0.0000
# 4 0.0000 0.0000 0.0000 16.2560 0.0000 0.0000
# 5 0.0000 0.0000 0.0000 0.0000 -25.1409 0.0000
# 6 0.0000 0.0000 0.0000 0.0000 0.0000 24.1696
#
#
#
# Elastic Compliance Matrix: (Units=1/GPa)
#
#
# Indices 1 2 3 4 5 6 
#
# 1 0.016795 -0.004921 -0.014696 0.000000 0.000000 0.000000
# 2 -0.004921 0.009330 -0.003519 0.000000 0.000000 0.000000
# 3 -0.014696 -0.003519 0.050437 0.000000 0.000000 0.000000
# 4 0.000000 0.000000 0.000000 0.061516 0.000000 0.000000
# 5 0.000000 0.000000 0.000000 0.000000 -0.039776 0.000000
# 6 0.000000 0.000000 0.000000 0.000000 0.000000 0.041374
#
#
# Mechanical properties :
#
#
# Convention : Reuss Voigt Hill
#
# Bulk Modulus (GPa) = 33.01608 67.33004 50.17306
# Shear Modulus (GPa) = 25.50440 13.79194 19.64817
#
# Velocity S-wave (km/s) = 3.94261 2.89927 3.46049
# Velocity P-wave (km/s) = 6.39124 7.22796 6.82244
#
# Compressibility (1/GPa) = 0.03028827
#
# Stress axis : x y z
#
# Youngs Moduli (GPa) = 59.54251 107.18409 19.82678
#
# Poissons Ratio (x) = 0.52745 0.29138
# Poissons Ratio (y) = 0.29301 0.06977
# Poissons Ratio (z) = 0.87506 0.37719
#
# Static dielectric constant tensor:
#      x y z
#    x 2.990920 0.000000 0.000000 
#    y 0.000000 3.735880 0.000000 
#    z 0.000000 0.000000 2.684700 
# 
# 
# High freq. dielectric constant tensor:
#      x y z
#    x 1.623990 0.000000 0.000000 
#    y 0.000000 1.640380 0.000000 
#    z 0.000000 0.000000 1.593600 
# 
# From -- ./inp_files/8977.got.cif
#   From: 2010.03.12/outbox.cif.g09.slc.cpg/sg47_5_cif.got.tgz:8977.got - 2010.04.14 03:12:58.
