data_PCOD8200271
_publ_section_title
;
Structure prediction by ZEFSAII (Michael W. Deem and Ramdas Pophale) SiO2 
 PCOD8200271
Probable space group: P M M M
;
_chemical_formula_sum "Si O2"
_cell_formula_units_Z 52
_cell_length_a 14.195613
_cell_length_b 26.032284
_cell_length_c 9.374140
_cell_angle_alpha 90.000000
_cell_angle_beta 90.000000
_cell_angle_gamma 90.000000
_cell_volume 3464.159340
_symmetry_space_group_name_H-M "P M M M"
_symmetry_group_IT_number 47
_symmetry_cell_setting 'orthorhombic'
loop_
_space_group_symop_operation_xyz
x,y,z
-x,-y,z
x,-y,-z
-x,y,-z
-x,-y,-z
x,y,-z
-x,y,z
x,-y,z
loop_
_atom_site_type_symbol
_atom_site_label
_atom_site_fract_x
_atom_site_fract_y
_atom_site_fract_z
Si Si1 0.608483 0.111483 0.669521
Si Si2 0.109842 0.236493 0.333479
Si Si3 0.105558 0.943459 0.830822
Si Si4 0.888389 0.648380 0.656903
Si Si5 0.888084 0.556150 0.840583
Si Si6 0.610828 0.000000 0.654645
Si Si7 0.225490 0.847394 0.829447
O O1 0.627819 0.114824 0.500000
O O2 0.500000 0.124645 0.702194
O O3 0.671286 0.151903 0.757523
O O4 0.635857 0.054123 0.731166
O O5 0.134358 0.227132 0.500000
O O6 0.136170 0.294667 0.287101
O O7 0.169837 0.201267 0.229075
O O8 0.000000 0.225443 0.306728
O O9 0.172603 0.898648 0.773563
O O10 0.000000 0.934535 0.770895
O O11 0.142491 0.000000 0.780879
O O12 0.102516 0.941360 0.000000
O O13 0.845402 0.641099 0.500000
O O14 0.843016 0.603284 0.752658
O O15 0.000000 0.642464 0.650480
O O16 0.859872 0.500000 0.776526
O O17 0.000000 0.561140 0.842146
O O18 0.848248 0.560608 0.000000
O O19 0.500000 0.000000 0.629110
O O20 0.660547 0.000000 0.500000
O O21 0.233211 0.844007 0.000000
#
# Coordination Sequence:
#
# PCOD8200271 Si02
#       7
#     8   8   8   8   8   4   8
#     4   9  18  33  50  65  83 108 134 160 197 247
#     4   9  18  32  46  59  80 110 143 179 214 247
#     4   8  15  28  42  56  79 108 132 157 195 243
#     4   8  14  24  37  52  70  97 134 173 209 239
#     4   8  13  20  30  47  72 100 129 163 204 245
#     4   7  12  26  47  65  78  97 126 155 185 230
#     4  11  21  29  44  67  86 106 135 169 209 253
#
# _framework density 15.010856
#
# number of rings (size 3 to 8) (size 9 to 14) (size 15 to 20)
#    0.000    3.308    0.000    3.692    1.077    2.154 
#    0.000    3.077    0.000    1.385    0.000    3.231 
#    0.000    0.000    0.000    0.000    0.000    0.769 
#
# Total GULP energy -644182.580946 kJ/mol
# GULP energy per Si atom -12388.126557 kJ/mol
# Density = 1.497669 g / cm^3
# Si number density = 15.010856 Si / 1000 Ang^3
#
#
#
# Elastic Constant Matrix: (Units=GPa)
#
#
# Indices 1 2 3 4 5 6 
#
# 1 47.0244 40.9045 31.6396 0.0000 0.0000 0.0000
# 2 40.9045 118.8600 53.8072 0.0000 0.0000 0.0000
# 3 31.6396 53.8072 60.3597 0.0000 0.0000 0.0000
# 4 0.0000 0.0000 0.0000 22.8974 0.0000 0.0000
# 5 0.0000 0.0000 0.0000 0.0000 15.0972 0.0000
# 6 0.0000 0.0000 0.0000 0.0000 0.0000 4.6910
#
#
#
# Elastic Compliance Matrix: (Units=1/GPa)
#
#
# Indices 1 2 3 4 5 6 
#
# 1 0.035506 -0.006360 -0.012942 0.000000 0.000000 0.000000
# 2 -0.006360 0.015245 -0.010256 0.000000 0.000000 0.000000
# 3 -0.012942 -0.010256 0.032494 0.000000 0.000000 0.000000
# 4 0.000000 0.000000 0.000000 0.043673 0.000000 0.000000
# 5 0.000000 0.000000 0.000000 0.000000 0.066237 0.000000
# 6 0.000000 0.000000 0.000000 0.000000 0.000000 0.213172
#
#
# Mechanical properties :
#
#
# Convention : Reuss Voigt Hill
#
# Bulk Modulus (GPa) = 41.44484 53.21631 47.33057
# Shear Modulus (GPa) = 10.55999 15.19666 12.87832
#
# Velocity S-wave (km/s) = 2.65522 3.18524 2.93223
# Velocity P-wave (km/s) = 6.08852 7.00404 6.56226
#
# Compressibility (1/GPa) = 0.02412846
#
# Stress axis : x y z
#
# Youngs Moduli (GPa) = 28.16446 65.59556 30.77517
#
# Poissons Ratio (x) = 0.41721 0.39828
# Poissons Ratio (y) = 0.17914 0.31563
# Poissons Ratio (z) = 0.36449 0.67275
#
# Static dielectric constant tensor:
#      x y z
#    x 2.526920 0.000000 0.000000 
#    y 0.000000 3.100500 0.000000 
#    z 0.000000 0.000000 2.815810 
# 
# 
# High freq. dielectric constant tensor:
#      x y z
#    x 1.522960 0.000000 0.000000 
#    y 0.000000 1.574230 0.000000 
#    z 0.000000 0.000000 1.560390 
# 
# From -- ./inp_files/8061.got.cif
#   From: 2010.03.12/outbox.cif.g09.slc.cpg/sg47_5_cif.got.tgz:8061.got - 2010.04.14 03:12:58.
