data_PCOD8200794
_publ_section_title
;
Structure prediction by ZEFSAII (Michael W. Deem and Ramdas Pophale) SiO2 
 PCOD8200794
Probable space group: P M M M
;
_chemical_formula_sum "Si O2"
_cell_formula_units_Z 64
_cell_length_a 25.245363
_cell_length_b 25.846506
_cell_length_c 9.532379
_cell_angle_alpha 90.000000
_cell_angle_beta 90.000000
_cell_angle_gamma 90.000000
_cell_volume 6219.919490
_symmetry_space_group_name_H-M "P M M M"
_symmetry_group_IT_number 47
_symmetry_cell_setting 'orthorhombic'
loop_
_space_group_symop_operation_xyz
x,y,z
-x,-y,z
x,-y,-z
-x,y,-z
-x,-y,-z
x,y,-z
-x,y,z
x,-y,z
loop_
_atom_site_type_symbol
_atom_site_label
_atom_site_fract_x
_atom_site_fract_y
_atom_site_fract_z
Si Si1 0.746454 0.438529 0.659357
Si Si2 0.353584 0.440392 0.838310
Si Si3 0.563047 0.851189 0.342460
Si Si4 0.155122 0.561761 0.840829
Si Si5 0.562995 0.056840 0.842712
Si Si6 0.437058 0.737437 0.342394
Si Si7 0.560355 0.357158 0.162354
Si Si8 0.941104 0.438491 0.342701
O O1 0.747589 0.416604 0.500000
O O2 0.749101 0.500000 0.655858
O O3 0.693290 0.420412 0.738122
O O4 0.796050 0.416900 0.748282
O O5 0.367551 0.500000 0.808203
O O6 0.405878 0.407919 0.801761
O O7 0.335929 0.432793 0.000000
O O8 0.583346 0.859845 0.500000
O O9 0.500000 0.854003 0.337564
O O10 0.588261 0.897058 0.249361
O O11 0.581864 0.794314 0.289123
O O12 0.155760 0.500000 0.842861
O O13 0.101315 0.583149 0.768930
O O14 0.158786 0.583124 0.000000
O O15 0.500000 0.060747 0.841373
O O16 0.580075 0.000000 0.784976
O O17 0.584407 0.063881 0.000000
O O18 0.416308 0.727765 0.500000
O O19 0.500000 0.736224 0.339650
O O20 0.414919 0.692112 0.243376
O O21 0.500000 0.368861 0.208703
O O22 0.563351 0.342823 0.000000
O O23 0.926906 0.419080 0.500000
O O24 0.939576 0.500000 0.341670
O O25 0.000000 0.419176 0.300016
#
# Coordination Sequence:
#
# PCOD8200794 Si02
#       8
#     8   8   8   8   8   8   8   8
#     4   9  16  25  36  47  57  69  86 105 123 147
#     4   9  17  28  39  49  61  73  83  99 124 154
#     4   8  13  20  29  40  52  67  87 106 122 140
#     4   9  15  21  30  43  57  72  89 108 128 147
#     4   8  13  19  25  35  52  71  88 105 124 142
#     4   8  14  24  35  45  57  71  85 102 123 145
#     4   9  17  27  38  51  62  71  84 100 121 154
#     4   8  13  20  28  38  54  75  95 112 128 144
#
# _framework density 10.289523000000001
#
# number of rings (size 3 to 8) (size 9 to 14) (size 15 to 20)
#    0.000    3.500    0.000    2.250    0.000    4.750 
#    0.000    6.250    0.000    0.000    0.000    3.500 
#    0.000    0.000    0.000    0.000    0.000    0.000 
#
# Total GULP energy -793022.811153 kJ/mol
# GULP energy per Si atom -12390.981424 kJ/mol
# Density = 1.026610 g / cm^3
# Si number density = 10.289523 Si / 1000 Ang^3
#
#
#
# Elastic Constant Matrix: (Units=GPa)
#
#
# Indices 1 2 3 4 5 6 
#
# 1 46.5187 21.6269 34.5014 0.0000 0.0000 0.0000
# 2 21.6269 52.0111 32.3706 0.0000 0.0000 0.0000
# 3 34.5014 32.3706 68.8896 0.0000 0.0000 0.0000
# 4 0.0000 0.0000 0.0000 14.1922 0.0000 0.0000
# 5 0.0000 0.0000 0.0000 0.0000 13.7637 0.0000
# 6 0.0000 0.0000 0.0000 0.0000 0.0000 0.2500
#
#
#
# Elastic Compliance Matrix: (Units=1/GPa)
#
#
# Indices 1 2 3 4 5 6 
#
# 1 0.035158 -0.005173 -0.015177 0.000000 0.000000 0.000000
# 2 -0.005173 0.027935 -0.010535 0.000000 0.000000 0.000000
# 3 -0.015177 -0.010535 0.027068 0.000000 0.000000 0.000000
# 4 0.000000 0.000000 0.000000 0.070461 0.000000 0.000000
# 5 0.000000 0.000000 0.000000 0.000000 0.072655 0.000000
# 6 0.000000 0.000000 0.000000 0.000000 0.000000 4.000236
#
#
# Mechanical properties :
#
#
# Convention : Reuss Voigt Hill
#
# Bulk Modulus (GPa) = 35.22508 38.26857 36.74683
# Shear Modulus (GPa) = 1.16151 10.90253 6.03202
#
# Velocity S-wave (km/s) = 1.06362 3.25864 2.42384
# Velocity P-wave (km/s) = 5.98470 7.17153 6.60483
#
# Compressibility (1/GPa) = 0.02838886
#
# Stress axis : x y z
#
# Youngs Moduli (GPa) = 28.44289 35.79758 36.94467
#
# Poissons Ratio (x) = 0.18519 0.56071
# Poissons Ratio (y) = 0.14714 0.38923
# Poissons Ratio (z) = 0.43168 0.37714
#
# Static dielectric constant tensor:
#      x y z
#    x 2.084850 0.000000 0.000000 
#    y 0.000000 2.167060 0.000000 
#    z 0.000000 0.000000 2.456210 
# 
# 
# High freq. dielectric constant tensor:
#      x y z
#    x 1.348770 0.000000 0.000000 
#    y 0.000000 1.349580 0.000000 
#    z 0.000000 0.000000 1.399280 
# 
# From -- ./inp_files/11992.got.cif
#   From: 2010.03.12/outbox.cif.g09.slc.cpg/sg47_6_cif.got.tgz:11992.got - 2010.04.14 03:12:58.
