data_PCOD8200649
_publ_section_title
;
Structure prediction by ZEFSAII (Michael W. Deem and Ramdas Pophale) SiO2 
 PCOD8200649
Probable space group: P M M M
;
_chemical_formula_sum "Si O2"
_cell_formula_units_Z 44
_cell_length_a 7.662178
_cell_length_b 7.946491
_cell_length_c 33.935827
_cell_angle_alpha 90.000000
_cell_angle_beta 90.000000
_cell_angle_gamma 90.000000
_cell_volume 2066.265241
_symmetry_space_group_name_H-M "P M M M"
_symmetry_group_IT_number 47
_symmetry_cell_setting 'orthorhombic'
loop_
_space_group_symop_operation_xyz
x,y,z
-x,-y,z
x,-y,-z
-x,y,-z
-x,-y,-z
x,y,-z
-x,y,z
x,-y,z
loop_
_atom_site_type_symbol
_atom_site_label
_atom_site_fract_x
_atom_site_fract_y
_atom_site_fract_z
Si Si1 0.207280 0.690594 0.542631
Si Si2 0.807392 0.197522 0.098774
Si Si3 0.792330 0.184473 0.624549
Si Si4 0.791801 0.500000 0.673885
Si Si5 0.500000 0.305082 0.956730
Si Si6 0.207271 0.188040 0.186566
Si Si7 0.791733 0.500000 0.237030
O O1 0.273259 0.761900 0.500000
O O2 0.272737 0.500000 0.547646
O O3 0.279919 0.795425 0.579791
O O4 0.000000 0.695407 0.543174
O O5 0.674292 0.258283 0.066165
O O6 0.737757 0.244366 0.142455
O O7 0.000000 0.277870 0.091295
O O8 0.824779 0.000000 0.096092
O O9 0.717862 0.332404 0.652415
O O10 0.000000 0.196608 0.624416
O O11 0.731963 0.000000 0.640004
O O12 0.721638 0.500000 0.718415
O O13 0.000000 0.500000 0.672965
O O14 0.500000 0.500000 0.963270
O O15 0.500000 0.216988 0.000000
O O16 0.281198 0.330228 0.216196
O O17 0.000000 0.179869 0.188959
O O18 0.281309 0.000000 0.196835
O O19 0.000000 0.500000 0.235364
#
# Coordination Sequence:
#
# PCOD8200649 Si02
#       7
#     8   8   8   4   4   8   4
#     4   8  12  18  27  35  44  62  94 140 189 242
#     4   9  19  37  60  82 107 145 189 233 279 326
#     4   9  15  21  28  36  51  78 107 141 192 254
#     4   9  16  24  29  42  66  87 116 150 195 269
#     4  11  25  39  53  83 121 153 189 231 275 331
#     4   8  15  28  46  70  93 115 155 203 246 298
#     4   9  16  24  40  60  79 109 138 175 234 290
#
# _framework density 21.294459
#
# number of rings (size 3 to 8) (size 9 to 14) (size 15 to 20)
#    0.000    3.182    0.909    1.909    1.273    2.545 
#    0.000    7.273    0.000    0.000    0.000    0.000 
#    0.000    0.000    0.000    0.000    0.000    0.000 
#
# Total GULP energy -545117.840336 kJ/mol
# GULP energy per Si atom -12389.041826 kJ/mol
# Density = 2.124599 g / cm^3
# Si number density = 21.294459 Si / 1000 Ang^3
#
#
#
# Elastic Constant Matrix: (Units=GPa)
#
#
# Indices 1 2 3 4 5 6 
#
# 1 41.1766 15.9395 30.9715 0.0000 0.0000 0.0000
# 2 15.9395 138.0322 99.4832 0.0000 0.0000 0.0000
# 3 30.9715 99.4832 200.6477 0.0000 0.0000 0.0000
# 4 0.0000 0.0000 0.0000 19.4311 0.0000 0.0000
# 5 0.0000 0.0000 0.0000 0.0000 -20.1356 0.0000
# 6 0.0000 0.0000 0.0000 0.0000 0.0000 2.3532
#
#
#
# Elastic Compliance Matrix: (Units=1/GPa)
#
#
# Indices 1 2 3 4 5 6 
#
# 1 0.027479 -0.000181 -0.004152 0.000000 0.000000 0.000000
# 2 -0.000181 0.011274 -0.005562 0.000000 0.000000 0.000000
# 3 -0.004152 -0.005562 0.008382 0.000000 0.000000 0.000000
# 4 0.000000 0.000000 0.000000 0.051464 0.000000 0.000000
# 5 0.000000 0.000000 0.000000 0.000000 -0.049663 0.000000
# 6 0.000000 0.000000 0.000000 0.000000 0.000000 0.424950
#
#
# Mechanical properties :
#
#
# Convention : Reuss Voigt Hill
#
# Bulk Modulus (GPa) = 36.56858 74.73833 55.65346
# Shear Modulus (GPa) = 9.94450 15.89389 12.91920
#
# Velocity S-wave (km/s) = 2.16336 2.73497 2.46579
# Velocity P-wave (km/s) = 4.84255 6.71916 5.85651
#
# Compressibility (1/GPa) = 0.02734588
#
# Stress axis : x y z
#
# Youngs Moduli (GPa) = 36.39208 88.69810 119.29735
#
# Poissons Ratio (x) = 0.01603 0.49531
# Poissons Ratio (y) = 0.00658 0.66353
# Poissons Ratio (z) = 0.15110 0.49334
#
# Static dielectric constant tensor:
#      x y z
#    x 3.146500 0.000000 0.000000 
#    y 0.000000 4.043440 0.000000 
#    z 0.000000 0.000000 4.707470 
# 
# 
# High freq. dielectric constant tensor:
#      x y z
#    x 1.781880 0.000000 0.000000 
#    y 0.000000 1.832790 0.000000 
#    z 0.000000 0.000000 1.833650 
# 
# From -- ./inp_files/33987.got.cif
#   From: 2010.03.12/outbox.cif.g09.slc.cpg/sg47_17_cif.got.tgz:33987.got - 2010.04.14 03:12:58.
