data_PCOD8200574
_publ_section_title
;
Structure prediction by ZEFSAII (Michael W. Deem and Ramdas Pophale) SiO2 
 PCOD8200574
Probable space group: P M M M
;
_chemical_formula_sum "Si O2"
_cell_formula_units_Z 48
_cell_length_a 28.666265
_cell_length_b 10.003403
_cell_length_c 8.780006
_cell_angle_alpha 90.000000
_cell_angle_beta 90.000000
_cell_angle_gamma 90.000000
_cell_volume 2517.756288
_symmetry_space_group_name_H-M "P M M M"
_symmetry_group_IT_number 47
_symmetry_cell_setting 'orthorhombic'
loop_
_space_group_symop_operation_xyz
x,y,z
-x,-y,z
x,-y,-z
-x,y,-z
-x,-y,-z
x,y,-z
-x,y,z
x,-y,z
loop_
_atom_site_type_symbol
_atom_site_label
_atom_site_fract_x
_atom_site_fract_y
_atom_site_fract_z
Si Si1 0.898728 0.754860 0.679722
Si Si2 0.269340 0.653559 0.676986
Si Si3 0.053408 0.500000 0.819402
Si Si4 0.551655 0.148957 0.179871
Si Si5 0.623027 0.649857 0.677003
Si Si6 0.054403 0.000000 0.169603
Si Si7 0.803636 0.155654 0.822131
O O1 0.901697 0.736387 0.500000
O O2 0.918053 0.625153 0.760788
O O3 0.845857 0.783445 0.726247
O O4 0.931448 0.873488 0.733267
O O5 0.258124 0.679115 0.500000
O O6 0.256445 0.500000 0.719089
O O7 0.323273 0.681738 0.712440
O O8 0.241613 0.758293 0.780218
O O9 0.000000 0.500000 0.757945
O O10 0.053137 0.500000 0.000000
O O11 0.500000 0.192754 0.237425
O O12 0.590732 0.249068 0.234623
O O13 0.562907 0.000000 0.241478
O O14 0.552202 0.147973 0.000000
O O15 0.612764 0.665043 0.500000
O O16 0.611171 0.500000 0.731568
O O17 0.000000 0.000000 0.146499
O O18 0.078088 0.000000 0.000000
O O19 0.795896 0.000000 0.778830
O O20 0.814455 0.170956 0.000000
#
# Coordination Sequence:
#
# PCOD8200574 Si02
#       7
#     8   8   4   8   8   4   8
#     4  12  25  41  64  92 122 157 199 245 291 346
#     4   9  20  39  61  84 114 150 190 237 291 349
#     4  11  25  45  67  91 123 161 197 239 294 351
#     4   9  19  35  53  76 110 151 193 238 287 341
#     4   9  19  36  56  81 113 148 187 236 291 347
#     4  11  23  41  65  91 123 161 197 239 294 349
#     4  11  24  41  61  86 119 155 194 239 290 349
#
# _framework density 19.064592999999999
#
# number of rings (size 3 to 8) (size 9 to 14) (size 15 to 20)
#    0.000    1.833    0.833    4.500    1.167    7.333 
#    0.000    7.500    0.000    0.000    0.000    0.000 
#    0.000    0.000    0.000    0.000    0.000    0.000 
#
# Total GULP energy -595220.611544 kJ/mol
# GULP energy per Si atom -12400.429407 kJ/mol
# Density = 1.902120 g / cm^3
# Si number density = 19.064593 Si / 1000 Ang^3
#
#
#
# Elastic Constant Matrix: (Units=GPa)
#
#
# Indices 1 2 3 4 5 6 
#
# 1 96.1740 65.2249 34.9085 0.0000 0.0000 0.0000
# 2 65.2249 140.0989 39.2240 0.0000 0.0000 0.0000
# 3 34.9085 39.2240 68.8832 0.0000 0.0000 0.0000
# 4 0.0000 0.0000 0.0000 27.4256 0.0000 0.0000
# 5 0.0000 0.0000 0.0000 0.0000 41.2731 0.0000
# 6 0.0000 0.0000 0.0000 0.0000 0.0000 37.4186
#
#
#
# Elastic Compliance Matrix: (Units=1/GPa)
#
#
# Indices 1 2 3 4 5 6 
#
# 1 0.016388 -0.006310 -0.004712 0.000000 0.000000 0.000000
# 2 -0.006310 0.010922 -0.003021 0.000000 0.000000 0.000000
# 3 -0.004712 -0.003021 0.018625 0.000000 0.000000 0.000000
# 4 0.000000 0.000000 0.000000 0.036462 0.000000 0.000000
# 5 0.000000 0.000000 0.000000 0.000000 0.024229 0.000000
# 6 0.000000 0.000000 0.000000 0.000000 0.000000 0.026725
#
#
# Mechanical properties :
#
#
# Convention : Reuss Voigt Hill
#
# Bulk Modulus (GPa) = 56.02726 64.87455 60.45091
# Shear Modulus (GPa) = 29.87109 32.27670 31.07389
#
# Velocity S-wave (km/s) = 3.96262 4.11909 4.04162
# Velocity P-wave (km/s) = 7.09848 7.53162 7.31825
#
# Compressibility (1/GPa) = 0.01784845
#
# Stress axis : x y z
#
# Youngs Moduli (GPa) = 61.02147 91.56248 53.69028
#
# Poissons Ratio (x) = 0.57779 0.25297
# Poissons Ratio (y) = 0.38507 0.16220
# Poissons Ratio (z) = 0.28751 0.27662
#
# Static dielectric constant tensor:
#      x y z
#    x 3.942330 0.000000 0.000000 
#    y 0.000000 3.672440 0.000000 
#    z 0.000000 0.000000 3.483710 
# 
# 
# High freq. dielectric constant tensor:
#      x y z
#    x 1.749650 0.000000 0.000000 
#    y 0.000000 1.752830 0.000000 
#    z 0.000000 0.000000 1.741780 
# 
# From -- ./inp_files/13947.got.cif
#   From: 2010.03.12/outbox.cif.g09.slc.cpg/sg47_7_cif.got.tgz:13947.got - 2010.04.14 03:12:58.
