data_PCOD8200777
_publ_section_title
;
Structure prediction by ZEFSAII (Michael W. Deem and Ramdas Pophale) SiO2 
 PCOD8200777
Probable space group: P M M M
;
_chemical_formula_sum "Si O2"
_cell_formula_units_Z 32
_cell_length_a 7.540861
_cell_length_b 17.469738
_cell_length_c 14.491261
_cell_angle_alpha 90.000000
_cell_angle_beta 90.000000
_cell_angle_gamma 90.000000
_cell_volume 1909.033308
_symmetry_space_group_name_H-M "P M M M"
_symmetry_group_IT_number 47
_symmetry_cell_setting 'orthorhombic'
loop_
_space_group_symop_operation_xyz
x,y,z
-x,-y,z
x,-y,-z
-x,y,-z
-x,-y,-z
x,y,-z
-x,y,z
x,-y,z
loop_
_atom_site_type_symbol
_atom_site_label
_atom_site_fract_x
_atom_site_fract_y
_atom_site_fract_z
Si Si1 0.210640 0.647677 0.289575
Si Si2 0.500000 0.084707 0.391099
Si Si3 0.795438 0.798642 0.608011
Si Si4 0.789369 0.586393 0.899349
Si Si5 0.211483 0.500000 0.396249
O O1 0.278238 0.726081 0.334996
O O2 0.279459 0.641012 0.183376
O O3 0.286462 0.575470 0.345975
O O4 0.000000 0.646336 0.294248
O O5 0.500000 0.076431 0.500000
O O6 0.677693 0.129253 0.360243
O O7 0.500000 0.000000 0.345601
O O8 0.770793 0.780045 0.500000
O O9 0.000000 0.817555 0.630842
O O10 0.720221 0.500000 0.882539
O O11 0.000000 0.585242 0.898173
O O12 0.721869 0.616049 0.000000
O O13 0.284146 0.500000 0.500000
O O14 0.000000 0.500000 0.394042
#
# Coordination Sequence:
#
# PCOD8200777 Si02
#       5
#     8   4   8   8   4
#     4   9  14  21  33  53  81 112 147 181 211 248
#     4   9  18  32  48  65  86 113 142 171 210 263
#     4   9  17  28  43  64  89 115 142 176 215 251
#     4   8  12  18  29  48  77 111 146 184 220 249
#     4   9  14  18  27  46  74 110 149 181 206 242
#
# _framework density 16.762411
#
# number of rings (size 3 to 8) (size 9 to 14) (size 15 to 20)
#    0.000    3.250    1.250    1.500    0.000    3.500 
#    0.000    2.500    0.000    0.750    0.000    4.375 
#    0.000    4.000    0.000   10.000    0.000    0.250 
#
# Total GULP energy -396523.978895 kJ/mol
# GULP energy per Si atom -12391.374340 kJ/mol
# Density = 1.672426 g / cm^3
# Si number density = 16.762411 Si / 1000 Ang^3
#
#
#
# Elastic Constant Matrix: (Units=GPa)
#
#
# Indices 1 2 3 4 5 6 
#
# 1 48.7537 38.9191 17.5426 0.0000 0.0000 0.0000
# 2 38.9191 145.5269 63.0352 0.0000 0.0000 0.0000
# 3 17.5426 63.0352 114.1872 0.0000 0.0000 0.0000
# 4 0.0000 0.0000 0.0000 10.9145 0.0000 0.0000
# 5 0.0000 0.0000 0.0000 0.0000 0.0531 0.0000
# 6 0.0000 0.0000 0.0000 0.0000 0.0000 -112.4119
#
#
#
# Elastic Compliance Matrix: (Units=1/GPa)
#
#
# Indices 1 2 3 4 5 6 
#
# 1 0.026082 -0.006886 -0.000206 0.000000 0.000000 0.000000
# 2 -0.006886 0.010849 -0.004931 0.000000 0.000000 0.000000
# 3 -0.000206 -0.004931 0.011511 0.000000 0.000000 0.000000
# 4 0.000000 0.000000 0.000000 0.091621 0.000000 0.000000
# 5 0.000000 0.000000 0.000000 0.000000 18.846712 0.000000
# 6 0.000000 0.000000 0.000000 0.000000 0.000000 -0.008896
#
#
# Mechanical properties :
#
#
# Convention : Reuss Voigt Hill
#
# Bulk Modulus (GPa) = 40.98899 60.82906 50.90902
# Shear Modulus (GPa) = 0.26302 -7.69080 -3.71389
#
# Velocity S-wave (km/s) = 0.39655 -2.14431 -1.49011
# Velocity P-wave (km/s) = 4.97149 5.49882 5.24179
#
# Compressibility (1/GPa) = 0.02439680
#
# Stress axis : x y z
#
# Youngs Moduli (GPa) = 38.33998 92.17286 86.87118
#
# Poissons Ratio (x) = 0.63473 0.01786
# Poissons Ratio (y) = 0.26402 0.42838
# Poissons Ratio (z) = 0.00788 0.45452
#
# Static dielectric constant tensor:
#      x y z
#    x 2.845560 0.000000 0.000000 
#    y 0.000000 3.174880 0.000000 
#    z 0.000000 0.000000 3.397180 
# 
# 
# High freq. dielectric constant tensor:
#      x y z
#    x 1.628910 0.000000 0.000000 
#    y 0.000000 1.612080 0.000000 
#    z 0.000000 0.000000 1.630340 
# 
# From -- ./inp_files/5403.got.cif
#   From: 2010.03.12/outbox.cif.g09.slc.cpg/sg47_3_cif.got.tgz:5403.got - 2010.04.14 03:12:58.
