data_PCOD8200129
_publ_section_title
;
Structure prediction by ZEFSAII (Michael W. Deem and Ramdas Pophale) SiO2 
 PCOD8200129
Probable space group: P M M M
;
_chemical_formula_sum "Si O2"
_cell_formula_units_Z 48
_cell_length_a 8.798232
_cell_length_b 14.647697
_cell_length_c 17.720446
_cell_angle_alpha 90.000000
_cell_angle_beta 90.000000
_cell_angle_gamma 90.000000
_cell_volume 2283.701860
_symmetry_space_group_name_H-M "P M M M"
_symmetry_group_IT_number 47
_symmetry_cell_setting 'orthorhombic'
loop_
_space_group_symop_operation_xyz
x,y,z
-x,-y,z
x,-y,-z
-x,y,-z
-x,-y,-z
x,y,-z
-x,y,z
x,-y,z
loop_
_atom_site_type_symbol
_atom_site_label
_atom_site_fract_x
_atom_site_fract_y
_atom_site_fract_z
Si Si1 0.825679 0.500000 0.420712
Si Si2 0.679948 0.102339 0.000000
Si Si3 0.174327 0.102037 0.733736
Si Si4 0.672835 0.848226 0.586625
Si Si5 0.680244 0.222997 0.140309
Si Si6 0.670262 0.346051 0.662116
Si Si7 0.820301 0.393503 0.186358
O O1 0.734796 0.500000 0.500000
O O2 0.789965 0.588151 0.374382
O O3 0.000000 0.500000 0.437891
O O4 0.735342 0.155980 0.925992
O O5 0.500000 0.095959 0.000000
O O6 0.750094 0.000000 0.000000
O O7 0.225382 0.095946 0.645716
O O8 0.275249 0.173530 0.780765
O O9 0.000000 0.134736 0.737309
O O10 0.192777 0.000000 0.767301
O O11 0.733889 0.856477 0.500000
O O12 0.500000 0.884404 0.589618
O O13 0.680262 0.745081 0.614718
O O14 0.500000 0.239767 0.140324
O O15 0.766580 0.320749 0.122648
O O16 0.500000 0.385645 0.660254
O O17 0.725967 0.343060 0.747711
O O18 0.771546 0.500000 0.171984
O O19 0.000000 0.389842 0.200014
#
# Coordination Sequence:
#
# PCOD8200129 Si02
#       7
#     4   4   8   8   8   8   8
#     4  11  23  35  49  75 113 156 201 254 319 379
#     4   9  20  40  68 103 136 164 199 249 308 365
#     4  11  24  40  60  88 122 162 207 254 310 376
#     4  10  22  39  58  82 113 153 204 260 316 370
#     4  11  22  40  68  98 128 163 204 253 308 366
#     4  11  21  35  57  82 110 151 205 262 315 368
#     4  11  23  39  61  89 125 166 207 251 304 368
#
# _framework density 21.018505999999999
#
# number of rings (size 3 to 8) (size 9 to 14) (size 15 to 20)
#    0.000    1.333    2.500    3.250    0.000    5.667 
#    0.000    3.750    0.000    5.500    0.000    0.000 
#    0.000    0.000    0.000    0.000    0.000    0.000 
#
# Total GULP energy -594781.010405 kJ/mol
# GULP energy per Si atom -12391.271050 kJ/mol
# Density = 2.097067 g / cm^3
# Si number density = 21.018506 Si / 1000 Ang^3
#
#
#
# Elastic Constant Matrix: (Units=GPa)
#
#
# Indices 1 2 3 4 5 6 
#
# 1 81.3373 40.1015 15.9143 0.0000 0.0000 0.0000
# 2 40.1015 138.4954 42.9304 0.0000 0.0000 0.0000
# 3 15.9143 42.9304 94.3242 0.0000 0.0000 0.0000
# 4 0.0000 0.0000 0.0000 19.8393 0.0000 0.0000
# 5 0.0000 0.0000 0.0000 0.0000 50.3419 0.0000
# 6 0.0000 0.0000 0.0000 0.0000 0.0000 33.5192
#
#
#
# Elastic Compliance Matrix: (Units=1/GPa)
#
#
# Indices 1 2 3 4 5 6 
#
# 1 0.014373 -0.003970 -0.000618 0.000000 0.000000 0.000000
# 2 -0.003970 0.009503 -0.003655 0.000000 0.000000 0.000000
# 3 -0.000618 -0.003655 0.012370 0.000000 0.000000 0.000000
# 4 0.000000 0.000000 0.000000 0.050405 0.000000 0.000000
# 5 0.000000 0.000000 0.000000 0.000000 0.019864 0.000000
# 6 0.000000 0.000000 0.000000 0.000000 0.000000 0.029834
#
#
# Mechanical properties :
#
#
# Convention : Reuss Voigt Hill
#
# Bulk Modulus (GPa) = 50.61092 56.89436 53.75264
# Shear Modulus (GPa) = 31.36342 35.08747 33.22545
#
# Velocity S-wave (km/s) = 3.86707 4.09021 3.98020
# Velocity P-wave (km/s) = 6.63856 7.03093 6.83756
#
# Compressibility (1/GPa) = 0.01975858
#
# Stress axis : x y z
#
# Youngs Moduli (GPa) = 69.57605 105.22912 80.84268
#
# Poissons Ratio (x) = 0.41777 0.04996
# Poissons Ratio (y) = 0.27622 0.29551
# Poissons Ratio (z) = 0.04300 0.38465
#
# Static dielectric constant tensor:
#      x y z
#    x 3.700590 0.000000 0.000000 
#    y 0.000000 3.992970 0.000000 
#    z 0.000000 0.000000 4.002840 
# 
# 
# High freq. dielectric constant tensor:
#      x y z
#    x 1.814520 0.000000 0.000000 
#    y 0.000000 1.841020 0.000000 
#    z 0.000000 0.000000 1.811860 
# 
# From -- ./inp_files/26543.got.cif
#   From: 2010.03.12/outbox.cif.g09.slc.cpg/sg47_14_cif.got.tgz:26543.got - 2010.04.14 03:12:58.
