data_PCOD8200991
_publ_section_title
;
Structure prediction by ZEFSAII (Michael W. Deem and Ramdas Pophale) SiO2 
 PCOD8200991
Probable space group: P M M M
;
_chemical_formula_sum "Si O2"
_cell_formula_units_Z 52
_cell_length_a 9.267661
_cell_length_b 28.182619
_cell_length_c 15.551285
_cell_angle_alpha 90.000000
_cell_angle_beta 90.000000
_cell_angle_gamma 90.000000
_cell_volume 4061.792837
_symmetry_space_group_name_H-M "P M M M"
_symmetry_group_IT_number 47
_symmetry_cell_setting 'orthorhombic'
loop_
_space_group_symop_operation_xyz
x,y,z
-x,-y,z
x,-y,-z
-x,y,-z
-x,-y,-z
x,y,-z
-x,y,z
x,-y,z
loop_
_atom_site_type_symbol
_atom_site_label
_atom_site_fract_x
_atom_site_fract_y
_atom_site_fract_z
Si Si1 0.663657 0.408610 0.397553
Si Si2 0.837638 0.943649 0.905790
Si Si3 0.660500 0.771166 0.602048
Si Si4 0.329882 0.945591 0.741746
Si Si5 0.837403 0.682433 0.397426
Si Si6 0.836097 0.500000 0.602473
Si Si7 0.328142 0.124003 0.595569
O O1 0.661365 0.408897 0.500000
O O2 0.500000 0.409938 0.361918
O O3 0.743318 0.361602 0.362960
O O4 0.751795 0.453909 0.362727
O O5 0.735796 0.924399 0.829892
O O6 0.000000 0.925857 0.888477
O O7 0.832413 0.000000 0.905968
O O8 0.785025 0.925238 0.000000
O O9 0.651051 0.767419 0.500000
O O10 0.500000 0.762992 0.640526
O O11 0.767380 0.731006 0.638761
O O12 0.720528 0.823446 0.626646
O O13 0.500000 0.940672 0.749728
O O14 0.268556 0.915086 0.661989
O O15 0.283103 0.000000 0.726041
O O16 0.838722 0.682525 0.500000
O O17 0.000000 0.678185 0.361664
O O18 0.838595 0.500000 0.500000
O O19 0.000000 0.500000 0.637975
O O20 0.266768 0.112661 0.500000
O O21 0.500000 0.122821 0.591907
#
# Coordination Sequence:
#
# PCOD8200991 Si02
#       7
#     8   8   8   8   8   4   8
#     4   9  15  21  28  37  49  66  87 108 134 175
#     4   8  14  25  39  52  67  88 109 127 153 191
#     4   8  13  22  34  43  52  71  98 123 147 179
#     4   9  16  24  36  55  73  87 107 135 162 188
#     4   9  15  21  29  41  54  65  82 114 152 182
#     4   9  15  21  27  35  49  67  85 107 137 171
#     4   8  14  24  36  49  66  88 111 133 159 193
#
# _framework density 12.802229000000001
#
# number of rings (size 3 to 8) (size 9 to 14) (size 15 to 20)
#    0.000    3.462    0.000    2.538    0.000    5.231 
#    0.000    3.846    0.000    1.385    0.000    2.154 
#    0.000    0.000    0.000    0.000    0.000    0.000 
#
# Total GULP energy -644380.945893 kJ/mol
# GULP energy per Si atom -12391.941267 kJ/mol
# Density = 1.277309 g / cm^3
# Si number density = 12.802229 Si / 1000 Ang^3
#
#
#
# Elastic Constant Matrix: (Units=GPa)
#
#
# Indices 1 2 3 4 5 6 
#
# 1 73.4485 44.4922 22.9410 0.0000 0.0000 0.0000
# 2 44.4922 92.6479 35.9250 0.0000 0.0000 0.0000
# 3 22.9410 35.9250 47.5390 0.0000 0.0000 0.0000
# 4 0.0000 0.0000 0.0000 0.6015 0.0000 0.0000
# 5 0.0000 0.0000 0.0000 0.0000 7.7939 0.0000
# 6 0.0000 0.0000 0.0000 0.0000 0.0000 13.4073
#
#
#
# Elastic Compliance Matrix: (Units=1/GPa)
#
#
# Indices 1 2 3 4 5 6 
#
# 1 0.019562 -0.008110 -0.003311 0.000000 0.000000 0.000000
# 2 -0.008110 0.018630 -0.010165 0.000000 0.000000 0.000000
# 3 -0.003311 -0.010165 0.030315 0.000000 0.000000 0.000000
# 4 0.000000 0.000000 0.000000 1.662611 0.000000 0.000000
# 5 0.000000 0.000000 0.000000 0.000000 0.128306 0.000000
# 6 0.000000 0.000000 0.000000 0.000000 0.000000 0.074587
#
#
# Mechanical properties :
#
#
# Convention : Reuss Voigt Hill
#
# Bulk Modulus (GPa) = 39.47231 46.70575 43.08903
# Shear Modulus (GPa) = 2.51810 11.71234 7.11522
#
# Velocity S-wave (km/s) = 1.40399 3.02796 2.36006
# Velocity P-wave (km/s) = 5.79030 6.98473 6.41537
#
# Compressibility (1/GPa) = 0.02533421
#
# Stress axis : x y z
#
# Youngs Moduli (GPa) = 51.11916 53.67751 32.98738
#
# Poissons Ratio (x) = 0.43534 0.10923
# Poissons Ratio (y) = 0.41459 0.33530
# Poissons Ratio (z) = 0.16927 0.54561
#
# Static dielectric constant tensor:
#      x y z
#    x 2.662980 0.000000 0.000000 
#    y 0.000000 2.717040 0.000000 
#    z 0.000000 0.000000 2.321950 
# 
# 
# High freq. dielectric constant tensor:
#      x y z
#    x 1.486200 0.000000 0.000000 
#    y 0.000000 1.481480 0.000000 
#    z 0.000000 0.000000 1.414720 
# 
# From -- ./inp_files/21993.got.cif
#   From: 2010.03.12/outbox.cif.g09.slc.cpg/sg47_11_cif.got.tgz:21993.got - 2010.04.14 03:12:58.
