data_PCOD8200318
_publ_section_title
;
Structure prediction by ZEFSAII (Michael W. Deem and Ramdas Pophale) SiO2 
 PCOD8200318
Probable space group: P M M M
;
_chemical_formula_sum "Si O2"
_cell_formula_units_Z 52
_cell_length_a 24.438027
_cell_length_b 9.274727
_cell_length_c 18.407123
_cell_angle_alpha 90.000000
_cell_angle_beta 90.000000
_cell_angle_gamma 90.000000
_cell_volume 4172.085402
_symmetry_space_group_name_H-M "P M M M"
_symmetry_group_IT_number 47
_symmetry_cell_setting 'orthorhombic'
loop_
_space_group_symop_operation_xyz
x,y,z
-x,-y,z
x,-y,-z
-x,y,-z
-x,-y,-z
x,y,-z
-x,y,z
x,-y,z
loop_
_atom_site_type_symbol
_atom_site_label
_atom_site_fract_x
_atom_site_fract_y
_atom_site_fract_z
Si Si1 0.337752 0.161992 0.913324
Si Si2 0.938957 0.170811 0.576771
Si Si3 0.885011 0.331148 0.865905
Si Si4 0.064752 0.164276 0.000000
Si Si5 0.560271 0.661978 0.913617
Si Si6 0.934712 0.833751 0.265902
Si Si7 0.766325 0.665232 0.083175
O O1 0.392273 0.236797 0.880979
O O2 0.283379 0.241172 0.884630
O O3 0.336656 0.000000 0.883864
O O4 0.338800 0.168343 0.000000
O O5 0.909144 0.219257 0.500000
O O6 0.912208 0.216662 0.653905
O O7 0.000000 0.235043 0.574448
O O8 0.942689 0.000000 0.578929
O O9 0.898780 0.500000 0.874174
O O10 0.915175 0.245507 0.928922
O O11 0.905542 0.273043 0.789298
O O12 0.820063 0.304214 0.869580
O O13 0.000000 0.164536 0.000000
O O14 0.087000 0.000000 0.000000
O O15 0.500000 0.717410 0.888778
O O16 0.569835 0.500000 0.884900
O O17 0.563342 0.663002 0.000000
O O18 0.000000 0.815808 0.261358
O O19 0.918913 0.000000 0.249021
O O20 0.747764 0.500000 0.087888
O O21 0.779860 0.707521 0.000000
#
# Coordination Sequence:
#
# PCOD8200318 Si02
#       7
#     8   8   8   4   8   8   8
#     4   9  16  23  33  50  65  78 100 132 170 203
#     4   7  10  19  37  58  76  93 112 132 155 191
#     4  11  21  32  43  55  69  89 116 144 177 215
#     4  11  23  35  45  55  67  85 110 143 182 219
#     4   8  13  21  32  45  62  85 107 124 151 195
#     4   9  17  28  41  58  77  93 111 137 171 209
#     4   9  17  30  41  47  59  81 111 142 171 206
#
# _framework density 12.463791000000001
#
# number of rings (size 3 to 8) (size 9 to 14) (size 15 to 20)
#    0.000    3.000    0.769    3.462    0.000    6.154 
#    0.000    1.538    0.000    0.462    0.000    2.154 
#    0.000    0.000    0.000    0.000    0.000    0.000 
#
# Total GULP energy -644214.774908 kJ/mol
# GULP energy per Si atom -12388.745671 kJ/mol
# Density = 1.243542 g / cm^3
# Si number density = 12.463791 Si / 1000 Ang^3
#
#
#
# Elastic Constant Matrix: (Units=GPa)
#
#
# Indices 1 2 3 4 5 6 
#
# 1 71.2480 46.5482 28.5495 0.0000 0.0000 0.0000
# 2 46.5482 77.0380 32.9937 0.0000 0.0000 0.0000
# 3 28.5495 32.9937 74.5113 0.0000 0.0000 0.0000
# 4 0.0000 0.0000 0.0000 8.4465 0.0000 0.0000
# 5 0.0000 0.0000 0.0000 0.0000 -6.0326 0.0000
# 6 0.0000 0.0000 0.0000 0.0000 0.0000 11.5647
#
#
#
# Elastic Compliance Matrix: (Units=1/GPa)
#
#
# Indices 1 2 3 4 5 6 
#
# 1 0.023870 -0.012964 -0.003405 0.000000 0.000000 0.000000
# 2 -0.012964 0.023060 -0.005243 0.000000 0.000000 0.000000
# 3 -0.003405 -0.005243 0.017047 0.000000 0.000000 0.000000
# 4 0.000000 0.000000 0.000000 0.118392 0.000000 0.000000
# 5 0.000000 0.000000 0.000000 0.000000 -0.165765 0.000000
# 6 0.000000 0.000000 0.000000 0.000000 0.000000 0.086470
#
#
# Mechanical properties :
#
#
# Convention : Reuss Voigt Hill
#
# Bulk Modulus (GPa) = 48.19115 48.77559 48.48337
# Shear Modulus (GPa) = 32.63339 10.44278 21.53808
#
# Velocity S-wave (km/s) = 5.12244 2.89770 4.16149
# Velocity P-wave (km/s) = 8.58689 7.10031 7.87874
#
# Compressibility (1/GPa) = 0.02075070
#
# Stress axis : x y z
#
# Youngs Moduli (GPa) = 41.89361 43.36572 58.66014
#
# Poissons Ratio (x) = 0.56221 0.19975
# Poissons Ratio (y) = 0.54313 0.30758
# Poissons Ratio (z) = 0.14266 0.22739
#
# Static dielectric constant tensor:
#      x y z
#    x 2.537950 0.000000 0.000000 
#    y 0.000000 2.585970 0.000000 
#    z 0.000000 0.000000 2.522280 
# 
# 
# High freq. dielectric constant tensor:
#      x y z
#    x 1.455980 0.000000 0.000000 
#    y 0.000000 1.473340 0.000000 
#    z 0.000000 0.000000 1.428790 
# 
# From -- ./inp_files/28873.got.cif
#   From: 2010.03.12/outbox.cif.g09.slc.cpg/sg47_15_cif.got.tgz:28873.got - 2010.04.14 03:12:58.
