data_PCOD8200634
_publ_section_title
;
Structure prediction by ZEFSAII (Michael W. Deem and Ramdas Pophale) SiO2 
 PCOD8200634
Probable space group: P M M M
;
_chemical_formula_sum "Si O2"
_cell_formula_units_Z 48
_cell_length_a 30.717066
_cell_length_b 9.388497
_cell_length_c 8.893923
_cell_angle_alpha 90.000000
_cell_angle_beta 90.000000
_cell_angle_gamma 90.000000
_cell_volume 2564.892501
_symmetry_space_group_name_H-M "P M M M"
_symmetry_group_IT_number 47
_symmetry_cell_setting 'orthorhombic'
loop_
_space_group_symop_operation_xyz
x,y,z
-x,-y,z
x,-y,-z
-x,y,-z
-x,-y,-z
x,y,-z
-x,y,z
x,-y,z
loop_
_atom_site_type_symbol
_atom_site_label
_atom_site_fract_x
_atom_site_fract_y
_atom_site_fract_z
Si Si1 0.952376 0.840799 0.678684
Si Si2 0.550479 0.837319 0.826228
Si Si3 0.298680 0.163450 0.177238
Si Si4 0.623418 0.663376 0.322851
Si Si5 0.874281 0.343148 0.678211
Si Si6 0.223021 0.666788 0.674690
O O1 0.948221 0.842241 0.500000
O O2 0.912632 0.751928 0.750409
O O3 0.000000 0.777585 0.724110
O O4 0.948308 0.000000 0.742129
O O5 0.500000 0.808327 0.794202
O O6 0.577207 0.728932 0.723815
O O7 0.562516 0.000000 0.784508
O O8 0.561708 0.809159 0.000000
O O9 0.338567 0.246313 0.249089
O O10 0.253901 0.237258 0.224366
O O11 0.298906 0.000000 0.232954
O O12 0.303669 0.171689 0.000000
O O13 0.628718 0.672385 0.500000
O O14 0.626056 0.500000 0.267659
O O15 0.879224 0.350385 0.500000
O O16 0.879875 0.500000 0.747178
O O17 0.826136 0.285127 0.716908
O O18 0.233040 0.695714 0.500000
O O19 0.230050 0.500000 0.710495
#
# Coordination Sequence:
#
# PCOD8200634 Si02
#       6
#     8   8   8   8   8   8
#     4   8  13  20  30  48  78 116 156 195 234 280
#     4   9  19  37  60  85 113 145 181 219 257 299
#     4  11  24  39  55  77 103 131 168 212 255 304
#     4  11  24  39  56  81 111 141 175 215 257 303
#     4   8  14  24  38  58  85 117 153 194 239 287
#     4   9  18  33  52  74 100 129 164 206 251 302
#
# _framework density 18.714234999999999
#
# number of rings (size 3 to 8) (size 9 to 14) (size 15 to 20)
#    0.000    2.667    0.000    4.000    0.000    9.000 
#    0.000    5.833    0.000    0.000    0.000    0.000 
#    0.000    0.667    0.000    7.333    0.000   12.000 
#
# Total GULP energy -595045.398988 kJ/mol
# GULP energy per Si atom -12396.779146 kJ/mol
# Density = 1.867164 g / cm^3
# Si number density = 18.714235 Si / 1000 Ang^3
#
#
#
# Elastic Constant Matrix: (Units=GPa)
#
#
# Indices 1 2 3 4 5 6 
#
# 1 142.6802 82.6159 34.1920 0.0000 0.0000 0.0000
# 2 82.6159 122.7612 39.3251 0.0000 0.0000 0.0000
# 3 34.1920 39.3251 39.9858 0.0000 0.0000 0.0000
# 4 0.0000 0.0000 0.0000 23.4836 0.0000 0.0000
# 5 0.0000 0.0000 0.0000 0.0000 -11.2208 0.0000
# 6 0.0000 0.0000 0.0000 0.0000 0.0000 41.1432
#
#
#
# Elastic Compliance Matrix: (Units=1/GPa)
#
#
# Indices 1 2 3 4 5 6 
#
# 1 0.011778 -0.006862 -0.003323 0.000000 0.000000 0.000000
# 2 -0.006862 0.015891 -0.009760 0.000000 0.000000 0.000000
# 3 -0.003323 -0.009760 0.037449 0.000000 0.000000 0.000000
# 4 0.000000 0.000000 0.000000 0.042583 0.000000 0.000000
# 5 0.000000 0.000000 0.000000 0.000000 -0.089120 0.000000
# 6 0.000000 0.000000 0.000000 0.000000 0.000000 0.024305
#
#
# Mechanical properties :
#
#
# Convention : Reuss Voigt Hill
#
# Bulk Modulus (GPa) = 39.63904 68.63257 54.13580
# Shear Modulus (GPa) = 54.83304 20.63414 37.73359
#
# Velocity S-wave (km/s) = 5.41884 3.32413 4.49520
# Velocity P-wave (km/s) = 7.77039 7.17543 7.47883
#
# Compressibility (1/GPa) = 0.02522765
#
# Stress axis : x y z
#
# Youngs Moduli (GPa) = 84.90129 62.93051 26.70284
#
# Poissons Ratio (x) = 0.43184 0.08873
# Poissons Ratio (y) = 0.58261 0.26062
# Poissons Ratio (z) = 0.28212 0.61421
#
# Static dielectric constant tensor:
#      x y z
#    x 3.710160 0.000000 0.000000 
#    y 0.000000 3.681360 0.000000 
#    z 0.000000 0.000000 3.029800 
# 
# 
# High freq. dielectric constant tensor:
#      x y z
#    x 1.745700 0.000000 0.000000 
#    y 0.000000 1.727390 0.000000 
#    z 0.000000 0.000000 1.684740 
# 
# From -- ./inp_files/2528.got.cif
#   From: 2010.03.12/outbox.cif.g09.slc.cpg/sg47_2_cif.got.tgz:2528.got - 2010.04.14 03:12:58.
