data_PCOD8200358
_publ_section_title
;
Structure prediction by ZEFSAII (Michael W. Deem and Ramdas Pophale) SiO2 
 PCOD8200358
Probable space group: P M M M
;
_chemical_formula_sum "Si O2"
_cell_formula_units_Z 52
_cell_length_a 24.697715
_cell_length_b 14.388849
_cell_length_c 8.272847
_cell_angle_alpha 90.000000
_cell_angle_beta 90.000000
_cell_angle_gamma 90.000000
_cell_volume 2939.935634
_symmetry_space_group_name_H-M "P M M M"
_symmetry_group_IT_number 47
_symmetry_cell_setting 'orthorhombic'
loop_
_space_group_symop_operation_xyz
x,y,z
-x,-y,z
x,-y,-z
-x,y,-z
-x,-y,-z
x,y,-z
-x,y,z
x,-y,z
loop_
_atom_site_type_symbol
_atom_site_label
_atom_site_fract_x
_atom_site_fract_y
_atom_site_fract_z
Si Si1 0.939203 0.610193 0.000000
Si Si2 0.760402 0.708359 0.315489
Si Si3 0.560175 0.284333 0.313384
Si Si4 0.340785 0.601481 0.813737
Si Si5 0.871899 0.390194 0.314136
Si Si6 0.732825 0.102688 0.190277
Si Si7 0.608437 0.104480 0.812148
O O1 0.911989 0.644026 0.830015
O O2 0.939446 0.500000 0.000000
O O3 0.000000 0.650370 0.000000
O O4 0.746160 0.693268 0.500000
O O5 0.710161 0.666700 0.219922
O O6 0.815219 0.656356 0.268969
O O7 0.767950 0.817739 0.276893
O O8 0.562958 0.308247 0.500000
O O9 0.500000 0.305542 0.245472
O O10 0.603255 0.348881 0.226551
O O11 0.572462 0.175400 0.289139
O O12 0.336280 0.500000 0.726004
O O13 0.341144 0.582206 0.000000
O O14 0.890689 0.362925 0.500000
O O15 0.864174 0.500000 0.305429
O O16 0.670590 0.114330 0.242387
O O17 0.753539 0.000000 0.243677
O O18 0.739087 0.114005 0.000000
O O19 0.587772 0.000000 0.777760
O O20 0.602829 0.129281 0.000000
#
# Coordination Sequence:
#
# PCOD8200358 Si02
#       7
#     4   8   8   8   8   8   8
#     4   9  18  32  52  78 109 151 196 232 266 305
#     4  11  21  33  53  80 109 139 171 212 263 315
#     4  11  24  39  54  74  99 126 160 207 260 314
#     4  11  24  39  56  76  96 127 169 211 259 313
#     4   9  19  33  49  76 113 150 187 227 269 312
#     4   9  18  32  51  76 105 136 169 206 253 312
#     4   9  18  34  55  76  98 126 161 201 249 308
#
# _framework density 17.687462
#
# number of rings (size 3 to 8) (size 9 to 14) (size 15 to 20)
#    0.000    2.077    1.538    2.769    2.154    4.615 
#    0.000    6.154    0.000    0.000    0.000    0.000 
#    0.000    1.231    0.000    3.385    0.000    0.154 
#
# Total GULP energy -644547.275720 kJ/mol
# GULP energy per Si atom -12395.139918 kJ/mol
# Density = 1.764720 g / cm^3
# Si number density = 17.687462 Si / 1000 Ang^3
#
#
#
# Elastic Constant Matrix: (Units=GPa)
#
#
# Indices 1 2 3 4 5 6 
#
# 1 100.3153 38.8308 51.2303 0.0000 0.0000 0.0000
# 2 38.8308 89.3011 23.1475 0.0000 0.0000 0.0000
# 3 51.2303 23.1475 70.5704 0.0000 0.0000 0.0000
# 4 0.0000 0.0000 0.0000 11.2095 0.0000 0.0000
# 5 0.0000 0.0000 0.0000 0.0000 26.9594 0.0000
# 6 0.0000 0.0000 0.0000 0.0000 0.0000 8.4663
#
#
#
# Elastic Compliance Matrix: (Units=1/GPa)
#
#
# Indices 1 2 3 4 5 6 
#
# 1 0.017487 -0.004714 -0.011148 0.000000 0.000000 0.000000
# 2 -0.004714 0.013509 -0.001009 0.000000 0.000000 0.000000
# 3 -0.011148 -0.001009 0.022594 0.000000 0.000000 0.000000
# 4 0.000000 0.000000 0.000000 0.089210 0.000000 0.000000
# 5 0.000000 0.000000 0.000000 0.000000 0.037093 0.000000
# 6 0.000000 0.000000 0.000000 0.000000 0.000000 0.118115
#
#
# Mechanical properties :
#
#
# Convention : Reuss Voigt Hill
#
# Bulk Modulus (GPa) = 50.38335 54.06712 52.22523
# Shear Modulus (GPa) = 14.77687 19.12558 16.95122
#
# Velocity S-wave (km/s) = 2.89354 3.29189 3.09912
# Velocity P-wave (km/s) = 6.30164 6.71440 6.51129
#
# Compressibility (1/GPa) = 0.01984783
#
# Stress axis : x y z
#
# Youngs Moduli (GPa) = 57.18675 74.02237 44.25923
#
# Poissons Ratio (x) = 0.34894 0.49341
# Poissons Ratio (y) = 0.26958 0.04466
# Poissons Ratio (z) = 0.63752 0.07469
#
# Static dielectric constant tensor:
#      x y z
#    x 3.207520 0.000000 0.000000 
#    y 0.000000 3.431130 0.000000 
#    z 0.000000 0.000000 3.361300 
# 
# 
# High freq. dielectric constant tensor:
#      x y z
#    x 1.652580 0.000000 0.000000 
#    y 0.000000 1.680420 0.000000 
#    z 0.000000 0.000000 1.690910 
# 
# From -- ./inp_files/11003.got.cif
#   From: 2010.03.12/outbox.cif.g09.slc.cpg/sg47_6_cif.got.tgz:11003.got - 2010.04.14 03:12:58.
