data_PCOD8200545
_publ_section_title
;
Structure prediction by ZEFSAII (Michael W. Deem and Ramdas Pophale) SiO2 
 PCOD8200545
Probable space group: P M M M
;
_chemical_formula_sum "Si O2"
_cell_formula_units_Z 48
_cell_length_a 9.948205
_cell_length_b 18.067550
_cell_length_c 14.340550
_cell_angle_alpha 90.000000
_cell_angle_beta 90.000000
_cell_angle_gamma 90.000000
_cell_volume 2577.566029
_symmetry_space_group_name_H-M "P M M M"
_symmetry_group_IT_number 47
_symmetry_cell_setting 'orthorhombic'
loop_
_space_group_symop_operation_xyz
x,y,z
-x,-y,z
x,-y,-z
-x,y,-z
-x,-y,-z
x,y,-z
-x,y,z
x,-y,z
loop_
_atom_site_type_symbol
_atom_site_label
_atom_site_fract_x
_atom_site_fract_y
_atom_site_fract_z
Si Si1 0.840712 0.582453 0.896684
Si Si2 0.000000 0.913004 0.604446
Si Si3 0.246051 0.152118 0.713156
Si Si4 0.500000 0.086945 0.611048
Si Si5 0.648891 0.583445 0.389978
Si Si6 0.161039 0.680548 0.274161
Si Si7 0.654215 0.086959 0.104229
O O1 0.787371 0.500000 0.869742
O O2 0.791897 0.644310 0.823778
O O3 0.000000 0.580280 0.896860
O O4 0.787629 0.604135 0.000000
O O5 0.127145 0.888218 0.661665
O O6 0.000000 0.878088 0.500000
O O7 0.000000 0.000000 0.595243
O O8 0.375022 0.129404 0.654289
O O9 0.223835 0.239066 0.716186
O O10 0.252077 0.126565 0.820548
O O11 0.500000 0.095558 0.500000
O O12 0.500000 0.000000 0.639636
O O13 0.653729 0.586616 0.500000
O O14 0.500000 0.610624 0.356078
O O15 0.672494 0.500000 0.354524
O O16 0.771593 0.632821 0.354867
O O17 0.000000 0.681776 0.286432
O O18 0.500000 0.109256 0.122870
O O19 0.672426 0.000000 0.115091
O O20 0.697604 0.111879 0.000000
#
# Coordination Sequence:
#
# PCOD8200545 Si02
#       7
#     8   4   8   4   8   8   8
#     4   8  15  31  57  84 111 149 194 234 272 323
#     4  11  24  42  61  81 116 161 199 247 309 362
#     4  12  23  39  59  89 121 155 197 246 306 358
#     4  11  24  42  65  87 106 145 209 263 301 358
#     4   9  20  39  61  84 112 151 196 240 287 340
#     4  11  23  37  54  86 123 157 190 233 290 351
#     4   9  18  35  61  88 112 144 190 245 301 357
#
# _framework density 18.622219999999999
#
# number of rings (size 3 to 8) (size 9 to 14) (size 15 to 20)
#    0.000    2.000    1.667    4.000    1.167    4.667 
#    0.000    1.250    0.000    2.000    0.000    2.333 
#    0.000    0.000    0.000    0.000    0.000    0.000 
#
# Total GULP energy -595004.845716 kJ/mol
# GULP energy per Si atom -12395.934286 kJ/mol
# Density = 1.857984 g / cm^3
# Si number density = 18.622220 Si / 1000 Ang^3
#
#
#
# Elastic Constant Matrix: (Units=GPa)
#
#
# Indices 1 2 3 4 5 6 
#
# 1 110.5326 60.2670 62.4100 0.0000 0.0000 0.0000
# 2 60.2670 120.8692 64.6000 0.0000 0.0000 0.0000
# 3 62.4100 64.6000 121.4543 0.0000 0.0000 0.0000
# 4 0.0000 0.0000 0.0000 -13.6358 0.0000 0.0000
# 5 0.0000 0.0000 0.0000 0.0000 30.9091 0.0000
# 6 0.0000 0.0000 0.0000 0.0000 0.0000 27.5628
#
#
#
# Elastic Compliance Matrix: (Units=1/GPa)
#
#
# Indices 1 2 3 4 5 6 
#
# 1 0.014288 -0.004471 -0.004964 0.000000 0.000000 0.000000
# 2 -0.004471 0.012959 -0.004595 0.000000 0.000000 0.000000
# 3 -0.004964 -0.004595 0.013228 0.000000 0.000000 0.000000
# 4 0.000000 0.000000 0.000000 -0.073336 0.000000 0.000000
# 5 0.000000 0.000000 0.000000 0.000000 0.032353 0.000000
# 6 0.000000 0.000000 0.000000 0.000000 0.000000 0.036281
#
#
# Mechanical properties :
#
#
# Convention : Reuss Voigt Hill
#
# Bulk Modulus (GPa) = 80.54871 80.82336 80.68604
# Shear Modulus (GPa) = 73.56229 20.00583 46.78406
#
# Velocity S-wave (km/s) = 6.29191 3.28121 5.01769
# Velocity P-wave (km/s) = 9.80470 7.60598 8.77448
#
# Compressibility (1/GPa) = 0.01241485
#
# Stress axis : x y z
#
# Youngs Moduli (GPa) = 69.99106 77.16868 75.59627
#
# Poissons Ratio (x) = 0.34503 0.37523
# Poissons Ratio (y) = 0.31294 0.34737
# Poissons Ratio (z) = 0.34741 0.35459
#
# Static dielectric constant tensor:
#      x y z
#    x 3.258780 0.000000 0.000000 
#    y 0.000000 3.458430 0.000000 
#    z 0.000000 0.000000 4.114490 
# 
# 
# High freq. dielectric constant tensor:
#      x y z
#    x 1.708180 0.000000 0.000000 
#    y 0.000000 1.721590 0.000000 
#    z 0.000000 0.000000 1.737020 
# 
# From -- ./inp_files/21160.got.cif
#   From: 2010.03.12/outbox.cif.g09.slc.cpg/sg47_11_cif.got.tgz:21160.got - 2010.04.14 03:12:58.
