data_PCOD8200109
_publ_section_title
;
Structure prediction by ZEFSAII (Michael W. Deem and Ramdas Pophale) SiO2 
 PCOD8200109
Probable space group: P M M M
;
_chemical_formula_sum "Si O2"
_cell_formula_units_Z 64
_cell_length_a 26.224922
_cell_length_b 9.273919
_cell_length_c 14.394846
_cell_angle_alpha 90.000000
_cell_angle_beta 90.000000
_cell_angle_gamma 90.000000
_cell_volume 3500.938862
_symmetry_space_group_name_H-M "P M M M"
_symmetry_group_IT_number 47
_symmetry_cell_setting 'orthorhombic'
loop_
_space_group_symop_operation_xyz
x,y,z
-x,-y,z
x,-y,-z
-x,y,-z
-x,-y,-z
x,y,-z
-x,y,z
x,-y,z
loop_
_atom_site_type_symbol
_atom_site_label
_atom_site_fract_x
_atom_site_fract_y
_atom_site_fract_z
Si Si1 0.942560 0.834486 0.789370
Si Si2 0.145868 0.667376 0.109126
Si Si3 0.795547 0.339452 0.389821
Si Si4 0.302357 0.833079 0.603704
Si Si5 0.246602 0.832337 0.108877
Si Si6 0.892150 0.164373 0.395841
Si Si7 0.347547 0.831731 0.209976
Si Si8 0.444048 0.828535 0.894797
O O1 0.903983 0.732700 0.843382
O O2 0.937838 0.816094 0.677365
O O3 0.000000 0.790234 0.816673
O O4 0.931478 0.000000 0.817416
O O5 0.149759 0.500000 0.134933
O O6 0.197278 0.745068 0.145483
O O7 0.139899 0.692930 0.000000
O O8 0.796291 0.343153 0.500000
O O9 0.794184 0.500000 0.347514
O O10 0.745966 0.253200 0.357427
O O11 0.846115 0.259871 0.354996
O O12 0.319735 0.783572 0.500000
O O13 0.347040 0.803838 0.678570
O O14 0.286725 0.000000 0.602568
O O15 0.296643 0.769856 0.160978
O O16 0.237304 0.000000 0.132072
O O17 0.255292 0.807102 0.000000
O O18 0.909465 0.212829 0.500000
O O19 0.872867 0.000000 0.399224
O O20 0.399382 0.760766 0.169571
O O21 0.348690 0.000000 0.186480
O O22 0.500000 0.771376 0.862734
O O23 0.444039 0.000000 0.888203
O O24 0.433207 0.779376 0.000000
#
# Coordination Sequence:
#
# PCOD8200109 Si02
#       8
#     8   8   8   8   8   8   8   8
#     4  10  22  38  56  78 100 125 162 204 242 287
#     4  10  22  39  56  74  99 130 161 198 248 301
#     4   9  17  29  45  66  92 122 158 198 237 279
#     4   9  17  28  41  60  91 129 164 196 232 277
#     4   9  17  30  49  72  96 121 152 193 240 291
#     4   9  18  33  53  75 100 129 158 192 238 291
#     4   9  16  25  41  65  92 126 163 197 236 285
#     4   8  13  22  38  62  93 126 159 199 246 291
#
# _framework density 18.280809999999999
#
# number of rings (size 3 to 8) (size 9 to 14) (size 15 to 20)
#    0.000    2.875    0.000    1.500    1.750    5.000 
#    0.000    2.500    0.000    0.375    0.000    5.250 
#    0.000    2.000    0.000   12.000    0.000   11.500 
#
# Total GULP energy -793278.360213 kJ/mol
# GULP energy per Si atom -12394.974378 kJ/mol
# Density = 1.823920 g / cm^3
# Si number density = 18.280810 Si / 1000 Ang^3
#
#
#
# Elastic Constant Matrix: (Units=GPa)
#
#
# Indices 1 2 3 4 5 6 
#
# 1 147.7413 42.7551 66.4095 0.0000 0.0000 0.0000
# 2 42.7551 58.0490 27.2770 0.0000 0.0000 0.0000
# 3 66.4095 27.2770 72.0002 0.0000 0.0000 0.0000
# 4 0.0000 0.0000 0.0000 13.6142 0.0000 0.0000
# 5 0.0000 0.0000 0.0000 0.0000 29.1453 0.0000
# 6 0.0000 0.0000 0.0000 0.0000 0.0000 2.1567
#
#
#
# Elastic Compliance Matrix: (Units=1/GPa)
#
#
# Indices 1 2 3 4 5 6 
#
# 1 0.012500 -0.004610 -0.009783 0.000000 0.000000 0.000000
# 2 -0.004610 0.022658 -0.004332 0.000000 0.000000 0.000000
# 3 -0.009783 -0.004332 0.024554 0.000000 0.000000 0.000000
# 4 0.000000 0.000000 0.000000 0.073453 0.000000 0.000000
# 5 0.000000 0.000000 0.000000 0.000000 0.034311 0.000000
# 6 0.000000 0.000000 0.000000 0.000000 0.000000 0.463665
#
#
# Mechanical properties :
#
#
# Convention : Reuss Voigt Hill
#
# Bulk Modulus (GPa) = 44.92043 61.18596 53.05320
# Shear Modulus (GPa) = 7.39634 18.40650 12.90142
#
# Velocity S-wave (km/s) = 2.01364 3.17657 2.65945
# Velocity P-wave (km/s) = 5.48016 6.85543 6.20600
#
# Compressibility (1/GPa) = 0.02226159
#
# Stress axis : x y z
#
# Youngs Moduli (GPa) = 79.99941 44.13524 40.72738
#
# Poissons Ratio (x) = 0.20345 0.39844
# Poissons Ratio (y) = 0.36877 0.17643
# Poissons Ratio (z) = 0.78264 0.19119
#
# Static dielectric constant tensor:
#      x y z
#    x 3.470790 0.000000 0.000000 
#    y 0.000000 3.181250 0.000000 
#    z 0.000000 0.000000 3.427730 
# 
# 
# High freq. dielectric constant tensor:
#      x y z
#    x 1.693120 0.000000 0.000000 
#    y 0.000000 1.673980 0.000000 
#    z 0.000000 0.000000 1.713100 
# 
# From -- ./inp_files/25573.got.cif
#   From: 2010.03.12/outbox.cif.g09.slc.cpg/sg47_13_cif.got.tgz:25573.got - 2010.04.14 03:12:58.
