data_PCOD8200240
_publ_section_title
;
Structure prediction by ZEFSAII (Michael W. Deem and Ramdas Pophale) SiO2 
 PCOD8200240
Probable space group: P M M M
;
_chemical_formula_sum "Si O2"
_cell_formula_units_Z 44
_cell_length_a 12.580174
_cell_length_b 25.052105
_cell_length_c 9.292307
_cell_angle_alpha 90.000000
_cell_angle_beta 90.000000
_cell_angle_gamma 90.000000
_cell_volume 2928.561987
_symmetry_space_group_name_H-M "P M M M"
_symmetry_group_IT_number 47
_symmetry_cell_setting 'orthorhombic'
loop_
_space_group_symop_operation_xyz
x,y,z
-x,-y,z
x,-y,-z
-x,y,-z
-x,-y,-z
x,y,-z
-x,y,z
x,-y,z
loop_
_atom_site_type_symbol
_atom_site_label
_atom_site_fract_x
_atom_site_fract_y
_atom_site_fract_z
Si Si1 0.872915 0.656416 0.339816
Si Si2 0.804190 0.884110 0.670623
Si Si3 0.882479 0.771553 0.329952
Si Si4 0.377554 0.062057 0.163822
Si Si5 0.126310 0.441673 0.161358
Si Si6 0.000000 0.063306 0.166837
O O1 0.827482 0.649718 0.500000
O O2 0.838123 0.714235 0.272479
O O3 0.823453 0.607198 0.250643
O O4 0.000000 0.654556 0.340569
O O5 0.817973 0.893334 0.500000
O O6 0.807660 0.821186 0.710819
O O7 0.690273 0.904339 0.722962
O O8 0.895890 0.915395 0.753632
O O9 0.892562 0.765249 0.500000
O O10 0.000000 0.783458 0.266106
O O11 0.500000 0.076674 0.190034
O O12 0.357150 0.000000 0.193224
O O13 0.344498 0.075991 0.000000
O O14 0.159534 0.500000 0.224814
O O15 0.000000 0.437066 0.162560
O O16 0.169824 0.436609 0.000000
O O17 0.000000 0.000000 0.178104
O O18 0.000000 0.081585 0.000000
#
# Coordination Sequence:
#
# PCOD8200240 Si02
#       6
#     8   8   8   8   8   4
#     4   8  13  21  34  47  62  91 128 160 190 232
#     4  11  20  31  49  69  88 110 139 177 215 251
#     4   8  14  26  40  55  79 107 131 161 206 247
#     4   9  19  36  53  66  85 113 139 167 210 260
#     4   8  13  20  28  40  62  89 117 157 205 237
#     4  11  23  35  45  61  89 119 142 167 206 257
#
# _framework density 15.024438
#
# number of rings (size 3 to 8) (size 9 to 14) (size 15 to 20)
#    0.000    3.000    0.909    3.545    0.000    4.000 
#    0.000    4.545    0.000    0.000    0.000    0.000 
#    0.000    0.000    0.000    0.000    0.000    0.909 
#
# Total GULP energy -545185.120931 kJ/mol
# GULP energy per Si atom -12390.570930 kJ/mol
# Density = 1.499024 g / cm^3
# Si number density = 15.024438 Si / 1000 Ang^3
#
#
#
# Elastic Constant Matrix: (Units=GPa)
#
#
# Indices 1 2 3 4 5 6 
#
# 1 44.4914 38.4669 27.6982 0.0000 0.0000 0.0000
# 2 38.4669 136.9774 57.9979 0.0000 0.0000 0.0000
# 3 27.6982 57.9979 72.4560 0.0000 0.0000 0.0000
# 4 0.0000 0.0000 0.0000 9.6402 0.0000 0.0000
# 5 0.0000 0.0000 0.0000 0.0000 18.1256 0.0000
# 6 0.0000 0.0000 0.0000 0.0000 0.0000 8.6687
#
#
#
# Elastic Compliance Matrix: (Units=1/GPa)
#
#
# Indices 1 2 3 4 5 6 
#
# 1 0.032289 -0.005811 -0.007692 0.000000 0.000000 0.000000
# 2 -0.005811 0.012089 -0.007455 0.000000 0.000000 0.000000
# 3 -0.007692 -0.007455 0.022710 0.000000 0.000000 0.000000
# 4 0.000000 0.000000 0.000000 0.103732 0.000000 0.000000
# 5 0.000000 0.000000 0.000000 0.000000 0.055171 0.000000
# 6 0.000000 0.000000 0.000000 0.000000 0.000000 0.115357
#
#
# Mechanical properties :
#
#
# Convention : Reuss Voigt Hill
#
# Bulk Modulus (GPa) = 39.72793 55.80564 47.76679
# Shear Modulus (GPa) = 12.76636 15.93769 14.35202
#
# Velocity S-wave (km/s) = 2.91813 3.26050 3.09406
# Velocity P-wave (km/s) = 6.15253 7.16927 6.68027
#
# Compressibility (1/GPa) = 0.02517121
#
# Stress axis : x y z
#
# Youngs Moduli (GPa) = 30.97054 82.71995 44.03401
#
# Poissons Ratio (x) = 0.48065 0.33871
# Poissons Ratio (y) = 0.17996 0.32829
# Poissons Ratio (z) = 0.23823 0.61671
#
# Static dielectric constant tensor:
#      x y z
#    x 2.429870 0.000000 0.000000 
#    y 0.000000 3.324400 0.000000 
#    z 0.000000 0.000000 2.913590 
# 
# 
# High freq. dielectric constant tensor:
#      x y z
#    x 1.509130 0.000000 0.000000 
#    y 0.000000 1.591070 0.000000 
#    z 0.000000 0.000000 1.567130 
# 
# From -- ./inp_files/4473.got.cif
#   From: 2010.03.12/outbox.cif.g09.slc.cpg/sg47_3_cif.got.tgz:4473.got - 2010.04.14 03:12:58.
