data_PCOD8200784
_publ_section_title
;
Structure prediction by ZEFSAII (Michael W. Deem and Ramdas Pophale) SiO2 
 PCOD8200784
Probable space group: P M M M
;
_chemical_formula_sum "Si O2"
_cell_formula_units_Z 32
_cell_length_a 24.458401
_cell_length_b 7.951387
_cell_length_c 7.695277
_cell_angle_alpha 90.000000
_cell_angle_beta 90.000000
_cell_angle_gamma 90.000000
_cell_volume 1496.563710
_symmetry_space_group_name_H-M "P M M M"
_symmetry_group_IT_number 47
_symmetry_cell_setting 'orthorhombic'
loop_
_space_group_symop_operation_xyz
x,y,z
-x,-y,z
x,-y,-z
-x,y,-z
-x,-y,-z
x,y,-z
-x,y,z
x,-y,z
loop_
_atom_site_type_symbol
_atom_site_label
_atom_site_fract_x
_atom_site_fract_y
_atom_site_fract_z
Si Si1 0.137389 0.700957 0.806009
Si Si2 0.061453 0.299326 0.500000
Si Si3 0.370098 0.816020 0.793279
Si Si4 0.743291 0.685976 0.794010
Si Si5 0.561772 0.500000 0.207393
O O1 0.138969 0.500000 0.808100
O O2 0.092101 0.769002 0.671912
O O3 0.197569 0.765208 0.743843
O O4 0.123137 0.767793 0.000000
O O5 0.061119 0.500000 0.500000
O O6 0.000000 0.227411 0.500000
O O7 0.307653 0.795622 0.725270
O O8 0.408401 0.667361 0.718902
O O9 0.391114 0.000000 0.730220
O O10 0.371111 0.806716 0.000000
O O11 0.737160 0.500000 0.712793
O O12 0.740941 0.672011 0.000000
O O13 0.500000 0.500000 0.277685
O O14 0.563181 0.500000 0.000000
#
# Coordination Sequence:
#
# PCOD8200784 Si02
#       5
#     8   4   8   8   4
#     4   8  14  23  36  54  77 113 156 195 243 297
#     4   9  16  24  34  54  87 121 155 197 239 286
#     4   9  15  22  34  52  74 105 149 197 241 288
#     4   8  12  21  36  51  71 101 141 189 240 291
#     4   9  16  24  32  46  76 117 155 192 237 287
#
# _framework density 21.382314999999998
#
# number of rings (size 3 to 8) (size 9 to 14) (size 15 to 20)
#    0.000    3.500    1.250    1.500    0.000    1.000 
#    0.000    5.000    0.000    0.000    0.000    0.875 
#    0.000    2.000    0.000   12.000    0.000   18.750 
#
# Total GULP energy -396433.778887 kJ/mol
# GULP energy per Si atom -12388.555590 kJ/mol
# Density = 2.133365 g / cm^3
# Si number density = 21.382315 Si / 1000 Ang^3
#
#
#
# Elastic Constant Matrix: (Units=GPa)
#
#
# Indices 1 2 3 4 5 6 
#
# 1 205.0846 66.0754 48.7868 0.0000 0.0000 0.0000
# 2 66.0754 106.1831 14.4488 0.0000 0.0000 0.0000
# 3 48.7868 14.4488 61.3439 0.0000 0.0000 0.0000
# 4 0.0000 0.0000 0.0000 -1.5260 0.0000 0.0000
# 5 0.0000 0.0000 0.0000 0.0000 -4.6153 0.0000
# 6 0.0000 0.0000 0.0000 0.0000 0.0000 6.8023
#
#
#
# Elastic Compliance Matrix: (Units=1/GPa)
#
#
# Indices 1 2 3 4 5 6 
#
# 1 0.007284 -0.003868 -0.004882 0.000000 0.000000 0.000000
# 2 -0.003868 0.011784 0.000301 0.000000 0.000000 0.000000
# 3 -0.004882 0.000301 0.020113 0.000000 0.000000 0.000000
# 4 0.000000 0.000000 0.000000 -0.655321 0.000000 0.000000
# 5 0.000000 0.000000 0.000000 0.000000 -0.216669 0.000000
# 6 0.000000 0.000000 0.000000 0.000000 0.000000 0.147008
#
#
# Mechanical properties :
#
#
# Convention : Reuss Voigt Hill
#
# Bulk Modulus (GPa) = 44.87804 70.13706 57.50755
# Shear Modulus (GPa) = -7.55885 16.35224 4.39669
#
# Velocity S-wave (km/s) = -1.88222 2.76842 1.43551
# Velocity P-wave (km/s) = 4.03860 6.56441 5.44985
#
# Compressibility (1/GPa) = 0.02228261
#
# Stress axis : x y z
#
# Youngs Moduli (GPa) = 137.29587 84.86209 49.71921
#
# Poissons Ratio (x) = 0.32826 0.24270
# Poissons Ratio (y) = 0.53108 -0.01496
# Poissons Ratio (z) = 0.67021 -0.02553
#
# Static dielectric constant tensor:
#      x y z
#    x 4.174630 0.000000 0.000000 
#    y 0.000000 3.608690 0.000000 
#    z 0.000000 0.000000 3.409880 
# 
# 
# High freq. dielectric constant tensor:
#      x y z
#    x 1.838050 0.000000 0.000000 
#    y 0.000000 1.799700 0.000000 
#    z 0.000000 0.000000 1.792900 
# 
# From -- ./inp_files/12012.got.cif
#   From: 2010.03.12/outbox.cif.g09.slc.cpg/sg47_7_cif.got.tgz:12012.got - 2010.04.14 03:12:58.
