data_PCOD8200454
_publ_section_title
;
Structure prediction by ZEFSAII (Michael W. Deem and Ramdas Pophale) SiO2 
 PCOD8200454
Probable space group: P M M M
;
_chemical_formula_sum "Si O2"
_cell_formula_units_Z 56
_cell_length_a 21.645988
_cell_length_b 9.149132
_cell_length_c 15.033924
_cell_angle_alpha 90.000000
_cell_angle_beta 90.000000
_cell_angle_gamma 90.000000
_cell_volume 2977.348399
_symmetry_space_group_name_H-M "P M M M"
_symmetry_group_IT_number 47
_symmetry_cell_setting 'orthorhombic'
loop_
_space_group_symop_operation_xyz
x,y,z
-x,-y,z
x,-y,-z
-x,y,-z
-x,-y,-z
x,y,-z
-x,y,z
x,-y,z
loop_
_atom_site_type_symbol
_atom_site_label
_atom_site_fract_x
_atom_site_fract_y
_atom_site_fract_z
Si Si1 0.853514 0.673568 0.250012
Si Si2 0.621476 0.328289 0.898070
Si Si3 0.071212 0.831934 0.602366
Si Si4 0.500000 0.164181 0.105474
Si Si5 0.714924 0.327324 0.750000
Si Si6 0.621476 0.328290 0.601929
Si Si7 0.071220 0.831917 0.897629
Si Si8 0.500000 0.164178 0.394526
O O1 0.854657 0.500000 0.250031
O O2 0.886759 0.728361 0.338543
O O3 0.783879 0.737646 0.250003
O O4 0.886769 0.728329 0.161481
O O5 0.609208 0.500000 0.887943
O O6 0.560843 0.247446 0.860759
O O7 0.679117 0.275082 0.838653
O O8 0.636214 0.285968 0.000000
O O9 0.088006 0.802523 0.500000
O O10 0.000000 0.793359 0.620715
O O11 0.083794 0.000000 0.627564
O O12 0.500000 0.000000 0.143907
O O13 0.500000 0.164292 0.000000
O O14 0.719393 0.500000 0.750005
O O15 0.679116 0.275087 0.661347
O O16 0.636214 0.285968 0.500000
O O17 0.609206 0.500000 0.612056
O O18 0.560842 0.247446 0.639240
O O19 0.000000 0.793769 0.879026
O O20 0.083990 0.000000 0.872690
O O21 0.087851 0.802048 0.000000
O O22 0.500000 0.164277 0.500000
O O23 0.500000 0.000000 0.356088
#
# Coordination Sequence:
#
# PCOD8200454 Si02
#       8
#     8   8   8   4   8   8   8   4
#     4  11  22  34  52  81 114 142 171 216 271 316
#     4   9  17  32  53  71  91 126 169 205 239 291
#     4   9  19  37  59  80 104 139 181 219 257 308
#     4   9  17  30  49  74 101 123 150 201 263 304
#     4   9  20  35  49  71 101 134 171 204 241 297
#     4   9  17  32  53  71  91 126 169 205 239 291
#     4   9  19  37  59  80 104 139 181 219 257 308
#     4   9  17  30  49  74 101 123 150 201 263 304
#
# _framework density 18.808682999999998
#
# number of rings (size 3 to 8) (size 9 to 14) (size 15 to 20)
#    0.000    2.714    0.000    2.143    0.000    6.286 
#    0.000   10.714    0.000    3.429    0.000    0.000 
#    0.000    0.000    0.000    0.000    0.000    0.000 
#
# Total GULP energy -694389.872898 kJ/mol
# GULP energy per Si atom -12399.819159 kJ/mol
# Density = 1.876587 g / cm^3
# Si number density = 18.808683 Si / 1000 Ang^3
#
#
#
# Elastic Constant Matrix: (Units=GPa)
#
#
# Indices 1 2 3 4 5 6 
#
# 1 161.3050 59.4908 80.1708 0.0000 0.0000 0.0000
# 2 59.4908 69.8244 41.6977 0.0000 0.0000 0.0000
# 3 80.1708 41.6977 110.8407 0.0000 0.0000 0.0000
# 4 0.0000 0.0000 0.0000 23.5374 0.0000 0.0000
# 5 0.0000 0.0000 0.0000 0.0000 -6.9928 0.0000
# 6 0.0000 0.0000 0.0000 0.0000 0.0000 4.3743
#
#
#
# Elastic Compliance Matrix: (Units=1/GPa)
#
#
# Indices 1 2 3 4 5 6 
#
# 1 0.011438 -0.006197 -0.005942 0.000000 0.000000 0.000000
# 2 -0.006197 0.021829 -0.003730 0.000000 0.000000 0.000000
# 3 -0.005942 -0.003730 0.014723 0.000000 0.000000 0.000000
# 4 0.000000 0.000000 0.000000 0.042486 0.000000 0.000000
# 5 0.000000 0.000000 0.000000 0.000000 -0.143005 0.000000
# 6 0.000000 0.000000 0.000000 0.000000 0.000000 0.228608
#
#
# Mechanical properties :
#
#
# Convention : Reuss Voigt Hill
#
# Bulk Modulus (GPa) = 61.52823 78.29873 69.91348
# Shear Modulus (GPa) = 23.44854 14.89117 19.16986
#
# Velocity S-wave (km/s) = 3.53468 2.81680 3.19596
# Velocity P-wave (km/s) = 7.03152 7.23177 7.13235
#
# Compressibility (1/GPa) = 0.01625270
#
# Stress axis : x y z
#
# Youngs Moduli (GPa) = 87.42669 45.81114 67.92190
#
# Poissons Ratio (x) = 0.28389 0.40359
# Poissons Ratio (y) = 0.54178 0.25332
# Poissons Ratio (z) = 0.51948 0.17086
#
# Static dielectric constant tensor:
#      x y z
#    x 3.623610 0.000000 0.000000 
#    y 0.000000 3.290010 0.000000 
#    z 0.000000 0.000000 3.461190 
# 
# 
# High freq. dielectric constant tensor:
#      x y z
#    x 1.728760 0.000000 0.000000 
#    y 0.000000 1.711600 0.000000 
#    z 0.000000 0.000000 1.737470 
# 
# From -- ./inp_files/25250.got.cif
#   From: 2010.03.12/outbox.cif.g09.slc.cpg/sg47_13_cif.got.tgz:25250.got - 2010.04.14 03:12:58.
