data_PCOD8200829
_publ_section_title
;
Structure prediction by ZEFSAII (Michael W. Deem and Ramdas Pophale) SiO2 
 PCOD8200829
Probable space group: P M M M
;
_chemical_formula_sum "Si O2"
_cell_formula_units_Z 44
_cell_length_a 9.206733
_cell_length_b 7.577369
_cell_length_c 30.498406
_cell_angle_alpha 90.000000
_cell_angle_beta 90.000000
_cell_angle_gamma 90.000000
_cell_volume 2127.654601
_symmetry_space_group_name_H-M "P M M M"
_symmetry_group_IT_number 47
_symmetry_cell_setting 'orthorhombic'
loop_
_space_group_symop_operation_xyz
x,y,z
-x,-y,z
x,-y,-z
-x,y,-z
-x,-y,-z
x,y,-z
-x,y,z
x,-y,z
loop_
_atom_site_type_symbol
_atom_site_label
_atom_site_fract_x
_atom_site_fract_y
_atom_site_fract_z
Si Si1 0.163495 0.709446 0.298941
Si Si2 0.335893 0.710418 0.784907
Si Si3 0.329855 0.702462 0.385543
Si Si4 0.163217 0.289499 0.130775
Si Si5 0.671757 0.000000 0.548620
Si Si6 0.336935 0.290238 0.951666
O O1 0.160429 0.500000 0.296321
O O2 0.250368 0.785569 0.257244
O O3 0.244437 0.770081 0.342939
O O4 0.000000 0.785795 0.298775
O O5 0.500000 0.783499 0.784170
O O6 0.336410 0.500000 0.784325
O O7 0.256418 0.781852 0.828372
O O8 0.500000 0.725294 0.375595
O O9 0.292144 0.500000 0.397294
O O10 0.278180 0.823496 0.425990
O O11 0.163914 0.500000 0.130441
O O12 0.231624 0.213336 0.085773
O O13 0.000000 0.216663 0.134970
O O14 0.500000 0.000000 0.544480
O O15 0.742161 0.000000 0.500000
O O16 0.500000 0.221044 0.942941
O O17 0.336402 0.500000 0.949710
O O18 0.284010 0.227269 0.000000
#
# Coordination Sequence:
#
# PCOD8200829 Si02
#       6
#     8   8   8   8   4   8
#     4   9  16  26  41  61  85 112 143 181 226 276
#     4   9  15  22  33  49  70  96 127 165 212 268
#     4   9  17  30  49  72  98 129 164 201 243 290
#     4   9  15  20  26  38  57  81 112 155 209 266
#     4   9  18  32  51  77 105 131 165 209 248 283
#     4   8  13  20  27  33  44  68 106 153 206 264
#
# _framework density 20.680050000000001
#
# number of rings (size 3 to 8) (size 9 to 14) (size 15 to 20)
#    0.000    3.182    0.000    2.182    0.000    7.273 
#    0.000    4.091    0.000    1.091    0.000    2.545 
#    0.000    0.000    0.000    0.000    0.000    0.000 
#
# Total GULP energy -545435.110352 kJ/mol
# GULP energy per Si atom -12396.252508 kJ/mol
# Density = 2.063298 g / cm^3
# Si number density = 20.680050 Si / 1000 Ang^3
#
#
#
# Elastic Constant Matrix: (Units=GPa)
#
#
# Indices 1 2 3 4 5 6 
#
# 1 148.7474 17.2382 103.7541 0.0000 0.0000 0.0000
# 2 17.2382 42.9657 35.1316 0.0000 0.0000 0.0000
# 3 103.7541 35.1316 225.9325 0.0000 0.0000 0.0000
# 4 0.0000 0.0000 0.0000 -14.5725 0.0000 0.0000
# 5 0.0000 0.0000 0.0000 0.0000 19.0659 0.0000
# 6 0.0000 0.0000 0.0000 0.0000 0.0000 -1.9096
#
#
#
# Elastic Compliance Matrix: (Units=1/GPa)
#
#
# Indices 1 2 3 4 5 6 
#
# 1 0.009894 -0.000291 -0.004498 0.000000 0.000000 0.000000
# 2 -0.000291 0.026673 -0.004014 0.000000 0.000000 0.000000
# 3 -0.004498 -0.004014 0.007116 0.000000 0.000000 0.000000
# 4 0.000000 0.000000 0.000000 -0.068622 0.000000 0.000000
# 5 0.000000 0.000000 0.000000 0.000000 0.052450 0.000000
# 6 0.000000 0.000000 0.000000 0.000000 0.000000 -0.523662
#
#
# Mechanical properties :
#
#
# Convention : Reuss Voigt Hill
#
# Bulk Modulus (GPa) = 38.34900 81.09928 59.72414
# Shear Modulus (GPa) = -10.64165 17.95153 3.65494
#
# Velocity S-wave (km/s) = -2.27091 2.94948 1.33087
# Velocity P-wave (km/s) = 3.42172 7.13446 5.59503
#
# Compressibility (1/GPa) = 0.02607630
#
# Stress axis : x y z
#
# Youngs Moduli (GPa) = 101.06818 37.49080 140.52827
#
# Poissons Ratio (x) = 0.01093 0.63215
# Poissons Ratio (y) = 0.02946 0.56404
# Poissons Ratio (z) = 0.45465 0.15048
#
# Static dielectric constant tensor:
#      x y z
#    x 3.800420 0.000000 0.000000 
#    y 0.000000 3.147210 0.000000 
#    z 0.000000 0.000000 4.040080 
# 
# 
# High freq. dielectric constant tensor:
#      x y z
#    x 1.797480 0.000000 0.000000 
#    y 0.000000 1.766480 0.000000 
#    z 0.000000 0.000000 1.814790 
# 
# From -- ./inp_files/33897.got.cif
#   From: 2010.03.12/outbox.cif.g09.slc.cpg/sg47_17_cif.got.tgz:33897.got - 2010.04.14 03:12:58.
