data_PCOD8200207
_publ_section_title
;
Structure prediction by ZEFSAII (Michael W. Deem and Ramdas Pophale) SiO2 
 PCOD8200207
Probable space group: P M M M
;
_chemical_formula_sum "Si O2"
_cell_formula_units_Z 40
_cell_length_a 14.709968
_cell_length_b 8.122909
_cell_length_c 22.058436
_cell_angle_alpha 90.000000
_cell_angle_beta 90.000000
_cell_angle_gamma 90.000000
_cell_volume 2635.712477
_symmetry_space_group_name_H-M "P M M M"
_symmetry_group_IT_number 47
_symmetry_cell_setting 'orthorhombic'
loop_
_space_group_symop_operation_xyz
x,y,z
-x,-y,z
x,-y,-z
-x,y,-z
-x,-y,-z
x,y,-z
-x,y,z
x,-y,z
loop_
_atom_site_type_symbol
_atom_site_label
_atom_site_fract_x
_atom_site_fract_y
_atom_site_fract_z
Si Si1 0.602488 0.690970 0.221123
Si Si2 0.713521 0.810118 0.888270
Si Si3 0.608366 0.000000 0.431049
Si Si4 0.400952 0.310158 0.000000
Si Si5 0.901531 0.804769 0.931064
Si Si6 0.392126 0.316891 0.641218
O O1 0.500000 0.760633 0.212571
O O2 0.603500 0.500000 0.204250
O O3 0.672306 0.785001 0.178119
O O4 0.636313 0.719785 0.289676
O O5 0.651936 0.729474 0.939019
O O6 0.816874 0.737476 0.890916
O O7 0.717805 0.000000 0.904480
O O8 0.646925 0.167574 0.399876
O O9 0.500000 0.000000 0.426841
O O10 0.642519 0.000000 0.500000
O O11 0.419574 0.500000 0.000000
O O12 0.500000 0.220348 0.000000
O O13 0.000000 0.735421 0.908080
O O14 0.905400 0.000000 0.927973
O O15 0.884803 0.746930 0.000000
O O16 0.500000 0.321510 0.636509
O O17 0.355612 0.500000 0.621267
#
# Coordination Sequence:
#
# PCOD8200207 Si02
#       6
#     8   8   4   4   8   8
#     4   9  18  31  43  56  79 113 143 166 203 252
#     4  11  20  29  45  66  78  94 133 176 210 246
#     4   9  16  24  38  60  82 105 138 179 216 243
#     4  11  23  35  42  51  78 112 131 159 212 261
#     4   8  14  27  45  61  78  98 121 158 210 261
#     4   8  15  27  40  54  77 109 143 175 207 246
#
# _framework density 15.176161
#
# number of rings (size 3 to 8) (size 9 to 14) (size 15 to 20)
#    0.000    2.800    1.000    3.300    1.400    4.000 
#    0.000    2.000    0.000    3.000    0.000    0.000 
#    0.000    0.000    0.000    0.000    0.000    2.000 
#
# Total GULP energy -495607.453933 kJ/mol
# GULP energy per Si atom -12390.186348 kJ/mol
# Density = 1.514162 g / cm^3
# Si number density = 15.176161 Si / 1000 Ang^3
#
#
#
# Elastic Constant Matrix: (Units=GPa)
#
#
# Indices 1 2 3 4 5 6 
#
# 1 93.6551 24.8516 39.1412 0.0000 0.0000 0.0000
# 2 24.8516 65.4633 39.9640 0.0000 0.0000 0.0000
# 3 39.1412 39.9640 88.1595 0.0000 0.0000 0.0000
# 4 0.0000 0.0000 0.0000 23.9723 0.0000 0.0000
# 5 0.0000 0.0000 0.0000 0.0000 6.5775 0.0000
# 6 0.0000 0.0000 0.0000 0.0000 0.0000 -34.5585
#
#
#
# Elastic Compliance Matrix: (Units=1/GPa)
#
#
# Indices 1 2 3 4 5 6 
#
# 1 0.013296 -0.001996 -0.004998 0.000000 0.000000 0.000000
# 2 -0.001996 0.021420 -0.008824 0.000000 0.000000 0.000000
# 3 -0.004998 -0.008824 0.017562 0.000000 0.000000 0.000000
# 4 0.000000 0.000000 0.000000 0.041715 0.000000 0.000000
# 5 0.000000 0.000000 0.000000 0.000000 0.152034 0.000000
# 6 0.000000 0.000000 0.000000 0.000000 0.000000 -0.028936
#
#
# Mechanical properties :
#
#
# Convention : Reuss Voigt Hill
#
# Bulk Modulus (GPa) = 48.44515 50.57683 49.51099
# Shear Modulus (GPa) = 19.56114 8.75299 14.15707
#
# Velocity S-wave (km/s) = 3.59407 2.40419 3.05757
# Velocity P-wave (km/s) = 7.01529 6.41137 6.72012
#
# Compressibility (1/GPa) = 0.02064190
#
# Stress axis : x y z
#
# Youngs Moduli (GPa) = 75.20993 46.68459 56.94041
#
# Poissons Ratio (x) = 0.09319 0.28461
# Poissons Ratio (y) = 0.15013 0.50243
# Poissons Ratio (z) = 0.37592 0.41194
#
# Static dielectric constant tensor:
#      x y z
#    x 3.014810 0.000000 0.000000 
#    y 0.000000 3.005610 0.000000 
#    z 0.000000 0.000000 2.857720 
# 
# 
# High freq. dielectric constant tensor:
#      x y z
#    x 1.541300 0.000000 0.000000 
#    y 0.000000 1.582610 0.000000 
#    z 0.000000 0.000000 1.560200 
# 
# From -- ./inp_files/10816.got.cif
#   From: 2010.03.12/outbox.cif.g09.slc.cpg/sg47_6_cif.got.tgz:10816.got - 2010.04.14 03:12:58.
