data_PCOD8200094
_publ_section_title
;
Structure prediction by ZEFSAII (Michael W. Deem and Ramdas Pophale) SiO2 
 PCOD8200094
Probable space group: P M M M
;
_chemical_formula_sum "Si O2"
_cell_formula_units_Z 40
_cell_length_a 7.618580
_cell_length_b 29.310159
_cell_length_c 9.476530
_cell_angle_alpha 90.000000
_cell_angle_beta 90.000000
_cell_angle_gamma 90.000000
_cell_volume 2116.126123
_symmetry_space_group_name_H-M "P M M M"
_symmetry_group_IT_number 47
_symmetry_cell_setting 'orthorhombic'
loop_
_space_group_symop_operation_xyz
x,y,z
-x,-y,z
x,-y,-z
-x,y,-z
-x,-y,-z
x,y,-z
-x,y,z
x,-y,z
loop_
_atom_site_type_symbol
_atom_site_label
_atom_site_fract_x
_atom_site_fract_y
_atom_site_fract_z
Si Si1 0.500000 0.749195 0.164510
Si Si2 0.500000 0.657336 0.337240
Si Si3 0.705322 0.000000 0.657360
Si Si4 0.207821 0.500000 0.158914
Si Si5 0.797483 0.096677 0.343143
Si Si6 0.202736 0.180848 0.836095
Si Si7 0.202450 0.586401 0.663171
O O1 0.500000 0.702327 0.246148
O O2 0.324019 0.776611 0.206953
O O3 0.500000 0.737927 0.000000
O O4 0.500000 0.671545 0.500000
O O5 0.675885 0.629326 0.300081
O O6 0.768215 0.952951 0.731217
O O7 0.500000 0.000000 0.653527
O O8 0.788029 0.000000 0.500000
O O9 0.272116 0.455296 0.241870
O O10 0.000000 0.500000 0.155006
O O11 0.285540 0.500000 0.000000
O O12 0.709090 0.097518 0.500000
O O13 0.720504 0.136827 0.246350
O O14 0.000000 0.106752 0.358216
O O15 0.000000 0.192459 0.798517
O O16 0.223339 0.169170 0.000000
O O17 0.223650 0.571969 0.500000
O O18 0.000000 0.599095 0.697175
#
# Coordination Sequence:
#
# PCOD8200094 Si02
#       7
#     4   4   4   4   8   8   8
#     4  10  22  38  55  74  99 130 164 206 257 308
#     4  10  22  37  53  78 104 131 172 214 254 302
#     4   9  17  27  42  69 102 132 159 192 240 293
#     4   9  17  30  51  80 109 139 178 217 249 288
#     4   9  17  30  49  72  97 127 163 201 241 289
#     4   9  19  36  55  74  98 129 164 203 250 302
#     4   9  18  34  54  75 105 142 173 206 252 301
#
# _framework density 18.902464999999999
#
# number of rings (size 3 to 8) (size 9 to 14) (size 15 to 20)
#    0.000    2.800    0.000    0.600    1.400    5.200 
#    0.000    2.500    0.000    3.000    0.000    0.000 
#    0.000    0.000    0.000    0.000    0.000    0.000 
#
# Total GULP energy -495818.258662 kJ/mol
# GULP energy per Si atom -12395.456467 kJ/mol
# Density = 1.885944 g / cm^3
# Si number density = 18.902465 Si / 1000 Ang^3
#
#
#
# Elastic Constant Matrix: (Units=GPa)
#
#
# Indices 1 2 3 4 5 6 
#
# 1 84.4651 64.8304 36.9784 0.0000 0.0000 0.0000
# 2 64.8304 191.2397 86.1158 0.0000 0.0000 0.0000
# 3 36.9784 86.1158 78.0861 0.0000 0.0000 0.0000
# 4 0.0000 0.0000 0.0000 19.3315 0.0000 0.0000
# 5 0.0000 0.0000 0.0000 0.0000 14.4543 0.0000
# 6 0.0000 0.0000 0.0000 0.0000 0.0000 24.7456
#
#
#
# Elastic Compliance Matrix: (Units=1/GPa)
#
#
# Indices 1 2 3 4 5 6 
#
# 1 0.016408 -0.004099 -0.003250 0.000000 0.000000 0.000000
# 2 -0.004099 0.011412 -0.010644 0.000000 0.000000 0.000000
# 3 -0.003250 -0.010644 0.026084 0.000000 0.000000 0.000000
# 4 0.000000 0.000000 0.000000 0.051729 0.000000 0.000000
# 5 0.000000 0.000000 0.000000 0.000000 0.069184 0.000000
# 6 0.000000 0.000000 0.000000 0.000000 0.000000 0.040411
#
#
# Mechanical properties :
#
#
# Convention : Reuss Voigt Hill
#
# Bulk Modulus (GPa) = 55.80933 81.07115 68.44024
# Shear Modulus (GPa) = 19.44125 22.76405 21.10265
#
# Velocity S-wave (km/s) = 3.21051 3.47405 3.34488
# Velocity P-wave (km/s) = 6.58272 7.68598 7.15564
#
# Compressibility (1/GPa) = 0.01791815
#
# Stress axis : x y z
#
# Youngs Moduli (GPa) = 60.94568 87.63007 38.33803
#
# Poissons Ratio (x) = 0.35920 0.12459
# Poissons Ratio (y) = 0.24982 0.40807
# Poissons Ratio (z) = 0.19805 0.93273
#
# Static dielectric constant tensor:
#      x y z
#    x 3.499920 0.000000 0.000000 
#    y 0.000000 3.472860 0.000000 
#    z 0.000000 0.000000 3.553350 
# 
# 
# High freq. dielectric constant tensor:
#      x y z
#    x 1.737300 0.000000 0.000000 
#    y 0.000000 1.731950 0.000000 
#    z 0.000000 0.000000 1.712760 
# 
# From -- ./inp_files/1898.got.cif
#   From: 2010.03.12/outbox.cif.g09.slc.cpg/sg47_1_cif.got.tgz:1898.got - 2010.04.14 03:12:58.
