data_PCOD8200708
_publ_section_title
;
Structure prediction by ZEFSAII (Michael W. Deem and Ramdas Pophale) SiO2 
 PCOD8200708
Probable space group: P M M M
;
_chemical_formula_sum "Si O2"
_cell_formula_units_Z 40
_cell_length_a 7.700358
_cell_length_b 9.797902
_cell_length_c 27.852027
_cell_angle_alpha 90.000000
_cell_angle_beta 90.000000
_cell_angle_gamma 90.000000
_cell_volume 2101.361714
_symmetry_space_group_name_H-M "P M M M"
_symmetry_group_IT_number 47
_symmetry_cell_setting 'orthorhombic'
loop_
_space_group_symop_operation_xyz
x,y,z
-x,-y,z
x,-y,-z
-x,y,-z
-x,-y,-z
x,y,-z
-x,y,z
x,-y,z
loop_
_atom_site_type_symbol
_atom_site_label
_atom_site_fract_x
_atom_site_fract_y
_atom_site_fract_z
Si Si1 0.298996 0.659411 0.875816
Si Si2 0.791465 0.346906 0.603029
Si Si3 0.295616 0.152644 0.211078
Si Si4 0.202185 0.151294 0.315509
Si Si5 0.000000 0.661025 0.053167
Si Si6 0.810192 0.661993 0.500000
O O1 0.500000 0.691507 0.889031
O O2 0.274363 0.500000 0.863869
O O3 0.231806 0.744145 0.829923
O O4 0.176171 0.706475 0.919650
O O5 0.726631 0.500000 0.614369
O O6 0.713199 0.249243 0.644321
O O7 0.717422 0.297099 0.550528
O O8 0.000000 0.344289 0.601611
O O9 0.500000 0.145275 0.210263
O O10 0.234358 0.211439 0.262390
O O11 0.217752 0.000000 0.202628
O O12 0.000000 0.142200 0.325811
O O13 0.286602 0.000000 0.319138
O O14 0.000000 0.500000 0.048337
O O15 0.000000 0.727894 0.000000
O O16 0.830894 0.500000 0.500000
O O17 0.000000 0.731084 0.500000
#
# Coordination Sequence:
#
# PCOD8200708 Si02
#       6
#     8   8   8   8   4   4
#     4   9  18  32  50  73  99 126 160 201 237 273
#     4   8  13  22  36  55  79 108 141 175 216 267
#     4   9  18  32  48  65  88 122 157 186 226 279
#     4   9  17  27  39  59  86 111 138 178 225 270
#     4   9  18  32  51  77 105 131 161 196 237 282
#     4   7  10  18  33  51  74 105 138 172 212 263
#
# _framework density 19.035277000000001
#
# number of rings (size 3 to 8) (size 9 to 14) (size 15 to 20)
#    0.000    3.400    0.000    1.200    1.400    1.200 
#    0.000    2.500    0.000    4.200    0.000    3.500 
#    0.000    5.600    0.000    0.000    0.000    0.000 
#
# Total GULP energy -495565.987471 kJ/mol
# GULP energy per Si atom -12389.149687 kJ/mol
# Density = 1.899195 g / cm^3
# Si number density = 19.035277 Si / 1000 Ang^3
#
#
#
# Elastic Constant Matrix: (Units=GPa)
#
#
# Indices 1 2 3 4 5 6 
#
# 1 40.8262 18.6533 40.6826 0.0000 0.0000 0.0000
# 2 18.6533 70.0833 81.8011 0.0000 0.0000 0.0000
# 3 40.6826 81.8011 209.8728 0.0000 0.0000 0.0000
# 4 0.0000 0.0000 0.0000 8.8858 0.0000 0.0000
# 5 0.0000 0.0000 0.0000 0.0000 -22.6121 0.0000
# 6 0.0000 0.0000 0.0000 0.0000 0.0000 8.6225
#
#
#
# Elastic Compliance Matrix: (Units=1/GPa)
#
#
# Indices 1 2 3 4 5 6 
#
# 1 0.030548 -0.002236 -0.005050 0.000000 0.000000 0.000000
# 2 -0.002236 0.026342 -0.009834 0.000000 0.000000 0.000000
# 3 -0.005050 -0.009834 0.009576 0.000000 0.000000 0.000000
# 4 0.000000 0.000000 0.000000 0.112539 0.000000 0.000000
# 5 0.000000 0.000000 0.000000 0.000000 -0.044224 0.000000
# 6 0.000000 0.000000 0.000000 0.000000 0.000000 0.115975
#
#
# Mechanical properties :
#
#
# Convention : Reuss Voigt Hill
#
# Bulk Modulus (GPa) = 31.03042 67.00625 49.01833
# Shear Modulus (GPa) = 16.90682 10.95560 13.93121
#
# Velocity S-wave (km/s) = 2.98347 2.40165 2.70823
# Velocity P-wave (km/s) = 5.31085 6.55500 5.96545
#
# Compressibility (1/GPa) = 0.03222645
#
# Stress axis : x y z
#
# Youngs Moduli (GPa) = 32.73539 37.96264 104.42285
#
# Poissons Ratio (x) = 0.08490 0.52732
# Poissons Ratio (y) = 0.07321 1.02685
# Poissons Ratio (z) = 0.16531 0.37331
#
# Static dielectric constant tensor:
#      x y z
#    x 3.167450 0.000000 0.000000 
#    y 0.000000 3.564550 0.000000 
#    z 0.000000 0.000000 3.900590 
# 
# 
# High freq. dielectric constant tensor:
#      x y z
#    x 1.715910 0.000000 0.000000 
#    y 0.000000 1.706850 0.000000 
#    z 0.000000 0.000000 1.746720 
# 
# From -- ./inp_files/33070.got.cif
#   From: 2010.03.12/outbox.cif.g09.slc.cpg/sg47_17_cif.got.tgz:33070.got - 2010.04.14 03:12:58.
