data_PCOD8200127
_publ_section_title
;
Structure prediction by ZEFSAII (Michael W. Deem and Ramdas Pophale) SiO2 
 PCOD8200127
Probable space group: P M M M
;
_chemical_formula_sum "Si O2"
_cell_formula_units_Z 52
_cell_length_a 15.087232
_cell_length_b 8.674671
_cell_length_c 20.103553
_cell_angle_alpha 90.000000
_cell_angle_beta 90.000000
_cell_angle_gamma 90.000000
_cell_volume 2631.088161
_symmetry_space_group_name_H-M "P M M M"
_symmetry_group_IT_number 47
_symmetry_cell_setting 'orthorhombic'
loop_
_space_group_symop_operation_xyz
x,y,z
-x,-y,z
x,-y,-z
-x,y,-z
-x,-y,-z
x,y,-z
-x,y,z
x,-y,z
loop_
_atom_site_type_symbol
_atom_site_label
_atom_site_fract_x
_atom_site_fract_y
_atom_site_fract_z
Si Si1 0.834124 0.318773 0.147948
Si Si2 0.101929 0.818814 0.281584
Si Si3 0.000000 0.316583 0.928711
Si Si4 0.597588 0.678421 0.799824
Si Si5 0.669192 0.180274 0.923301
Si Si6 0.601412 0.822886 0.576953
Si Si7 0.727308 0.680129 0.681545
O O1 0.837858 0.500000 0.162340
O O2 0.843157 0.231036 0.216852
O O3 0.915625 0.252291 0.107730
O O4 0.751063 0.279851 0.102788
O O5 0.175432 0.757314 0.334128
O O6 0.000000 0.750024 0.287286
O O7 0.093316 0.000000 0.287025
O O8 0.000000 0.500000 0.932529
O O9 0.000000 0.238883 0.000000
O O10 0.500000 0.700270 0.767021
O O11 0.615048 0.500000 0.817095
O O12 0.594363 0.774685 0.869417
O O13 0.674677 0.736160 0.749042
O O14 0.690258 0.000000 0.919759
O O15 0.644691 0.225889 0.000000
O O16 0.624807 0.798523 0.500000
O O17 0.500000 0.774752 0.590642
O O18 0.665489 0.714739 0.619013
O O19 0.616431 0.000000 0.597746
O O20 0.743596 0.500000 0.687312
#
# Coordination Sequence:
#
# PCOD8200127 Si02
#       7
#     8   8   4   8   8   8   8
#     4  11  20  34  55  77 104 139 183 234 292 354
#     4  11  23  38  58  84 116 152 193 240 291 347
#     4   9  18  30  47  73 101 131 172 225 286 351
#     4  10  22  39  58  82 111 146 191 240 292 351
#     4  11  24  39  54  75 105 143 189 240 296 355
#     4   9  19  37  62  94 132 171 205 235 277 338
#     4  11  22  37  61  91 122 157 197 242 291 342
#
# _framework density 19.763686
#
# number of rings (size 3 to 8) (size 9 to 14) (size 15 to 20)
#    0.000    1.615    2.308    3.231    0.000    5.231 
#    0.000    2.308    0.000    2.308    0.000    3.231 
#    0.000    0.000    0.000    0.000    0.000    0.000 
#
# Total GULP energy -644193.486290 kJ/mol
# GULP energy per Si atom -12388.336275 kJ/mol
# Density = 1.971870 g / cm^3
# Si number density = 19.763686 Si / 1000 Ang^3
#
#
#
# Elastic Constant Matrix: (Units=GPa)
#
#
# Indices 1 2 3 4 5 6 
#
# 1 144.2808 28.6493 34.6622 0.0000 0.0000 0.0000
# 2 28.6493 52.7048 24.8161 0.0000 0.0000 0.0000
# 3 34.6622 24.8161 74.8398 0.0000 0.0000 0.0000
# 4 0.0000 0.0000 0.0000 28.3367 0.0000 0.0000
# 5 0.0000 0.0000 0.0000 0.0000 26.6183 0.0000
# 6 0.0000 0.0000 0.0000 0.0000 0.0000 29.2515
#
#
#
# Elastic Compliance Matrix: (Units=1/GPa)
#
#
# Indices 1 2 3 4 5 6 
#
# 1 0.008223 -0.003172 -0.002757 0.000000 0.000000 0.000000
# 2 -0.003172 0.023707 -0.006392 0.000000 0.000000 0.000000
# 3 -0.002757 -0.006392 0.016758 0.000000 0.000000 0.000000
# 4 0.000000 0.000000 0.000000 0.035290 0.000000 0.000000
# 5 0.000000 0.000000 0.000000 0.000000 0.037568 0.000000
# 6 0.000000 0.000000 0.000000 0.000000 0.000000 0.034186
#
#
# Mechanical properties :
#
#
# Convention : Reuss Voigt Hill
#
# Bulk Modulus (GPa) = 41.58471 49.78673 45.68572
# Shear Modulus (GPa) = 26.54063 29.08781 27.81422
#
# Velocity S-wave (km/s) = 3.66853 3.84054 3.75552
# Velocity P-wave (km/s) = 6.24747 6.70164 6.47854
#
# Compressibility (1/GPa) = 0.02404730
#
# Stress axis : x y z
#
# Youngs Moduli (GPa) = 121.60953 42.18076 59.67215
#
# Poissons Ratio (x) = 0.13379 0.16450
# Poissons Ratio (y) = 0.38573 0.38143
# Poissons Ratio (z) = 0.33525 0.26962
#
# Static dielectric constant tensor:
#      x y z
#    x 4.041040 0.000000 0.000000 
#    y 0.000000 3.473160 0.000000 
#    z 0.000000 0.000000 3.566750 
# 
# 
# High freq. dielectric constant tensor:
#      x y z
#    x 1.786950 0.000000 0.000000 
#    y 0.000000 1.758940 0.000000 
#    z 0.000000 0.000000 1.750830 
# 
# From -- ./inp_files/30860.got.cif
#   From: 2010.03.12/outbox.cif.g09.slc.cpg/sg47_16_cif.got.tgz:30860.got - 2010.04.14 03:12:58.
