data_PCOD8200544
_publ_section_title
;
Structure prediction by ZEFSAII (Michael W. Deem and Ramdas Pophale) SiO2 
 PCOD8200544
Probable space group: P M M M
;
_chemical_formula_sum "Si O2"
_cell_formula_units_Z 44
_cell_length_a 32.706729
_cell_length_b 7.518636
_cell_length_c 9.027333
_cell_angle_alpha 90.000000
_cell_angle_beta 90.000000
_cell_angle_gamma 90.000000
_cell_volume 2219.911369
_symmetry_space_group_name_H-M "P M M M"
_symmetry_group_IT_number 47
_symmetry_cell_setting 'orthorhombic'
loop_
_space_group_symop_operation_xyz
x,y,z
-x,-y,z
x,-y,-z
-x,y,-z
-x,-y,-z
x,y,-z
-x,y,z
x,-y,z
loop_
_atom_site_type_symbol
_atom_site_label
_atom_site_fract_x
_atom_site_fract_y
_atom_site_fract_z
Si Si1 0.079603 0.788678 0.666408
Si Si2 0.543166 0.210718 0.665725
Si Si3 0.838633 0.202754 0.174455
Si Si4 0.685099 0.500000 0.823419
Si Si5 0.000000 0.787773 0.166991
Si Si6 0.631670 0.793877 0.676183
Si Si7 0.777312 0.500000 0.824884
O O1 0.079606 0.713099 0.500000
O O2 0.120523 0.724226 0.748092
O O3 0.040102 0.712080 0.751042
O O4 0.077840 0.000000 0.666593
O O5 0.541704 0.287186 0.500000
O O6 0.500000 0.271666 0.746018
O O7 0.586496 0.270448 0.736791
O O8 0.544533 0.000000 0.658958
O O9 0.800899 0.323204 0.229748
O O10 0.828777 0.000000 0.220418
O O11 0.845824 0.219857 0.000000
O O12 0.664761 0.678061 0.761064
O O13 0.731448 0.500000 0.762381
O O14 0.682489 0.500000 0.000000
O O15 0.000000 0.000000 0.169015
O O16 0.000000 0.715218 0.000000
O O17 0.634440 0.763121 0.500000
O O18 0.639785 0.000000 0.714995
O O19 0.775306 0.500000 0.000000
#
# Coordination Sequence:
#
# PCOD8200544 Si02
#       7
#     8   8   8   4   4   8   4
#     4   9  16  26  42  68 102 134 163 199 245 295
#     4   7  10  20  43  74 102 129 168 217 262 303
#     4   9  17  32  54  75  95 123 162 207 251 296
#     4  11  23  37  54  78 108 141 178 220 268 326
#     4   9  15  23  39  66  99 136 176 207 233 276
#     4   9  18  34  56  80 107 140 177 220 269 317
#     4   9  20  37  55  75  97 127 170 214 255 304
#
# _framework density 19.820613000000002
#
# number of rings (size 3 to 8) (size 9 to 14) (size 15 to 20)
#    0.000    3.182    0.000    2.727    0.000    4.364 
#    0.000    4.545    0.000    6.000    0.000    6.364 
#    0.000    0.000    0.000    0.000    0.000    0.000 
#
# Total GULP energy -545110.920238 kJ/mol
# GULP energy per Si atom -12388.884551 kJ/mol
# Density = 1.977550 g / cm^3
# Si number density = 19.820613 Si / 1000 Ang^3
#
#
#
# Elastic Constant Matrix: (Units=GPa)
#
#
# Indices 1 2 3 4 5 6 
#
# 1 226.1320 68.6927 61.9951 0.0000 0.0000 0.0000
# 2 68.6927 79.8755 29.5792 0.0000 0.0000 0.0000
# 3 61.9951 29.5792 72.4774 0.0000 0.0000 0.0000
# 4 0.0000 0.0000 0.0000 14.1236 0.0000 0.0000
# 5 0.0000 0.0000 0.0000 0.0000 27.1077 0.0000
# 6 0.0000 0.0000 0.0000 0.0000 0.0000 -48.5713
#
#
#
# Elastic Compliance Matrix: (Units=1/GPa)
#
#
# Indices 1 2 3 4 5 6 
#
# 1 0.006881 -0.004403 -0.004088 0.000000 0.000000 0.000000
# 2 -0.004403 0.017566 -0.003403 0.000000 0.000000 0.000000
# 3 -0.004088 -0.003403 0.018683 0.000000 0.000000 0.000000
# 4 0.000000 0.000000 0.000000 0.070804 0.000000 0.000000
# 5 0.000000 0.000000 0.000000 0.000000 0.036890 0.000000
# 6 0.000000 0.000000 0.000000 0.000000 0.000000 -0.020588
#
#
# Mechanical properties :
#
#
# Convention : Reuss Voigt Hill
#
# Bulk Modulus (GPa) = 51.70255 77.66879 64.68567
# Shear Modulus (GPa) = 31.15819 13.07987 22.11903
#
# Velocity S-wave (km/s) = 3.96916 2.57166 3.34422
# Velocity P-wave (km/s) = 6.86640 6.93461 6.90059
#
# Compressibility (1/GPa) = 0.01934141
#
# Stress axis : x y z
#
# Youngs Moduli (GPa) = 145.33454 56.92687 53.52396
#
# Poissons Ratio (x) = 0.25067 0.21883
# Poissons Ratio (y) = 0.63996 0.18212
# Poissons Ratio (z) = 0.59419 0.19370
#
# Static dielectric constant tensor:
#      x y z
#    x 4.093750 0.000000 0.000000 
#    y 0.000000 3.344810 0.000000 
#    z 0.000000 0.000000 3.291690 
# 
# 
# High freq. dielectric constant tensor:
#      x y z
#    x 1.786820 0.000000 0.000000 
#    y 0.000000 1.756860 0.000000 
#    z 0.000000 0.000000 1.730170 
# 
# From -- ./inp_files/13740.got.cif
#   From: 2010.03.12/outbox.cif.g09.slc.cpg/sg47_7_cif.got.tgz:13740.got - 2010.04.14 03:12:58.
