data_PCOD8200171
_publ_section_title
;
Structure prediction by ZEFSAII (Michael W. Deem and Ramdas Pophale) SiO2 
 PCOD8200171
Probable space group: P M M M
;
_chemical_formula_sum "Si O2"
_cell_formula_units_Z 64
_cell_length_a 8.888196
_cell_length_b 23.642541
_cell_length_c 15.131102
_cell_angle_alpha 90.000000
_cell_angle_beta 90.000000
_cell_angle_gamma 90.000000
_cell_volume 3179.642789
_symmetry_space_group_name_H-M "P M M M"
_symmetry_group_IT_number 47
_symmetry_cell_setting 'orthorhombic'
loop_
_space_group_symop_operation_xyz
x,y,z
-x,-y,z
x,-y,-z
-x,y,-z
-x,-y,-z
x,y,-z
-x,y,z
x,-y,z
loop_
_atom_site_type_symbol
_atom_site_label
_atom_site_fract_x
_atom_site_fract_y
_atom_site_fract_z
Si Si1 0.174280 0.666358 0.337482
Si Si2 0.676185 0.934744 0.599428
Si Si3 0.677789 0.676447 0.158565
Si Si4 0.669245 0.236218 0.597255
Si Si5 0.825656 0.214735 0.901928
Si Si6 0.824445 0.154093 0.275219
Si Si7 0.330333 0.563161 0.397696
Si Si8 0.832130 0.562895 0.104114
O O1 0.230086 0.692111 0.245805
O O2 0.270925 0.699396 0.411744
O O3 0.213457 0.600122 0.342046
O O4 0.000000 0.676606 0.352178
O O5 0.735589 0.918125 0.500000
O O6 0.500000 0.922593 0.601816
O O7 0.746599 0.900724 0.681610
O O8 0.713074 0.000000 0.617119
O O9 0.500000 0.679344 0.172897
O O10 0.730672 0.726643 0.093764
O O11 0.717378 0.612552 0.129730
O O12 0.671339 0.208414 0.500000
O O13 0.500000 0.233684 0.635831
O O14 0.785825 0.205939 0.661307
O O15 0.770890 0.170375 0.825244
O O16 0.000000 0.230088 0.884391
O O17 0.805692 0.186980 0.000000
O O18 0.000000 0.142010 0.275431
O O19 0.286824 0.565322 0.500000
O O20 0.500000 0.585199 0.382636
O O21 0.314240 0.500000 0.361133
O O22 0.779481 0.500000 0.137670
O O23 0.000000 0.576443 0.141938
O O24 0.841049 0.561035 0.000000
#
# Coordination Sequence:
#
# PCOD8200171 Si02
#       8
#     8   8   8   8   8   8   8   8
#     4  12  24  37  54  77 107 142 183 233 286 342
#     4   9  19  37  61  90 128 174 214 247 293 350
#     4  12  24  37  56  81 110 144 186 239 298 358
#     4  11  23  38  57  82 116 156 191 232 290 350
#     4  10  22  41  62  84 116 158 200 247 305 363
#     4  11  22  36  59  91 123 158 202 250 294 343
#     4   9  19  37  58  77 100 134 177 226 283 347
#     4   9  19  37  59  80 104 137 176 223 288 363
#
# _framework density 20.128049000000001
#
# number of rings (size 3 to 8) (size 9 to 14) (size 15 to 20)
#    0.000    1.625    1.250    5.250    0.000    8.250 
#    0.000    1.875    0.000    0.375    0.000    2.625 
#    0.000    0.000    0.000    0.000    0.000    0.000 
#
# Total GULP energy -793149.055717 kJ/mol
# GULP energy per Si atom -12392.953996 kJ/mol
# Density = 2.008224 g / cm^3
# Si number density = 20.128049 Si / 1000 Ang^3
#
#
#
# Elastic Constant Matrix: (Units=GPa)
#
#
# Indices 1 2 3 4 5 6 
#
# 1 67.8489 41.2094 32.3399 0.0000 0.0000 0.0000
# 2 41.2094 108.2018 47.1671 0.0000 0.0000 0.0000
# 3 32.3399 47.1671 105.4260 0.0000 0.0000 0.0000
# 4 0.0000 0.0000 0.0000 30.2346 0.0000 0.0000
# 5 0.0000 0.0000 0.0000 0.0000 16.4583 0.0000
# 6 0.0000 0.0000 0.0000 0.0000 0.0000 32.4846
#
#
#
# Elastic Compliance Matrix: (Units=1/GPa)
#
#
# Indices 1 2 3 4 5 6 
#
# 1 0.020113 -0.006175 -0.003407 0.000000 0.000000 0.000000
# 2 -0.006175 0.013377 -0.004091 0.000000 0.000000 0.000000
# 3 -0.003407 -0.004091 0.012361 0.000000 0.000000 0.000000
# 4 0.000000 0.000000 0.000000 0.033075 0.000000 0.000000
# 5 0.000000 0.000000 0.000000 0.000000 0.060760 0.000000
# 6 0.000000 0.000000 0.000000 0.000000 0.000000 0.030784
#
#
# Mechanical properties :
#
#
# Convention : Reuss Voigt Hill
#
# Bulk Modulus (GPa) = 54.03871 58.10105 56.06988
# Shear Modulus (GPa) = 24.51190 26.55285 25.53238
#
# Velocity S-wave (km/s) = 3.49348 3.63602 3.56546
# Velocity P-wave (km/s) = 6.57102 6.82318 6.69829
#
# Compressibility (1/GPa) = 0.01850525
#
# Stress axis : x y z
#
# Youngs Moduli (GPa) = 49.71880 74.75555 80.90235
#
# Poissons Ratio (x) = 0.46161 0.27565
# Poissons Ratio (y) = 0.30701 0.33094
# Poissons Ratio (z) = 0.16940 0.30579
#
# Static dielectric constant tensor:
#      x y z
#    x 3.553180 0.000000 0.000000 
#    y 0.000000 3.725730 0.000000 
#    z 0.000000 0.000000 3.872340 
# 
# 
# High freq. dielectric constant tensor:
#      x y z
#    x 1.779330 0.000000 0.000000 
#    y 0.000000 1.774710 0.000000 
#    z 0.000000 0.000000 1.783070 
# 
# From -- ./inp_files/7859.got.cif
#   From: 2010.03.12/outbox.cif.g09.slc.cpg/sg47_4_cif.got.tgz:7859.got - 2010.04.14 03:12:58.
