data_PCOD8200516
_publ_section_title
;
Structure prediction by ZEFSAII (Michael W. Deem and Ramdas Pophale) SiO2 
 PCOD8200516
Probable space group: P M M M
;
_chemical_formula_sum "Si O2"
_cell_formula_units_Z 32
_cell_length_a 8.684119
_cell_length_b 18.764761
_cell_length_c 9.982476
_cell_angle_alpha 90.000000
_cell_angle_beta 90.000000
_cell_angle_gamma 90.000000
_cell_volume 1626.698545
_symmetry_space_group_name_H-M "P M M M"
_symmetry_group_IT_number 47
_symmetry_cell_setting 'orthorhombic'
loop_
_space_group_symop_operation_xyz
x,y,z
-x,-y,z
x,-y,-z
-x,y,-z
-x,-y,-z
x,y,-z
-x,y,z
x,-y,z
loop_
_atom_site_type_symbol
_atom_site_label
_atom_site_fract_x
_atom_site_fract_y
_atom_site_fract_z
Si Si1 0.319572 0.693102 0.344805
Si Si2 0.178013 0.416616 0.848269
Si Si3 0.681490 0.081003 0.000000
Si Si4 0.817206 0.921322 0.500000
Si Si5 0.818123 0.163999 0.753908
O O1 0.263906 0.687316 0.500000
O O2 0.500000 0.708261 0.339547
O O3 0.281462 0.621277 0.264113
O O4 0.230536 0.754579 0.264744
O O5 0.207417 0.500000 0.830892
O O6 0.000000 0.397713 0.822816
O O7 0.224290 0.393253 0.000000
O O8 0.737030 0.126168 0.124382
O O9 0.500000 0.076637 0.000000
O O10 0.749804 0.000000 0.000000
O O11 0.756356 0.879238 0.372831
O O12 0.000000 0.925211 0.500000
O O13 0.744664 0.000000 0.500000
O O14 0.000000 0.159955 0.773683
#
# Coordination Sequence:
#
# PCOD8200516 Si02
#       5
#     8   8   4   4   8
#     4  11  24  40  59  87 126 165 201 245 301 364
#     4   9  20  40  65  92 121 155 200 251 300 354
#     4  11  25  43  61  87 124 161 198 245 305 369
#     4   9  18  34  59  89 116 145 192 251 301 346
#     4  11  22  39  63  89 119 157 203 253 300 352
#
# _framework density 19.671745000000001
#
# number of rings (size 3 to 8) (size 9 to 14) (size 15 to 20)
#    0.000    1.750    1.250    3.375    1.750    5.000 
#    0.000    3.750    0.000    3.000    0.000    0.000 
#    0.000    0.000    0.000    0.000    0.000    0.000 
#
# Total GULP energy -396826.733482 kJ/mol
# GULP energy per Si atom -12400.835421 kJ/mol
# Density = 1.962697 g / cm^3
# Si number density = 19.671745 Si / 1000 Ang^3
#
#
#
# Elastic Constant Matrix: (Units=GPa)
#
#
# Indices 1 2 3 4 5 6 
#
# 1 57.1550 24.9041 37.6592 0.0000 0.0000 0.0000
# 2 24.9041 102.3995 62.8550 0.0000 0.0000 0.0000
# 3 37.6592 62.8550 156.8610 0.0000 0.0000 0.0000
# 4 0.0000 0.0000 0.0000 45.6533 0.0000 0.0000
# 5 0.0000 0.0000 0.0000 0.0000 34.1501 0.0000
# 6 0.0000 0.0000 0.0000 0.0000 0.0000 29.6334
#
#
#
# Elastic Compliance Matrix: (Units=1/GPa)
#
#
# Indices 1 2 3 4 5 6 
#
# 1 0.021337 -0.002712 -0.004036 0.000000 0.000000 0.000000
# 2 -0.002712 0.013296 -0.004677 0.000000 0.000000 0.000000
# 3 -0.004036 -0.004677 0.009218 0.000000 0.000000 0.000000
# 4 0.000000 0.000000 0.000000 0.021904 0.000000 0.000000
# 5 0.000000 0.000000 0.000000 0.000000 0.029283 0.000000
# 6 0.000000 0.000000 0.000000 0.000000 0.000000 0.033746
#
#
# Mechanical properties :
#
#
# Convention : Reuss Voigt Hill
#
# Bulk Modulus (GPa) = 47.61461 63.02802 55.32131
# Shear Modulus (GPa) = 31.51925 34.62051 33.06988
#
# Velocity S-wave (km/s) = 4.00717 4.19968 4.10455
# Velocity P-wave (km/s) = 6.75773 7.45827 7.11663
#
# Compressibility (1/GPa) = 0.02100196
#
# Stress axis : x y z
#
# Youngs Moduli (GPa) = 46.86641 75.21140 108.48377
#
# Poissons Ratio (x) = 0.20397 0.43783
# Poissons Ratio (y) = 0.12710 0.50734
# Poissons Ratio (z) = 0.18915 0.35174
#
# Static dielectric constant tensor:
#      x y z
#    x 3.421550 0.000000 0.000000 
#    y 0.000000 3.669570 0.000000 
#    z 0.000000 0.000000 3.701440 
# 
# 
# High freq. dielectric constant tensor:
#      x y z
#    x 1.756020 0.000000 0.000000 
#    y 0.000000 1.777930 0.000000 
#    z 0.000000 0.000000 1.780390 
# 
# From -- ./inp_files/14830.got.cif
#   From: 2010.03.12/outbox.cif.g09.slc.cpg/sg47_8_cif.got.tgz:14830.got - 2010.04.14 03:12:58.
