data_PCOD8200542
_publ_section_title
;
Structure prediction by ZEFSAII (Michael W. Deem and Ramdas Pophale) SiO2 
 PCOD8200542
Probable space group: P M M M
;
_chemical_formula_sum "Si O2"
_cell_formula_units_Z 52
_cell_length_a 14.706778
_cell_length_b 22.997934
_cell_length_c 8.869228
_cell_angle_alpha 90.000000
_cell_angle_beta 90.000000
_cell_angle_gamma 90.000000
_cell_volume 2999.799162
_symmetry_space_group_name_H-M "P M M M"
_symmetry_group_IT_number 47
_symmetry_cell_setting 'orthorhombic'
loop_
_space_group_symop_operation_xyz
x,y,z
-x,-y,z
x,-y,-z
-x,y,-z
-x,-y,-z
x,y,-z
-x,y,z
x,-y,z
loop_
_atom_site_type_symbol
_atom_site_label
_atom_site_fract_x
_atom_site_fract_y
_atom_site_fract_z
Si Si1 0.393422 0.295111 0.675825
Si Si2 0.400292 0.164774 0.321300
Si Si3 0.605756 0.500000 0.321220
Si Si4 0.725480 0.935067 0.676904
Si Si5 0.901913 0.068760 0.832955
Si Si6 0.102970 0.432058 0.675639
Si Si7 0.284162 0.604722 0.822103
O O1 0.375720 0.308626 0.500000
O O2 0.500000 0.305698 0.712479
O O3 0.364326 0.229183 0.717581
O O4 0.328663 0.334015 0.778958
O O5 0.403709 0.158346 0.500000
O O6 0.500000 0.156760 0.251805
O O7 0.340747 0.112875 0.249835
O O8 0.500000 0.500000 0.272392
O O9 0.615598 0.500000 0.500000
O O10 0.655121 0.556306 0.257734
O O11 0.712936 0.937792 0.500000
O O12 0.826303 0.911995 0.713767
O O13 0.707149 0.000000 0.744802
O O14 0.000000 0.094618 0.783279
O O15 0.908896 0.000000 0.836175
O O16 0.876273 0.091610 0.000000
O O17 0.116869 0.418496 0.500000
O O18 0.117517 0.500000 0.707926
O O19 0.178843 0.396876 0.768995
O O20 0.000000 0.413866 0.724649
O O21 0.287197 0.595307 0.000000
#
# Coordination Sequence:
#
# PCOD8200542 Si02
#       7
#     8   8   4   8   8   8   8
#     4   9  18  34  54  70  89 128 176 210 237 284
#     4   8  15  29  48  69  93 124 164 202 235 282
#     4  11  23  37  52  71 100 137 171 200 234 285
#     4   9  16  25  42  71 100 121 147 193 249 293
#     4   8  14  25  40  58  84 120 156 185 220 275
#     4   9  18  34  56  78 101 133 171 204 234 282
#     4  12  23  33  50  78 107 131 157 201 256 296
#
# _framework density 17.334492999999998
#
# number of rings (size 3 to 8) (size 9 to 14) (size 15 to 20)
#    0.000    2.692    0.769    3.923    0.000    3.692 
#    0.000    4.615    0.000    2.308    0.000    4.308 
#    0.000    0.000    0.000    0.000    0.000    0.000 
#
# Total GULP energy -644400.986942 kJ/mol
# GULP energy per Si atom -12392.326672 kJ/mol
# Density = 1.729504 g / cm^3
# Si number density = 17.334493 Si / 1000 Ang^3
#
#
#
# Elastic Constant Matrix: (Units=GPa)
#
#
# Indices 1 2 3 4 5 6 
#
# 1 126.1568 66.2570 39.4794 0.0000 0.0000 0.0000
# 2 66.2570 95.3616 27.9921 0.0000 0.0000 0.0000
# 3 39.4794 27.9921 48.3383 0.0000 0.0000 0.0000
# 4 0.0000 0.0000 0.0000 7.5316 0.0000 0.0000
# 5 0.0000 0.0000 0.0000 0.0000 -0.0083 0.0000
# 6 0.0000 0.0000 0.0000 0.0000 0.0000 9.7108
#
#
#
# Elastic Compliance Matrix: (Units=1/GPa)
#
#
# Indices 1 2 3 4 5 6 
#
# 1 0.014261 -0.007819 -0.007120 0.000000 0.000000 0.000000
# 2 -0.007819 0.016920 -0.003413 0.000000 0.000000 0.000000
# 3 -0.007120 -0.003413 0.028479 0.000000 0.000000 0.000000
# 4 0.000000 0.000000 0.000000 0.132774 0.000000 0.000000
# 5 0.000000 0.000000 0.000000 0.000000********** 0.000000
# 6 0.000000 0.000000 0.000000 0.000000 0.000000 0.102978
#
#
# Mechanical properties :
#
#
# Convention : Reuss Voigt Hill
#
# Bulk Modulus (GPa) = 43.55775 59.70152 51.62964
# Shear Modulus (GPa) = -0.04143 12.52205 6.24031
#
# Velocity S-wave (km/s) = -0.15476 2.69062 1.89941
# Velocity P-wave (km/s) = 5.01502 6.64592 5.88722
#
# Compressibility (1/GPa) = 0.02295802
#
# Stress axis : x y z
#
# Youngs Moduli (GPa) = 70.12152 59.09992 35.11393
#
# Poissons Ratio (x) = 0.46208 0.25000
# Poissons Ratio (y) = 0.54825 0.11984
# Poissons Ratio (z) = 0.49925 0.20170
#
# Static dielectric constant tensor:
#      x y z
#    x 3.660160 0.000000 0.000000 
#    y 0.000000 3.243800 0.000000 
#    z 0.000000 0.000000 3.005620 
# 
# 
# High freq. dielectric constant tensor:
#      x y z
#    x 1.677090 0.000000 0.000000 
#    y 0.000000 1.645440 0.000000 
#    z 0.000000 0.000000 1.647060 
# 
# From -- ./inp_files/7078.got.cif
#   From: 2010.03.12/outbox.cif.g09.slc.cpg/sg47_4_cif.got.tgz:7078.got - 2010.04.14 03:12:58.
