data_PCOD8200880
_publ_section_title
;
Structure prediction by ZEFSAII (Michael W. Deem and Ramdas Pophale) SiO2 
 PCOD8200880
Probable space group: P M M M
;
_chemical_formula_sum "Si O2"
_cell_formula_units_Z 40
_cell_length_a 7.720430
_cell_length_b 13.323833
_cell_length_c 19.415980
_cell_angle_alpha 90.000000
_cell_angle_beta 90.000000
_cell_angle_gamma 90.000000
_cell_volume 1997.238762
_symmetry_space_group_name_H-M "P M M M"
_symmetry_group_IT_number 47
_symmetry_cell_setting 'orthorhombic'
loop_
_space_group_symop_operation_xyz
x,y,z
-x,-y,z
x,-y,-z
-x,y,-z
-x,-y,-z
x,y,-z
-x,y,z
x,-y,z
loop_
_atom_site_type_symbol
_atom_site_label
_atom_site_fract_x
_atom_site_fract_y
_atom_site_fract_z
Si Si1 0.203369 0.610282 0.202409
Si Si2 0.794100 0.888678 0.422042
Si Si3 0.500000 0.891098 0.081114
Si Si4 0.198543 0.747170 0.079097
Si Si5 0.206101 0.500000 0.577466
Si Si6 0.206174 0.696106 0.342645
O O1 0.289348 0.500000 0.207667
O O2 0.246375 0.653333 0.127090
O O3 0.272201 0.682395 0.263746
O O4 0.000000 0.599158 0.212505
O O5 0.730251 0.868451 0.500000
O O6 0.717205 0.800632 0.373074
O O7 0.000000 0.885933 0.420039
O O8 0.730219 0.000000 0.397877
O O9 0.323895 0.836068 0.103511
O O10 0.500000 0.000000 0.116902
O O11 0.500000 0.902743 0.000000
O O12 0.000000 0.782541 0.089769
O O13 0.232445 0.715108 0.000000
O O14 0.277880 0.500000 0.500000
O O15 0.275966 0.399695 0.614696
O O16 0.000000 0.500000 0.578833
O O17 0.000000 0.700278 0.346978
#
# Coordination Sequence:
#
# PCOD8200880 Si02
#       6
#     8   8   4   8   4   8
#     4   9  16  27  42  61  90 128 165 207 260 307
#     4   8  13  20  29  42  65 102 147 194 244 296
#     4   9  18  34  55  77 103 133 166 213 266 305
#     4   9  18  32  51  76 103 134 174 213 252 306
#     4   9  14  18  28  48  73 106 151 200 244 292
#     4   9  14  21  32  49  75 110 154 201 247 300
#
# _framework density 20.027650999999999
#
# number of rings (size 3 to 8) (size 9 to 14) (size 15 to 20)
#    0.000    3.200    1.000    1.200    0.000    3.200 
#    0.000    5.500    0.000    5.400    0.000    0.000 
#    0.000    0.000    0.000    4.500    0.000   19.200 
#
# Total GULP energy -495643.799515 kJ/mol
# GULP energy per Si atom -12391.094988 kJ/mol
# Density = 1.998207 g / cm^3
# Si number density = 20.027651 Si / 1000 Ang^3
#
#
#
# Elastic Constant Matrix: (Units=GPa)
#
#
# Indices 1 2 3 4 5 6 
#
# 1 39.3770 26.6145 19.8274 0.0000 0.0000 0.0000
# 2 26.6145 198.1995 92.3827 0.0000 0.0000 0.0000
# 3 19.8274 92.3827 134.4400 0.0000 0.0000 0.0000
# 4 0.0000 0.0000 0.0000 28.7658 0.0000 0.0000
# 5 0.0000 0.0000 0.0000 0.0000 -1.4639 0.0000
# 6 0.0000 0.0000 0.0000 0.0000 0.0000 216.3046
#
#
#
# Elastic Compliance Matrix: (Units=1/GPa)
#
#
# Indices 1 2 3 4 5 6 
#
# 1 0.028409 -0.002739 -0.002307 0.000000 0.000000 0.000000
# 2 -0.002739 0.007687 -0.004878 0.000000 0.000000 0.000000
# 3 -0.002307 -0.004878 0.011131 0.000000 0.000000 0.000000
# 4 0.000000 0.000000 0.000000 0.034764 0.000000 0.000000
# 5 0.000000 0.000000 0.000000 0.000000 -0.683114 0.000000
# 6 0.000000 0.000000 0.000000 0.000000 0.000000 0.004623
#
#
# Mechanical properties :
#
#
# Convention : Reuss Voigt Hill
#
# Bulk Modulus (GPa) = 36.52746 72.18508 54.35627
# Shear Modulus (GPa) = -8.81019 64.26742 27.72862
#
# Velocity S-wave (km/s) = -2.09966 5.67089 3.72495
# Velocity P-wave (km/s) = 3.52137 8.88817 6.76016
#
# Compressibility (1/GPa) = 0.02737666
#
# Stress axis : x y z
#
# Youngs Moduli (GPa) = 35.20028 130.08832 89.84087
#
# Poissons Ratio (x) = 0.35634 0.20730
# Poissons Ratio (y) = 0.09642 0.43827
# Poissons Ratio (z) = 0.08122 0.63461
#
# Static dielectric constant tensor:
#      x y z
#    x 3.130340 0.000000 0.000000 
#    y 0.000000 4.010500 0.000000 
#    z 0.000000 0.000000 3.685200 
# 
# 
# High freq. dielectric constant tensor:
#      x y z
#    x 1.737100 0.000000 0.000000 
#    y 0.000000 1.780590 0.000000 
#    z 0.000000 0.000000 1.771890 
# 
# From -- ./inp_files/29352.got.cif
#   From: 2010.03.12/outbox.cif.g09.slc.cpg/sg47_15_cif.got.tgz:29352.got - 2010.04.14 03:12:58.
