data_PCOD8200082
_publ_section_title
;
Structure prediction by ZEFSAII (Michael W. Deem and Ramdas Pophale) SiO2 
 PCOD8200082
Probable space group: P M M M
;
_chemical_formula_sum "Si O2"
_cell_formula_units_Z 64
_cell_length_a 24.122821
_cell_length_b 9.346633
_cell_length_c 14.772887
_cell_angle_alpha 90.000000
_cell_angle_beta 90.000000
_cell_angle_gamma 90.000000
_cell_volume 3330.800800
_symmetry_space_group_name_H-M "P M M M"
_symmetry_group_IT_number 47
_symmetry_cell_setting 'orthorhombic'
loop_
_space_group_symop_operation_xyz
x,y,z
-x,-y,z
x,-y,-z
-x,y,-z
-x,-y,-z
x,y,-z
-x,y,z
x,-y,z
loop_
_atom_site_type_symbol
_atom_site_label
_atom_site_fract_x
_atom_site_fract_y
_atom_site_fract_z
Si Si1 0.241410 0.341755 0.107395
Si Si2 0.882075 0.667850 0.104444
Si Si3 0.859035 0.669595 0.394938
Si Si4 0.261003 0.344042 0.606791
Si Si5 0.064481 0.835673 0.258907
Si Si6 0.380780 0.329592 0.396568
Si Si7 0.562950 0.165380 0.243400
Si Si8 0.345120 0.167839 0.103103
O O1 0.255196 0.500000 0.143647
O O2 0.180151 0.294898 0.139746
O O3 0.289169 0.237253 0.144551
O O4 0.240323 0.341084 0.000000
O O5 0.893982 0.500000 0.118087
O O6 0.924410 0.761185 0.162570
O O7 0.890122 0.710869 0.000000
O O8 0.870473 0.701504 0.500000
O O9 0.862910 0.500000 0.375488
O O10 0.797419 0.729763 0.365562
O O11 0.904234 0.753622 0.338436
O O12 0.260510 0.365245 0.500000
O O13 0.261564 0.500000 0.652998
O O14 0.319369 0.267358 0.632206
O O15 0.000000 0.824492 0.281068
O O16 0.084054 0.000000 0.254798
O O17 0.394652 0.288383 0.500000
O O18 0.382387 0.500000 0.384363
O O19 0.426162 0.256292 0.333476
O O20 0.500000 0.191431 0.211900
O O21 0.602221 0.217582 0.161665
O O22 0.573833 0.000000 0.266320
O O23 0.336250 0.000000 0.107225
O O24 0.355532 0.219229 0.000000
#
# Coordination Sequence:
#
# PCOD8200082 Si02
#       8
#     8   8   8   8   8   8   8   8
#     4   8  15  30  53  81 109 133 161 203 259 317
#     4   9  19  37  60  83 106 135 173 217 263 312
#     4   9  18  35  60  85 107 135 174 219 263 310
#     4   7  12  27  52  80 105 127 157 202 257 311
#     4  11  25  40  52  73 108 147 183 218 260 311
#     4   9  18  34  56  79 103 132 165 204 253 309
#     4  10  22  37  50  69 100 137 177 218 257 297
#     4   9  18  33  53  76 102 134 172 212 254 304
#
# _framework density 19.214597999999999
#
# number of rings (size 3 to 8) (size 9 to 14) (size 15 to 20)
#    0.000    3.000    0.000    2.625    0.000    5.000 
#    0.000   10.625    0.000    2.250    0.000    2.625 
#    0.000    0.000    0.000    0.000    0.000    0.000 
#
# Total GULP energy -793112.940234 kJ/mol
# GULP energy per Si atom -12392.389691 kJ/mol
# Density = 1.917086 g / cm^3
# Si number density = 19.214598 Si / 1000 Ang^3
#
#
#
# Elastic Constant Matrix: (Units=GPa)
#
#
# Indices 1 2 3 4 5 6 
#
# 1 74.3609 25.7359 12.4784 0.0000 0.0000 0.0000
# 2 25.7359 47.4150 23.8352 0.0000 0.0000 0.0000
# 3 12.4784 23.8352 51.7185 0.0000 0.0000 0.0000
# 4 0.0000 0.0000 0.0000 23.0774 0.0000 0.0000
# 5 0.0000 0.0000 0.0000 0.0000 33.2970 0.0000
# 6 0.0000 0.0000 0.0000 0.0000 0.0000 30.2607
#
#
#
# Elastic Compliance Matrix: (Units=1/GPa)
#
#
# Indices 1 2 3 4 5 6 
#
# 1 0.016560 -0.009085 0.000191 0.000000 0.000000 0.000000
# 2 -0.009085 0.032433 -0.012756 0.000000 0.000000 0.000000
# 3 0.000191 -0.012756 0.025168 0.000000 0.000000 0.000000
# 4 0.000000 0.000000 0.000000 0.043332 0.000000 0.000000
# 5 0.000000 0.000000 0.000000 0.000000 0.030033 0.000000
# 6 0.000000 0.000000 0.000000 0.000000 0.000000 0.033046
#
#
# Mechanical properties :
#
#
# Convention : Reuss Voigt Hill
#
# Bulk Modulus (GPa) = 32.40066 33.06593 32.73329
# Shear Modulus (GPa) = 21.35309 24.75666 23.05488
#
# Velocity S-wave (km/s) = 3.33723 3.59336 3.46766
# Velocity P-wave (km/s) = 5.63459 5.87047 5.75374
#
# Compressibility (1/GPa) = 0.03086357
#
# Stress axis : x y z
#
# Youngs Moduli (GPa) = 60.38667 30.83244 39.73319
#
# Poissons Ratio (x) = 0.28010 -0.00760
# Poissons Ratio (y) = 0.54858 0.50682
# Poissons Ratio (z) = -0.01155 0.39328
#
# Static dielectric constant tensor:
#      x y z
#    x 3.723020 0.000000 0.000000 
#    y 0.000000 3.308830 0.000000 
#    z 0.000000 0.000000 3.392620 
# 
# 
# High freq. dielectric constant tensor:
#      x y z
#    x 1.753630 0.000000 0.000000 
#    y 0.000000 1.717910 0.000000 
#    z 0.000000 0.000000 1.744160 
# 
# From -- ./inp_files/25556.got.cif
#   From: 2010.03.12/outbox.cif.g09.slc.cpg/sg47_13_cif.got.tgz:25556.got - 2010.04.14 03:12:58.
