data_PCOD8200478
_publ_section_title
;
Structure prediction by ZEFSAII (Michael W. Deem and Ramdas Pophale) SiO2 
 PCOD8200478
Probable space group: P M M M
;
_chemical_formula_sum "Si O2"
_cell_formula_units_Z 52
_cell_length_a 8.967248
_cell_length_b 14.399557
_cell_length_c 20.993748
_cell_angle_alpha 90.000000
_cell_angle_beta 90.000000
_cell_angle_gamma 90.000000
_cell_volume 2710.805087
_symmetry_space_group_name_H-M "P M M M"
_symmetry_group_IT_number 47
_symmetry_cell_setting 'orthorhombic'
loop_
_space_group_symop_operation_xyz
x,y,z
-x,-y,z
x,-y,-z
-x,y,-z
-x,-y,-z
x,y,-z
-x,y,z
x,-y,z
loop_
_atom_site_type_symbol
_atom_site_label
_atom_site_fract_x
_atom_site_fract_y
_atom_site_fract_z
Si Si1 0.823621 0.600570 0.131109
Si Si2 0.170084 0.891547 0.809447
Si Si3 0.823337 0.607137 0.500000
Si Si4 0.830716 0.608745 0.274655
Si Si5 0.177920 0.216184 0.930272
Si Si6 0.674330 0.895586 0.320090
Si Si7 0.326572 0.289314 0.384050
O O1 0.752656 0.500000 0.113652
O O2 0.780314 0.630627 0.202663
O O3 0.767591 0.678093 0.081761
O O4 0.000000 0.591129 0.128464
O O5 0.242430 0.846776 0.873100
O O6 0.251947 0.859891 0.745311
O O7 0.000000 0.858602 0.802007
O O8 0.184677 0.000000 0.819388
O O9 0.763930 0.500000 0.500000
O O10 0.769259 0.663815 0.439019
O O11 0.000000 0.605939 0.500000
O O12 0.821563 0.500000 0.289293
O O13 0.712579 0.661194 0.318242
O O14 0.000000 0.643585 0.287660
O O15 0.000000 0.209756 0.929984
O O16 0.238426 0.184799 0.000000
O O17 0.500000 0.897859 0.306931
O O18 0.711211 0.821228 0.376073
O O19 0.730885 0.000000 0.339079
O O20 0.500000 0.303308 0.399986
#
# Coordination Sequence:
#
# PCOD8200478 Si02
#       7
#     8   8   4   8   8   8   8
#     4   8  14  24  38  58  85 119 160 202 243 292
#     4   9  17  29  47  71  96 124 161 205 251 298
#     4  11  25  43  60  79 108 146 177 197 230 285
#     4   9  17  30  49  72  99 132 167 205 254 308
#     4   9  16  24  36  58  89 124 160 200 248 298
#     4   9  19  36  56  78 104 133 166 205 252 303
#     4  11  22  35  55  81 106 134 168 208 250 287
#
# _framework density 19.182493000000001
#
# number of rings (size 3 to 8) (size 9 to 14) (size 15 to 20)
#    0.000    2.692    0.000    3.000    0.000    5.846 
#    0.000    3.462    0.000    2.769    0.000    2.154 
#    0.000    0.000    0.000   13.231    0.000   10.769 
#
# Total GULP energy -644447.575031 kJ/mol
# GULP energy per Si atom -12393.222597 kJ/mol
# Density = 1.913883 g / cm^3
# Si number density = 19.182493 Si / 1000 Ang^3
#
#
#
# Elastic Constant Matrix: (Units=GPa)
#
#
# Indices 1 2 3 4 5 6 
#
# 1 33.4539 28.8505 26.5071 0.0000 0.0000 0.0000
# 2 28.8505 87.8816 64.1380 0.0000 0.0000 0.0000
# 3 26.5071 64.1380 95.9366 0.0000 0.0000 0.0000
# 4 0.0000 0.0000 0.0000 29.2201 0.0000 0.0000
# 5 0.0000 0.0000 0.0000 0.0000 2.6987 0.0000
# 6 0.0000 0.0000 0.0000 0.0000 0.0000 19.1754
#
#
#
# Elastic Compliance Matrix: (Units=1/GPa)
#
#
# Indices 1 2 3 4 5 6 
#
# 1 0.042776 -0.010579 -0.004747 0.000000 0.000000 0.000000
# 2 -0.010579 0.024837 -0.013682 0.000000 0.000000 0.000000
# 3 -0.004747 -0.013682 0.020882 0.000000 0.000000 0.000000
# 4 0.000000 0.000000 0.000000 0.034223 0.000000 0.000000
# 5 0.000000 0.000000 0.000000 0.000000 0.370550 0.000000
# 6 0.000000 0.000000 0.000000 0.000000 0.000000 0.052150
#
#
# Mechanical properties :
#
#
# Convention : Reuss Voigt Hill
#
# Bulk Modulus (GPa) = 32.80763 50.69593 41.75178
# Shear Modulus (GPa) = 8.14872 16.73726 12.44299
#
# Velocity S-wave (km/s) = 2.06330 2.95706 2.54965
# Velocity P-wave (km/s) = 4.77664 6.17613 5.52091
#
# Compressibility (1/GPa) = 0.03048071
#
# Stress axis : x y z
#
# Youngs Moduli (GPa) = 23.37767 40.26226 47.88817
#
# Poissons Ratio (x) = 0.42592 0.22731
# Poissons Ratio (y) = 0.24730 0.65520
# Poissons Ratio (z) = 0.11096 0.55086
#
# Static dielectric constant tensor:
#      x y z
#    x 3.145710 0.000000 0.000000 
#    y 0.000000 3.979480 0.000000 
#    z 0.000000 0.000000 3.613160 
# 
# 
# High freq. dielectric constant tensor:
#      x y z
#    x 1.699560 0.000000 0.000000 
#    y 0.000000 1.761600 0.000000 
#    z 0.000000 0.000000 1.738870 
# 
# From -- ./inp_files/29620.got.cif
#   From: 2010.03.12/outbox.cif.g09.slc.cpg/sg47_15_cif.got.tgz:29620.got - 2010.04.14 03:12:58.
