data_PCOD8200321
_publ_section_title
;
Structure prediction by ZEFSAII (Michael W. Deem and Ramdas Pophale) SiO2 
 PCOD8200321
Probable space group: P M M M
;
_chemical_formula_sum "Si O2"
_cell_formula_units_Z 40
_cell_length_a 18.476263
_cell_length_b 9.092695
_cell_length_c 16.755655
_cell_angle_alpha 90.000000
_cell_angle_beta 90.000000
_cell_angle_gamma 90.000000
_cell_volume 2814.933690
_symmetry_space_group_name_H-M "P M M M"
_symmetry_group_IT_number 47
_symmetry_cell_setting 'orthorhombic'
loop_
_space_group_symop_operation_xyz
x,y,z
-x,-y,z
x,-y,-z
-x,y,-z
-x,-y,-z
x,y,-z
-x,y,z
x,-y,z
loop_
_atom_site_type_symbol
_atom_site_label
_atom_site_fract_x
_atom_site_fract_y
_atom_site_fract_z
Si Si1 0.413888 0.833701 0.500000
Si Si2 0.417354 0.669834 0.654432
Si Si3 0.500000 0.831668 0.905513
Si Si4 0.634476 0.672789 0.172973
Si Si5 0.923548 0.164739 0.094634
Si Si6 0.233350 0.825459 0.907216
O O1 0.500000 0.818046 0.500000
O O2 0.383327 0.757952 0.580020
O O3 0.386978 0.000000 0.500000
O O4 0.500000 0.717826 0.671787
O O5 0.413753 0.500000 0.631306
O O6 0.371355 0.705706 0.732992
O O7 0.428902 0.752011 0.874446
O O8 0.500000 0.000000 0.875668
O O9 0.500000 0.823767 0.000000
O O10 0.629088 0.500000 0.155111
O O11 0.710833 0.735880 0.145696
O O12 0.846564 0.234241 0.121262
O O13 0.000000 0.244708 0.121733
O O14 0.926254 0.000000 0.128741
O O15 0.921129 0.158134 0.000000
O O16 0.240759 0.000000 0.892483
O O17 0.247443 0.789866 0.000000
#
# Coordination Sequence:
#
# PCOD8200321 Si02
#       6
#     4   8   4   8   8   8
#     4   9  17  27  43  67  83  93 118 157 202 245
#     4   9  17  31  45  57  76 103 132 161 197 242
#     4  11  23  35  45  56  73 102 141 183 220 243
#     4  11  21  32  44  59  79 107 141 172 204 243
#     4   7  10  19  37  58  77  99 130 167 204 244
#     4   9  17  28  41  59  82 107 138 175 213 246
#
# _framework density 14.209925
#
# number of rings (size 3 to 8) (size 9 to 14) (size 15 to 20)
#    0.000    2.800    1.000    3.600    0.000    6.400 
#    0.000    0.000    0.000    0.600    0.000    2.800 
#    0.000    0.000    0.000    0.900    0.000   18.200 
#
# Total GULP energy -495552.145397 kJ/mol
# GULP energy per Si atom -12388.803635 kJ/mol
# Density = 1.417758 g / cm^3
# Si number density = 14.209925 Si / 1000 Ang^3
#
#
#
# Elastic Constant Matrix: (Units=GPa)
#
#
# Indices 1 2 3 4 5 6 
#
# 1 122.8231 44.8028 48.7021 0.0000 0.0000 0.0000
# 2 44.8028 67.5114 47.1299 0.0000 0.0000 0.0000
# 3 48.7021 47.1299 78.6567 0.0000 0.0000 0.0000
# 4 0.0000 0.0000 0.0000 10.5767 0.0000 0.0000
# 5 0.0000 0.0000 0.0000 0.0000 -1.8889 0.0000
# 6 0.0000 0.0000 0.0000 0.0000 0.0000 -1.4586
#
#
#
# Elastic Compliance Matrix: (Units=1/GPa)
#
#
# Indices 1 2 3 4 5 6 
#
# 1 0.011567 -0.004601 -0.004405 0.000000 0.000000 0.000000
# 2 -0.004601 0.027294 -0.013505 0.000000 0.000000 0.000000
# 3 -0.004405 -0.013505 0.023533 0.000000 0.000000 0.000000
# 4 0.000000 0.000000 0.000000 0.094547 0.000000 0.000000
# 5 0.000000 0.000000 0.000000 0.000000 -0.529396 0.000000
# 6 0.000000 0.000000 0.000000 0.000000 0.000000 -0.685607
#
#
# Mechanical properties :
#
#
# Convention : Reuss Voigt Hill
#
# Bulk Modulus (GPa) = 57.56652 61.14010 59.35331
# Shear Modulus (GPa) = -4.96401 10.00293 2.51946
#
# Velocity S-wave (km/s) = -1.87108 2.65606 1.33300
# Velocity P-wave (km/s) = 5.99429 7.24748 6.65047
#
# Compressibility (1/GPa) = 0.01737121
#
# Stress axis : x y z
#
# Youngs Moduli (GPa) = 86.45436 36.63853 42.49342
#
# Poissons Ratio (x) = 0.16857 0.18719
# Poissons Ratio (y) = 0.39777 0.57388
# Poissons Ratio (z) = 0.38083 0.49481
#
# Static dielectric constant tensor:
#      x y z
#    x 3.122660 0.000000 0.000000 
#    y 0.000000 2.716840 0.000000 
#    z 0.000000 0.000000 2.643060 
# 
# 
# High freq. dielectric constant tensor:
#      x y z
#    x 1.530530 0.000000 0.000000 
#    y 0.000000 1.532850 0.000000 
#    z 0.000000 0.000000 1.514660 
# 
# From -- ./inp_files/28381.got.cif
#   From: 2010.03.12/outbox.cif.g09.slc.cpg/sg47_15_cif.got.tgz:28381.got - 2010.04.14 03:12:58.
