data_PCOD8200565
_publ_section_title
;
Structure prediction by ZEFSAII (Michael W. Deem and Ramdas Pophale) SiO2 
 PCOD8200565
Probable space group: P M M M
;
_chemical_formula_sum "Si O2"
_cell_formula_units_Z 48
_cell_length_a 8.774891
_cell_length_b 15.447901
_cell_length_c 18.937358
_cell_angle_alpha 90.000000
_cell_angle_beta 90.000000
_cell_angle_gamma 90.000000
_cell_volume 2567.027950
_symmetry_space_group_name_H-M "P M M M"
_symmetry_group_IT_number 47
_symmetry_cell_setting 'orthorhombic'
loop_
_space_group_symop_operation_xyz
x,y,z
-x,-y,z
x,-y,-z
-x,y,-z
-x,-y,-z
x,y,-z
-x,y,z
x,-y,z
loop_
_atom_site_type_symbol
_atom_site_label
_atom_site_fract_x
_atom_site_fract_y
_atom_site_fract_z
Si Si1 0.321310 0.899612 0.805219
Si Si2 0.180437 0.220520 0.917948
Si Si3 0.665204 0.500000 0.583093
Si Si4 0.317937 0.686895 0.580833
Si Si5 0.828559 0.408202 0.916168
Si Si6 0.820260 0.157433 0.338386
Si Si7 0.327424 0.000000 0.583441
O O1 0.500000 0.888203 0.793692
O O2 0.269979 0.853691 0.876952
O O3 0.233965 0.854935 0.741161
O O4 0.275059 0.000000 0.809676
O O5 0.242945 0.316002 0.891575
O O6 0.000000 0.213697 0.904072
O O7 0.217439 0.206262 0.000000
O O8 0.500000 0.500000 0.620444
O O9 0.638754 0.500000 0.500000
O O10 0.746894 0.409083 0.602514
O O11 0.273627 0.709673 0.500000
O O12 0.500000 0.691293 0.589536
O O13 0.236624 0.750613 0.634411
O O14 0.746911 0.500000 0.891911
O O15 0.000000 0.411531 0.887095
O O16 0.832014 0.404992 0.000000
O O17 0.000000 0.153126 0.340995
O O18 0.754963 0.084684 0.389357
O O19 0.500000 0.000000 0.612404
O O20 0.323508 0.000000 0.500000
#
# Coordination Sequence:
#
# PCOD8200565 Si02
#       7
#     8   8   4   8   8   8   4
#     4  11  24  41  59  75 100 142 188 231 278 333
#     4   9  18  33  56  86 115 141 175 222 272 322
#     4   7  12  26  51  81 109 143 186 223 260 313
#     4   9  17  32  56  84 114 148 185 224 267 321
#     4   7  10  20  43  76 110 140 168 201 249 310
#     4  12  24  37  56  81 110 144 183 230 281 330
#     4  11  23  39  59  83 112 145 182 223 269 327
#
# _framework density 18.698667
#
# number of rings (size 3 to 8) (size 9 to 14) (size 15 to 20)
#    0.000    2.500    0.833    5.250    0.000    4.667 
#    0.000    2.083    1.833    2.000    0.000    2.333 
#    0.000    0.000    0.000    0.000    0.000    0.000 
#
# Total GULP energy -594644.051979 kJ/mol
# GULP energy per Si atom -12388.417750 kJ/mol
# Density = 1.865611 g / cm^3
# Si number density = 18.698667 Si / 1000 Ang^3
#
#
#
# Elastic Constant Matrix: (Units=GPa)
#
#
# Indices 1 2 3 4 5 6 
#
# 1 75.4548 59.2386 35.2924 0.0000 0.0000 0.0000
# 2 59.2386 177.5437 67.3361 0.0000 0.0000 0.0000
# 3 35.2924 67.3361 67.6186 0.0000 0.0000 0.0000
# 4 0.0000 0.0000 0.0000 -66.6878 0.0000 0.0000
# 5 0.0000 0.0000 0.0000 0.0000 26.5006 0.0000
# 6 0.0000 0.0000 0.0000 0.0000 0.0000 24.4385
#
#
#
# Elastic Compliance Matrix: (Units=1/GPa)
#
#
# Indices 1 2 3 4 5 6 
#
# 1 0.019312 -0.004211 -0.005886 0.000000 0.000000 0.000000
# 2 -0.004211 0.009969 -0.007729 0.000000 0.000000 0.000000
# 3 -0.005886 -0.007729 0.025558 0.000000 0.000000 0.000000
# 4 0.000000 0.000000 0.000000 -0.014995 0.000000 0.000000
# 5 0.000000 0.000000 0.000000 0.000000 0.037735 0.000000
# 6 0.000000 0.000000 0.000000 0.000000 0.000000 0.040919
#
#
# Mechanical properties :
#
#
# Convention : Reuss Voigt Hill
#
# Bulk Modulus (GPa) = 52.12150 71.59462 61.85806
# Shear Modulus (GPa) = 31.14360 7.43360 19.28860
#
# Velocity S-wave (km/s) = 4.08554 1.99602 3.21526
# Velocity P-wave (km/s) = 7.08453 6.60938 6.85107
#
# Compressibility (1/GPa) = 0.01918594
#
# Stress axis : x y z
#
# Youngs Moduli (GPa) = 51.78060 100.31087 39.12675
#
# Poissons Ratio (x) = 0.42244 0.23030
# Poissons Ratio (y) = 0.21806 0.30242
# Poissons Ratio (z) = 0.30478 0.77534
#
# Static dielectric constant tensor:
#      x y z
#    x 3.174330 0.000000 0.000000 
#    y 0.000000 4.093060 0.000000 
#    z 0.000000 0.000000 3.153660 
# 
# 
# High freq. dielectric constant tensor:
#      x y z
#    x 1.695510 0.000000 0.000000 
#    y 0.000000 1.755160 0.000000 
#    z 0.000000 0.000000 1.696060 
# 
# From -- ./inp_files/26552.got.cif
#   From: 2010.03.12/outbox.cif.g09.slc.cpg/sg47_14_cif.got.tgz:26552.got - 2010.04.14 03:12:58.
