data_PCOD8200833
_publ_section_title
;
Structure prediction by ZEFSAII (Michael W. Deem and Ramdas Pophale) SiO2 
 PCOD8200833
Probable space group: P M M M
;
_chemical_formula_sum "Si O2"
_cell_formula_units_Z 52
_cell_length_a 27.940344
_cell_length_b 9.578771
_cell_length_c 15.191506
_cell_angle_alpha 90.000000
_cell_angle_beta 90.000000
_cell_angle_gamma 90.000000
_cell_volume 4065.765899
_symmetry_space_group_name_H-M "P M M M"
_symmetry_group_IT_number 47
_symmetry_cell_setting 'orthorhombic'
loop_
_space_group_symop_operation_xyz
x,y,z
-x,-y,z
x,-y,-z
-x,y,-z
-x,-y,-z
x,y,-z
-x,y,z
x,-y,z
loop_
_atom_site_type_symbol
_atom_site_label
_atom_site_fract_x
_atom_site_fract_y
_atom_site_fract_z
Si Si1 0.913855 0.843549 0.104629
Si Si2 0.367923 0.161088 0.101237
Si Si3 0.443142 0.657039 0.403142
Si Si4 0.000000 0.657414 0.105190
Si Si5 0.807481 0.843324 0.104718
Si Si6 0.445404 0.838375 0.756773
Si Si7 0.278348 0.657624 0.104779
O O1 0.860698 0.798151 0.136243
O O2 0.952950 0.735855 0.142462
O O3 0.925594 0.000000 0.138436
O O4 0.915821 0.842800 0.000000
O O5 0.415052 0.197909 0.156717
O O6 0.324902 0.257511 0.136107
O O7 0.352457 0.000000 0.113159
O O8 0.380392 0.193594 0.000000
O O9 0.424332 0.704252 0.500000
O O10 0.500000 0.664366 0.403298
O O11 0.425755 0.500000 0.383254
O O12 0.423106 0.757274 0.326884
O O13 0.000000 0.500000 0.141782
O O14 0.000000 0.658044 0.000000
O O15 0.768744 0.734775 0.143385
O O16 0.795848 0.000000 0.138417
O O17 0.805203 0.842439 0.000000
O O18 0.500000 0.792854 0.776558
O O19 0.442360 0.000000 0.732537
O O20 0.280259 0.500000 0.142122
O O21 0.276212 0.656228 0.000000
#
# Coordination Sequence:
#
# PCOD8200833 Si02
#       7
#     8   8   8   4   8   8   8
#     4   8  13  20  28  36  47  65  87 109 136 176
#     4   9  17  28  39  49  65  90 114 135 162 197
#     4   8  14  25  40  56  73  92 110 127 153 191
#     4   9  15  19  23  33  49  67  85 107 137 173
#     4   8  13  21  32  43  53  67  89 117 150 187
#     4   9  17  27  39  56  73  88 110 138 164 190
#     4   9  16  24  34  47  60  74  96 128 161 190
#
# _framework density 12.789719
#
# number of rings (size 3 to 8) (size 9 to 14) (size 15 to 20)
#    0.000    3.462    0.000    2.077    0.000    4.615 
#    0.000    6.154    0.000    0.000    0.000    4.308 
#    0.000    0.000    0.000    0.000    0.000    0.000 
#
# Total GULP energy -644415.240873 kJ/mol
# GULP energy per Si atom -12392.600786 kJ/mol
# Density = 1.276061 g / cm^3
# Si number density = 12.789719 Si / 1000 Ang^3
#
#
#
# Elastic Constant Matrix: (Units=GPa)
#
#
# Indices 1 2 3 4 5 6 
#
# 1 89.3577 59.2839 28.0095 0.0000 0.0000 0.0000
# 2 59.2839 87.7620 28.5190 0.0000 0.0000 0.0000
# 3 28.0095 28.5190 37.1530 0.0000 0.0000 0.0000
# 4 0.0000 0.0000 0.0000 11.7713 0.0000 0.0000
# 5 0.0000 0.0000 0.0000 0.0000 0.5501 0.0000
# 6 0.0000 0.0000 0.0000 0.0000 0.0000 16.0042
#
#
#
# Elastic Compliance Matrix: (Units=1/GPa)
#
#
# Indices 1 2 3 4 5 6 
#
# 1 0.021474 -0.012317 -0.006734 0.000000 0.000000 0.000000
# 2 -0.012317 0.022247 -0.007791 0.000000 0.000000 0.000000
# 3 -0.006734 -0.007791 0.037973 0.000000 0.000000 0.000000
# 4 0.000000 0.000000 0.000000 0.084952 0.000000 0.000000
# 5 0.000000 0.000000 0.000000 0.000000 1.817994 0.000000
# 6 0.000000 0.000000 0.000000 0.000000 0.000000 0.062484
#
#
# Mechanical properties :
#
#
# Convention : Reuss Voigt Hill
#
# Bulk Modulus (GPa) = 35.70302 49.54416 42.62359
# Shear Modulus (GPa) = 2.36951 12.22913 7.29932
#
# Velocity S-wave (km/s) = 1.36260 3.09555 2.39156
# Velocity P-wave (km/s) = 5.51830 7.18319 6.40507
#
# Compressibility (1/GPa) = 0.02800883
#
# Stress axis : x y z
#
# Youngs Moduli (GPa) = 46.56876 44.95076 26.33478
#
# Poissons Ratio (x) = 0.55367 0.17734
# Poissons Ratio (y) = 0.57360 0.20517
# Poissons Ratio (z) = 0.31359 0.35020
#
# Static dielectric constant tensor:
#      x y z
#    x 2.677520 0.000000 0.000000 
#    y 0.000000 2.795460 0.000000 
#    z 0.000000 0.000000 2.207930 
# 
# 
# High freq. dielectric constant tensor:
#      x y z
#    x 1.479100 0.000000 0.000000 
#    y 0.000000 1.495460 0.000000 
#    z 0.000000 0.000000 1.413570 
# 
# From -- ./inp_files/25710.got.cif
#   From: 2010.03.12/outbox.cif.g09.slc.cpg/sg47_13_cif.got.tgz:25710.got - 2010.04.14 03:12:58.
