data_PCOD8200527
_publ_section_title
;
Structure prediction by ZEFSAII (Michael W. Deem and Ramdas Pophale) SiO2 
 PCOD8200527
Probable space group: P M M M
;
_chemical_formula_sum "Si O2"
_cell_formula_units_Z 40
_cell_length_a 29.409095
_cell_length_b 7.734756
_cell_length_c 9.410291
_cell_angle_alpha 90.000000
_cell_angle_beta 90.000000
_cell_angle_gamma 90.000000
_cell_volume 2140.579352
_symmetry_space_group_name_H-M "P M M M"
_symmetry_group_IT_number 47
_symmetry_cell_setting 'orthorhombic'
loop_
_space_group_symop_operation_xyz
x,y,z
-x,-y,z
x,-y,-z
-x,y,-z
-x,-y,-z
x,y,-z
-x,y,z
x,-y,z
loop_
_atom_site_type_symbol
_atom_site_label
_atom_site_fract_x
_atom_site_fract_y
_atom_site_fract_z
Si Si1 0.632558 0.197786 0.848089
Si Si2 0.948983 0.191495 0.669065
Si Si3 0.888602 0.500000 0.668273
Si Si4 0.783798 0.500000 0.670089
Si Si5 0.450161 0.703139 0.660271
Si Si6 0.732292 0.798241 0.168357
O O1 0.590617 0.212008 0.743453
O O2 0.680939 0.267194 0.790775
O O3 0.642491 0.000000 0.877602
O O4 0.620111 0.286719 0.000000
O O5 0.947454 0.193263 0.500000
O O6 0.913390 0.330021 0.732081
O O7 0.000000 0.239138 0.719899
O O8 0.935512 0.000000 0.724599
O O9 0.893766 0.500000 0.500000
O O10 0.836432 0.500000 0.712897
O O11 0.775836 0.500000 0.500000
O O12 0.764175 0.324435 0.738102
O O13 0.447108 0.770896 0.500000
O O14 0.500000 0.754926 0.722814
O O15 0.443954 0.500000 0.666263
O O16 0.740930 0.000000 0.209411
O O17 0.740607 0.770570 0.000000
#
# Coordination Sequence:
#
# PCOD8200527 Si02
#       6
#     8   8   4   4   8   8
#     4   9  19  35  54  75  95 120 161 211 256 295
#     4   8  13  22  38  59  86 129 179 214 245 296
#     4   9  17  27  38  61 100 137 167 206 259 314
#     4  11  23  34  51  82 113 143 176 216 275 331
#     4   9  19  34  49  70 103 136 161 189 234 298
#     4   9  20  40  60  76 101 139 182 226 269 318
#
# _framework density 18.686530000000001
#
# number of rings (size 3 to 8) (size 9 to 14) (size 15 to 20)
#    0.000    3.000    0.000    3.000    1.400    4.800 
#    0.000    7.000    0.000    0.000    0.000    0.000 
#    0.000    6.400    0.000   17.600    0.000   14.400 
#
# Total GULP energy -495549.706549 kJ/mol
# GULP energy per Si atom -12388.742664 kJ/mol
# Density = 1.864400 g / cm^3
# Si number density = 18.686530 Si / 1000 Ang^3
#
#
#
# Elastic Constant Matrix: (Units=GPa)
#
#
# Indices 1 2 3 4 5 6 
#
# 1 159.1913 73.8477 46.6719 0.0000 0.0000 0.0000
# 2 73.8477 102.9244 34.4118 0.0000 0.0000 0.0000
# 3 46.6719 34.4118 49.1580 0.0000 0.0000 0.0000
# 4 0.0000 0.0000 0.0000 23.2115 0.0000 0.0000
# 5 0.0000 0.0000 0.0000 0.0000 -21.2285 0.0000
# 6 0.0000 0.0000 0.0000 0.0000 0.0000 31.6336
#
#
#
# Elastic Compliance Matrix: (Units=1/GPa)
#
#
# Indices 1 2 3 4 5 6 
#
# 1 0.010710 -0.005594 -0.006252 0.000000 0.000000 0.000000
# 2 -0.005594 0.015606 -0.005614 0.000000 0.000000 0.000000
# 3 -0.006252 -0.005614 0.030209 0.000000 0.000000 0.000000
# 4 0.000000 0.000000 0.000000 0.043082 0.000000 0.000000
# 5 0.000000 0.000000 0.000000 0.000000 -0.047106 0.000000
# 6 0.000000 0.000000 0.000000 0.000000 0.000000 0.031612
#
#
# Mechanical properties :
#
#
# Convention : Reuss Voigt Hill
#
# Bulk Modulus (GPa) = 46.28650 69.01517 57.65083
# Shear Modulus (GPa) = 39.60906 17.14615 28.37760
#
# Velocity S-wave (km/s) = 4.60897 3.03242 3.90117
# Velocity P-wave (km/s) = 7.29021 7.01955 7.15616
#
# Compressibility (1/GPa) = 0.02160457
#
# Stress axis : x y z
#
# Youngs Moduli (GPa) = 93.37318 64.07666 33.10320
#
# Poissons Ratio (x) = 0.35843 0.20697
# Poissons Ratio (y) = 0.52231 0.18584
# Poissons Ratio (z) = 0.58380 0.35972
#
# Static dielectric constant tensor:
#      x y z
#    x 0.775700 0.000000 0.000000 
#    y 0.000000 3.550960 0.000000 
#    z 0.000000 0.000000 3.214960 
# 
# 
# High freq. dielectric constant tensor:
#      x y z
#    x 1.730640 0.000000 0.000000 
#    y 0.000000 1.731720 0.000000 
#    z 0.000000 0.000000 1.681000 
# 
# From -- ./inp_files/13037.got.cif
#   From: 2010.03.12/outbox.cif.g09.slc.cpg/sg47_7_cif.got.tgz:13037.got - 2010.04.14 03:12:58.
