data_PCOD8200579
_publ_section_title
;
Structure prediction by ZEFSAII (Michael W. Deem and Ramdas Pophale) SiO2 
 PCOD8200579
Probable space group: P M M M
;
_chemical_formula_sum "Si O2"
_cell_formula_units_Z 52
_cell_length_a 17.697406
_cell_length_b 9.511620
_cell_length_c 17.134078
_cell_angle_alpha 90.000000
_cell_angle_beta 90.000000
_cell_angle_gamma 90.000000
_cell_volume 2884.196499
_symmetry_space_group_name_H-M "P M M M"
_symmetry_group_IT_number 47
_symmetry_cell_setting 'orthorhombic'
loop_
_space_group_symop_operation_xyz
x,y,z
-x,-y,z
x,-y,-z
-x,y,-z
-x,-y,-z
x,y,-z
-x,y,z
x,-y,z
loop_
_atom_site_type_symbol
_atom_site_label
_atom_site_fract_x
_atom_site_fract_y
_atom_site_fract_z
Si Si1 0.589540 0.166213 0.500000
Si Si2 0.860349 0.334473 0.808951
Si Si3 0.000000 0.668033 0.910265
Si Si4 0.692812 0.666631 0.192633
Si Si5 0.414797 0.156550 0.091561
Si Si6 0.087044 0.152031 0.500000
Si Si7 0.673993 0.661476 0.368182
Si Si8 0.850706 0.340647 0.368359
O O1 0.500000 0.193598 0.500000
O O2 0.625446 0.236469 0.576976
O O3 0.607608 0.000000 0.500000
O O4 0.859283 0.500000 0.820522
O O5 0.776684 0.274657 0.828235
O O6 0.875485 0.297737 0.718815
O O7 0.925395 0.271572 0.865722
O O8 0.000000 0.500000 0.907411
O O9 0.000000 0.721268 0.000000
O O10 0.694204 0.500000 0.187752
O O11 0.636415 0.726343 0.129675
O O12 0.663792 0.710731 0.278596
O O13 0.500000 0.178430 0.121141
O O14 0.387004 0.000000 0.114411
O O15 0.410407 0.178403 0.000000
O O16 0.105806 0.235956 0.577114
O O17 0.000000 0.122822 0.500000
O O18 0.129064 0.000000 0.500000
O O19 0.647177 0.500000 0.380683
O O20 0.762271 0.674079 0.386869
O O21 0.876231 0.500000 0.385343
#
# Coordination Sequence:
#
# PCOD8200579 Si02
#       8
#     4   8   4   8   8   4   8   8
#     4  11  24  37  50  74 104 135 176 217 250 302
#     4   8  16  30  48  74 105 134 167 209 254 300
#     4   9  16  26  44  73 107 138 166 201 251 303
#     4   9  18  33  53  79 106 131 168 216 261 308
#     4   9  19  35  52  72 102 138 172 208 253 305
#     4  11  24  35  44  70 108 133 160 205 254 298
#     4   9  19  36  55  75 101 131 166 212 263 308
#     4   9  18  34  55  75  96 129 173 211 244 297
#
# _framework density 18.029285000000002
#
# number of rings (size 3 to 8) (size 9 to 14) (size 15 to 20)
#    0.000    2.846    0.000    3.231    1.077    6.154 
#    0.000    7.692    0.000    0.000    0.000    0.000 
#    0.000    2.462    0.000    0.000    0.000    0.000 
#
# Total GULP energy -644506.834084 kJ/mol
# GULP energy per Si atom -12394.362194 kJ/mol
# Density = 1.798825 g / cm^3
# Si number density = 18.029285 Si / 1000 Ang^3
#
#
#
# Elastic Constant Matrix: (Units=GPa)
#
#
# Indices 1 2 3 4 5 6 
#
# 1 98.9440 42.7685 72.1110 0.0000 0.0000 0.0000
# 2 42.7685 57.1239 44.2741 0.0000 0.0000 0.0000
# 3 72.1110 44.2741 100.9851 0.0000 0.0000 0.0000
# 4 0.0000 0.0000 0.0000 5.0090 0.0000 0.0000
# 5 0.0000 0.0000 0.0000 0.0000 39.4715 0.0000
# 6 0.0000 0.0000 0.0000 0.0000 0.0000 10.9113
#
#
#
# Elastic Compliance Matrix: (Units=1/GPa)
#
#
# Indices 1 2 3 4 5 6 
#
# 1 0.022649 -0.006698 -0.013236 0.000000 0.000000 0.000000
# 2 -0.006698 0.028497 -0.007711 0.000000 0.000000 0.000000
# 3 -0.013236 -0.007711 0.022735 0.000000 0.000000 0.000000
# 4 0.000000 0.000000 0.000000 0.199639 0.000000 0.000000
# 5 0.000000 0.000000 0.000000 0.000000 0.025335 0.000000
# 6 0.000000 0.000000 0.000000 0.000000 0.000000 0.091648
#
#
# Mechanical properties :
#
#
# Convention : Reuss Voigt Hill
#
# Bulk Modulus (GPa) = 53.79219 63.92890 58.86055
# Shear Modulus (GPa) = 11.06223 17.60501 14.33362
#
# Velocity S-wave (km/s) = 2.47972 3.12824 2.82267
# Velocity P-wave (km/s) = 6.17248 6.97016 6.58341
#
# Compressibility (1/GPa) = 0.01859006
#
# Stress axis : x y z
#
# Youngs Moduli (GPa) = 44.15271 35.09154 43.98580
#
# Poissons Ratio (x) = 0.23505 0.58221
# Poissons Ratio (y) = 0.29574 0.33916
# Poissons Ratio (z) = 0.58441 0.27058
#
# Static dielectric constant tensor:
#      x y z
#    x 3.474710 0.000000 0.000000 
#    y 0.000000 3.091600 0.000000 
#    z 0.000000 0.000000 3.443720 
# 
# 
# High freq. dielectric constant tensor:
#      x y z
#    x 1.700970 0.000000 0.000000 
#    y 0.000000 1.669000 0.000000 
#    z 0.000000 0.000000 1.702840 
# 
# From -- ./inp_files/28554.got.cif
#   From: 2010.03.12/outbox.cif.g09.slc.cpg/sg47_15_cif.got.tgz:28554.got - 2010.04.14 03:12:58.
