data_PCOD8200515
_publ_section_title
;
Structure prediction by ZEFSAII (Michael W. Deem and Ramdas Pophale) SiO2 
 PCOD8200515
Probable space group: P M M M
;
_chemical_formula_sum "Si O2"
_cell_formula_units_Z 48
_cell_length_a 28.883885
_cell_length_b 8.847085
_cell_length_c 9.975765
_cell_angle_alpha 90.000000
_cell_angle_beta 90.000000
_cell_angle_gamma 90.000000
_cell_volume 2549.188889
_symmetry_space_group_name_H-M "P M M M"
_symmetry_group_IT_number 47
_symmetry_cell_setting 'orthorhombic'
loop_
_space_group_symop_operation_xyz
x,y,z
-x,-y,z
x,-y,-z
-x,y,-z
-x,-y,-z
x,y,-z
-x,y,z
x,-y,z
loop_
_atom_site_type_symbol
_atom_site_label
_atom_site_fract_x
_atom_site_fract_y
_atom_site_fract_z
Si Si1 0.449060 0.179061 0.000000
Si Si2 0.300810 0.678102 0.843593
Si Si3 0.051238 0.678511 0.149408
Si Si4 0.121494 0.825195 0.349319
Si Si5 0.771245 0.175746 0.346279
Si Si6 0.553464 0.320809 0.500000
Si Si7 0.393219 0.820485 0.254375
O O1 0.421711 0.237377 0.872492
O O2 0.500000 0.251974 0.000000
O O3 0.452371 0.000000 0.000000
O O4 0.309025 0.500000 0.834389
O O5 0.254693 0.722433 0.763347
O O6 0.341138 0.764539 0.764289
O O7 0.297655 0.729248 0.000000
O O8 0.051839 0.500000 0.148450
O O9 0.090291 0.732570 0.249138
O O10 0.000000 0.735447 0.193911
O O11 0.062182 0.739748 0.000000
O O12 0.109088 0.774977 0.500000
O O13 0.175024 0.791395 0.320513
O O14 0.110647 0.000000 0.328746
O O15 0.757890 0.219501 0.500000
O O16 0.759590 0.000000 0.322187
O O17 0.555391 0.500000 0.500000
O O18 0.500000 0.264199 0.500000
O O19 0.581076 0.257122 0.375505
O O20 0.393296 0.000000 0.273525
#
# Coordination Sequence:
#
# PCOD8200515 Si02
#       7
#     4   8   8   8   8   4   8
#     4   9  18  34  59  89 115 141 183 235 278 321
#     4  11  24  40  58  84 119 152 186 231 286 344
#     4   9  19  35  53  76 110 151 192 233 278 333
#     4   9  19  36  56  81 112 144 183 235 288 338
#     4   9  20  39  61  83 110 146 189 234 283 340
#     4  11  25  43  61  87 123 157 189 229 280 337
#     4  11  22  39  63  88 116 151 192 236 280 331
#
# _framework density 18.829518
#
# number of rings (size 3 to 8) (size 9 to 14) (size 15 to 20)
#    0.000    2.167    0.833    3.250    1.167    5.333 
#    0.000    7.500    0.000    2.000    0.000    0.000 
#    0.000    0.000    0.000    0.000    0.000    0.000 
#
# Total GULP energy -595134.891273 kJ/mol
# GULP energy per Si atom -12398.643568 kJ/mol
# Density = 1.878666 g / cm^3
# Si number density = 18.829518 Si / 1000 Ang^3
#
#
#
# Elastic Constant Matrix: (Units=GPa)
#
#
# Indices 1 2 3 4 5 6 
#
# 1 103.1570 35.9133 69.7035 0.0000 0.0000 0.0000
# 2 35.9133 57.0191 43.7549 0.0000 0.0000 0.0000
# 3 69.7035 43.7549 140.0734 0.0000 0.0000 0.0000
# 4 0.0000 0.0000 0.0000 30.8017 0.0000 0.0000
# 5 0.0000 0.0000 0.0000 0.0000 42.1512 0.0000
# 6 0.0000 0.0000 0.0000 0.0000 0.0000 32.9052
#
#
#
# Elastic Compliance Matrix: (Units=1/GPa)
#
#
# Indices 1 2 3 4 5 6 
#
# 1 0.015660 -0.005108 -0.006197 0.000000 0.000000 0.000000
# 2 -0.005108 0.024733 -0.005184 0.000000 0.000000 0.000000
# 3 -0.006197 -0.005184 0.011842 0.000000 0.000000 0.000000
# 4 0.000000 0.000000 0.000000 0.032466 0.000000 0.000000
# 5 0.000000 0.000000 0.000000 0.000000 0.023724 0.000000
# 6 0.000000 0.000000 0.000000 0.000000 0.000000 0.030390
#
#
# Mechanical properties :
#
#
# Convention : Reuss Voigt Hill
#
# Bulk Modulus (GPa) = 51.92870 66.55478 59.24174
# Shear Modulus (GPa) = 28.05641 31.23012 29.64327
#
# Velocity S-wave (km/s) = 3.86427 4.07698 3.97205
# Velocity P-wave (km/s) = 6.89553 7.58848 7.25029
#
# Compressibility (1/GPa) = 0.01925717
#
# Stress axis : x y z
#
# Youngs Moduli (GPa) = 63.85896 40.43130 84.44300
#
# Poissons Ratio (x) = 0.20651 0.52329
# Poissons Ratio (y) = 0.32617 0.43778
# Poissons Ratio (z) = 0.39574 0.20961
#
# Static dielectric constant tensor:
#      x y z
#    x 3.812020 0.000000 0.000000 
#    y 0.000000 3.290720 0.000000 
#    z 0.000000 0.000000 3.552430 
# 
# 
# High freq. dielectric constant tensor:
#      x y z
#    x 1.742070 0.000000 0.000000 
#    y 0.000000 1.721440 0.000000 
#    z 0.000000 0.000000 1.742330 
# 
# From -- ./inp_files/2563.got.cif
#   From: 2010.03.12/outbox.cif.g09.slc.cpg/sg47_2_cif.got.tgz:2563.got - 2010.04.14 03:12:58.
