data_PCOD8200020
_publ_section_title
;
Structure prediction by ZEFSAII (Michael W. Deem and Ramdas Pophale) SiO2 
 PCOD8200020
Probable space group: P M M M
;
_chemical_formula_sum "Si O2"
_cell_formula_units_Z 48
_cell_length_a 14.650305
_cell_length_b 9.640814
_cell_length_c 17.095335
_cell_angle_alpha 90.000000
_cell_angle_beta 90.000000
_cell_angle_gamma 90.000000
_cell_volume 2414.559912
_symmetry_space_group_name_H-M "P M M M"
_symmetry_group_IT_number 47
_symmetry_cell_setting 'orthorhombic'
loop_
_space_group_symop_operation_xyz
x,y,z
-x,-y,z
x,-y,-z
-x,y,-z
-x,-y,-z
x,y,-z
-x,y,z
x,-y,z
loop_
_atom_site_type_symbol
_atom_site_label
_atom_site_fract_x
_atom_site_fract_y
_atom_site_fract_z
Si Si1 0.287344 0.741873 0.659149
Si Si2 0.102714 0.661281 0.591663
Si Si3 0.163189 0.843886 0.091174
Si Si4 0.391145 0.000000 0.592678
Si Si5 0.312703 0.336426 0.837661
Si Si6 0.000000 0.657990 0.906466
Si Si7 0.500000 0.338250 0.913248
Si Si8 0.600051 0.500000 0.589994
O O1 0.179866 0.750366 0.636539
O O2 0.293319 0.706880 0.749751
O O3 0.338966 0.629415 0.609070
O O4 0.342610 0.876756 0.637414
O O5 0.114323 0.687741 0.500000
O O6 0.117482 0.500000 0.611705
O O7 0.000000 0.706720 0.617796
O O8 0.255671 0.761228 0.105102
O O9 0.085331 0.744539 0.127192
O O10 0.163134 0.000000 0.128690
O O11 0.146078 0.861366 0.000000
O O12 0.500000 0.000000 0.607132
O O13 0.370059 0.000000 0.500000
O O14 0.291599 0.500000 0.850899
O O15 0.414699 0.295496 0.860622
O O16 0.000000 0.500000 0.872904
O O17 0.000000 0.650897 0.000000
O O18 0.500000 0.500000 0.928198
O O19 0.500000 0.266991 0.000000
O O20 0.500000 0.500000 0.633370
O O21 0.578086 0.500000 0.500000
#
# Coordination Sequence:
#
# PCOD8200020 Si02
#       8
#     8   8   8   4   8   4   4   4
#     4  12  23  39  61  90 126 164 207 263 318 375
#     4   9  17  33  60  90 119 156 204 257 310 365
#     4  10  21  38  61  89 122 163 209 253 309 384
#     4  11  26  44  63  89 127 173 211 250 313 395
#     4  11  23  38  61  91 123 160 204 263 323 370
#     4   9  17  33  61  93 121 155 202 259 312 369
#     4   9  20  38  61  87 118 157 201 251 311 379
#     4  11  22  36  63  93 119 155 205 260 309 369
#
# _framework density 19.879398999999999
#
# number of rings (size 3 to 8) (size 9 to 14) (size 15 to 20)
#    0.000    1.667    1.667    3.750    3.500    4.000 
#    1.500    0.833    0.000    3.000    0.000    0.000 
#    0.000    0.000    0.000    0.000    0.000    0.000 
#
# Total GULP energy -594904.775311 kJ/mol
# GULP energy per Si atom -12393.849486 kJ/mol
# Density = 1.983415 g / cm^3
# Si number density = 19.879399 Si / 1000 Ang^3
#
#
#
# Elastic Constant Matrix: (Units=GPa)
#
#
# Indices 1 2 3 4 5 6 
#
# 1 174.0921 63.4205 33.6154 0.0000 0.0000 0.0000
# 2 63.4205 144.7173 16.8996 0.0000 0.0000 0.0000
# 3 33.6154 16.8996 56.6899 0.0000 0.0000 0.0000
# 4 0.0000 0.0000 0.0000 21.5477 0.0000 0.0000
# 5 0.0000 0.0000 0.0000 0.0000 109.9258 0.0000
# 6 0.0000 0.0000 0.0000 0.0000 0.0000 30.4077
#
#
#
# Elastic Compliance Matrix: (Units=1/GPa)
#
#
# Indices 1 2 3 4 5 6 
#
# 1 0.007477 -0.002858 -0.003581 0.000000 0.000000 0.000000
# 2 -0.002858 0.008252 -0.000765 0.000000 0.000000 0.000000
# 3 -0.003581 -0.000765 0.019992 0.000000 0.000000 0.000000
# 4 0.000000 0.000000 0.000000 0.046409 0.000000 0.000000
# 5 0.000000 0.000000 0.000000 0.000000 0.009097 0.000000
# 6 0.000000 0.000000 0.000000 0.000000 0.000000 0.032886
#
#
# Mechanical properties :
#
#
# Convention : Reuss Voigt Hill
#
# Bulk Modulus (GPa) = 46.92481 67.04114 56.98297
# Shear Modulus (GPa) = 34.33451 49.81384 42.07417
#
# Velocity S-wave (km/s) = 4.16040 5.01123 4.60550
# Velocity P-wave (km/s) = 6.83626 8.20246 7.55033
#
# Compressibility (1/GPa) = 0.02131069
#
# Stress axis : x y z
#
# Youngs Moduli (GPa) = 133.74456 121.18225 50.02107
#
# Poissons Ratio (x) = 0.34639 0.17915
# Poissons Ratio (y) = 0.38230 0.03827
# Poissons Ratio (z) = 0.47900 0.09271
#
# Static dielectric constant tensor:
#      x y z
#    x 4.270190 0.000000 0.000000 
#    y 0.000000 3.503590 0.000000 
#    z 0.000000 0.000000 3.310380 
# 
# 
# High freq. dielectric constant tensor:
#      x y z
#    x 1.795880 0.000000 0.000000 
#    y 0.000000 1.764410 0.000000 
#    z 0.000000 0.000000 1.759200 
# 
# From -- ./inp_files/28085.got.cif
#   From: 2010.03.12/outbox.cif.g09.slc.cpg/sg47_15_cif.got.tgz:28085.got - 2010.04.14 03:12:58.
