data_PCOD8200373
_publ_section_title
;
Structure prediction by ZEFSAII (Michael W. Deem and Ramdas Pophale) SiO2 
 PCOD8200373
Probable space group: P M M M
;
_chemical_formula_sum "Si O2"
_cell_formula_units_Z 36
_cell_length_a 20.581535
_cell_length_b 11.674246
_cell_length_c 9.080478
_cell_angle_alpha 90.000000
_cell_angle_beta 90.000000
_cell_angle_gamma 90.000000
_cell_volume 2181.801887
_symmetry_space_group_name_H-M "P M M M"
_symmetry_group_IT_number 47
_symmetry_cell_setting 'orthorhombic'
loop_
_space_group_symop_operation_xyz
x,y,z
-x,-y,z
x,-y,-z
-x,y,-z
-x,-y,-z
x,y,-z
-x,y,z
x,-y,z
loop_
_atom_site_type_symbol
_atom_site_label
_atom_site_fract_x
_atom_site_fract_y
_atom_site_fract_z
Si Si1 0.924108 0.500000 0.675083
Si Si2 0.377507 0.135446 0.338072
Si Si3 0.500000 0.136946 0.163402
Si Si4 0.121946 0.727262 0.824542
Si Si5 0.767906 0.867483 0.326473
Si Si6 0.000000 0.126615 0.825688
O O1 0.915971 0.500000 0.500000
O O2 0.887254 0.392647 0.744127
O O3 0.000000 0.500000 0.721004
O O4 0.386440 0.188874 0.500000
O O5 0.434671 0.186862 0.237629
O O6 0.305640 0.164521 0.278301
O O7 0.384818 0.000000 0.347992
O O8 0.500000 0.000000 0.167402
O O9 0.500000 0.185385 0.000000
O O10 0.188049 0.785557 0.771862
O O11 0.063515 0.807967 0.770296
O O12 0.122652 0.709757 0.000000
O O13 0.778349 0.845201 0.500000
O O14 0.783174 0.000000 0.289217
O O15 0.000000 0.000000 0.755209
O O16 0.000000 0.118571 0.000000
#
# Coordination Sequence:
#
# PCOD8200373 Si02
#       6
#     4   8   4   8   8   4
#     4  11  23  39  57  73  93 120 157 202 249 293
#     4   8  14  25  40  57  84 125 164 194 229 278
#     4   9  15  21  33  57  87 118 157 202 237 271
#     4  11  21  34  53  73  97 125 159 200 243 292
#     4   9  18  32  48  69  99 132 165 200 240 288
#     4   9  18  31  47  70  98 125 152 185 230 285
#
# _framework density 16.500122999999999
#
# number of rings (size 3 to 8) (size 9 to 14) (size 15 to 20)
#    0.000    2.556    1.111    3.333    0.000    4.000 
#    0.000    2.222    0.000    2.667    0.000    0.000 
#    0.000    0.889    0.000    9.333    0.000    7.111 
#
# Total GULP energy -446274.082866 kJ/mol
# GULP energy per Si atom -12396.502302 kJ/mol
# Density = 1.646257 g / cm^3
# Si number density = 16.500123 Si / 1000 Ang^3
#
#
#
# Elastic Constant Matrix: (Units=GPa)
#
#
# Indices 1 2 3 4 5 6 
#
# 1 143.1489 50.2153 62.2994 0.0000 0.0000 0.0000
# 2 50.2153 84.8312 38.8727 0.0000 0.0000 0.0000
# 3 62.2994 38.8727 85.0093 0.0000 0.0000 0.0000
# 4 0.0000 0.0000 0.0000 17.6300 0.0000 0.0000
# 5 0.0000 0.0000 0.0000 0.0000 27.6029 0.0000
# 6 0.0000 0.0000 0.0000 0.0000 0.0000 -1.3978
#
#
#
# Elastic Compliance Matrix: (Units=1/GPa)
#
#
# Indices 1 2 3 4 5 6 
#
# 1 0.011056 -0.003582 -0.006464 0.000000 0.000000 0.000000
# 2 -0.003582 0.016074 -0.004725 0.000000 0.000000 0.000000
# 3 -0.006464 -0.004725 0.018661 0.000000 0.000000 0.000000
# 4 0.000000 0.000000 0.000000 0.056722 0.000000 0.000000
# 5 0.000000 0.000000 0.000000 0.000000 0.036228 0.000000
# 6 0.000000 0.000000 0.000000 0.000000 0.000000 -0.715428
#
#
# Mechanical properties :
#
#
# Convention : Reuss Voigt Hill
#
# Bulk Modulus (GPa) = 61.54536 68.41823 64.98179
# Shear Modulus (GPa) = -9.22969 19.54048 5.15540
#
# Velocity S-wave (km/s) = -2.36767 3.44505 1.76953
# Velocity P-wave (km/s) = 5.46868 7.57494 6.60629
#
# Compressibility (1/GPa) = 0.01624818
#
# Stress axis : x y z
#
# Youngs Moduli (GPa) = 90.45245 62.21348 53.58714
#
# Poissons Ratio (x) = 0.22286 0.34639
# Poissons Ratio (y) = 0.32402 0.25319
# Poissons Ratio (z) = 0.58469 0.29395
#
# Static dielectric constant tensor:
#      x y z
#    x 3.296350 0.000000 0.000000 
#    y 0.000000 2.791640 0.000000 
#    z 0.000000 0.000000 3.125060 
# 
# 
# High freq. dielectric constant tensor:
#      x y z
#    x 1.646640 0.000000 0.000000 
#    y 0.000000 1.586980 0.000000 
#    z 0.000000 0.000000 1.633600 
# 
# From -- ./inp_files/10606.got.cif
#   From: 2010.03.12/outbox.cif.g09.slc.cpg/sg47_6_cif.got.tgz:10606.got - 2010.04.14 03:12:58.
