data_PCOD8200188
_publ_section_title
;
Structure prediction by ZEFSAII (Michael W. Deem and Ramdas Pophale) SiO2 
 PCOD8200188
Probable space group: P M M M
;
_chemical_formula_sum "Si O2"
_cell_formula_units_Z 52
_cell_length_a 12.187332
_cell_length_b 8.883440
_cell_length_c 24.737025
_cell_angle_alpha 90.000000
_cell_angle_beta 90.000000
_cell_angle_gamma 90.000000
_cell_volume 2678.164712
_symmetry_space_group_name_H-M "P M M M"
_symmetry_group_IT_number 47
_symmetry_cell_setting 'orthorhombic'
loop_
_space_group_symop_operation_xyz
x,y,z
-x,-y,z
x,-y,-z
-x,y,-z
-x,-y,-z
x,y,-z
-x,y,z
x,-y,z
loop_
_atom_site_type_symbol
_atom_site_label
_atom_site_fract_x
_atom_site_fract_y
_atom_site_fract_z
Si Si1 0.734533 0.325870 0.094778
Si Si2 0.500000 0.677110 0.138206
Si Si3 0.878618 0.167983 0.300258
Si Si4 0.121917 0.168715 0.826618
Si Si5 0.127515 0.821970 0.000000
Si Si6 0.500000 0.821409 0.257013
Si Si7 0.371775 0.165535 0.440942
Si Si8 0.325472 0.327178 0.666442
O O1 0.742702 0.500000 0.078921
O O2 0.606675 0.278448 0.102147
O O3 0.793862 0.292951 0.151508
O O4 0.801912 0.230682 0.051230
O O5 0.500000 0.500000 0.150850
O O6 0.500000 0.759312 0.196024
O O7 0.881759 0.188616 0.236663
O O8 0.802367 0.295399 0.325279
O O9 0.000000 0.192556 0.324194
O O10 0.836460 0.000000 0.314943
O O11 0.000000 0.195692 0.850896
O O12 0.161265 0.000000 0.842383
O O13 0.000000 0.760939 0.000000
O O14 0.123409 0.000000 0.000000
O O15 0.393401 0.770144 0.290336
O O16 0.500000 0.000000 0.253275
O O17 0.324967 0.216662 0.500000
O O18 0.500000 0.148322 0.445916
O O19 0.347577 0.288285 0.395631
O O20 0.322892 0.000000 0.425632
O O21 0.354808 0.500000 0.676433
#
# Coordination Sequence:
#
# PCOD8200188 Si02
#       8
#     8   4   8   8   4   4   8   8
#     4  11  23  39  60  85 115 149 183 224 276 335
#     4  10  24  43  59  83 120 154 184 225 280 334
#     4   9  19  36  57  80 109 150 196 236 277 334
#     4   9  18  34  56  82 111 142 181 230 279 325
#     4  11  25  44  65  88 114 143 182 235 282 321
#     4  12  24  38  58  84 116 156 199 236 272 327
#     4   9  18  34  56  80 107 143 188 234 281 339
#     4  12  23  34  53  83 118 151 185 233 291 342
#
# _framework density 19.41628
#
# number of rings (size 3 to 8) (size 9 to 14) (size 15 to 20)
#    0.000    1.769    0.769    5.538    0.000    8.000 
#    0.000    3.846    0.000    0.462    0.000    3.231 
#    0.000    0.000    0.000    0.000    0.000    0.000 
#
# Total GULP energy -644539.632990 kJ/mol
# GULP energy per Si atom -12394.992942 kJ/mol
# Density = 1.937209 g / cm^3
# Si number density = 19.416280 Si / 1000 Ang^3
#
#
#
# Elastic Constant Matrix: (Units=GPa)
#
#
# Indices 1 2 3 4 5 6 
#
# 1 119.3121 46.5208 51.5377 0.0000 0.0000 0.0000
# 2 46.5208 92.1358 43.9265 0.0000 0.0000 0.0000
# 3 51.5377 43.9265 86.9943 0.0000 0.0000 0.0000
# 4 0.0000 0.0000 0.0000 28.8369 0.0000 0.0000
# 5 0.0000 0.0000 0.0000 0.0000 13.4171 0.0000
# 6 0.0000 0.0000 0.0000 0.0000 0.0000 27.2433
#
#
#
# Elastic Compliance Matrix: (Units=1/GPa)
#
#
# Indices 1 2 3 4 5 6 
#
# 1 0.012081 -0.003540 -0.005370 0.000000 0.000000 0.000000
# 2 -0.003540 0.015332 -0.005645 0.000000 0.000000 0.000000
# 3 -0.005370 -0.005645 0.017526 0.000000 0.000000 0.000000
# 4 0.000000 0.000000 0.000000 0.034678 0.000000 0.000000
# 5 0.000000 0.000000 0.000000 0.000000 0.074532 0.000000
# 6 0.000000 0.000000 0.000000 0.000000 0.000000 0.036706
#
#
# Mechanical properties :
#
#
# Convention : Reuss Voigt Hill
#
# Bulk Modulus (GPa) = 63.16699 64.71248 63.93973
# Shear Modulus (GPa) = 22.19848 24.32993 23.26421
#
# Velocity S-wave (km/s) = 3.38493 3.54371 3.46523
# Velocity P-wave (km/s) = 6.91958 7.08133 7.00092
#
# Compressibility (1/GPa) = 0.01583105
#
# Stress axis : x y z
#
# Youngs Moduli (GPa) = 82.77383 65.22324 57.05701
#
# Poissons Ratio (x) = 0.23088 0.30638
# Poissons Ratio (y) = 0.29301 0.32206
# Poissons Ratio (z) = 0.44448 0.36816
#
# Static dielectric constant tensor:
#      x y z
#    x 2.152340 0.000000 0.000000 
#    y 0.000000 3.472430 0.000000 
#    z 0.000000 0.000000 3.921220 
# 
# 
# High freq. dielectric constant tensor:
#      x y z
#    x 1.754560 0.000000 0.000000 
#    y 0.000000 1.749190 0.000000 
#    z 0.000000 0.000000 1.751320 
# 
# From -- ./inp_files/33604.got.cif
#   From: 2010.03.12/outbox.cif.g09.slc.cpg/sg47_17_cif.got.tgz:33604.got - 2010.04.14 03:12:58.
