data_PCOD8200233
_publ_section_title
;
Structure prediction by ZEFSAII (Michael W. Deem and Ramdas Pophale) SiO2 
 PCOD8200233
Probable space group: P M M M
;
_chemical_formula_sum "Si O2"
_cell_formula_units_Z 64
_cell_length_a 31.464912
_cell_length_b 8.875295
_cell_length_c 14.152639
_cell_angle_alpha 90.000000
_cell_angle_beta 90.000000
_cell_angle_gamma 90.000000
_cell_volume 3952.271291
_symmetry_space_group_name_H-M "P M M M"
_symmetry_group_IT_number 47
_symmetry_cell_setting 'orthorhombic'
loop_
_space_group_symop_operation_xyz
x,y,z
-x,-y,z
x,-y,-z
-x,y,-z
-x,-y,-z
x,y,-z
-x,y,z
x,-y,z
loop_
_atom_site_type_symbol
_atom_site_label
_atom_site_fract_x
_atom_site_fract_y
_atom_site_fract_z
Si Si1 0.160208 0.674295 0.106448
Si Si2 0.128091 0.178028 0.714832
Si Si3 0.741040 0.674609 0.107074
Si Si4 0.363052 0.325796 0.612580
Si Si5 0.455091 0.678582 0.605528
Si Si6 0.793578 0.324451 0.610442
Si Si7 0.046794 0.820984 0.605961
Si Si8 0.285737 0.176519 0.288656
O O1 0.149085 0.500000 0.120558
O O2 0.131654 0.772451 0.176496
O O3 0.209505 0.702839 0.129181
O O4 0.149602 0.725646 0.000000
O O5 0.165361 0.244783 0.651835
O O6 0.083159 0.240940 0.675719
O O7 0.130783 0.000000 0.707867
O O8 0.729710 0.500000 0.121394
O O9 0.713471 0.774692 0.178707
O O10 0.730350 0.724444 0.000000
O O11 0.360020 0.304014 0.500000
O O12 0.353699 0.500000 0.638580
O O13 0.409971 0.272596 0.651322
O O14 0.330335 0.217644 0.664512
O O15 0.456541 0.744917 0.500000
O O16 0.500000 0.729353 0.656974
O O17 0.453738 0.500000 0.599720
O O18 0.791151 0.290825 0.500000
O O19 0.796915 0.500000 0.633614
O O20 0.751087 0.263432 0.657167
O O21 0.055892 0.761221 0.500000
O O22 0.000000 0.764889 0.639645
O O23 0.047659 0.000000 0.605357
O O24 0.277632 0.000000 0.296756
#
# Coordination Sequence:
#
# PCOD8200233 Si02
#       8
#     8   8   8   8   8   8   8   8
#     4   9  18  33  52  71  93 123 155 187 228 280
#     4  11  20  30  50  78  99 117 150 196 237 273
#     4   9  18  34  54  70  87 117 155 192 231 278
#     4   9  17  29  45  64  90 128 166 196 232 278
#     4   7  10  19  38  63  86 110 150 202 242 269
#     4  11  23  36  48  63  90 129 164 191 224 270
#     4   8  15  29  48  70  98 129 155 182 223 274
#     4  12  23  32  45  67  95 125 156 194 233 272
#
# _framework density 16.19322
#
# number of rings (size 3 to 8) (size 9 to 14) (size 15 to 20)
#    0.000    2.500    1.250    4.875    0.000    3.750 
#    0.000    1.250    0.000    2.250    0.000    8.750 
#    0.000    0.500    0.000    5.750    0.000    1.875 
#
# Total GULP energy -793133.601488 kJ/mol
# GULP energy per Si atom -12392.712523 kJ/mol
# Density = 1.615636 g / cm^3
# Si number density = 16.193220 Si / 1000 Ang^3
#
#
#
# Elastic Constant Matrix: (Units=GPa)
#
#
# Indices 1 2 3 4 5 6 
#
# 1 117.1895 22.1090 49.3077 0.0000 0.0000 0.0000
# 2 22.1090 39.6743 34.1466 0.0000 0.0000 0.0000
# 3 49.3077 34.1466 79.5856 0.0000 0.0000 0.0000
# 4 0.0000 0.0000 0.0000 18.9358 0.0000 0.0000
# 5 0.0000 0.0000 0.0000 0.0000 7.0101 0.0000
# 6 0.0000 0.0000 0.0000 0.0000 0.0000 17.8024
#
#
#
# Elastic Compliance Matrix: (Units=1/GPa)
#
#
# Indices 1 2 3 4 5 6 
#
# 1 0.011547 -0.000440 -0.006965 0.000000 0.000000 0.000000
# 2 -0.000440 0.039979 -0.016881 0.000000 0.000000 0.000000
# 3 -0.006965 -0.016881 0.024123 0.000000 0.000000 0.000000
# 4 0.000000 0.000000 0.000000 0.052810 0.000000 0.000000
# 5 0.000000 0.000000 0.000000 0.000000 0.142651 0.000000
# 6 0.000000 0.000000 0.000000 0.000000 0.000000 0.056172
#
#
# Mechanical properties :
#
#
# Convention : Reuss Voigt Hill
#
# Bulk Modulus (GPa) = 36.93091 49.73064 43.33077
# Shear Modulus (GPa) = 12.99109 17.47542 15.23325
#
# Velocity S-wave (km/s) = 2.83548 3.28865 3.07044
# Velocity P-wave (km/s) = 5.79447 6.72293 6.27589
#
# Compressibility (1/GPa) = 0.02707759
#
# Stress axis : x y z
#
# Youngs Moduli (GPa) = 86.60427 25.01306 41.45399
#
# Poissons Ratio (x) = 0.01100 0.28873
# Poissons Ratio (y) = 0.03809 0.69977
# Poissons Ratio (z) = 0.60321 0.42224
#
# Static dielectric constant tensor:
#      x y z
#    x 3.413420 0.000000 0.000000 
#    y 0.000000 2.844790 0.000000 
#    z 0.000000 0.000000 3.041360 
# 
# 
# High freq. dielectric constant tensor:
#      x y z
#    x 1.620400 0.000000 0.000000 
#    y 0.000000 1.603640 0.000000 
#    z 0.000000 0.000000 1.603970 
# 
# From -- ./inp_files/25858.got.cif
#   From: 2010.03.12/outbox.cif.g09.slc.cpg/sg47_13_cif.got.tgz:25858.got - 2010.04.14 03:12:58.
