data_PCOD8200146
_publ_section_title
;
Structure prediction by ZEFSAII (Michael W. Deem and Ramdas Pophale) SiO2 
 PCOD8200146
Probable space group: P M M M
;
_chemical_formula_sum "Si O2"
_cell_formula_units_Z 44
_cell_length_a 14.209981
_cell_length_b 17.591826
_cell_length_c 9.052429
_cell_angle_alpha 90.000000
_cell_angle_beta 90.000000
_cell_angle_gamma 90.000000
_cell_volume 2262.921795
_symmetry_space_group_name_H-M "P M M M"
_symmetry_group_IT_number 47
_symmetry_cell_setting 'orthorhombic'
loop_
_space_group_symop_operation_xyz
x,y,z
-x,-y,z
x,-y,-z
-x,y,-z
-x,-y,-z
x,y,-z
-x,y,z
x,-y,z
loop_
_atom_site_type_symbol
_atom_site_label
_atom_site_fract_x
_atom_site_fract_y
_atom_site_fract_z
Si Si1 0.891929 0.269939 0.671292
Si Si2 0.397888 0.409648 0.165893
Si Si3 0.783358 0.415630 0.671143
Si Si4 0.213840 0.861136 0.825128
Si Si5 0.888740 0.000000 0.328107
Si Si6 0.606832 0.911049 0.669910
O O1 0.871756 0.249749 0.500000
O O2 0.869091 0.358494 0.703711
O O3 0.827757 0.219532 0.777237
O O4 0.000000 0.255511 0.711279
O O5 0.500000 0.381263 0.226582
O O6 0.396256 0.500000 0.169220
O O7 0.311765 0.378685 0.262388
O O8 0.384100 0.379480 0.000000
O O9 0.763749 0.423473 0.500000
O O10 0.806948 0.500000 0.736535
O O11 0.152755 0.925665 0.747143
O O12 0.322471 0.864741 0.774305
O O13 0.207787 0.870984 0.000000
O O14 0.860374 0.000000 0.500000
O O15 0.000000 0.000000 0.306607
O O16 0.624099 0.888274 0.500000
O O17 0.500000 0.891187 0.716510
O O18 0.626579 0.000000 0.691958
#
# Coordination Sequence:
#
# PCOD8200146 Si02
#       6
#     8   8   8   8   4   8
#     4  10  22  40  59  78 107 150 192 233 289 350
#     4   8  14  26  46  73 105 140 174 209 259 327
#     4   9  18  33  55  83 109 136 181 239 291 340
#     4  12  24  37  57  87 119 149 185 234 283 329
#     4  11  23  39  60  83 110 149 193 232 274 331
#     4   9  18  35  61  89 117 153 193 229 270 328
#
# _framework density 19.44389
#
# number of rings (size 3 to 8) (size 9 to 14) (size 15 to 20)
#    0.000    2.273    0.909    3.545    0.000    5.091 
#    0.000    5.455    0.000    1.091    0.000    3.818 
#    0.000    0.000    0.000    0.000    0.000    0.000 
#
# Total GULP energy -545496.655396 kJ/mol
# GULP energy per Si atom -12397.651259 kJ/mol
# Density = 1.939963 g / cm^3
# Si number density = 19.443890 Si / 1000 Ang^3
#
#
#
# Elastic Constant Matrix: (Units=GPa)
#
#
# Indices 1 2 3 4 5 6 
#
# 1 126.7160 48.0874 60.9298 0.0000 0.0000 0.0000
# 2 48.0874 78.3575 44.8042 0.0000 0.0000 0.0000
# 3 60.9298 44.8042 98.1945 0.0000 0.0000 0.0000
# 4 0.0000 0.0000 0.0000 16.7131 0.0000 0.0000
# 5 0.0000 0.0000 0.0000 0.0000 9.5664 0.0000
# 6 0.0000 0.0000 0.0000 0.0000 0.0000 29.5448
#
#
#
# Elastic Compliance Matrix: (Units=1/GPa)
#
#
# Indices 1 2 3 4 5 6 
#
# 1 0.012224 -0.004282 -0.005631 0.000000 0.000000 0.000000
# 2 -0.004282 0.018767 -0.005906 0.000000 0.000000 0.000000
# 3 -0.005631 -0.005906 0.016373 0.000000 0.000000 0.000000
# 4 0.000000 0.000000 0.000000 0.059833 0.000000 0.000000
# 5 0.000000 0.000000 0.000000 0.000000 0.104532 0.000000
# 6 0.000000 0.000000 0.000000 0.000000 0.000000 0.033847
#
#
# Mechanical properties :
#
#
# Convention : Reuss Voigt Hill
#
# Bulk Modulus (GPa) = 63.59146 67.87896 65.73521
# Shear Modulus (GPa) = 17.70180 21.12800 19.41490
#
# Velocity S-wave (km/s) = 3.02056 3.29996 3.16335
# Velocity P-wave (km/s) = 6.70382 7.03602 6.87193
#
# Compressibility (1/GPa) = 0.01572538
#
# Stress axis : x y z
#
# Youngs Moduli (GPa) = 81.80315 53.28559 61.07627
#
# Poissons Ratio (x) = 0.22817 0.34395
# Poissons Ratio (y) = 0.35028 0.36071
# Poissons Ratio (z) = 0.46067 0.31470
#
# Static dielectric constant tensor:
#      x y z
#    x 3.875270 0.000000 0.000000 
#    y 0.000000 3.425020 0.000000 
#    z 0.000000 0.000000 3.490310 
# 
# 
# High freq. dielectric constant tensor:
#      x y z
#    x 1.769210 0.000000 0.000000 
#    y 0.000000 1.735980 0.000000 
#    z 0.000000 0.000000 1.744680 
# 
# From -- ./inp_files/6165.got.cif
#   From: 2010.03.12/outbox.cif.g09.slc.cpg/sg47_4_cif.got.tgz:6165.got - 2010.04.14 03:12:58.
