data_PCOD8200659
_publ_section_title
;
Structure prediction by ZEFSAII (Michael W. Deem and Ramdas Pophale) SiO2 
 PCOD8200659
Probable space group: P M M M
;
_chemical_formula_sum "Si O2"
_cell_formula_units_Z 40
_cell_length_a 27.418926
_cell_length_b 7.596994
_cell_length_c 9.493745
_cell_angle_alpha 90.000000
_cell_angle_beta 90.000000
_cell_angle_gamma 90.000000
_cell_volume 1977.560530
_symmetry_space_group_name_H-M "P M M M"
_symmetry_group_IT_number 47
_symmetry_cell_setting 'orthorhombic'
loop_
_space_group_symop_operation_xyz
x,y,z
-x,-y,z
x,-y,-z
-x,y,-z
-x,-y,-z
x,y,-z
-x,y,z
x,-y,z
loop_
_atom_site_type_symbol
_atom_site_label
_atom_site_fract_x
_atom_site_fract_y
_atom_site_fract_z
Si Si1 0.000000 0.210287 0.341258
Si Si2 0.280119 0.291627 0.654879
Si Si3 0.389712 0.704293 0.334312
Si Si4 0.805494 0.293244 0.844015
Si Si5 0.557673 0.000000 0.838029
Si Si6 0.911270 0.205892 0.842395
O O1 0.047564 0.285327 0.260222
O O2 0.000000 0.285214 0.500000
O O3 0.000000 0.000000 0.344238
O O4 0.272365 0.210527 0.500000
O O5 0.274586 0.500000 0.646772
O O6 0.334302 0.245376 0.708992
O O7 0.238531 0.207951 0.754491
O O8 0.398100 0.740958 0.500000
O O9 0.400765 0.500000 0.300321
O O10 0.424568 0.824437 0.240784
O O11 0.797876 0.500000 0.851182
O O12 0.858153 0.248761 0.776641
O O13 0.803266 0.209518 0.000000
O O14 0.500000 0.000000 0.831908
O O15 0.576044 0.000000 0.000000
O O16 0.919499 0.000000 0.853165
O O17 0.915687 0.289059 0.000000
#
# Coordination Sequence:
#
# PCOD8200659 Si02
#       6
#     4   8   8   8   4   8
#     4   9  17  29  46  65  84 110 150 199 244 290
#     4   8  15  30  52  76 102 133 169 210 258 311
#     4   9  19  38  63  87 113 151 198 241 283 338
#     4   9  17  29  46  69  97 128 160 196 243 301
#     4  11  25  41  57  85 123 157 191 238 293 342
#     4   9  17  30  46  63  86 118 155 194 238 291
#
# _framework density 20.226941
#
# number of rings (size 3 to 8) (size 9 to 14) (size 15 to 20)
#    0.000    3.000    0.000    1.800    0.000    4.400 
#    1.800    4.500    0.000    3.000    0.000    0.000 
#    0.000    0.000    0.000    0.000    0.000    0.000 
#
# Total GULP energy -495794.472133 kJ/mol
# GULP energy per Si atom -12394.861803 kJ/mol
# Density = 2.018090 g / cm^3
# Si number density = 20.226941 Si / 1000 Ang^3
#
#
#
# Elastic Constant Matrix: (Units=GPa)
#
#
# Indices 1 2 3 4 5 6 
#
# 1 146.0854 31.1851 83.5065 0.0000 0.0000 0.0000
# 2 31.1851 52.5049 35.1541 0.0000 0.0000 0.0000
# 3 83.5065 35.1541 117.7379 0.0000 0.0000 0.0000
# 4 0.0000 0.0000 0.0000 14.3621 0.0000 0.0000
# 5 0.0000 0.0000 0.0000 0.0000 37.0429 0.0000
# 6 0.0000 0.0000 0.0000 0.0000 0.0000 26.8996
#
#
#
# Elastic Compliance Matrix: (Units=1/GPa)
#
#
# Indices 1 2 3 4 5 6 
#
# 1 0.011638 -0.001732 -0.007737 0.000000 0.000000 0.000000
# 2 -0.001732 0.024062 -0.005956 0.000000 0.000000 0.000000
# 3 -0.007737 -0.005956 0.015759 0.000000 0.000000 0.000000
# 4 0.000000 0.000000 0.000000 0.069627 0.000000 0.000000
# 5 0.000000 0.000000 0.000000 0.000000 0.026996 0.000000
# 6 0.000000 0.000000 0.000000 0.000000 0.000000 0.037175
#
#
# Mechanical properties :
#
#
# Convention : Reuss Voigt Hill
#
# Bulk Modulus (GPa) = 48.52186 68.44663 58.48424
# Shear Modulus (GPa) = 22.42374 26.75975 24.59175
#
# Velocity S-wave (km/s) = 3.33319 3.64122 3.49060
# Velocity P-wave (km/s) = 6.23332 7.18267 6.72477
#
# Compressibility (1/GPa) = 0.02060927
#
# Stress axis : x y z
#
# Youngs Moduli (GPa) = 85.92742 41.55860 63.45432
#
# Poissons Ratio (x) = 0.07198 0.49095
# Poissons Ratio (y) = 0.14882 0.37794
# Poissons Ratio (z) = 0.66482 0.24753
#
# Static dielectric constant tensor:
#      x y z
#    x 3.801200 0.000000 0.000000 
#    y 0.000000 3.281190 0.000000 
#    z 0.000000 0.000000 3.992020 
# 
# 
# High freq. dielectric constant tensor:
#      x y z
#    x 1.794670 0.000000 0.000000 
#    y 0.000000 1.768440 0.000000 
#    z 0.000000 0.000000 1.778640 
# 
# From -- ./inp_files/12992.got.cif
#   From: 2010.03.12/outbox.cif.g09.slc.cpg/sg47_7_cif.got.tgz:12992.got - 2010.04.14 03:12:58.
