data_PCOD8200605
_publ_section_title
;
Structure prediction by ZEFSAII (Michael W. Deem and Ramdas Pophale) SiO2 
 PCOD8200605
Probable space group: P M M M
;
_chemical_formula_sum "Si O2"
_cell_formula_units_Z 40
_cell_length_a 9.197212
_cell_length_b 25.757617
_cell_length_c 9.452359
_cell_angle_alpha 90.000000
_cell_angle_beta 90.000000
_cell_angle_gamma 90.000000
_cell_volume 2239.247439
_symmetry_space_group_name_H-M "P M M M"
_symmetry_group_IT_number 47
_symmetry_cell_setting 'orthorhombic'
loop_
_space_group_symop_operation_xyz
x,y,z
-x,-y,z
x,-y,-z
-x,y,-z
-x,-y,-z
x,y,-z
-x,y,z
x,-y,z
loop_
_atom_site_type_symbol
_atom_site_label
_atom_site_fract_x
_atom_site_fract_y
_atom_site_fract_z
Si Si1 0.169361 0.299116 0.663692
Si Si2 0.328443 0.000000 0.335601
Si Si3 0.329129 0.598067 0.336918
Si Si4 0.327002 0.500000 0.839730
Si Si5 0.827386 0.203889 0.843804
Si Si6 0.830676 0.912270 0.165425
O O1 0.200800 0.290256 0.500000
O O2 0.251797 0.350030 0.719144
O O3 0.234153 0.248285 0.740710
O O4 0.000000 0.306853 0.696288
O O5 0.264745 0.050834 0.262141
O O6 0.500000 0.000000 0.314842
O O7 0.284398 0.000000 0.500000
O O8 0.288703 0.586509 0.500000
O O9 0.500000 0.605694 0.318134
O O10 0.269567 0.550740 0.242291
O O11 0.500000 0.500000 0.838397
O O12 0.266678 0.500000 0.000000
O O13 0.781980 0.146288 0.793807
O O14 0.000000 0.206040 0.847722
O O15 0.764522 0.214797 0.000000
O O16 0.000000 0.921683 0.198958
O O17 0.800720 0.923177 0.000000
#
# Coordination Sequence:
#
# PCOD8200605 Si02
#       6
#     8   4   8   4   8   8
#     4   9  17  29  46  69  95 122 152 185 223 269
#     4  11  24  37  48  70 104 135 162 197 244 292
#     4   9  17  30  47  65  87 118 153 186 224 271
#     4   9  17  29  46  67  88 112 148 193 232 266
#     4   8  15  29  49  72  96 121 151 189 231 274
#     4   9  18  34  56  78  97 123 164 206 240 283
#
# _framework density 17.863144999999999
#
# number of rings (size 3 to 8) (size 9 to 14) (size 15 to 20)
#    0.000    3.000    0.000    2.100    0.000    5.200 
#    0.000    3.500    0.000    6.600    0.000    0.000 
#    0.000    0.000    0.000    0.000    0.000    0.000 
#
# Total GULP energy -495906.697802 kJ/mol
# GULP energy per Si atom -12397.667445 kJ/mol
# Density = 1.782249 g / cm^3
# Si number density = 17.863145 Si / 1000 Ang^3
#
#
#
# Elastic Constant Matrix: (Units=GPa)
#
#
# Indices 1 2 3 4 5 6 
#
# 1 38.0038 48.1680 39.2712 0.0000 0.0000 0.0000
# 2 48.1680 194.6817 99.4379 0.0000 0.0000 0.0000
# 3 39.2712 99.4379 104.3087 0.0000 0.0000 0.0000
# 4 0.0000 0.0000 0.0000 38.6239 0.0000 0.0000
# 5 0.0000 0.0000 0.0000 0.0000 19.0258 0.0000
# 6 0.0000 0.0000 0.0000 0.0000 0.0000 -9.2118
#
#
#
# Elastic Compliance Matrix: (Units=1/GPa)
#
#
# Indices 1 2 3 4 5 6 
#
# 1 0.045319 -0.004869 -0.012421 0.000000 0.000000 0.000000
# 2 -0.004869 0.010534 -0.008209 0.000000 0.000000 0.000000
# 3 -0.012421 -0.008209 0.022089 0.000000 0.000000 0.000000
# 4 0.000000 0.000000 0.000000 0.025891 0.000000 0.000000
# 5 0.000000 0.000000 0.000000 0.000000 0.052560 0.000000
# 6 0.000000 0.000000 0.000000 0.000000 0.000000 -0.108557
#
#
# Mechanical properties :
#
#
# Convention : Reuss Voigt Hill
#
# Bulk Modulus (GPa) = 37.11293 78.97204 58.04248
# Shear Modulus (GPa) = 46.37536 19.69540 33.03538
#
# Velocity S-wave (km/s) = 5.10077 3.32410 4.30508
# Velocity P-wave (km/s) = 7.45062 7.68364 7.56803
#
# Compressibility (1/GPa) = 0.02694479
#
# Stress axis : x y z
#
# Youngs Moduli (GPa) = 22.06587 94.92794 45.27065
#
# Poissons Ratio (x) = 0.46216 0.56230
# Poissons Ratio (y) = 0.10743 0.37165
# Poissons Ratio (z) = 0.27408 0.77931
#
# Static dielectric constant tensor:
#      x y z
#    x 2.940610 0.000000 0.000000 
#    y 0.000000 3.640760 0.000000 
#    z 0.000000 0.000000 3.417800 
# 
# 
# High freq. dielectric constant tensor:
#      x y z
#    x 1.652000 0.000000 0.000000 
#    y 0.000000 1.707900 0.000000 
#    z 0.000000 0.000000 1.688140 
# 
# From -- ./inp_files/1715.got.cif
#   From: 2010.03.12/outbox.cif.g09.slc.cpg/sg47_1_cif.got.tgz:1715.got - 2010.04.14 03:12:58.
