data_PCOD8200147
_publ_section_title
;
Structure prediction by ZEFSAII (Michael W. Deem and Ramdas Pophale) SiO2 
 PCOD8200147
Probable space group: P M M M
;
_chemical_formula_sum "Si O2"
_cell_formula_units_Z 40
_cell_length_a 14.563032
_cell_length_b 8.514328
_cell_length_c 16.534981
_cell_angle_alpha 90.000000
_cell_angle_beta 90.000000
_cell_angle_gamma 90.000000
_cell_volume 2050.245563
_symmetry_space_group_name_H-M "P M M M"
_symmetry_group_IT_number 47
_symmetry_cell_setting 'orthorhombic'
loop_
_space_group_symop_operation_xyz
x,y,z
-x,-y,z
x,-y,-z
-x,y,-z
-x,-y,-z
x,y,-z
-x,y,z
x,-y,z
loop_
_atom_site_type_symbol
_atom_site_label
_atom_site_fract_x
_atom_site_fract_y
_atom_site_fract_z
Si Si1 0.666900 0.183972 0.500000
Si Si2 0.765997 0.678333 0.221742
Si Si3 0.135622 0.683364 0.500000
Si Si4 0.899808 0.824732 0.335626
Si Si5 0.396281 0.682530 0.333047
Si Si6 0.897643 0.185180 0.090721
O O1 0.755915 0.291933 0.500000
O O2 0.612455 0.223698 0.417559
O O3 0.691196 0.000000 0.500000
O O4 0.752442 0.500000 0.195082
O O5 0.838176 0.693543 0.293991
O O6 0.670108 0.744967 0.259917
O O7 0.810446 0.766941 0.145506
O O8 0.111698 0.500000 0.500000
O O9 0.088332 0.771348 0.573452
O O10 0.000000 0.828754 0.294308
O O11 0.855661 0.000000 0.329023
O O12 0.500000 0.704695 0.301672
O O13 0.373002 0.500000 0.350046
O O14 0.000000 0.248151 0.117908
O O15 0.901593 0.000000 0.092545
O O16 0.877661 0.246261 0.000000
#
# Coordination Sequence:
#
# PCOD8200147 Si02
#       6
#     4   8   4   8   8   8
#     4  12  23  36  57  82 108 142 189 241 290 337
#     4  11  22  35  56  84 112 143 182 229 276 327
#     4  12  23  36  53  74 104 144 187 231 276 323
#     4  11  23  37  53  75 107 147 185 224 274 329
#     4  10  22  40  59  79 109 149 188 232 288 340
#     4   9  19  37  60  85 115 151 185 219 269 332
#
# _framework density 19.509858000000001
#
# number of rings (size 3 to 8) (size 9 to 14) (size 15 to 20)
#    0.000    1.400    2.000    4.800    0.000    8.400 
#    0.000    1.000    0.000    0.600    0.000    4.200 
#    0.000    0.000    0.000    0.000    0.000    0.000 
#
# Total GULP energy -495619.449741 kJ/mol
# GULP energy per Si atom -12390.486244 kJ/mol
# Density = 1.946545 g / cm^3
# Si number density = 19.509858 Si / 1000 Ang^3
#
#
#
# Elastic Constant Matrix: (Units=GPa)
#
#
# Indices 1 2 3 4 5 6 
#
# 1 133.7656 22.0972 57.2721 0.0000 0.0000 0.0000
# 2 22.0972 51.8804 17.1262 0.0000 0.0000 0.0000
# 3 57.2721 17.1262 122.4025 0.0000 0.0000 0.0000
# 4 0.0000 0.0000 0.0000 45.0160 0.0000 0.0000
# 5 0.0000 0.0000 0.0000 0.0000 9.9401 0.0000
# 6 0.0000 0.0000 0.0000 0.0000 0.0000 18.3037
#
#
#
# Elastic Compliance Matrix: (Units=1/GPa)
#
#
# Indices 1 2 3 4 5 6 
#
# 1 0.009713 -0.002764 -0.004158 0.000000 0.000000 0.000000
# 2 -0.002764 0.020995 -0.001644 0.000000 0.000000 0.000000
# 3 -0.004158 -0.001644 0.010345 0.000000 0.000000 0.000000
# 4 0.000000 0.000000 0.000000 0.022214 0.000000 0.000000
# 5 0.000000 0.000000 0.000000 0.000000 0.100603 0.000000
# 6 0.000000 0.000000 0.000000 0.000000 0.000000 0.054634
#
#
# Mechanical properties :
#
#
# Convention : Reuss Voigt Hill
#
# Bulk Modulus (GPa) = 41.80502 55.67107 48.73805
# Shear Modulus (GPa) = 20.52462 28.75548 24.64005
#
# Velocity S-wave (km/s) = 3.24699 3.84330 3.55766
# Velocity P-wave (km/s) = 5.96083 6.94920 6.47390
#
# Compressibility (1/GPa) = 0.02392057
#
# Stress axis : x y z
#
# Youngs Moduli (GPa) = 102.95953 47.62985 96.66304
#
# Poissons Ratio (x) = 0.13166 0.40190
# Poissons Ratio (y) = 0.28461 0.15893
# Poissons Ratio (z) = 0.42808 0.07831
#
# Static dielectric constant tensor:
#      x y z
#    x 3.664370 0.000000 0.000000 
#    y 0.000000 3.427880 0.000000 
#    z 0.000000 0.000000 3.629970 
# 
# 
# High freq. dielectric constant tensor:
#      x y z
#    x 1.756730 0.000000 0.000000 
#    y 0.000000 1.753030 0.000000 
#    z 0.000000 0.000000 1.746590 
# 
# From -- ./inp_files/20690.got.cif
#   From: 2010.03.12/outbox.cif.g09.slc.cpg/sg47_11_cif.got.tgz:20690.got - 2010.04.14 03:12:58.
