data_PCOD8200285
_publ_section_title
;
Structure prediction by ZEFSAII (Michael W. Deem and Ramdas Pophale) SiO2 
 PCOD8200285
Probable space group: P M M M
;
_chemical_formula_sum "Si O2"
_cell_formula_units_Z 48
_cell_length_a 13.855516
_cell_length_b 23.832592
_cell_length_c 8.891344
_cell_angle_alpha 90.000000
_cell_angle_beta 90.000000
_cell_angle_gamma 90.000000
_cell_volume 2936.036130
_symmetry_space_group_name_H-M "P M M M"
_symmetry_group_IT_number 47
_symmetry_cell_setting 'orthorhombic'
loop_
_space_group_symop_operation_xyz
x,y,z
-x,-y,z
x,-y,-z
-x,y,-z
-x,-y,-z
x,y,-z
-x,y,z
x,-y,z
loop_
_atom_site_type_symbol
_atom_site_label
_atom_site_fract_x
_atom_site_fract_y
_atom_site_fract_z
Si Si1 0.609497 0.782042 0.177933
Si Si2 0.889178 0.064588 0.826617
Si Si3 0.215282 0.162745 0.323005
Si Si4 0.710981 0.669900 0.177170
Si Si5 0.390811 0.438387 0.179083
Si Si6 0.891301 0.263725 0.823451
O O1 0.500000 0.793198 0.229057
O O2 0.678190 0.827617 0.255665
O O3 0.640589 0.719795 0.231769
O O4 0.621798 0.787738 0.000000
O O5 0.819464 0.100972 0.722132
O O6 0.000000 0.075697 0.781499
O O7 0.862146 0.000000 0.799193
O O8 0.872852 0.081076 0.000000
O O9 0.220948 0.168315 0.500000
O O10 0.138067 0.207266 0.261027
O O11 0.677707 0.610419 0.248793
O O12 0.820911 0.684950 0.224574
O O13 0.702421 0.664145 0.000000
O O14 0.500000 0.427107 0.233587
O O15 0.356099 0.500000 0.236041
O O16 0.387538 0.437258 0.000000
O O17 0.000000 0.280824 0.779675
O O18 0.880619 0.251273 0.000000
#
# Coordination Sequence:
#
# PCOD8200285 Si02
#       6
#     8   8   8   8   8   8
#     4   9  17  30  48  66  85 115 153 186 215 254
#     4   9  18  33  52  71  91 118 151 183 213 250
#     4  11  21  30  44  68  96 120 141 174 222 267
#     4   8  13  22  37  57  80 108 144 181 215 255
#     4   8  12  17  28  50  80 110 137 170 217 269
#     4   9  17  29  44  60  81 113 151 186 218 257
#
# _framework density 16.348572999999998
#
# number of rings (size 3 to 8) (size 9 to 14) (size 15 to 20)
#    0.000    3.000    0.000    4.500    0.000    5.333 
#    0.000    0.833    0.000    1.000    0.000    7.000 
#    0.000   10.667    0.000   42.667    0.000   40.000 
#
# Total GULP energy -594954.724618 kJ/mol
# GULP energy per Si atom -12394.890096 kJ/mol
# Density = 1.631136 g / cm^3
# Si number density = 16.348573 Si / 1000 Ang^3
#
#
#
# Elastic Constant Matrix: (Units=GPa)
#
#
# Indices 1 2 3 4 5 6 
#
# 1 138.8975 70.7322 36.2172 0.0000 0.0000 0.0000
# 2 70.7322 111.5846 27.2627 0.0000 0.0000 0.0000
# 3 36.2172 27.2627 41.0395 0.0000 0.0000 0.0000
# 4 0.0000 0.0000 0.0000 1.7683 0.0000 0.0000
# 5 0.0000 0.0000 0.0000 0.0000 7.7411 0.0000
# 6 0.0000 0.0000 0.0000 0.0000 0.0000 28.7550
#
#
#
# Elastic Compliance Matrix: (Units=1/GPa)
#
#
# Indices 1 2 3 4 5 6 
#
# 1 0.011957 -0.005970 -0.006586 0.000000 0.000000 0.000000
# 2 -0.005970 0.013679 -0.003818 0.000000 0.000000 0.000000
# 3 -0.006586 -0.003818 0.032715 0.000000 0.000000 0.000000
# 4 0.000000 0.000000 0.000000 0.565500 0.000000 0.000000
# 5 0.000000 0.000000 0.000000 0.000000 0.129180 0.000000
# 6 0.000000 0.000000 0.000000 0.000000 0.000000 0.034777
#
#
# Mechanical properties :
#
#
# Convention : Reuss Voigt Hill
#
# Bulk Modulus (GPa) = 39.05885 62.21620 50.63752
# Shear Modulus (GPa) = 6.03069 18.14020 12.08545
#
# Velocity S-wave (km/s) = 1.92271 3.33466 2.72184
# Velocity P-wave (km/s) = 5.37329 7.27773 6.39678
#
# Compressibility (1/GPa) = 0.02560239
#
# Stress axis : x y z
#
# Youngs Moduli (GPa) = 83.63143 73.10313 30.56659
#
# Poissons Ratio (x) = 0.43646 0.20131
# Poissons Ratio (y) = 0.49932 0.11671
# Poissons Ratio (z) = 0.55080 0.27913
#
# Static dielectric constant tensor:
#      x y z
#    x 3.202820 0.000000 0.000000 
#    y 0.000000 3.254330 0.000000 
#    z 0.000000 0.000000 2.705420 
# 
# 
# High freq. dielectric constant tensor:
#      x y z
#    x 1.623880 0.000000 0.000000 
#    y 0.000000 1.622680 0.000000 
#    z 0.000000 0.000000 1.590510 
# 
# From -- ./inp_files/7474.got.cif
#   From: 2010.03.12/outbox.cif.g09.slc.cpg/sg47_4_cif.got.tgz:7474.got - 2010.04.14 03:12:58.
