data_PCOD8200588
_publ_section_title
;
Structure prediction by ZEFSAII (Michael W. Deem and Ramdas Pophale) SiO2 
 PCOD8200588
Probable space group: P M M M
;
_chemical_formula_sum "Si O2"
_cell_formula_units_Z 64
_cell_length_a 20.775644
_cell_length_b 9.292527
_cell_length_c 18.526957
_cell_angle_alpha 90.000000
_cell_angle_beta 90.000000
_cell_angle_gamma 90.000000
_cell_volume 3576.781578
_symmetry_space_group_name_H-M "P M M M"
_symmetry_group_IT_number 47
_symmetry_cell_setting 'orthorhombic'
loop_
_space_group_symop_operation_xyz
x,y,z
-x,-y,z
x,-y,-z
-x,y,-z
-x,-y,-z
x,y,-z
-x,y,z
x,-y,z
loop_
_atom_site_type_symbol
_atom_site_label
_atom_site_fract_x
_atom_site_fract_y
_atom_site_fract_z
Si Si1 0.568691 0.163060 0.821342
Si Si2 0.570515 0.333047 0.676591
Si Si3 0.308425 0.166392 0.664176
Si Si4 0.925743 0.832765 0.844781
Si Si5 0.814422 0.333081 0.916729
Si Si6 0.816431 0.828323 0.581469
Si Si7 0.707015 0.836991 0.834015
Si Si8 0.928998 0.171109 0.681638
O O1 0.500000 0.177340 0.865003
O O2 0.566791 0.277394 0.757926
O O3 0.634438 0.189021 0.866998
O O4 0.574112 0.000000 0.789086
O O5 0.500000 0.308246 0.639755
O O6 0.588387 0.500000 0.677887
O O7 0.627697 0.248724 0.635928
O O8 0.248465 0.228157 0.618983
O O9 0.295108 0.193448 0.748568
O O10 0.319017 0.000000 0.647063
O O11 0.881755 0.742018 0.898393
O O12 0.910793 0.782613 0.762958
O O13 0.000000 0.803217 0.864331
O O14 0.909013 0.000000 0.854565
O O15 0.821185 0.500000 0.898467
O O16 0.755886 0.271183 0.870478
O O17 0.798534 0.305649 0.000000
O O18 0.819981 0.769589 0.500000
O O19 0.877223 0.765017 0.625719
O O20 0.818397 0.000000 0.583292
O O21 0.730325 0.000000 0.849072
O O22 0.000000 0.230370 0.661132
O O23 0.930049 0.000000 0.678397
#
# Coordination Sequence:
#
# PCOD8200588 Si02
#       8
#     8   8   8   8   8   8   8   8
#     4   8  14  26  45  70  98 123 149 188 239 286
#     4   9  16  25  40  65  93 118 150 194 239 283
#     4   9  17  29  46  68  94 124 157 195 237 277
#     4   9  18  34  56  77  95 120 156 195 234 280
#     4  11  24  37  48  67  97 129 158 193 237 281
#     4   9  16  25  40  65  96 127 157 189 226 270
#     4   9  17  30  50  72  93 123 161 197 233 277
#     4   8  14  26  45  69  96 123 151 186 227 270
#
# _framework density 17.893180999999998
#
# number of rings (size 3 to 8) (size 9 to 14) (size 15 to 20)
#    0.000    3.000    0.000    3.000    0.000    6.500 
#    0.000    2.500    0.000    1.125    0.000    5.250 
#    0.000    0.000    0.000    7.625    0.000    7.500 
#
# Total GULP energy -793020.761968 kJ/mol
# GULP energy per Si atom -12390.949406 kJ/mol
# Density = 1.785246 g / cm^3
# Si number density = 17.893181 Si / 1000 Ang^3
#
#
#
# Elastic Constant Matrix: (Units=GPa)
#
#
# Indices 1 2 3 4 5 6 
#
# 1 142.6873 50.9318 38.0794 0.0000 0.0000 0.0000
# 2 50.9318 59.5690 26.4391 0.0000 0.0000 0.0000
# 3 38.0794 26.4391 45.5013 0.0000 0.0000 0.0000
# 4 0.0000 0.0000 0.0000 8.0414 0.0000 0.0000
# 5 0.0000 0.0000 0.0000 0.0000 4.6279 0.0000
# 6 0.0000 0.0000 0.0000 0.0000 0.0000 18.1577
#
#
#
# Elastic Compliance Matrix: (Units=1/GPa)
#
#
# Indices 1 2 3 4 5 6 
#
# 1 0.010864 -0.007079 -0.004978 0.000000 0.000000 0.000000
# 2 -0.007079 0.027234 -0.009900 0.000000 0.000000 0.000000
# 3 -0.004978 -0.009900 0.031897 0.000000 0.000000 0.000000
# 4 0.000000 0.000000 0.000000 0.124356 0.000000 0.000000
# 5 0.000000 0.000000 0.000000 0.000000 0.216079 0.000000
# 6 0.000000 0.000000 0.000000 0.000000 0.000000 0.055073
#
#
# Mechanical properties :
#
#
# Convention : Reuss Voigt Hill
#
# Bulk Modulus (GPa) = 38.34537 53.18424 45.76481
# Shear Modulus (GPa) = 9.65045 14.98589 12.31817
#
# Velocity S-wave (km/s) = 2.32488 2.89713 2.62664
# Velocity P-wave (km/s) = 5.35569 6.40148 5.90179
#
# Compressibility (1/GPa) = 0.02607877
#
# Stress axis : x y z
#
# Youngs Moduli (GPa) = 92.04924 36.71886 31.35139
#
# Poissons Ratio (x) = 0.25993 0.15608
# Poissons Ratio (y) = 0.65161 0.31039
# Poissons Ratio (z) = 0.45826 0.36353
#
# Static dielectric constant tensor:
#      x y z
#    x 3.874450 0.000000 0.000000 
#    y 0.000000 3.016920 0.000000 
#    z 0.000000 0.000000 3.001390 
# 
# 
# High freq. dielectric constant tensor:
#      x y z
#    x 1.721410 0.000000 0.000000 
#    y 0.000000 1.661170 0.000000 
#    z 0.000000 0.000000 1.647110 
# 
# From -- ./inp_files/28813.got.cif
#   From: 2010.03.12/outbox.cif.g09.slc.cpg/sg47_15_cif.got.tgz:28813.got - 2010.04.14 03:12:58.
