data_PCOD8200166
_publ_section_title
;
Structure prediction by ZEFSAII (Michael W. Deem and Ramdas Pophale) SiO2 
 PCOD8200166
Probable space group: P M M M
;
_chemical_formula_sum "Si O2"
_cell_formula_units_Z 44
_cell_length_a 9.141004
_cell_length_b 30.500803
_cell_length_c 7.840535
_cell_angle_alpha 90.000000
_cell_angle_beta 90.000000
_cell_angle_gamma 90.000000
_cell_volume 2186.003586
_symmetry_space_group_name_H-M "P M M M"
_symmetry_group_IT_number 47
_symmetry_cell_setting 'orthorhombic'
loop_
_space_group_symop_operation_xyz
x,y,z
-x,-y,z
x,-y,-z
-x,y,-z
-x,-y,-z
x,y,-z
-x,y,z
x,-y,z
loop_
_atom_site_type_symbol
_atom_site_label
_atom_site_fract_x
_atom_site_fract_y
_atom_site_fract_z
Si Si1 0.161338 0.781320 0.699090
Si Si2 0.661437 0.861635 0.697441
Si Si3 0.168473 0.448184 0.500000
Si Si4 0.164009 0.311995 0.200212
Si Si5 0.331925 0.046838 0.799445
Si Si6 0.673109 0.600961 0.800529
O O1 0.149863 0.790008 0.500000
O O2 0.250941 0.821435 0.784432
O O3 0.233721 0.733772 0.733641
O O4 0.000000 0.781222 0.782801
O O5 0.646780 0.851488 0.500000
O O6 0.500000 0.863008 0.782613
O O7 0.742140 0.908986 0.723594
O O8 0.176036 0.500000 0.500000
O O9 0.248276 0.432931 0.673950
O O10 0.000000 0.431795 0.500000
O O11 0.270794 0.351084 0.256368
O O12 0.000000 0.319184 0.277231
O O13 0.153799 0.310058 0.000000
O O14 0.500000 0.046697 0.740393
O O15 0.261933 0.000000 0.735981
O O16 0.317148 0.049266 0.000000
O O17 0.500000 0.598544 0.772472
O O18 0.712605 0.590833 0.000000
#
# Coordination Sequence:
#
# PCOD8200166 Si02
#       6
#     8   8   4   8   8   8
#     4   9  18  31  46  66  95 132 168 204 251 308
#     4   9  17  28  42  63  89 115 149 195 244 295
#     4  11  25  43  65  93 123 161 209 251 290 345
#     4   9  18  33  53  77 105 140 183 226 268 322
#     4   8  14  25  41  61  84 110 143 186 238 295
#     4  10  22  40  62  91 126 160 196 245 303 355
#
# _framework density 20.128056000000001
#
# number of rings (size 3 to 8) (size 9 to 14) (size 15 to 20)
#    0.000    2.818    0.000    1.364    1.273    4.000 
#    0.000    3.636    0.000    0.545    0.000    3.818 
#    0.000    0.000    0.000    0.000    0.000    0.000 
#
# Total GULP energy -545100.820125 kJ/mol
# GULP energy per Si atom -12388.655003 kJ/mol
# Density = 2.008224 g / cm^3
# Si number density = 20.128056 Si / 1000 Ang^3
#
#
#
# Elastic Constant Matrix: (Units=GPa)
#
#
# Indices 1 2 3 4 5 6 
#
# 1 83.3445 61.8453 30.4642 0.0000 0.0000 0.0000
# 2 61.8453 162.1919 38.6674 0.0000 0.0000 0.0000
# 3 30.4642 38.6674 46.4985 0.0000 0.0000 0.0000
# 4 0.0000 0.0000 0.0000 13.3724 0.0000 0.0000
# 5 0.0000 0.0000 0.0000 0.0000 17.4921 0.0000
# 6 0.0000 0.0000 0.0000 0.0000 0.0000 25.2527
#
#
#
# Elastic Compliance Matrix: (Units=1/GPa)
#
#
# Indices 1 2 3 4 5 6 
#
# 1 0.018820 -0.005284 -0.007936 0.000000 0.000000 0.000000
# 2 -0.005284 0.009174 -0.004167 0.000000 0.000000 0.000000
# 3 -0.007936 -0.004167 0.030170 0.000000 0.000000 0.000000
# 4 0.000000 0.000000 0.000000 0.074781 0.000000 0.000000
# 5 0.000000 0.000000 0.000000 0.000000 0.057169 0.000000
# 6 0.000000 0.000000 0.000000 0.000000 0.000000 0.039600
#
#
# Mechanical properties :
#
#
# Convention : Reuss Voigt Hill
#
# Bulk Modulus (GPa) = 42.75252 61.55429 52.15341
# Shear Modulus (GPa) = 18.36309 21.96063 20.16186
#
# Velocity S-wave (km/s) = 3.02373 3.30668 3.16837
# Velocity P-wave (km/s) = 5.78593 6.72507 6.27310
#
# Compressibility (1/GPa) = 0.02339043
#
# Stress axis : x y z
#
# Youngs Moduli (GPa) = 53.13359 109.00491 33.14501
#
# Poissons Ratio (x) = 0.57603 0.26304
# Poissons Ratio (y) = 0.28078 0.13811
# Poissons Ratio (z) = 0.42167 0.45419
#
# Static dielectric constant tensor:
#      x y z
#    x 3.711730 0.000000 0.000000 
#    y 0.000000 4.059500 0.000000 
#    z 0.000000 0.000000 3.429990 
# 
# 
# High freq. dielectric constant tensor:
#      x y z
#    x 1.745890 0.000000 0.000000 
#    y 0.000000 1.804770 0.000000 
#    z 0.000000 0.000000 1.771580 
# 
# From -- ./inp_files/1994.got.cif
#   From: 2010.03.12/outbox.cif.g09.slc.cpg/sg47_1_cif.got.tgz:1994.got - 2010.04.14 03:12:58.
