data_PCOD8200142
_publ_section_title
;
Structure prediction by ZEFSAII (Michael W. Deem and Ramdas Pophale) SiO2 
 PCOD8200142
Probable space group: P M M M
;
_chemical_formula_sum "Si O2"
_cell_formula_units_Z 36
_cell_length_a 18.577273
_cell_length_b 10.721639
_cell_length_c 9.314012
_cell_angle_alpha 90.000000
_cell_angle_beta 90.000000
_cell_angle_gamma 90.000000
_cell_volume 1855.153870
_symmetry_space_group_name_H-M "P M M M"
_symmetry_group_IT_number 47
_symmetry_cell_setting 'orthorhombic'
loop_
_space_group_symop_operation_xyz
x,y,z
-x,-y,z
x,-y,-z
-x,y,-z
-x,-y,-z
x,y,-z
-x,y,z
x,-y,z
loop_
_atom_site_type_symbol
_atom_site_label
_atom_site_fract_x
_atom_site_fract_y
_atom_site_fract_z
Si Si1 0.579255 0.644833 0.157979
Si Si2 0.084668 0.640662 0.834398
Si Si3 0.832752 0.857614 0.668899
Si Si4 0.415223 0.000000 0.839111
Si Si5 0.330284 0.199523 0.331633
O O1 0.500000 0.693485 0.209528
O O2 0.575163 0.500000 0.137524
O O3 0.643983 0.666324 0.273933
O O4 0.596450 0.704692 0.000000
O O5 0.108795 0.500000 0.784995
O O6 0.120345 0.751725 0.744785
O O7 0.000000 0.653357 0.812321
O O8 0.105791 0.659216 0.000000
O O9 0.843858 0.840764 0.500000
O O10 0.750414 0.834800 0.712965
O O11 0.854408 0.000000 0.714379
O O12 0.387536 0.881474 0.753974
O O13 0.500000 0.000000 0.839251
O O14 0.384077 0.000000 0.000000
O O15 0.340652 0.183194 0.500000
#
# Coordination Sequence:
#
# PCOD8200142 Si02
#       5
#     8   8   8   4   8
#     4   9  19  36  55  76 106 143 185 236 290 345
#     4   9  20  40  64  91 122 153 191 241 291 344
#     4  10  22  40  58  82 121 160 195 238 289 347
#     4  11  23  37  55  79 106 141 188 237 285 338
#     4  11  22  37  55  78 111 147 185 233 286 339
#
# _framework density 19.405398999999999
#
# number of rings (size 3 to 8) (size 9 to 14) (size 15 to 20)
#    0.000    2.111    1.111    3.000    0.000    8.889 
#    0.000    8.889    0.000    0.000    0.000    0.000 
#    0.000    0.000    0.000    0.000    0.000    0.000 
#
# Total GULP energy -446031.236346 kJ/mol
# GULP energy per Si atom -12389.756565 kJ/mol
# Density = 1.936123 g / cm^3
# Si number density = 19.405399 Si / 1000 Ang^3
#
#
#
# Elastic Constant Matrix: (Units=GPa)
#
#
# Indices 1 2 3 4 5 6 
#
# 1 75.4651 60.2725 50.9705 0.0000 0.0000 0.0000
# 2 60.2725 128.8433 52.6027 0.0000 0.0000 0.0000
# 3 50.9705 52.6027 78.0213 0.0000 0.0000 0.0000
# 4 0.0000 0.0000 0.0000 39.1899 0.0000 0.0000
# 5 0.0000 0.0000 0.0000 0.0000 35.8089 0.0000
# 6 0.0000 0.0000 0.0000 0.0000 0.0000 17.1439
#
#
#
# Elastic Compliance Matrix: (Units=1/GPa)
#
#
# Indices 1 2 3 4 5 6 
#
# 1 0.028589 -0.007932 -0.013329 0.000000 0.000000 0.000000
# 2 -0.007932 0.012910 -0.003522 0.000000 0.000000 0.000000
# 3 -0.013329 -0.003522 0.023899 0.000000 0.000000 0.000000
# 4 0.000000 0.000000 0.000000 0.025517 0.000000 0.000000
# 5 0.000000 0.000000 0.000000 0.000000 0.027926 0.000000
# 6 0.000000 0.000000 0.000000 0.000000 0.000000 0.058330
#
#
# Mechanical properties :
#
#
# Convention : Reuss Voigt Hill
#
# Bulk Modulus (GPa) = 63.16335 67.78013 65.47174
# Shear Modulus (GPa) = 21.55040 26.32749 23.93894
#
# Velocity S-wave (km/s) = 3.33609 3.68735 3.51611
# Velocity P-wave (km/s) = 6.88907 7.28924 7.09198
#
# Compressibility (1/GPa) = 0.01583197
#
# Stress axis : x y z
#
# Youngs Moduli (GPa) = 34.97849 77.46010 41.84213
#
# Poissons Ratio (x) = 0.61441 0.55772
# Poissons Ratio (y) = 0.27745 0.14737
# Poissons Ratio (z) = 0.46623 0.27282
#
# Static dielectric constant tensor:
#      x y z
#    x 3.488410 0.000000 0.000000 
#    y 0.000000 -2.525760 0.000000 
#    z 0.000000 0.000000 3.545500 
# 
# 
# High freq. dielectric constant tensor:
#      x y z
#    x 1.746820 0.000000 0.000000 
#    y 0.000000 1.772670 0.000000 
#    z 0.000000 0.000000 1.751910 
# 
# From -- ./inp_files/3739.got.cif
#   From: 2010.03.12/outbox.cif.g09.slc.cpg/sg47_2_cif.got.tgz:3739.got - 2010.04.14 03:12:58.
