data_PCOD8200885
_publ_section_title
;
Structure prediction by ZEFSAII (Michael W. Deem and Ramdas Pophale) SiO2 
 PCOD8200885
Probable space group: P M M M
;
_chemical_formula_sum "Si O2"
_cell_formula_units_Z 36
_cell_length_a 10.090106
_cell_length_b 9.267585
_cell_length_c 23.342376
_cell_angle_alpha 90.000000
_cell_angle_beta 90.000000
_cell_angle_gamma 90.000000
_cell_volume 2182.766938
_symmetry_space_group_name_H-M "P M M M"
_symmetry_group_IT_number 47
_symmetry_cell_setting 'orthorhombic'
loop_
_space_group_symop_operation_xyz
x,y,z
-x,-y,z
x,-y,-z
-x,y,-z
-x,-y,-z
x,y,-z
-x,y,z
x,-y,z
loop_
_atom_site_type_symbol
_atom_site_label
_atom_site_fract_x
_atom_site_fract_y
_atom_site_fract_z
Si Si1 0.341872 0.662509 0.390323
Si Si2 0.342519 0.160560 0.283121
Si Si3 0.647989 0.172161 0.843322
Si Si4 0.342069 0.836765 0.500000
Si Si5 0.148216 0.171672 0.936023
O O1 0.500000 0.662086 0.390176
O O2 0.286907 0.500000 0.394917
O O3 0.286136 0.733250 0.331838
O O4 0.288216 0.754291 0.443994
O O5 0.500000 0.151968 0.286773
O O6 0.302843 0.219823 0.220074
O O7 0.283950 0.000000 0.293349
O O8 0.500000 0.231701 0.855970
O O9 0.748092 0.237828 0.890494
O O10 0.645421 0.000000 0.845579
O O11 0.500000 0.837973 0.500000
O O12 0.287050 0.000000 0.500000
O O13 0.000000 0.225910 0.920919
O O14 0.152100 0.000000 0.933347
O O15 0.187695 0.223334 0.000000
#
# Coordination Sequence:
#
# PCOD8200885 Si02
#       5
#     8   8   8   4   8
#     4   9  15  21  29  42  61  85 115 151 187 220
#     4   8  13  21  31  42  59  85 116 148 182 220
#     4   8  13  20  30  44  62  88 122 153 180 218
#     4   9  15  21  29  41  59  87 122 153 180 215
#     4   8  13  20  29  43  66  94 119 145 183 227
#
# _framework density 16.492827999999999
#
# number of rings (size 3 to 8) (size 9 to 14) (size 15 to 20)
#    0.000    3.667    0.000    3.000    0.000    4.444 
#    0.000    2.222    0.000    0.000    0.000    0.000 
#    0.000    1.778    0.000   12.111    0.000   37.556 
#
# Total GULP energy -446083.254175 kJ/mol
# GULP energy per Si atom -12391.201505 kJ/mol
# Density = 1.645529 g / cm^3
# Si number density = 16.492828 Si / 1000 Ang^3
#
#
#
# Elastic Constant Matrix: (Units=GPa)
#
#
# Indices 1 2 3 4 5 6 
#
# 1 41.0634 18.2443 55.6686 0.0000 0.0000 0.0000
# 2 18.2443 73.6985 57.1007 0.0000 0.0000 0.0000
# 3 55.6686 57.1007 178.5926 0.0000 0.0000 0.0000
# 4 0.0000 0.0000 0.0000 5.3592 0.0000 0.0000
# 5 0.0000 0.0000 0.0000 0.0000 3.0570 0.0000
# 6 0.0000 0.0000 0.0000 0.0000 0.0000 2.5152
#
#
#
# Elastic Compliance Matrix: (Units=1/GPa)
#
#
# Indices 1 2 3 4 5 6 
#
# 1 0.042181 -0.000339 -0.013040 0.000000 0.000000 0.000000
# 2 -0.000339 0.018040 -0.005662 0.000000 0.000000 0.000000
# 3 -0.013040 -0.005662 0.011474 0.000000 0.000000 0.000000
# 4 0.000000 0.000000 0.000000 0.186594 0.000000 0.000000
# 5 0.000000 0.000000 0.000000 0.000000 0.327115 0.000000
# 6 0.000000 0.000000 0.000000 0.000000 0.000000 0.397584
#
#
# Mechanical properties :
#
#
# Convention : Reuss Voigt Hill
#
# Bulk Modulus (GPa) = 29.75030 61.70908 45.72969
# Shear Modulus (GPa) = 4.84368 13.00902 8.92635
#
# Velocity S-wave (km/s) = 1.71558 2.81155 2.32895
# Velocity P-wave (km/s) = 4.69061 6.93085 5.91770
#
# Compressibility (1/GPa) = 0.03361310
#
# Stress axis : x y z
#
# Youngs Moduli (GPa) = 23.70751 55.43358 87.15213
#
# Poissons Ratio (x) = 0.01879 1.13643
# Poissons Ratio (y) = 0.00804 0.49346
# Poissons Ratio (z) = 0.30914 0.31387
#
# Static dielectric constant tensor:
#      x y z
#    x 2.702000 0.000000 0.000000 
#    y 0.000000 2.839440 0.000000 
#    z 0.000000 0.000000 3.536270 
# 
# 
# High freq. dielectric constant tensor:
#      x y z
#    x 1.563450 0.000000 0.000000 
#    y 0.000000 1.592050 0.000000 
#    z 0.000000 0.000000 1.654980 
# 
# From -- ./inp_files/10569.got.cif
#   From: 2010.03.12/outbox.cif.g09.slc.cpg/sg47_6_cif.got.tgz:10569.got - 2010.04.14 03:12:58.
