data_PCOD8200294
_publ_section_title
;
Structure prediction by ZEFSAII (Michael W. Deem and Ramdas Pophale) SiO2 
 PCOD8200294
Probable space group: P M M M
;
_chemical_formula_sum "Si O2"
_cell_formula_units_Z 44
_cell_length_a 13.623580
_cell_length_b 20.745433
_cell_length_c 9.093556
_cell_angle_alpha 90.000000
_cell_angle_beta 90.000000
_cell_angle_gamma 90.000000
_cell_volume 2570.085053
_symmetry_space_group_name_H-M "P M M M"
_symmetry_group_IT_number 47
_symmetry_cell_setting 'orthorhombic'
loop_
_space_group_symop_operation_xyz
x,y,z
-x,-y,z
x,-y,-z
-x,y,-z
-x,-y,-z
x,y,-z
-x,y,z
x,-y,z
loop_
_atom_site_type_symbol
_atom_site_label
_atom_site_fract_x
_atom_site_fract_y
_atom_site_fract_z
Si Si1 0.388479 0.500000 0.173783
Si Si2 0.789874 0.187828 0.173640
Si Si3 0.886480 0.073858 0.331204
Si Si4 0.110667 0.696693 0.670111
Si Si5 0.702881 0.380761 0.668051
Si Si6 0.388635 0.755204 0.669477
O O1 0.500000 0.500000 0.235448
O O2 0.330802 0.437397 0.226723
O O3 0.388962 0.500000 0.000000
O O4 0.820723 0.116954 0.224691
O O5 0.866203 0.239956 0.236357
O O6 0.679995 0.200886 0.229799
O O7 0.791527 0.191787 0.000000
O O8 0.866761 0.093152 0.500000
O O9 0.000000 0.084686 0.292145
O O10 0.856558 0.000000 0.303682
O O11 0.124867 0.716142 0.500000
O O12 0.185054 0.638676 0.709171
O O13 0.000000 0.673372 0.703437
O O14 0.695842 0.404559 0.500000
O O15 0.632605 0.320024 0.696094
O O16 0.368252 0.772641 0.500000
O O17 0.500000 0.769737 0.714825
#
# Coordination Sequence:
#
# PCOD8200294 Si02
#       6
#     4   8   8   8   8   8
#     4  11  23  35  48  69  98 130 159 191 240 299
#     4  11  21  30  46  75 107 134 159 194 244 297
#     4   9  18  33  52  72  96 130 170 207 241 280
#     4   9  18  34  54  73  96 128 166 205 240 280
#     4   9  18  33  53  75  95 120 159 203 243 282
#     4   9  18  34  55  75  95 124 165 208 245 284
#
# _framework density 17.120056999999999
#
# number of rings (size 3 to 8) (size 9 to 14) (size 15 to 20)
#    0.000    2.455    0.000    4.636    0.000    8.000 
#    0.000    1.364    0.000    3.273    0.000    3.818 
#    0.000    0.000    0.000    0.000    0.000    0.000 
#
# Total GULP energy -545667.704058 kJ/mol
# GULP energy per Si atom -12401.538729 kJ/mol
# Density = 1.708109 g / cm^3
# Si number density = 17.120057 Si / 1000 Ang^3
#
#
#
# Elastic Constant Matrix: (Units=GPa)
#
#
# Indices 1 2 3 4 5 6 
#
# 1 131.1614 58.8423 55.5287 0.0000 0.0000 0.0000
# 2 58.8423 95.4069 55.6817 0.0000 0.0000 0.0000
# 3 55.5287 55.6817 94.0193 0.0000 0.0000 0.0000
# 4 0.0000 0.0000 0.0000 10.9606 0.0000 0.0000
# 5 0.0000 0.0000 0.0000 0.0000 14.2175 0.0000
# 6 0.0000 0.0000 0.0000 0.0000 0.0000 21.6369
#
#
#
# Elastic Compliance Matrix: (Units=1/GPa)
#
#
# Indices 1 2 3 4 5 6 
#
# 1 0.011419 -0.004748 -0.003932 0.000000 0.000000 0.000000
# 2 -0.004748 0.017992 -0.007851 0.000000 0.000000 0.000000
# 3 -0.003932 -0.007851 0.017609 0.000000 0.000000 0.000000
# 4 0.000000 0.000000 0.000000 0.091236 0.000000 0.000000
# 5 0.000000 0.000000 0.000000 0.000000 0.070336 0.000000
# 6 0.000000 0.000000 0.000000 0.000000 0.000000 0.046217
#
#
# Mechanical properties :
#
#
# Convention : Reuss Voigt Hill
#
# Bulk Modulus (GPa) = 71.65187 73.41034 72.53110
# Shear Modulus (GPa) = 17.09266 19.39865 18.24565
#
# Velocity S-wave (km/s) = 3.16317 3.36980 3.26812
# Velocity P-wave (km/s) = 7.43534 7.62322 7.52987
#
# Compressibility (1/GPa) = 0.01395637
#
# Stress axis : x y z
#
# Youngs Moduli (GPa) = 87.57394 55.58098 56.79051
#
# Poissons Ratio (x) = 0.26387 0.22333
# Poissons Ratio (y) = 0.41576 0.44589
# Poissons Ratio (z) = 0.34438 0.43639
#
# Static dielectric constant tensor:
#      x y z
#    x 3.367170 0.000000 0.000000 
#    y 0.000000 3.019480 0.000000 
#    z 0.000000 0.000000 3.080940 
# 
# 
# High freq. dielectric constant tensor:
#      x y z
#    x 1.663640 0.000000 0.000000 
#    y 0.000000 1.646270 0.000000 
#    z 0.000000 0.000000 1.653970 
# 
# From -- ./inp_files/6789.got.cif
#   From: 2010.03.12/outbox.cif.g09.slc.cpg/sg47_4_cif.got.tgz:6789.got - 2010.04.14 03:12:58.
