data_PCOD8200783
_publ_section_title
;
Structure prediction by ZEFSAII (Michael W. Deem and Ramdas Pophale) SiO2 
 PCOD8200783
Probable space group: P M M M
;
_chemical_formula_sum "Si O2"
_cell_formula_units_Z 40
_cell_length_a 9.249965
_cell_length_b 7.951677
_cell_length_c 27.894427
_cell_angle_alpha 90.000000
_cell_angle_beta 90.000000
_cell_angle_gamma 90.000000
_cell_volume 2051.711368
_symmetry_space_group_name_H-M "P M M M"
_symmetry_group_IT_number 47
_symmetry_cell_setting 'orthorhombic'
loop_
_space_group_symop_operation_xyz
x,y,z
-x,-y,z
x,-y,-z
-x,y,-z
-x,-y,-z
x,y,-z
-x,y,z
x,-y,z
loop_
_atom_site_type_symbol
_atom_site_label
_atom_site_fract_x
_atom_site_fract_y
_atom_site_fract_z
Si Si1 0.337984 0.200929 0.317820
Si Si2 0.162879 0.799384 0.591807
Si Si3 0.327376 0.000000 0.054211
Si Si4 0.663443 0.200487 0.500000
Si Si5 0.327969 0.812962 0.213733
Si Si6 0.671960 0.315835 0.114041
O O1 0.500000 0.268447 0.327784
O O2 0.233579 0.270953 0.359268
O O3 0.280050 0.263193 0.265498
O O4 0.340211 0.000000 0.317448
O O5 0.254182 0.730613 0.546849
O O6 0.000000 0.730231 0.588000
O O7 0.163926 0.000000 0.591878
O O8 0.266031 0.832606 0.080385
O O9 0.500000 0.000000 0.055417
O O10 0.269178 0.000000 0.000000
O O11 0.500000 0.270212 0.500000
O O12 0.662706 0.000000 0.500000
O O13 0.500000 0.822008 0.213918
O O14 0.271974 0.703407 0.168870
O O15 0.264379 0.000000 0.206840
O O16 0.500000 0.304350 0.113429
O O17 0.722887 0.500000 0.095334
#
# Coordination Sequence:
#
# PCOD8200783 Si02
#       6
#     8   8   4   4   8   8
#     4   8  13  20  31  45  60  84 122 164 206 257
#     4   9  15  21  28  41  63  90 123 166 216 264
#     4   9  16  24  32  44  68 102 139 178 217 260
#     4   9  15  21  29  39  57  91 134 175 212 256
#     4   8  12  20  33  46  62  86 119 163 211 256
#     4   9  15  22  33  48  67  94 131 175 220 262
#
# _framework density 19.495920000000002
#
# number of rings (size 3 to 8) (size 9 to 14) (size 15 to 20)
#    0.000    3.400    1.000    2.100    0.000    4.000 
#    0.000    2.000    0.000    0.000    0.000    0.000 
#    0.000    0.800    0.000    0.900    0.000   24.200 
#
# Total GULP energy -495602.124897 kJ/mol
# GULP energy per Si atom -12390.053122 kJ/mol
# Density = 1.945155 g / cm^3
# Si number density = 19.495920 Si / 1000 Ang^3
#
#
#
# Elastic Constant Matrix: (Units=GPa)
#
#
# Indices 1 2 3 4 5 6 
#
# 1 72.1439 13.7661 50.4349 0.0000 0.0000 0.0000
# 2 13.7661 76.9427 54.6827 0.0000 0.0000 0.0000
# 3 50.4349 54.6827 193.7077 0.0000 0.0000 0.0000
# 4 0.0000 0.0000 0.0000 3.5853 0.0000 0.0000
# 5 0.0000 0.0000 0.0000 0.0000 4.2110 0.0000
# 6 0.0000 0.0000 0.0000 0.0000 0.0000 0.5330
#
#
#
# Elastic Compliance Matrix: (Units=1/GPa)
#
#
# Indices 1 2 3 4 5 6 
#
# 1 0.016947 0.000130 -0.004449 0.000000 0.000000 0.000000
# 2 0.000130 0.016260 -0.004624 0.000000 0.000000 0.000000
# 3 -0.004449 -0.004624 0.007626 0.000000 0.000000 0.000000
# 4 0.000000 0.000000 0.000000 0.278919 0.000000 0.000000
# 5 0.000000 0.000000 0.000000 0.000000 0.237474 0.000000
# 6 0.000000 0.000000 0.000000 0.000000 0.000000 1.876232
#
#
# Mechanical properties :
#
#
# Convention : Reuss Voigt Hill
#
# Bulk Modulus (GPa) = 43.57975 64.50684 54.04330
# Shear Modulus (GPa) = 2.03335 16.59322 9.31329
#
# Velocity S-wave (km/s) = 1.02236 2.92055 2.18802
# Velocity P-wave (km/s) = 4.87806 6.67323 5.84497
#
# Compressibility (1/GPa) = 0.02294644
#
# Stress axis : x y z
#
# Youngs Moduli (GPa) = 59.00872 61.50228 131.12928
#
# Poissons Ratio (x) = -0.00799 0.58339
# Poissons Ratio (y) = -0.00766 0.60632
# Poissons Ratio (z) = 0.26253 0.28437
#
# Static dielectric constant tensor:
#      x y z
#    x 3.038450 0.000000 0.000000 
#    y 0.000000 3.188280 0.000000 
#    z 0.000000 0.000000 3.960740 
# 
# 
# High freq. dielectric constant tensor:
#      x y z
#    x 1.686780 0.000000 0.000000 
#    y 0.000000 1.719490 0.000000 
#    z 0.000000 0.000000 1.774600 
# 
# From -- ./inp_files/32999.got.cif
#   From: 2010.03.12/outbox.cif.g09.slc.cpg/sg47_17_cif.got.tgz:32999.got - 2010.04.14 03:12:58.
