data_PCOD8200889
_publ_section_title
;
Structure prediction by ZEFSAII (Michael W. Deem and Ramdas Pophale) SiO2 
 PCOD8200889
Probable space group: P M M M
;
_chemical_formula_sum "Si O2"
_cell_formula_units_Z 48
_cell_length_a 9.986944
_cell_length_b 9.336324
_cell_length_c 30.984181
_cell_angle_alpha 90.000000
_cell_angle_beta 90.000000
_cell_angle_gamma 90.000000
_cell_volume 2889.006709
_symmetry_space_group_name_H-M "P M M M"
_symmetry_group_IT_number 47
_symmetry_cell_setting 'orthorhombic'
loop_
_space_group_symop_operation_xyz
x,y,z
-x,-y,z
x,-y,-z
-x,y,-z
-x,-y,-z
x,y,-z
-x,y,z
x,-y,z
loop_
_atom_site_type_symbol
_atom_site_label
_atom_site_fract_x
_atom_site_fract_y
_atom_site_fract_z
Si Si1 0.840655 0.159564 0.214457
Si Si2 0.649819 0.829597 0.048077
Si Si3 0.845319 0.168147 0.378042
Si Si4 0.159222 0.660773 0.705843
Si Si5 0.649792 0.829938 0.452051
Si Si6 0.149326 0.829127 0.119260
O O1 0.782034 0.264673 0.251055
O O2 0.799722 0.217649 0.166932
O O3 0.000000 0.152320 0.217094
O O4 0.782312 0.000000 0.222300
O O5 0.500000 0.774602 0.058441
O O6 0.751672 0.763652 0.083183
O O7 0.652893 0.000000 0.050394
O O8 0.692830 0.779479 0.000000
O O9 0.793875 0.249828 0.335660
O O10 0.757872 0.228351 0.417885
O O11 0.000000 0.202260 0.388313
O O12 0.823311 0.000000 0.370105
O O13 0.216766 0.500000 0.702926
O O14 0.000000 0.658874 0.708093
O O15 0.686139 0.772218 0.500000
O O16 0.500000 0.778727 0.439177
O O17 0.655056 0.000000 0.452538
O O18 0.000000 0.769378 0.110245
O O19 0.146528 0.000000 0.117435
#
# Coordination Sequence:
#
# PCOD8200889 Si02
#       6
#     8   8   8   8   8   8
#     4   8  13  22  36  53  74 100 130 163 196 230
#     4   8  13  20  29  43  67  98 125 148 181 226
#     4   9  16  25  40  63  86 106 131 164 198 229
#     4   9  16  25  38  57  81 107 133 161 195 236
#     4   8  14  25  41  61  84 108 133 162 196 232
#     4   8  13  20  31  48  68  92 123 155 185 219
#
# _framework density 16.614706999999999
#
# number of rings (size 3 to 8) (size 9 to 14) (size 15 to 20)
#    0.000    3.667    0.000    2.500    0.000    2.667 
#    0.000    3.333    0.000    2.000    0.000    8.167 
#    0.000    0.667    0.000    8.333    0.000    9.667 
#
# Total GULP energy -594800.251340 kJ/mol
# GULP energy per Si atom -12391.671903 kJ/mol
# Density = 1.657689 g / cm^3
# Si number density = 16.614707 Si / 1000 Ang^3
#
#
#
# Elastic Constant Matrix: (Units=GPa)
#
#
# Indices 1 2 3 4 5 6 
#
# 1 65.6588 20.7339 76.7754 0.0000 0.0000 0.0000
# 2 20.7339 41.4687 43.1360 0.0000 0.0000 0.0000
# 3 76.7754 43.1360 178.3627 0.0000 0.0000 0.0000
# 4 0.0000 0.0000 0.0000 2.4159 0.0000 0.0000
# 5 0.0000 0.0000 0.0000 0.0000 9.4706 0.0000
# 6 0.0000 0.0000 0.0000 0.0000 0.0000 4.8097
#
#
#
# Elastic Compliance Matrix: (Units=1/GPa)
#
#
# Indices 1 2 3 4 5 6 
#
# 1 0.030807 -0.002150 -0.012741 0.000000 0.000000 0.000000
# 2 -0.002150 0.032370 -0.006903 0.000000 0.000000 0.000000
# 3 -0.012741 -0.006903 0.012760 0.000000 0.000000 0.000000
# 4 0.000000 0.000000 0.000000 0.413925 0.000000 0.000000
# 5 0.000000 0.000000 0.000000 0.000000 0.105590 0.000000
# 6 0.000000 0.000000 0.000000 0.000000 0.000000 0.207915
#
#
# Mechanical properties :
#
#
# Convention : Reuss Voigt Hill
#
# Bulk Modulus (GPa) = 30.91231 62.97565 46.94398
# Shear Modulus (GPa) = 5.82928 12.99556 9.41242
#
# Velocity S-wave (km/s) = 1.87513 2.79977 2.38273
# Velocity P-wave (km/s) = 4.83052 6.95970 5.99047
#
# Compressibility (1/GPa) = 0.03234957
#
# Stress axis : x y z
#
# Youngs Moduli (GPa) = 32.45998 30.89266 78.36862
#
# Poissons Ratio (x) = 0.06643 0.99848
# Poissons Ratio (y) = 0.06980 0.54098
# Poissons Ratio (z) = 0.41357 0.21325
#
# Static dielectric constant tensor:
#      x y z
#    x 2.997720 0.000000 0.000000 
#    y 0.000000 2.732410 0.000000 
#    z 0.000000 0.000000 3.543000 
# 
# 
# High freq. dielectric constant tensor:
#      x y z
#    x 1.601920 0.000000 0.000000 
#    y 0.000000 1.583570 0.000000 
#    z 0.000000 0.000000 1.656170 
# 
# From -- ./inp_files/4437.got.cif
#   From: 2010.03.12/outbox.cif.g09.slc.cpg/sg47_3_cif.got.tgz:4437.got - 2010.04.14 03:12:58.
