data_PCOD8200987
_publ_section_title
;
Structure prediction by ZEFSAII (Michael W. Deem and Ramdas Pophale) SiO2 
 PCOD8200987
Probable space group: P M M M
;
_chemical_formula_sum "Si O2"
_cell_formula_units_Z 56
_cell_length_a 18.125761
_cell_length_b 9.307121
_cell_length_c 21.625821
_cell_angle_alpha 90.000000
_cell_angle_beta 90.000000
_cell_angle_gamma 90.000000
_cell_volume 3648.246826
_symmetry_space_group_name_H-M "P M M M"
_symmetry_group_IT_number 47
_symmetry_cell_setting 'orthorhombic'
loop_
_space_group_symop_operation_xyz
x,y,z
-x,-y,z
x,-y,-z
-x,y,-z
-x,-y,-z
x,y,-z
-x,y,z
x,-y,z
loop_
_atom_site_type_symbol
_atom_site_label
_atom_site_fract_x
_atom_site_fract_y
_atom_site_fract_z
Si Si1 0.797913 0.162647 0.746006
Si Si2 0.415604 0.334251 0.801912
Si Si3 0.819297 0.664864 0.069304
Si Si4 0.321162 0.667471 0.318896
Si Si5 0.417648 0.329482 0.431094
Si Si6 0.700230 0.161725 0.131847
Si Si7 0.915223 0.331907 0.185052
O O1 0.754295 0.244427 0.691450
O O2 0.748005 0.165867 0.806409
O O3 0.874007 0.244802 0.760813
O O4 0.815376 0.000000 0.725132
O O5 0.500000 0.285056 0.797491
O O6 0.408069 0.500000 0.820604
O O7 0.379110 0.305174 0.735727
O O8 0.376720 0.242088 0.855632
O O9 0.796446 0.500000 0.079887
O O10 0.745682 0.758564 0.078303
O O11 0.883166 0.708911 0.117486
O O12 0.849787 0.690578 0.000000
O O13 0.300415 0.500000 0.324033
O O14 0.358965 0.728860 0.381296
O O15 0.392517 0.282345 0.500000
O O16 0.500000 0.269099 0.417340
O O17 0.420695 0.500000 0.425789
O O18 0.683489 0.000000 0.110326
O O19 0.905095 0.500000 0.198690
O O20 0.000000 0.285004 0.185653
#
# Coordination Sequence:
#
# PCOD8200987 Si02
#       7
#     8   8   8   8   8   8   8
#     4   9  17  28  41  58  81 109 139 169 202 240
#     4   9  16  25  39  59  80 102 131 169 211 250
#     4   9  17  29  45  63  82 106 134 160 189 231
#     4   9  15  24  40  60  82 109 142 176 206 239
#     4   8  13  21  35  58  87 116 146 180 214 244
#     4   9  17  28  41  57  78 104 133 166 203 240
#     4   9  17  29  45  65  88 110 131 159 196 237
#
# _framework density 15.34984
#
# number of rings (size 3 to 8) (size 9 to 14) (size 15 to 20)
#    0.000    3.143    0.000    1.714    0.000    6.286 
#    0.000    1.429    0.000    2.143    0.000    8.000 
#    0.000    0.571    0.000    6.571    0.000    1.857 
#
# Total GULP energy -694230.123177 kJ/mol
# GULP energy per Si atom -12396.966485 kJ/mol
# Density = 1.531490 g / cm^3
# Si number density = 15.349840 Si / 1000 Ang^3
#
#
#
# Elastic Constant Matrix: (Units=GPa)
#
#
# Indices 1 2 3 4 5 6 
#
# 1 115.2097 54.6868 55.5368 0.0000 0.0000 0.0000
# 2 54.6868 68.7533 33.5507 0.0000 0.0000 0.0000
# 3 55.5368 33.5507 72.3717 0.0000 0.0000 0.0000
# 4 0.0000 0.0000 0.0000 10.2176 0.0000 0.0000
# 5 0.0000 0.0000 0.0000 0.0000 21.4726 0.0000
# 6 0.0000 0.0000 0.0000 0.0000 0.0000 13.5394
#
#
#
# Elastic Compliance Matrix: (Units=1/GPa)
#
#
# Indices 1 2 3 4 5 6 
#
# 1 0.017591 -0.009569 -0.009063 0.000000 0.000000 0.000000
# 2 -0.009569 0.024003 -0.003784 0.000000 0.000000 0.000000
# 3 -0.009063 -0.003784 0.022526 0.000000 0.000000 0.000000
# 4 0.000000 0.000000 0.000000 0.097870 0.000000 0.000000
# 5 0.000000 0.000000 0.000000 0.000000 0.046571 0.000000
# 6 0.000000 0.000000 0.000000 0.000000 0.000000 0.073859
#
#
# Mechanical properties :
#
#
# Convention : Reuss Voigt Hill
#
# Bulk Modulus (GPa) = 51.84620 60.43149 56.13885
# Shear Modulus (GPa) = 14.98436 16.54994 15.76715
#
# Velocity S-wave (km/s) = 3.12779 3.28713 3.20845
# Velocity P-wave (km/s) = 6.84791 7.33907 7.09774
#
# Compressibility (1/GPa) = 0.01928781
#
# Stress axis : x y z
#
# Youngs Moduli (GPa) = 56.84809 41.66161 44.39260
#
# Poissons Ratio (x) = 0.39868 0.40231
# Poissons Ratio (y) = 0.54400 0.16799
# Poissons Ratio (z) = 0.51519 0.15765
#
# Static dielectric constant tensor:
#      x y z
#    x 2.907950 0.000000 0.000000 
#    y 0.000000 2.910750 0.000000 
#    z 0.000000 0.000000 2.838460 
# 
# 
# High freq. dielectric constant tensor:
#      x y z
#    x 1.574510 0.000000 0.000000 
#    y 0.000000 1.577790 0.000000 
#    z 0.000000 0.000000 1.559300 
# 
# From -- ./inp_files/9817.got.cif
#   From: 2010.03.12/outbox.cif.g09.slc.cpg/sg47_5_cif.got.tgz:9817.got - 2010.04.14 03:12:58.
