data_PCOD8200552
_publ_section_title
;
Structure prediction by ZEFSAII (Michael W. Deem and Ramdas Pophale) SiO2 
 PCOD8200552
Probable space group: P M M M
;
_chemical_formula_sum "Si O2"
_cell_formula_units_Z 56
_cell_length_a 8.706188
_cell_length_b 23.525651
_cell_length_c 14.477604
_cell_angle_alpha 90.000000
_cell_angle_beta 90.000000
_cell_angle_gamma 90.000000
_cell_volume 2965.284616
_symmetry_space_group_name_H-M "P M M M"
_symmetry_group_IT_number 47
_symmetry_cell_setting 'orthorhombic'
loop_
_space_group_symop_operation_xyz
x,y,z
-x,-y,z
x,-y,-z
-x,y,-z
-x,-y,-z
x,y,-z
-x,y,z
x,-y,z
loop_
_atom_site_type_symbol
_atom_site_label
_atom_site_fract_x
_atom_site_fract_y
_atom_site_fract_z
Si Si1 0.181783 0.437014 0.750290
Si Si2 0.324015 0.935496 0.893108
Si Si3 0.817787 0.345980 0.605002
Si Si4 0.679903 0.264384 0.749769
Si Si5 0.182237 0.345611 0.105010
Si Si6 0.674304 0.935083 0.393509
Si Si7 0.176751 0.856689 0.749825
O O1 0.256648 0.500000 0.750514
O O2 0.235131 0.403209 0.658486
O O3 0.235406 0.402887 0.841731
O O4 0.000000 0.442433 0.750459
O O5 0.500000 0.918171 0.874049
O O6 0.210936 0.893637 0.840239
O O7 0.296235 0.000000 0.859154
O O8 0.283893 0.930019 0.000000
O O9 0.756241 0.348633 0.500000
O O10 0.748912 0.291629 0.656785
O O11 0.000000 0.339937 0.607402
O O12 0.500000 0.274572 0.749868
O O13 0.749105 0.291274 0.843012
O O14 0.716387 0.198187 0.749322
O O15 0.000000 0.339671 0.107399
O O16 0.243817 0.348049 0.000000
O O17 0.684075 0.918266 0.500000
O O18 0.500000 0.927010 0.357184
O O19 0.788911 0.894118 0.340033
O O20 0.726188 0.000000 0.378278
O O21 0.000000 0.837922 0.749642
#
# Coordination Sequence:
#
# PCOD8200552 Si02
#       7
#     8   8   8   8   8   8   8
#     4   8  14  26  48  82 117 142 170 209 253 307
#     4   9  19  37  59  81 107 140 176 213 255 308
#     4   9  18  34  55  78 107 141 175 216 265 310
#     4  11  23  38  55  74 100 136 180 225 264 312
#     4   9  18  34  55  78 107 141 175 216 265 310
#     4   9  19  37  59  81 107 140 176 213 255 308
#     4  12  24  36  54  80 109 139 172 216 269 318
#
# _framework density 18.885202
#
# number of rings (size 3 to 8) (size 9 to 14) (size 15 to 20)
#    0.000    2.429    0.000    4.714    0.000    5.143 
#    0.000    4.286    0.000    6.857    0.000    8.000 
#    0.000    0.000    0.000    0.000    0.000    0.000 
#
# Total GULP energy -694405.579622 kJ/mol
# GULP energy per Si atom -12400.099636 kJ/mol
# Density = 1.884222 g / cm^3
# Si number density = 18.885202 Si / 1000 Ang^3
#
#
#
# Elastic Constant Matrix: (Units=GPa)
#
#
# Indices 1 2 3 4 5 6 
#
# 1 42.3395 16.3078 27.0555 0.0000 0.0000 0.0000
# 2 16.3078 115.9660 59.2178 0.0000 0.0000 0.0000
# 3 27.0555 59.2178 149.1028 0.0000 0.0000 0.0000
# 4 0.0000 0.0000 0.0000 24.5468 0.0000 0.0000
# 5 0.0000 0.0000 0.0000 0.0000 24.0380 0.0000
# 6 0.0000 0.0000 0.0000 0.0000 0.0000 6.9438
#
#
#
# Elastic Compliance Matrix: (Units=1/GPa)
#
#
# Indices 1 2 3 4 5 6 
#
# 1 0.026957 -0.001622 -0.004247 0.000000 0.000000 0.000000
# 2 -0.001622 0.010915 -0.004041 0.000000 0.000000 0.000000
# 3 -0.004247 -0.004041 0.009082 0.000000 0.000000 0.000000
# 4 0.000000 0.000000 0.000000 0.040738 0.000000 0.000000
# 5 0.000000 0.000000 0.000000 0.000000 0.041601 0.000000
# 6 0.000000 0.000000 0.000000 0.000000 0.000000 0.144014
#
#
# Mechanical properties :
#
#
# Convention : Reuss Voigt Hill
#
# Bulk Modulus (GPa) = 36.85349 56.95227 46.90288
# Shear Modulus (GPa) = 16.54687 24.76088 20.65387
#
# Velocity S-wave (km/s) = 2.96325 3.62488 3.31063
# Velocity P-wave (km/s) = 5.59148 6.90957 6.28517
#
# Compressibility (1/GPa) = 0.02713447
#
# Stress axis : x y z
#
# Youngs Moduli (GPa) = 37.09551 91.62038 110.10516
#
# Poissons Ratio (x) = 0.14861 0.46766
# Poissons Ratio (y) = 0.06017 0.44488
# Poissons Ratio (z) = 0.15756 0.37019
#
# Static dielectric constant tensor:
#      x y z
#    x 3.182860 0.000000 0.000000 
#    y 0.000000 3.541210 0.000000 
#    z 0.000000 0.000000 3.629050 
# 
# 
# High freq. dielectric constant tensor:
#      x y z
#    x 1.708930 0.000000 0.000000 
#    y 0.000000 1.734270 0.000000 
#    z 0.000000 0.000000 1.742640 
# 
# From -- ./inp_files/11189.got.cif
#   From: 2010.03.12/outbox.cif.g09.slc.cpg/sg47_6_cif.got.tgz:11189.got - 2010.04.14 03:12:58.
