data_PCOD8200165
_publ_section_title
;
Structure prediction by ZEFSAII (Michael W. Deem and Ramdas Pophale) SiO2 
 PCOD8200165
Probable space group: P M M M
;
_chemical_formula_sum "Si O2"
_cell_formula_units_Z 40
_cell_length_a 7.886981
_cell_length_b 27.784411
_cell_length_c 9.036725
_cell_angle_alpha 90.000000
_cell_angle_beta 90.000000
_cell_angle_gamma 90.000000
_cell_volume 1980.263832
_symmetry_space_group_name_H-M "P M M M"
_symmetry_group_IT_number 47
_symmetry_cell_setting 'orthorhombic'
loop_
_space_group_symop_operation_xyz
x,y,z
-x,-y,z
x,-y,-z
-x,y,-z
-x,-y,-z
x,y,-z
-x,y,z
x,-y,z
loop_
_atom_site_type_symbol
_atom_site_label
_atom_site_fract_x
_atom_site_fract_y
_atom_site_fract_z
Si Si1 0.698082 0.888913 0.175006
Si Si2 0.197657 0.691762 0.667144
Si Si3 0.297030 0.500000 0.164698
Si Si4 0.698111 0.792956 0.334956
Si Si5 0.000000 0.056865 0.329899
Si Si6 0.696339 0.408614 0.335702
O O1 0.500000 0.899800 0.217519
O O2 0.757764 0.836257 0.230040
O O3 0.826127 0.926223 0.251182
O O4 0.722057 0.891645 0.000000
O O5 0.269600 0.694587 0.500000
O O6 0.250265 0.742261 0.743341
O O7 0.275018 0.643602 0.742745
O O8 0.000000 0.685578 0.672811
O O9 0.500000 0.500000 0.164217
O O10 0.222089 0.547823 0.243031
O O11 0.224438 0.500000 0.000000
O O12 0.781301 0.797879 0.500000
O O13 0.500000 0.795078 0.352023
O O14 0.000000 0.074671 0.500000
O O15 0.000000 0.000000 0.320239
O O16 0.779570 0.407920 0.500000
O O17 0.500000 0.419508 0.348940
#
# Coordination Sequence:
#
# PCOD8200165 Si02
#       6
#     8   8   4   8   4   8
#     4  10  22  40  62  90 125 163 202 245 296 356
#     4   9  17  28  45  72 102 131 168 215 264 316
#     4   9  17  29  46  67  88 114 154 203 254 308
#     4   9  17  31  53  80 109 144 186 230 276 327
#     4  11  25  43  65  93 123 159 205 254 301 348
#     4   9  16  28  47  68  90 119 159 206 254 308
#
# _framework density 20.199328999999999
#
# number of rings (size 3 to 8) (size 9 to 14) (size 15 to 20)
#    0.000    2.600    0.000    1.800    1.400    6.000 
#    0.000    3.500    0.000    9.600    0.000    0.000 
#    0.000    0.000    0.000    0.000    0.000    0.000 
#
# Total GULP energy -495674.808737 kJ/mol
# GULP energy per Si atom -12391.870218 kJ/mol
# Density = 2.015335 g / cm^3
# Si number density = 20.199329 Si / 1000 Ang^3
#
#
#
# Elastic Constant Matrix: (Units=GPa)
#
#
# Indices 1 2 3 4 5 6 
#
# 1 52.7346 41.8551 34.6608 0.0000 0.0000 0.0000
# 2 41.8551 154.5523 59.3980 0.0000 0.0000 0.0000
# 3 34.6608 59.3980 94.7838 0.0000 0.0000 0.0000
# 4 0.0000 0.0000 0.0000 11.8732 0.0000 0.0000
# 5 0.0000 0.0000 0.0000 0.0000 17.8539 0.0000
# 6 0.0000 0.0000 0.0000 0.0000 0.0000 9.7913
#
#
#
# Elastic Compliance Matrix: (Units=1/GPa)
#
#
# Indices 1 2 3 4 5 6 
#
# 1 0.027319 -0.004688 -0.007052 0.000000 0.000000 0.000000
# 2 -0.004688 0.009328 -0.004131 0.000000 0.000000 0.000000
# 3 -0.007052 -0.004131 0.015718 0.000000 0.000000 0.000000
# 4 0.000000 0.000000 0.000000 0.084224 0.000000 0.000000
# 5 0.000000 0.000000 0.000000 0.000000 0.056010 0.000000
# 6 0.000000 0.000000 0.000000 0.000000 0.000000 0.102131
#
#
# Mechanical properties :
#
#
# Convention : Reuss Voigt Hill
#
# Bulk Modulus (GPa) = 48.49188 63.76651 56.12919
# Shear Modulus (GPa) = 14.99945 18.98081 16.99013
#
# Velocity S-wave (km/s) = 2.72797 3.06874 2.90336
# Velocity P-wave (km/s) = 5.82934 6.64781 6.25198
#
# Compressibility (1/GPa) = 0.02062201
#
# Stress axis : x y z
#
# Youngs Moduli (GPa) = 36.60457 107.20986 63.62174
#
# Poissons Ratio (x) = 0.50261 0.44867
# Poissons Ratio (y) = 0.17160 0.26281
# Poissons Ratio (z) = 0.25814 0.44287
#
# Static dielectric constant tensor:
#      x y z
#    x 3.412310 0.000000 0.000000 
#    y 0.000000 4.054490 0.000000 
#    z 0.000000 0.000000 3.567720 
# 
# 
# High freq. dielectric constant tensor:
#      x y z
#    x 1.775780 0.000000 0.000000 
#    y 0.000000 1.805850 0.000000 
#    z 0.000000 0.000000 1.749830 
# 
# From -- ./inp_files/1711.got.cif
#   From: 2010.03.12/outbox.cif.g09.slc.cpg/sg47_1_cif.got.tgz:1711.got - 2010.04.14 03:12:58.
