data_PCOD8200329
_publ_section_title
;
Structure prediction by ZEFSAII (Michael W. Deem and Ramdas Pophale) SiO2 
 PCOD8200329
Probable space group: P M M M
;
_chemical_formula_sum "Si O2"
_cell_formula_units_Z 52
_cell_length_a 8.888667
_cell_length_b 18.578913
_cell_length_c 18.340810
_cell_angle_alpha 90.000000
_cell_angle_beta 90.000000
_cell_angle_gamma 90.000000
_cell_volume 3028.833843
_symmetry_space_group_name_H-M "P M M M"
_symmetry_group_IT_number 47
_symmetry_cell_setting 'orthorhombic'
loop_
_space_group_symop_operation_xyz
x,y,z
-x,-y,z
x,-y,-z
-x,y,-z
-x,-y,-z
x,y,-z
-x,y,z
x,-y,z
loop_
_atom_site_type_symbol
_atom_site_label
_atom_site_fract_x
_atom_site_fract_y
_atom_site_fract_z
Si Si1 0.324812 0.228710 0.082951
Si Si2 0.823165 0.921438 0.341835
Si Si3 0.665783 0.856727 0.785211
Si Si4 0.322175 0.500000 0.914869
Si Si5 0.331102 0.703034 0.290794
Si Si6 0.178096 0.222087 0.416845
Si Si7 0.178187 0.361651 0.158039
O O1 0.500000 0.250764 0.094242
O O2 0.287616 0.156788 0.130454
O O3 0.220993 0.294453 0.107368
O O4 0.288797 0.208926 0.000000
O O5 0.779872 0.908555 0.257159
O O6 0.759621 0.857074 0.392514
O O7 0.000000 0.922337 0.347336
O O8 0.760466 0.000000 0.366932
O O9 0.500000 0.891457 0.779585
O O10 0.666582 0.778275 0.750062
O O11 0.500000 0.500000 0.903086
O O12 0.251898 0.569031 0.877210
O O13 0.280227 0.500000 0.000000
O O14 0.500000 0.673731 0.303372
O O15 0.251283 0.714341 0.369092
O O16 0.238984 0.647037 0.240870
O O17 0.225935 0.234761 0.500000
O O18 0.000000 0.225084 0.405974
O O19 0.000000 0.370139 0.160872
#
# Coordination Sequence:
#
# PCOD8200329 Si02
#       7
#     8   8   8   4   8   8   8
#     4   9  17  30  47  66  89 117 150 190 237 284
#     4   9  17  28  42  61  87 121 156 187 226 280
#     4   8  15  27  43  62  82 109 148 192 232 272
#     4  11  23  37  51  69 100 139 170 195 229 273
#     4   9  17  31  49  67  90 122 159 194 230 275
#     4   9  17  29  46  70  98 123 150 191 239 280
#     4  11  21  32  48  71  98 126 159 196 232 273
#
# _framework density 17.168324999999999
#
# number of rings (size 3 to 8) (size 9 to 14) (size 15 to 20)
#    0.000    2.692    0.000    3.462    0.000    7.385 
#    0.000    1.538    0.000    0.462    0.000    8.077 
#    0.000    4.308    0.000    0.000    0.000    0.000 
#
# Total GULP energy -644502.652542 kJ/mol
# GULP energy per Si atom -12394.281780 kJ/mol
# Density = 1.712925 g / cm^3
# Si number density = 17.168325 Si / 1000 Ang^3
#
#
#
# Elastic Constant Matrix: (Units=GPa)
#
#
# Indices 1 2 3 4 5 6 
#
# 1 69.9148 31.0082 45.9243 0.0000 0.0000 0.0000
# 2 31.0082 48.4674 41.9506 0.0000 0.0000 0.0000
# 3 45.9243 41.9506 144.6712 0.0000 0.0000 0.0000
# 4 0.0000 0.0000 0.0000 20.5731 0.0000 0.0000
# 5 0.0000 0.0000 0.0000 0.0000 27.1734 0.0000
# 6 0.0000 0.0000 0.0000 0.0000 0.0000 51.3410
#
#
#
# Elastic Compliance Matrix: (Units=1/GPa)
#
#
# Indices 1 2 3 4 5 6 
#
# 1 0.021406 -0.010432 -0.003770 0.000000 0.000000 0.000000
# 2 -0.010432 0.032630 -0.006150 0.000000 0.000000 0.000000
# 3 -0.003770 -0.006150 0.009892 0.000000 0.000000 0.000000
# 4 0.000000 0.000000 0.000000 0.048607 0.000000 0.000000
# 5 0.000000 0.000000 0.000000 0.000000 0.036801 0.000000
# 6 0.000000 0.000000 0.000000 0.000000 0.000000 0.019478
#
#
# Mechanical properties :
#
#
# Convention : Reuss Voigt Hill
#
# Bulk Modulus (GPa) = 43.05927 55.64659 49.35293
# Shear Modulus (GPa) = 23.01390 29.42887 26.22138
#
# Velocity S-wave (km/s) = 3.66524 4.14471 3.91232
# Velocity P-wave (km/s) = 6.56102 7.44228 7.01550
#
# Compressibility (1/GPa) = 0.02322380
#
# Stress axis : x y z
#
# Youngs Moduli (GPa) = 46.71517 30.64686 101.08732
#
# Poissons Ratio (x) = 0.31970 0.38112
# Poissons Ratio (y) = 0.48733 0.62171
# Poissons Ratio (z) = 0.17613 0.18848
#
# Static dielectric constant tensor:
#      x y z
#    x 3.242390 0.000000 0.000000 
#    y 0.000000 2.765680 0.000000 
#    z 0.000000 0.000000 3.465920 
# 
# 
# High freq. dielectric constant tensor:
#      x y z
#    x 1.661480 0.000000 0.000000 
#    y 0.000000 1.626500 0.000000 
#    z 0.000000 0.000000 1.662320 
# 
# From -- ./inp_files/26748.got.cif
#   From: 2010.03.12/outbox.cif.g09.slc.cpg/sg47_14_cif.got.tgz:26748.got - 2010.04.14 03:12:58.
