data_PCOD8200339
_publ_section_title
;
Structure prediction by ZEFSAII (Michael W. Deem and Ramdas Pophale) SiO2 
 PCOD8200339
Probable space group: P M M M
;
_chemical_formula_sum "Si O2"
_cell_formula_units_Z 52
_cell_length_a 9.696829
_cell_length_b 27.073281
_cell_length_c 13.731863
_cell_angle_alpha 90.000000
_cell_angle_beta 90.000000
_cell_angle_gamma 90.000000
_cell_volume 3604.957009
_symmetry_space_group_name_H-M "P M M M"
_symmetry_group_IT_number 47
_symmetry_cell_setting 'orthorhombic'
loop_
_space_group_symop_operation_xyz
x,y,z
-x,-y,z
x,-y,-z
-x,y,-z
-x,-y,-z
x,y,-z
-x,y,z
x,-y,z
loop_
_atom_site_type_symbol
_atom_site_label
_atom_site_fract_x
_atom_site_fract_y
_atom_site_fract_z
Si Si1 0.162457 0.083994 0.716861
Si Si2 0.338462 0.000000 0.384613
Si Si3 0.000000 0.443729 0.383673
Si Si4 0.500000 0.554616 0.616101
Si Si5 0.656076 0.942233 0.887800
Si Si6 0.843447 0.186812 0.388064
Si Si7 0.656733 0.275989 0.383950
Si Si8 0.747714 0.618643 0.615988
O O1 0.227560 0.085636 0.824992
O O2 0.180105 0.138079 0.673851
O O3 0.000000 0.068210 0.718791
O O4 0.255936 0.047630 0.652677
O O5 0.500000 0.000000 0.349280
O O6 0.333624 0.000000 0.500000
O O7 0.123077 0.410730 0.342475
O O8 0.000000 0.500000 0.342294
O O9 0.000000 0.446953 0.500000
O O10 0.500000 0.500000 0.661314
O O11 0.500000 0.551509 0.500000
O O12 0.626989 0.584929 0.656372
O O13 0.500000 0.924137 0.863652
O O14 0.667206 0.000000 0.863402
O O15 0.690417 0.931782 0.000000
O O16 0.808380 0.174475 0.500000
O O17 0.742919 0.229073 0.346112
O O18 0.000000 0.206031 0.378366
O O19 0.656572 0.277182 0.500000
O O20 0.500000 0.272797 0.344758
O O21 0.730819 0.325609 0.343671
O O22 0.750276 0.620779 0.500000
#
# Coordination Sequence:
#
# PCOD8200339 Si02
#       8
#     8   4   4   4   8   8   8   8
#     4  11  21  33  49  70  91 112 138 174 213 249
#     4  11  23  35  48  65  88 119 149 172 204 253
#     4   9  16  22  28  42  62  84 112 147 192 247
#     4   9  14  20  30  42  60  84 108 143 194 245
#     4   9  18  33  52  72  94 117 138 162 197 246
#     4   9  19  32  44  58  80 108 137 170 210 250
#     4   9  16  26  38  52  67  89 126 167 204 242
#     4   9  15  22  31  44  61  83 113 151 196 243
#
# _framework density 14.424581999999999
#
# number of rings (size 3 to 8) (size 9 to 14) (size 15 to 20)
#    0.000    2.538    1.538    2.077    1.077    4.615 
#    0.000    2.308    0.000    0.000    0.000    0.000 
#    0.000    0.000    0.000    0.000    0.000    0.000 
#
# Total GULP energy -644373.498952 kJ/mol
# GULP energy per Si atom -12391.798057 kJ/mol
# Density = 1.439175 g / cm^3
# Si number density = 14.424582 Si / 1000 Ang^3
#
#
#
# Elastic Constant Matrix: (Units=GPa)
#
#
# Indices 1 2 3 4 5 6 
#
# 1 135.4808 72.0205 31.3674 0.0000 0.0000 0.0000
# 2 72.0205 114.1369 26.0066 0.0000 0.0000 0.0000
# 3 31.3674 26.0066 38.3744 0.0000 0.0000 0.0000
# 4 0.0000 0.0000 0.0000 1.7524 0.0000 0.0000
# 5 0.0000 0.0000 0.0000 0.0000 16.0093 0.0000
# 6 0.0000 0.0000 0.0000 0.0000 0.0000 28.5490
#
#
#
# Elastic Compliance Matrix: (Units=1/GPa)
#
#
# Indices 1 2 3 4 5 6 
#
# 1 0.012028 -0.006326 -0.005544 0.000000 0.000000 0.000000
# 2 -0.006326 0.013689 -0.004106 0.000000 0.000000 0.000000
# 3 -0.005544 -0.004106 0.033373 0.000000 0.000000 0.000000
# 4 0.000000 0.000000 0.000000 0.570651 0.000000 0.000000
# 5 0.000000 0.000000 0.000000 0.000000 0.062464 0.000000
# 6 0.000000 0.000000 0.000000 0.000000 0.000000 0.035027
#
#
# Mechanical properties :
#
#
# Convention : Reuss Voigt Hill
#
# Bulk Modulus (GPa) = 36.84958 60.75347 48.80152
# Shear Modulus (GPa) = 6.50846 19.83531 13.17189
#
# Velocity S-wave (km/s) = 2.12647 3.71226 3.02512
# Velocity P-wave (km/s) = 5.62414 7.78357 6.79025
#
# Compressibility (1/GPa) = 0.02713735
#
# Stress axis : x y z
#
# Youngs Moduli (GPa) = 83.14120 73.05230 29.96392
#
# Poissons Ratio (x) = 0.46215 0.16613
# Poissons Ratio (y) = 0.52597 0.12303
# Poissons Ratio (z) = 0.46095 0.29995
#
# Static dielectric constant tensor:
#      x y z
#    x 3.064100 0.000000 0.000000 
#    y 0.000000 2.907440 0.000000 
#    z 0.000000 0.000000 2.345820 
# 
# 
# High freq. dielectric constant tensor:
#      x y z
#    x 1.571050 0.000000 0.000000 
#    y 0.000000 1.554110 0.000000 
#    z 0.000000 0.000000 1.478140 
# 
# From -- ./inp_files/22030.got.cif
#   From: 2010.03.12/outbox.cif.g09.slc.cpg/sg47_12_cif.got.tgz:22030.got - 2010.04.14 03:12:58.
