data_PCOD8200253
_publ_section_title
;
Structure prediction by ZEFSAII (Michael W. Deem and Ramdas Pophale) SiO2 
 PCOD8200253
Probable space group: P M M M
;
_chemical_formula_sum "Si O2"
_cell_formula_units_Z 52
_cell_length_a 28.608626
_cell_length_b 11.436620
_cell_length_c 9.954046
_cell_angle_alpha 90.000000
_cell_angle_beta 90.000000
_cell_angle_gamma 90.000000
_cell_volume 3256.824338
_symmetry_space_group_name_H-M "P M M M"
_symmetry_group_IT_number 47
_symmetry_cell_setting 'orthorhombic'
loop_
_space_group_symop_operation_xyz
x,y,z
-x,-y,z
x,-y,-z
-x,y,-z
-x,-y,-z
x,y,-z
-x,y,z
x,-y,z
loop_
_atom_site_type_symbol
_atom_site_label
_atom_site_fract_x
_atom_site_fract_y
_atom_site_fract_z
Si Si1 0.132375 0.139537 0.153341
Si Si2 0.212259 0.138675 0.649582
Si Si3 0.444711 0.133256 0.000000
Si Si4 0.682372 0.133429 0.342307
Si Si5 0.947679 0.138963 0.650393
Si Si6 0.555625 0.500000 0.660132
Si Si7 0.593846 0.257355 0.256618
Si Si8 0.553651 0.875400 0.500000
O O1 0.177467 0.186999 0.235487
O O2 0.087159 0.187285 0.234801
O O3 0.132416 0.000000 0.149389
O O4 0.132447 0.188436 0.000000
O O5 0.199380 0.187445 0.500000
O O6 0.264881 0.175042 0.688817
O O7 0.208772 0.000000 0.642656
O O8 0.425585 0.206181 0.878173
O O9 0.500000 0.132212 0.000000
O O10 0.425686 0.000000 0.000000
O O11 0.671672 0.139920 0.500000
O O12 0.648791 0.225548 0.267504
O O13 0.674458 0.000000 0.291087
O O14 0.932846 0.181367 0.500000
O O15 0.000000 0.183736 0.683793
O O16 0.946479 0.000000 0.652141
O O17 0.500000 0.500000 0.693109
O O18 0.563430 0.500000 0.500000
O O19 0.582865 0.606224 0.730396
O O20 0.564856 0.196305 0.370749
O O21 0.500000 0.903031 0.500000
O O22 0.581027 0.000000 0.500000
#
# Coordination Sequence:
#
# PCOD8200253 Si02
#       8
#     8   8   4   8   8   4   8   4
#     4   9  15  21  29  45  68  93 124 162 210 266
#     4   8  14  24  38  53  71  97 128 167 217 272
#     4  11  24  39  53  75 105 130 155 189 234 286
#     4   9  16  29  49  70  88 110 147 192 236 278
#     4   8  13  20  29  40  57  87 128 171 211 250
#     4  11  22  37  57  79 101 127 163 199 228 273
#     4  12  22  36  54  74 101 129 159 194 232 279
#     4  11  20  31  53  77  95 122 157 195 236 274
#
# _framework density 15.966474
#
# number of rings (size 3 to 8) (size 9 to 14) (size 15 to 20)
#    0.000    2.385    1.538    4.615    0.000    3.692 
#    1.385    2.308    0.000    0.000    0.000    0.000 
#    0.000    0.000    0.000    0.000    0.000    0.000 
#
# Total GULP energy -644377.886861 kJ/mol
# GULP energy per Si atom -12391.882440 kJ/mol
# Density = 1.593013 g / cm^3
# Si number density = 15.966474 Si / 1000 Ang^3
#
#
#
# Elastic Constant Matrix: (Units=GPa)
#
#
# Indices 1 2 3 4 5 6 
#
# 1 120.6231 31.9154 67.2356 0.0000 0.0000 0.0000
# 2 31.9154 72.6316 36.9431 0.0000 0.0000 0.0000
# 3 67.2356 36.9431 131.1686 0.0000 0.0000 0.0000
# 4 0.0000 0.0000 0.0000 21.8304 0.0000 0.0000
# 5 0.0000 0.0000 0.0000 0.0000 25.2080 0.0000
# 6 0.0000 0.0000 0.0000 0.0000 0.0000 2.5061
#
#
#
# Elastic Compliance Matrix: (Units=1/GPa)
#
#
# Indices 1 2 3 4 5 6 
#
# 1 0.011983 -0.002499 -0.005438 0.000000 0.000000 0.000000
# 2 -0.002499 0.016592 -0.003392 0.000000 0.000000 0.000000
# 3 -0.005438 -0.003392 0.011367 0.000000 0.000000 0.000000
# 4 0.000000 0.000000 0.000000 0.045808 0.000000 0.000000
# 5 0.000000 0.000000 0.000000 0.000000 0.039670 0.000000
# 6 0.000000 0.000000 0.000000 0.000000 0.000000 0.399030
#
#
# Mechanical properties :
#
#
# Convention : Reuss Voigt Hill
#
# Bulk Modulus (GPa) = 57.86316 66.29018 62.07667
# Shear Modulus (GPa) = 9.04374 22.46418 15.75396
#
# Velocity S-wave (km/s) = 2.38254 3.75502 3.14457
# Velocity P-wave (km/s) = 6.62478 7.77230 7.22137
#
# Compressibility (1/GPa) = 0.01728215
#
# Stress axis : x y z
#
# Youngs Moduli (GPa) = 83.45189 60.27165 87.97595
#
# Poissons Ratio (x) = 0.15064 0.47845
# Poissons Ratio (y) = 0.20857 0.29840
# Poissons Ratio (z) = 0.45385 0.20443
#
# Static dielectric constant tensor:
#      x y z
#    x 3.359640 0.000000 0.000000 
#    y 0.000000 2.625390 0.000000 
#    z 0.000000 0.000000 3.135070 
# 
# 
# High freq. dielectric constant tensor:
#      x y z
#    x 1.623820 0.000000 0.000000 
#    y 0.000000 1.542400 0.000000 
#    z 0.000000 0.000000 1.615300 
# 
# From -- ./inp_files/14144.got.cif
#   From: 2010.03.12/outbox.cif.g09.slc.cpg/sg47_8_cif.got.tgz:14144.got - 2010.04.14 03:12:58.
