data_PCOD8200488
_publ_section_title
;
Structure prediction by ZEFSAII (Michael W. Deem and Ramdas Pophale) SiO2 
 PCOD8200488
Probable space group: P M M M
;
_chemical_formula_sum "Si O2"
_cell_formula_units_Z 52
_cell_length_a 9.302387
_cell_length_b 21.436836
_cell_length_c 13.938254
_cell_angle_alpha 90.000000
_cell_angle_beta 90.000000
_cell_angle_gamma 90.000000
_cell_volume 2779.479422
_symmetry_space_group_name_H-M "P M M M"
_symmetry_group_IT_number 47
_symmetry_cell_setting 'orthorhombic'
loop_
_space_group_symop_operation_xyz
x,y,z
-x,-y,z
x,-y,-z
-x,y,-z
-x,-y,-z
x,y,-z
-x,y,z
x,-y,z
loop_
_atom_site_type_symbol
_atom_site_label
_atom_site_fract_x
_atom_site_fract_y
_atom_site_fract_z
Si Si1 0.333902 0.000000 0.613249
Si Si2 0.338574 0.072718 0.890924
Si Si3 0.669116 0.429155 0.209071
Si Si4 0.165430 0.748767 0.706410
Si Si5 0.167582 0.323395 0.107768
Si Si6 0.332886 0.354683 0.393073
Si Si7 0.167239 0.891153 0.716974
O O1 0.257973 0.062161 0.651545
O O2 0.500000 0.000000 0.646643
O O3 0.319817 0.000000 0.500000
O O4 0.500000 0.097958 0.871567
O O5 0.221658 0.107065 0.826254
O O6 0.334099 0.000000 0.865829
O O7 0.293480 0.085078 0.000000
O O8 0.500000 0.422702 0.192119
O O9 0.720996 0.500000 0.196178
O O10 0.748209 0.387014 0.130682
O O11 0.711893 0.407668 0.316859
O O12 0.211375 0.730491 0.815830
O O13 0.253988 0.710015 0.629045
O O14 0.193714 0.820877 0.682366
O O15 0.000000 0.731748 0.691915
O O16 0.000000 0.338967 0.114722
O O17 0.208554 0.300948 0.000000
O O18 0.291334 0.377814 0.500000
O O19 0.500000 0.339764 0.385514
O O20 0.000000 0.909806 0.712955
#
# Coordination Sequence:
#
# PCOD8200488 Si02
#       7
#     4   8   8   8   8   8   8
#     4  11  25  43  60  77 102 139 177 214 262 321
#     4   9  18  33  53  77 107 140 169 201 247 306
#     4   9  18  32  50  75 107 139 171 212 261 307
#     4   9  20  36  53  76 105 136 170 212 262 311
#     4   9  18  34  54  74 102 141 179 213 249 295
#     4   9  18  33  53  76 101 132 173 217 258 307
#     4  11  22  36  57  83 108 135 171 219 269 314
#
# _framework density 18.708538000000001
#
# number of rings (size 3 to 8) (size 9 to 14) (size 15 to 20)
#    0.000    2.538    0.769    1.154    0.000    4.923 
#    0.000    8.462    0.000    0.000    0.000    4.308 
#    0.000    0.000    0.000    0.000    0.000    0.000 
#
# Total GULP energy -644750.433951 kJ/mol
# GULP energy per Si atom -12399.046807 kJ/mol
# Density = 1.866596 g / cm^3
# Si number density = 18.708538 Si / 1000 Ang^3
#
#
#
# Elastic Constant Matrix: (Units=GPa)
#
#
# Indices 1 2 3 4 5 6 
#
# 1 64.0672 36.9196 26.6215 0.0000 0.0000 0.0000
# 2 36.9196 84.6526 19.0865 0.0000 0.0000 0.0000
# 3 26.6215 19.0865 71.6282 0.0000 0.0000 0.0000
# 4 0.0000 0.0000 0.0000 16.0792 0.0000 0.0000
# 5 0.0000 0.0000 0.0000 0.0000 27.6300 0.0000
# 6 0.0000 0.0000 0.0000 0.0000 0.0000 29.0159
#
#
#
# Elastic Compliance Matrix: (Units=1/GPa)
#
#
# Indices 1 2 3 4 5 6 
#
# 1 0.023260 -0.008719 -0.006321 0.000000 0.000000 0.000000
# 2 -0.008719 0.015836 -0.000979 0.000000 0.000000 0.000000
# 3 -0.006321 -0.000979 0.016571 0.000000 0.000000 0.000000
# 4 0.000000 0.000000 0.000000 0.062192 0.000000 0.000000
# 5 0.000000 0.000000 0.000000 0.000000 0.036193 0.000000
# 6 0.000000 0.000000 0.000000 0.000000 0.000000 0.034464
#
#
# Mechanical properties :
#
#
# Convention : Reuss Voigt Hill
#
# Bulk Modulus (GPa) = 42.32274 42.84481 42.58378
# Shear Modulus (GPa) = 21.88835 23.72637 22.80736
#
# Velocity S-wave (km/s) = 3.42419 3.56506 3.49533
# Velocity P-wave (km/s) = 6.18908 6.31642 6.25307
#
# Compressibility (1/GPa) = 0.02362796
#
# Stress axis : x y z
#
# Youngs Moduli (GPa) = 42.99260 63.14557 60.34489
#
# Poissons Ratio (x) = 0.55057 0.38147
# Poissons Ratio (y) = 0.37485 0.05910
# Poissons Ratio (z) = 0.27178 0.06184
#
# Static dielectric constant tensor:
#      x y z
#    x 3.430010 0.000000 0.000000 
#    y 0.000000 3.349220 0.000000 
#    z 0.000000 0.000000 3.558400 
# 
# 
# High freq. dielectric constant tensor:
#      x y z
#    x 1.724650 0.000000 0.000000 
#    y 0.000000 1.714960 0.000000 
#    z 0.000000 0.000000 1.730420 
# 
# From -- ./inp_files/11027.got.cif
#   From: 2010.03.12/outbox.cif.g09.slc.cpg/sg47_6_cif.got.tgz:11027.got - 2010.04.14 03:12:58.
