data_PCOD8200265
_publ_section_title
;
Structure prediction by ZEFSAII (Michael W. Deem and Ramdas Pophale) SiO2 
 PCOD8200265
Probable space group: P M M M
;
_chemical_formula_sum "Si O2"
_cell_formula_units_Z 52
_cell_length_a 8.845387
_cell_length_b 13.699374
_cell_length_c 26.996887
_cell_angle_alpha 90.000000
_cell_angle_beta 90.000000
_cell_angle_gamma 90.000000
_cell_volume 3271.381925
_symmetry_space_group_name_H-M "P M M M"
_symmetry_group_IT_number 47
_symmetry_cell_setting 'orthorhombic'
loop_
_space_group_symop_operation_xyz
x,y,z
-x,-y,z
x,-y,-z
-x,y,-z
-x,-y,-z
x,y,-z
-x,y,z
x,-y,z
loop_
_atom_site_type_symbol
_atom_site_label
_atom_site_fract_x
_atom_site_fract_y
_atom_site_fract_z
Si Si1 0.180059 0.387519 0.340566
Si Si2 0.181002 0.888674 0.000000
Si Si3 0.177692 0.795194 0.099483
Si Si4 0.321645 0.290693 0.247733
Si Si5 0.177850 0.390449 0.155784
Si Si6 0.177352 0.110783 0.200689
Si Si7 0.830764 0.384206 0.552359
O O1 0.224013 0.500000 0.330639
O O2 0.262785 0.319694 0.301454
O O3 0.241893 0.351570 0.395071
O O4 0.000000 0.374329 0.337139
O O5 0.249676 0.833378 0.951823
O O6 0.000000 0.886883 0.000000
O O7 0.238757 0.000000 0.000000
O O8 0.231070 0.684637 0.112729
O O9 0.225669 0.866724 0.144118
O O10 0.000000 0.797231 0.092331
O O11 0.500000 0.295682 0.246376
O O12 0.257726 0.365844 0.207302
O O13 0.267891 0.180403 0.237670
O O14 0.220574 0.500000 0.139051
O O15 0.000000 0.378991 0.165392
O O16 0.000000 0.131005 0.207439
O O17 0.220508 0.000000 0.213355
O O18 0.748428 0.351565 0.500000
O O19 0.838302 0.500000 0.554307
O O20 0.000000 0.342086 0.550413
#
# Coordination Sequence:
#
# PCOD8200265 Si02
#       7
#     8   4   8   8   8   8   8
#     4   9  16  26  41  60  84 115 147 177 208 243
#     4   9  14  20  35  61  90 111 127 159 210 261
#     4   8  14  24  39  62  87 108 132 162 201 251
#     4  11  21  29  40  61  87 111 138 175 213 250
#     4   9  17  30  45  58  78 111 147 179 209 243
#     4   9  17  31  49  64  81 108 139 169 204 249
#     4   7  10  18  34  56  79 104 138 177 210 238
#
# _framework density 15.895422999999999
#
# number of rings (size 3 to 8) (size 9 to 14) (size 15 to 20)
#    0.000    3.154    0.000    4.615    0.000    4.615 
#    0.000    0.385    0.000    2.769    0.000   10.769 
#    0.000   20.308    0.000    7.077    0.000    2.308 
#
# Total GULP energy -644184.254718 kJ/mol
# GULP energy per Si atom -12388.158745 kJ/mol
# Density = 1.585924 g / cm^3
# Si number density = 15.895423 Si / 1000 Ang^3
#
#
#
# Elastic Constant Matrix: (Units=GPa)
#
#
# Indices 1 2 3 4 5 6 
#
# 1 34.2622 24.0739 30.1556 0.0000 0.0000 0.0000
# 2 24.0739 101.3585 65.4224 0.0000 0.0000 0.0000
# 3 30.1556 65.4224 153.3760 0.0000 0.0000 0.0000
# 4 0.0000 0.0000 0.0000 16.9087 0.0000 0.0000
# 5 0.0000 0.0000 0.0000 0.0000 -0.9198 0.0000
# 6 0.0000 0.0000 0.0000 0.0000 0.0000 6.1649
#
#
#
# Elastic Compliance Matrix: (Units=1/GPa)
#
#
# Indices 1 2 3 4 5 6 
#
# 1 0.037563 -0.005733 -0.004940 0.000000 0.000000 0.000000
# 2 -0.005733 0.014489 -0.005053 0.000000 0.000000 0.000000
# 3 -0.004940 -0.005053 0.009647 0.000000 0.000000 0.000000
# 4 0.000000 0.000000 0.000000 0.059141 0.000000 0.000000
# 5 0.000000 0.000000 0.000000 0.000000 -1.087233 0.000000
# 6 0.000000 0.000000 0.000000 0.000000 0.000000 0.162209
#
#
# Mechanical properties :
#
#
# Convention : Reuss Voigt Hill
#
# Bulk Modulus (GPa) = 33.06197 58.70007 45.88102
# Shear Modulus (GPa) = -6.55609 15.72042 4.58217
#
# Velocity S-wave (km/s) = -2.03309 3.14823 1.69969
# Velocity P-wave (km/s) = 3.91581 7.08691 5.72529
#
# Compressibility (1/GPa) = 0.03024623
#
# Stress axis : x y z
#
# Youngs Moduli (GPa) = 26.62213 69.01650 103.66379
#
# Poissons Ratio (x) = 0.39569 0.51208
# Poissons Ratio (y) = 0.15263 0.52383
# Poissons Ratio (z) = 0.13151 0.34875
#
# Static dielectric constant tensor:
#      x y z
#    x 2.614000 0.000000 0.000000 
#    y 0.000000 3.105070 0.000000 
#    z 0.000000 0.000000 3.428730 
# 
# 
# High freq. dielectric constant tensor:
#      x y z
#    x 1.567610 0.000000 0.000000 
#    y 0.000000 1.586900 0.000000 
#    z 0.000000 0.000000 1.616010 
# 
# From -- ./inp_files/33375.got.cif
#   From: 2010.03.12/outbox.cif.g09.slc.cpg/sg47_17_cif.got.tgz:33375.got - 2010.04.14 03:12:58.
