data_PCOD8200130
_publ_section_title
;
Structure prediction by ZEFSAII (Michael W. Deem and Ramdas Pophale) SiO2 
 PCOD8200130
Probable space group: P M M M
;
_chemical_formula_sum "Si O2"
_cell_formula_units_Z 52
_cell_length_a 8.640261
_cell_length_b 14.977911
_cell_length_c 20.074392
_cell_angle_alpha 90.000000
_cell_angle_beta 90.000000
_cell_angle_gamma 90.000000
_cell_volume 2597.888502
_symmetry_space_group_name_H-M "P M M M"
_symmetry_group_IT_number 47
_symmetry_cell_setting 'orthorhombic'
loop_
_space_group_symop_operation_xyz
x,y,z
-x,-y,z
x,-y,-z
-x,y,-z
-x,-y,-z
x,y,-z
-x,y,z
x,-y,z
loop_
_atom_site_type_symbol
_atom_site_label
_atom_site_fract_x
_atom_site_fract_y
_atom_site_fract_z
Si Si1 0.321685 0.598952 0.699139
Si Si2 0.818660 0.103997 0.773941
Si Si3 0.323508 0.843347 0.640084
Si Si4 0.177807 0.602090 0.077204
Si Si5 0.176003 0.000000 0.569613
Si Si6 0.179933 0.673209 0.423174
Si Si7 0.318849 0.728735 0.818015
O O1 0.500000 0.619563 0.681030
O O2 0.304504 0.500000 0.730753
O O3 0.221217 0.596657 0.630284
O O4 0.262946 0.673228 0.751905
O O5 0.714187 0.152468 0.717844
O O6 0.775054 0.176792 0.830753
O O7 0.000000 0.106048 0.757091
O O8 0.769394 0.000000 0.788504
O O9 0.500000 0.870163 0.627859
O O10 0.208124 0.914202 0.611316
O O11 0.288960 0.752266 0.602659
O O12 0.226356 0.500000 0.091426
O O13 0.287547 0.667371 0.118402
O O14 0.000000 0.617145 0.098260
O O15 0.201315 0.624897 0.000000
O O16 0.271063 0.000000 0.500000
O O17 0.000000 0.000000 0.551420
O O18 0.221317 0.647216 0.500000
O O19 0.000000 0.699343 0.418720
O O20 0.500000 0.749426 0.813588
#
# Coordination Sequence:
#
# PCOD8200130 Si02
#       7
#     8   8   8   8   4   8   8
#     4  10  22  39  58  83 115 151 193 242 298 359
#     4  11  23  39  61  86 116 154 197 244 294 352
#     4  12  23  36  56  80 107 141 184 238 301 362
#     4   9  19  37  62  94 132 172 210 244 284 342
#     4  11  23  37  53  75 105 141 182 233 296 363
#     4  11  24  40  57  77 105 145 194 246 299 358
#     4  11  22  37  61  92 125 160 198 244 297 352
#
# _framework density 20.016255000000001
#
# number of rings (size 3 to 8) (size 9 to 14) (size 15 to 20)
#    0.000    1.308    2.308    4.385    0.000    7.077 
#    0.000    2.308    0.000    0.462    0.000    3.231 
#    0.000    0.000    0.000    0.000    0.000    0.000 
#
# Total GULP energy -644338.449025 kJ/mol
# GULP energy per Si atom -12391.124020 kJ/mol
# Density = 1.997070 g / cm^3
# Si number density = 20.016255 Si / 1000 Ang^3
#
#
#
# Elastic Constant Matrix: (Units=GPa)
#
#
# Indices 1 2 3 4 5 6 
#
# 1 77.9252 32.6319 25.8602 0.0000 0.0000 0.0000
# 2 32.6319 133.7762 39.3033 0.0000 0.0000 0.0000
# 3 25.8602 39.3033 77.5649 0.0000 0.0000 0.0000
# 4 0.0000 0.0000 0.0000 26.2832 0.0000 0.0000
# 5 0.0000 0.0000 0.0000 0.0000 30.0558 0.0000
# 6 0.0000 0.0000 0.0000 0.0000 0.0000 68.8672
#
#
#
# Elastic Compliance Matrix: (Units=1/GPa)
#
#
# Indices 1 2 3 4 5 6 
#
# 1 0.015162 -0.002600 -0.003737 0.000000 0.000000 0.000000
# 2 -0.002600 0.009229 -0.003809 0.000000 0.000000 0.000000
# 3 -0.003737 -0.003809 0.016069 0.000000 0.000000 0.000000
# 4 0.000000 0.000000 0.000000 0.038047 0.000000 0.000000
# 5 0.000000 0.000000 0.000000 0.000000 0.033271 0.000000
# 6 0.000000 0.000000 0.000000 0.000000 0.000000 0.014521
#
#
# Mechanical properties :
#
#
# Convention : Reuss Voigt Hill
#
# Bulk Modulus (GPa) = 49.59037 53.87300 51.73169
# Shear Modulus (GPa) = 32.61266 37.80597 35.20932
#
# Velocity S-wave (km/s) = 4.04085 4.35071 4.19864
# Velocity P-wave (km/s) = 6.82643 7.22573 7.02892
#
# Compressibility (1/GPa) = 0.02016520
#
# Stress axis : x y z
#
# Youngs Moduli (GPa) = 65.95414 108.35803 62.23275
#
# Poissons Ratio (x) = 0.28178 0.23259
# Poissons Ratio (y) = 0.17151 0.23706
# Poissons Ratio (z) = 0.24649 0.41277
#
# Static dielectric constant tensor:
#      x y z
#    x 3.613190 0.000000 0.000000 
#    y 0.000000 3.801260 0.000000 
#    z 0.000000 0.000000 3.625990 
# 
# 
# High freq. dielectric constant tensor:
#      x y z
#    x 1.781130 0.000000 0.000000 
#    y 0.000000 1.790230 0.000000 
#    z 0.000000 0.000000 1.759850 
# 
# From -- ./inp_files/29589.got.cif
#   From: 2010.03.12/outbox.cif.g09.slc.cpg/sg47_15_cif.got.tgz:29589.got - 2010.04.14 03:12:58.
