data_PCOD8200081
_publ_section_title
;
Structure prediction by ZEFSAII (Michael W. Deem and Ramdas Pophale) SiO2 
 PCOD8200081
Probable space group: P M M M
;
_chemical_formula_sum "Si O2"
_cell_formula_units_Z 64
_cell_length_a 9.493865
_cell_length_b 18.223886
_cell_length_c 20.611296
_cell_angle_alpha 90.000000
_cell_angle_beta 90.000000
_cell_angle_gamma 90.000000
_cell_volume 3566.065716
_symmetry_space_group_name_H-M "P M M M"
_symmetry_group_IT_number 47
_symmetry_cell_setting 'orthorhombic'
loop_
_space_group_symop_operation_xyz
x,y,z
-x,-y,z
x,-y,-z
-x,y,-z
-x,-y,-z
x,y,-z
-x,y,z
x,-y,z
loop_
_atom_site_type_symbol
_atom_site_label
_atom_site_fract_x
_atom_site_fract_y
_atom_site_fract_z
Si Si1 0.333003 0.418076 0.931503
Si Si2 0.658523 0.087220 0.071443
Si Si3 0.336584 0.916126 0.574710
Si Si4 0.836978 0.166417 0.680253
Si Si5 0.339159 0.412350 0.791785
Si Si6 0.660890 0.415836 0.575497
Si Si7 0.836569 0.085591 0.191248
Si Si8 0.163914 0.337867 0.680381
O O1 0.500000 0.422890 0.929093
O O2 0.270425 0.500000 0.933834
O O3 0.287363 0.381512 0.862920
O O4 0.286171 0.377973 0.000000
O O5 0.500000 0.114820 0.084554
O O6 0.757819 0.118496 0.128157
O O7 0.663935 0.000000 0.072356
O O8 0.708898 0.114843 0.000000
O O9 0.303314 0.898041 0.500000
O O10 0.500000 0.902937 0.589715
O O11 0.246413 0.861644 0.618083
O O12 0.295259 0.000000 0.590392
O O13 0.780213 0.126820 0.745026
O O14 0.810852 0.252054 0.688764
O O15 0.000000 0.147288 0.669119
O O16 0.500000 0.388126 0.776661
O O17 0.328871 0.500000 0.790623
O O18 0.234734 0.379166 0.739842
O O19 0.689732 0.403567 0.500000
O O20 0.500000 0.395425 0.592885
O O21 0.689753 0.500000 0.595108
O O22 0.766452 0.363348 0.613406
O O23 0.000000 0.101106 0.179865
O O24 0.804140 0.000000 0.200923
O O25 0.000000 0.358142 0.678676
#
# Coordination Sequence:
#
# PCOD8200081 Si02
#       8
#     8   8   8   8   8   8   8   8
#     4   7  10  19  39  68  96 118 147 194 247 291
#     4   8  14  25  42  67  98 125 149 187 243 298
#     4   9  19  36  57  81 105 126 154 196 243 290
#     4  10  22  37  50  69 100 136 171 203 237 283
#     4   9  17  30  50  74  98 127 165 206 246 293
#     4   9  19  37  59  79  98 123 158 200 245 294
#     4   9  17  30  49  70  91 120 162 207 242 277
#     4  11  23  35  48  70 102 136 167 202 242 285
#
# _framework density 17.946947999999999
#
# number of rings (size 3 to 8) (size 9 to 14) (size 15 to 20)
#    0.000    3.000    0.000    3.375    0.000    5.500 
#    0.000    6.250    0.000    1.125    0.000    5.250 
#    0.000    0.000    0.000    0.000    0.000    0.000 
#
# Total GULP energy -793129.018810 kJ/mol
# GULP energy per Si atom -12392.640919 kJ/mol
# Density = 1.790610 g / cm^3
# Si number density = 17.946948 Si / 1000 Ang^3
#
#
#
# Elastic Constant Matrix: (Units=GPa)
#
#
# Indices 1 2 3 4 5 6 
#
# 1 78.7569 37.7899 67.8852 0.0000 0.0000 0.0000
# 2 37.7899 44.7695 43.8735 0.0000 0.0000 0.0000
# 3 67.8852 43.8735 142.7665 0.0000 0.0000 0.0000
# 4 0.0000 0.0000 0.0000 -0.3912 0.0000 0.0000
# 5 0.0000 0.0000 0.0000 0.0000 22.0643 0.0000
# 6 0.0000 0.0000 0.0000 0.0000 0.0000 22.0391
#
#
#
# Elastic Compliance Matrix: (Units=1/GPa)
#
#
# Indices 1 2 3 4 5 6 
#
# 1 0.026796 -0.014499 -0.008286 0.000000 0.000000 0.000000
# 2 -0.014499 0.039807 -0.005339 0.000000 0.000000 0.000000
# 3 -0.008286 -0.005339 0.012585 0.000000 0.000000 0.000000
# 4 0.000000 0.000000 0.000000 -2.556381 0.000000 0.000000
# 5 0.000000 0.000000 0.000000 0.000000 0.045322 0.000000
# 6 0.000000 0.000000 0.000000 0.000000 0.000000 0.045374
#
#
# Mechanical properties :
#
#
# Convention : Reuss Voigt Hill
#
# Bulk Modulus (GPa) = 43.58960 62.82112 53.20536
# Shear Modulus (GPa) = -2.15276 16.52540 7.18632
#
# Velocity S-wave (km/s) = -1.09641 3.03775 2.00322
# Velocity P-wave (km/s) = 4.76843 6.88358 5.92122
#
# Compressibility (1/GPa) = 0.02294125
#
# Stress axis : x y z
#
# Youngs Moduli (GPa) = 37.31843 25.12117 79.45846
#
# Poissons Ratio (x) = 0.36422 0.65840
# Poissons Ratio (y) = 0.54106 0.42423
# Poissons Ratio (z) = 0.30922 0.13412
#
# Static dielectric constant tensor:
#      x y z
#    x 3.194240 0.000000 0.000000 
#    y 0.000000 3.343910 0.000000 
#    z 0.000000 0.000000 3.762310 
# 
# 
# High freq. dielectric constant tensor:
#      x y z
#    x 1.676040 0.000000 0.000000 
#    y 0.000000 1.657790 0.000000 
#    z 0.000000 0.000000 1.718460 
# 
# From -- ./inp_files/29960.got.cif
#   From: 2010.03.12/outbox.cif.g09.slc.cpg/sg47_15_cif.got.tgz:29960.got - 2010.04.14 03:12:58.
