data_PCOD8200766
_publ_section_title
;
Structure prediction by ZEFSAII (Michael W. Deem and Ramdas Pophale) SiO2 
 PCOD8200766
Probable space group: P M M M
;
_chemical_formula_sum "Si O2"
_cell_formula_units_Z 52
_cell_length_a 28.382674
_cell_length_b 10.001346
_cell_length_c 14.484935
_cell_angle_alpha 90.000000
_cell_angle_beta 90.000000
_cell_angle_gamma 90.000000
_cell_volume 4111.765249
_symmetry_space_group_name_H-M "P M M M"
_symmetry_group_IT_number 47
_symmetry_cell_setting 'orthorhombic'
loop_
_space_group_symop_operation_xyz
x,y,z
-x,-y,z
x,-y,-z
-x,y,-z
-x,-y,-z
x,y,-z
-x,y,z
x,-y,z
loop_
_atom_site_type_symbol
_atom_site_label
_atom_site_fract_x
_atom_site_fract_y
_atom_site_fract_z
Si Si1 0.315656 0.844787 0.391567
Si Si2 0.052405 0.149724 0.609868
Si Si3 0.765507 0.350557 0.390415
Si Si4 0.408842 0.841040 0.710122
Si Si5 0.500000 0.840497 0.396142
Si Si6 0.553199 0.841092 0.100829
Si Si7 0.129705 0.649746 0.390174
O O1 0.325096 0.822974 0.500000
O O2 0.271633 0.758635 0.354113
O O3 0.360812 0.789394 0.336053
O O4 0.305184 0.000000 0.370352
O O5 0.054472 0.153971 0.500000
O O6 0.091215 0.249496 0.653183
O O7 0.000000 0.192784 0.642786
O O8 0.063773 0.000000 0.644612
O O9 0.765666 0.349617 0.500000
O O10 0.752100 0.500000 0.355479
O O11 0.817869 0.311428 0.354878
O O12 0.453503 0.784120 0.654073
O O13 0.412925 0.789889 0.816527
O O14 0.409476 0.000000 0.705022
O O15 0.500000 0.785796 0.500000
O O16 0.500000 0.000000 0.394004
O O17 0.500000 0.788910 0.117959
O O18 0.552300 0.000000 0.102088
O O19 0.571434 0.790673 0.000000
O O20 0.128412 0.657721 0.500000
O O21 0.116982 0.500000 0.357559
#
# Coordination Sequence:
#
# PCOD8200766 Si02
#       7
#     8   8   8   8   4   8   8
#     4   9  16  23  31  45  63  80  99 124 153 185
#     4   8  13  19  25  35  52  71  89 112 147 189
#     4   8  14  24  34  42  54  74 100 127 154 184
#     4   9  14  20  28  41  61  81  99 123 152 181
#     4   9  14  18  25  37  56  82 103 118 146 186
#     4   8  12  18  28  41  58  81 104 121 144 182
#     4   8  13  20  29  39  49  64  90 122 151 179
#
# _framework density 12.646637
#
# number of rings (size 3 to 8) (size 9 to 14) (size 15 to 20)
#    0.000    3.615    0.769    2.308    0.000    2.769 
#    0.000    4.615    0.000    0.000    0.000    0.538 
#    0.000    3.692    0.000    1.692    0.000    1.538 
#
# Total GULP energy -644216.411634 kJ/mol
# GULP energy per Si atom -12388.777147 kJ/mol
# Density = 1.261785 g / cm^3
# Si number density = 12.646637 Si / 1000 Ang^3
#
#
#
# Elastic Constant Matrix: (Units=GPa)
#
#
# Indices 1 2 3 4 5 6 
#
# 1 119.8910 57.3734 31.3852 0.0000 0.0000 0.0000
# 2 57.3734 49.8922 15.8308 0.0000 0.0000 0.0000
# 3 31.3852 15.8308 47.8801 0.0000 0.0000 0.0000
# 4 0.0000 0.0000 0.0000 2.2616 0.0000 0.0000
# 5 0.0000 0.0000 0.0000 0.0000 2.7576 0.0000
# 6 0.0000 0.0000 0.0000 0.0000 0.0000 8.0233
#
#
#
# Elastic Compliance Matrix: (Units=1/GPa)
#
#
# Indices 1 2 3 4 5 6 
#
# 1 0.020056 -0.021106 -0.006168 0.000000 0.000000 0.000000
# 2 -0.021106 0.044604 -0.000913 0.000000 0.000000 0.000000
# 3 -0.006168 -0.000913 0.025230 0.000000 0.000000 0.000000
# 4 0.000000 0.000000 0.000000 0.442165 0.000000 0.000000
# 5 0.000000 0.000000 0.000000 0.000000 0.362640 0.000000
# 6 0.000000 0.000000 0.000000 0.000000 0.000000 0.124637
#
#
# Mechanical properties :
#
#
# Convention : Reuss Voigt Hill
#
# Bulk Modulus (GPa) = 29.83614 47.42689 38.63152
# Shear Modulus (GPa) = 4.60033 10.14675 7.37354
#
# Velocity S-wave (km/s) = 1.90932 2.83561 2.41725
# Velocity P-wave (km/s) = 5.33892 6.95010 6.19709
#
# Compressibility (1/GPa) = 0.03351640
#
# Stress axis : x y z
#
# Youngs Moduli (GPa) = 49.86095 22.41976 39.63469
#
# Poissons Ratio (x) = 0.47319 0.24447
# Poissons Ratio (y) = 1.05236 0.03617
# Poissons Ratio (z) = 0.30755 0.02046
#
# Static dielectric constant tensor:
#      x y z
#    x 2.821290 0.000000 0.000000 
#    y 0.000000 2.434400 0.000000 
#    z 0.000000 0.000000 2.334600 
# 
# 
# High freq. dielectric constant tensor:
#      x y z
#    x 1.482900 0.000000 0.000000 
#    y 0.000000 1.451340 0.000000 
#    z 0.000000 0.000000 1.422450 
# 
# From -- ./inp_files/17972.got.cif
#   From: 2010.03.12/outbox.cif.g09.slc.cpg/sg47_9_cif.got.tgz:17972.got - 2010.04.14 03:12:58.
