data_PCOD8200710
_publ_section_title
;
Structure prediction by ZEFSAII (Michael W. Deem and Ramdas Pophale) SiO2 
 PCOD8200710
Probable space group: P M M M
;
_chemical_formula_sum "Si O2"
_cell_formula_units_Z 44
_cell_length_a 9.734155
_cell_length_b 28.828760
_cell_length_c 9.271285
_cell_angle_alpha 90.000000
_cell_angle_beta 90.000000
_cell_angle_gamma 90.000000
_cell_volume 2601.741543
_symmetry_space_group_name_H-M "P M M M"
_symmetry_group_IT_number 47
_symmetry_cell_setting 'orthorhombic'
loop_
_space_group_symop_operation_xyz
x,y,z
-x,-y,z
x,-y,-z
-x,y,-z
-x,-y,-z
x,y,-z
-x,y,z
x,-y,z
loop_
_atom_site_type_symbol
_atom_site_label
_atom_site_fract_x
_atom_site_fract_y
_atom_site_fract_z
Si Si1 0.164069 0.361921 0.837516
Si Si2 0.345784 0.900561 0.172402
Si Si3 0.836578 0.273613 0.662855
Si Si4 0.337161 0.000000 0.157671
Si Si5 0.159447 0.183196 0.168446
Si Si6 0.836649 0.551239 0.661985
O O1 0.221303 0.318580 0.745989
O O2 0.222538 0.409452 0.768152
O O3 0.000000 0.361859 0.836579
O O4 0.220338 0.358104 0.000000
O O5 0.500000 0.888549 0.225495
O O6 0.296904 0.951192 0.236002
O O7 0.242746 0.861063 0.227794
O O8 0.343125 0.903743 0.000000
O O9 0.778841 0.273488 0.500000
O O10 0.785722 0.227770 0.745366
O O11 0.000000 0.275160 0.662346
O O12 0.500000 0.000000 0.138972
O O13 0.266911 0.000000 0.000000
O O14 0.000000 0.173634 0.199122
O O15 0.186754 0.192296 0.000000
O O16 0.783172 0.560982 0.500000
O O17 0.787757 0.500000 0.713543
O O18 0.000000 0.553239 0.662411
#
# Coordination Sequence:
#
# PCOD8200710 Si02
#       6
#     8   8   8   4   8   8
#     4   9  15  21  30  44  61  82 112 152 193 229
#     4   8  13  22  37  56  78 104 130 154 185 228
#     4   9  16  25  36  48  64  90 122 152 185 230
#     4   7  10  18  33  53  76 101 128 154 180 219
#     4   9  16  25  37  55  78  99 122 158 198 227
#     4   8  13  20  28  38  55  81 113 149 188 229
#
# _framework density 16.911750000000001
#
# number of rings (size 3 to 8) (size 9 to 14) (size 15 to 20)
#    0.000    3.545    0.000    2.727    0.000    4.727 
#    0.000    2.273    0.000    3.273    0.000    0.636 
#    0.000    5.091    0.000    0.000    0.000    0.909 
#
# Total GULP energy -545144.451586 kJ/mol
# GULP energy per Si atom -12389.646627 kJ/mol
# Density = 1.687326 g / cm^3
# Si number density = 16.911750 Si / 1000 Ang^3
#
#
#
# Elastic Constant Matrix: (Units=GPa)
#
#
# Indices 1 2 3 4 5 6 
#
# 1 21.7843 35.2523 16.2062 0.0000 0.0000 0.0000
# 2 35.2523 199.9896 77.4366 0.0000 0.0000 0.0000
# 3 16.2062 77.4366 88.4914 0.0000 0.0000 0.0000
# 4 0.0000 0.0000 0.0000 12.2913 0.0000 0.0000
# 5 0.0000 0.0000 0.0000 0.0000 3.6829 0.0000
# 6 0.0000 0.0000 0.0000 0.0000 0.0000 2.0023
#
#
#
# Elastic Compliance Matrix: (Units=1/GPa)
#
#
# Indices 1 2 3 4 5 6 
#
# 1 0.064689 -0.010308 -0.002826 0.000000 0.000000 0.000000
# 2 -0.010308 0.009205 -0.006168 0.000000 0.000000 0.000000
# 3 -0.002826 -0.006168 0.017215 0.000000 0.000000 0.000000
# 4 0.000000 0.000000 0.000000 0.081358 0.000000 0.000000
# 5 0.000000 0.000000 0.000000 0.000000 0.271524 0.000000
# 6 0.000000 0.000000 0.000000 0.000000 0.000000 0.499425
#
#
# Mechanical properties :
#
#
# Convention : Reuss Voigt Hill
#
# Bulk Modulus (GPa) = 19.04593 63.11728 41.08161
# Shear Modulus (GPa) = 5.00239 15.68665 10.34452
#
# Velocity S-wave (km/s) = 1.72173 3.04889 2.47589
# Velocity P-wave (km/s) = 3.90370 7.05669 5.70244
#
# Compressibility (1/GPa) = 0.05250464
#
# Stress axis : x y z
#
# Youngs Moduli (GPa) = 15.45865 108.63164 58.08796
#
# Poissons Ratio (x) = 1.11981 0.16419
# Poissons Ratio (y) = 0.15935 0.35826
# Poissons Ratio (z) = 0.04369 0.66999
#
# Static dielectric constant tensor:
#      x y z
#    x 2.511080 0.000000 0.000000 
#    y 0.000000 3.681040 0.000000 
#    z 0.000000 0.000000 3.026350 
# 
# 
# High freq. dielectric constant tensor:
#      x y z
#    x 1.569340 0.000000 0.000000 
#    y 0.000000 1.677930 0.000000 
#    z 0.000000 0.000000 1.624710 
# 
# From -- ./inp_files/2080.got.cif
#   From: 2010.03.12/outbox.cif.g09.slc.cpg/sg47_2_cif.got.tgz:2080.got - 2010.04.14 03:12:58.
