data_PCOD8200633
_publ_section_title
;
Structure prediction by ZEFSAII (Michael W. Deem and Ramdas Pophale) SiO2 
 PCOD8200633
Probable space group: P M M M
;
_chemical_formula_sum "Si O2"
_cell_formula_units_Z 40
_cell_length_a 27.376509
_cell_length_b 9.359927
_cell_length_c 7.982240
_cell_angle_alpha 90.000000
_cell_angle_beta 90.000000
_cell_angle_gamma 90.000000
_cell_volume 2045.386146
_symmetry_space_group_name_H-M "P M M M"
_symmetry_group_IT_number 47
_symmetry_cell_setting 'orthorhombic'
loop_
_space_group_symop_operation_xyz
x,y,z
-x,-y,z
x,-y,-z
-x,y,-z
-x,-y,-z
x,y,-z
-x,y,z
x,-y,z
loop_
_atom_site_type_symbol
_atom_site_label
_atom_site_fract_x
_atom_site_fract_y
_atom_site_fract_z
Si Si1 0.054773 0.330234 0.500000
Si Si2 0.120293 0.331296 0.191786
Si Si3 0.786633 0.157089 0.802034
Si Si4 0.678312 0.834663 0.195997
Si Si5 0.500000 0.155499 0.809126
Si Si6 0.410935 0.659225 0.691492
O O1 0.053954 0.500000 0.500000
O O2 0.080574 0.276925 0.327732
O O3 0.000000 0.267579 0.500000
O O4 0.125331 0.500000 0.197670
O O5 0.172037 0.268553 0.252911
O O6 0.106614 0.282531 0.000000
O O7 0.732958 0.204245 0.738667
O O8 0.799940 0.000000 0.729907
O O9 0.783653 0.147043 0.000000
O O10 0.641691 0.732487 0.293472
O O11 0.666695 0.000000 0.236026
O O12 0.672631 0.804379 0.000000
O O13 0.548376 0.244714 0.776000
O O14 0.500000 0.000000 0.713818
O O15 0.500000 0.116920 0.000000
O O16 0.425473 0.645695 0.500000
O O17 0.409788 0.500000 0.772226
#
# Coordination Sequence:
#
# PCOD8200633 Si02
#       6
#     4   8   8   8   4   8
#     4   9  18  32  49  73 105 137 173 222 271 312
#     4   9  17  30  50  75 101 134 176 218 265 320
#     4   8  15  30  52  76 103 135 170 211 259 309
#     4   9  18  34  56  80 105 136 176 217 258 312
#     4  11  24  41  62  84 102 129 174 221 264 314
#     4  11  24  39  54  78 111 142 173 212 260 312
#
# _framework density 19.55621
#
# number of rings (size 3 to 8) (size 9 to 14) (size 15 to 20)
#    0.000    2.600    0.000    3.000    0.000    7.600 
#    1.800    4.500    0.000    1.200    0.000    2.800 
#    0.000    0.000    0.000    0.000    0.000    0.000 
#
# Total GULP energy -495744.359023 kJ/mol
# GULP energy per Si atom -12393.608976 kJ/mol
# Density = 1.951170 g / cm^3
# Si number density = 19.556210 Si / 1000 Ang^3
#
#
#
# Elastic Constant Matrix: (Units=GPa)
#
#
# Indices 1 2 3 4 5 6 
#
# 1 158.0532 62.5073 46.5664 0.0000 0.0000 0.0000
# 2 62.5073 88.5064 32.1454 0.0000 0.0000 0.0000
# 3 46.5664 32.1454 70.6083 0.0000 0.0000 0.0000
# 4 0.0000 0.0000 0.0000 19.2942 0.0000 0.0000
# 5 0.0000 0.0000 0.0000 0.0000 72.8728 0.0000
# 6 0.0000 0.0000 0.0000 0.0000 0.0000 -2.3843
#
#
#
# Elastic Compliance Matrix: (Units=1/GPa)
#
#
# Indices 1 2 3 4 5 6 
#
# 1 0.009593 -0.005364 -0.003884 0.000000 0.000000 0.000000
# 2 -0.005364 0.016536 -0.003991 0.000000 0.000000 0.000000
# 3 -0.003884 -0.003991 0.018541 0.000000 0.000000 0.000000
# 4 0.000000 0.000000 0.000000 0.051829 0.000000 0.000000
# 5 0.000000 0.000000 0.000000 0.000000 0.013723 0.000000
# 6 0.000000 0.000000 0.000000 0.000000 0.000000 -0.419414
#
#
# Mechanical properties :
#
#
# Convention : Reuss Voigt Hill
#
# Bulk Modulus (GPa) = 54.96946 66.62292 60.79619
# Shear Modulus (GPa) = -18.07341 29.68647 5.80653
#
# Velocity S-wave (km/s) = -3.04333 3.90039 1.72499
# Velocity P-wave (km/s) = 3.97748 7.37736 5.92645
#
# Compressibility (1/GPa) = 0.01819192
#
# Stress axis : x y z
#
# Youngs Moduli (GPa) = 104.24440 60.47255 53.93365
#
# Poissons Ratio (x) = 0.32438 0.20950
# Poissons Ratio (y) = 0.55918 0.21524
# Poissons Ratio (z) = 0.40493 0.24133
#
# Static dielectric constant tensor:
#      x y z
#    x 3.840400 0.000000 0.000000 
#    y 0.000000 3.674660 0.000000 
#    z 0.000000 0.000000 3.492640 
# 
# 
# High freq. dielectric constant tensor:
#      x y z
#    x 1.763960 0.000000 0.000000 
#    y 0.000000 1.750010 0.000000 
#    z 0.000000 0.000000 1.749560 
# 
# From -- ./inp_files/13087.got.cif
#   From: 2010.03.12/outbox.cif.g09.slc.cpg/sg47_7_cif.got.tgz:13087.got - 2010.04.14 03:12:58.
