data_PCOD8200410
_publ_section_title
;
Structure prediction by ZEFSAII (Michael W. Deem and Ramdas Pophale) SiO2 
 PCOD8200410
Probable space group: P M M M
;
_chemical_formula_sum "Si O2"
_cell_formula_units_Z 40
_cell_length_a 8.961657
_cell_length_b 13.228004
_cell_length_c 17.227343
_cell_angle_alpha 90.000000
_cell_angle_beta 90.000000
_cell_angle_gamma 90.000000
_cell_volume 2042.212527
_symmetry_space_group_name_H-M "P M M M"
_symmetry_group_IT_number 47
_symmetry_cell_setting 'orthorhombic'
loop_
_space_group_symop_operation_xyz
x,y,z
-x,-y,z
x,-y,-z
-x,y,-z
-x,-y,-z
x,y,-z
-x,y,z
x,-y,z
loop_
_atom_site_type_symbol
_atom_site_label
_atom_site_fract_x
_atom_site_fract_y
_atom_site_fract_z
Si Si1 0.823016 0.000000 0.585199
Si Si2 0.823648 0.313483 0.152315
Si Si3 0.673725 0.615043 0.692471
Si Si4 0.663306 0.615894 0.000000
Si Si5 0.829528 0.780442 0.407489
Si Si6 0.823481 0.890073 0.086516
O O1 0.777862 0.892380 0.625300
O O2 0.749584 0.000000 0.500000
O O3 0.000000 0.000000 0.576473
O O4 0.755640 0.365315 0.227128
O O5 0.760372 0.362335 0.075325
O O6 0.777615 0.194406 0.149398
O O7 0.000000 0.329104 0.154275
O O8 0.500000 0.632065 0.706209
O O9 0.707193 0.500000 0.665329
O O10 0.727985 0.692331 0.626865
O O11 0.626568 0.500000 0.000000
O O12 0.500000 0.671789 0.000000
O O13 0.814251 0.779135 0.500000
O O14 0.000000 0.759606 0.382117
O O15 0.000000 0.895523 0.081250
O O16 0.760056 0.000000 0.112276
O O17 0.762499 0.861653 0.000000
#
# Coordination Sequence:
#
# PCOD8200410 Si02
#       6
#     4   8   8   4   8   8
#     4   7  12  28  57  91 121 144 173 222 281 335
#     4  11  21  36  59  84 107 140 191 242 280 325
#     4  11  25  42  56  76 115 160 194 232 288 344
#     4  11  23  37  54  77 108 146 183 225 286 349
#     4   9  18  36  64  93 117 145 186 233 279 334
#     4   8  14  28  52  81 110 136 169 219 277 333
#
# _framework density 19.586600000000001
#
# number of rings (size 3 to 8) (size 9 to 14) (size 15 to 20)
#    0.000    2.400    1.000    3.900    0.000    5.600 
#    1.800    2.500    0.000    4.200    0.000    0.000 
#    0.000    0.000    0.000    0.000    0.000    0.000 
#
# Total GULP energy -495565.003289 kJ/mol
# GULP energy per Si atom -12389.125082 kJ/mol
# Density = 1.954202 g / cm^3
# Si number density = 19.586600 Si / 1000 Ang^3
#
#
#
# Elastic Constant Matrix: (Units=GPa)
#
#
# Indices 1 2 3 4 5 6 
#
# 1 89.2493 59.9106 34.5285 0.0000 0.0000 0.0000
# 2 59.9106 153.7844 42.3965 0.0000 0.0000 0.0000
# 3 34.5285 42.3965 60.0940 0.0000 0.0000 0.0000
# 4 0.0000 0.0000 0.0000 29.0276 0.0000 0.0000
# 5 0.0000 0.0000 0.0000 0.0000-1098.8661 0.0000
# 6 0.0000 0.0000 0.0000 0.0000 0.0000 4.4796
#
#
#
# Elastic Compliance Matrix: (Units=1/GPa)
#
#
# Indices 1 2 3 4 5 6 
#
# 1 0.016890 -0.004847 -0.006285 0.000000 0.000000 0.000000
# 2 -0.004847 0.009464 -0.003892 0.000000 0.000000 0.000000
# 3 -0.006285 -0.003892 0.022997 0.000000 0.000000 0.000000
# 4 0.000000 0.000000 0.000000 0.034450 0.000000 0.000000
# 5 0.000000 0.000000 0.000000 0.000000 -0.000910 0.000000
# 6 0.000000 0.000000 0.000000 0.000000 0.000000 0.223232
#
#
# Mechanical properties :
#
#
# Convention : Reuss Voigt Hill
#
# Bulk Modulus (GPa) = 51.80374 64.08876 57.94625
# Shear Modulus (GPa) = 14.59409 -201.98563 -93.69577
#
# Velocity S-wave (km/s) = 2.73262 -10.16603 -6.92391
# Velocity P-wave (km/s) = 6.03840 10.24724 5.85421
#
# Compressibility (1/GPa) = 0.01930363
#
# Stress axis : x y z
#
# Youngs Moduli (GPa) = 59.20745 105.66514 43.48354
#
# Poissons Ratio (x) = 0.51218 0.27328
# Poissons Ratio (y) = 0.28699 0.16922
# Poissons Ratio (z) = 0.37210 0.41122
#
# Static dielectric constant tensor:
#      x y z
#    x 3.367090 0.000000 0.000000 
#    y 0.000000 4.268600 0.000000 
#    z 0.000000 0.000000 3.224010 
# 
# 
# High freq. dielectric constant tensor:
#      x y z
#    x 1.735940 0.000000 0.000000 
#    y 0.000000 1.788170 0.000000 
#    z 0.000000 0.000000 1.739320 
# 
# From -- ./inp_files/20678.got.cif
#   From: 2010.03.12/outbox.cif.g09.slc.cpg/sg47_11_cif.got.tgz:20678.got - 2010.04.14 03:12:58.
