data_PCOD8200731
_publ_section_title
;
Structure prediction by ZEFSAII (Michael W. Deem and Ramdas Pophale) SiO2 
 PCOD8200731
Probable space group: P M M M
;
_chemical_formula_sum "Si O2"
_cell_formula_units_Z 40
_cell_length_a 12.885853
_cell_length_b 9.335021
_cell_length_c 22.822972
_cell_angle_alpha 90.000000
_cell_angle_beta 90.000000
_cell_angle_gamma 90.000000
_cell_volume 2745.368646
_symmetry_space_group_name_H-M "P M M M"
_symmetry_group_IT_number 47
_symmetry_cell_setting 'orthorhombic'
loop_
_space_group_symop_operation_xyz
x,y,z
-x,-y,z
x,-y,-z
-x,y,-z
-x,-y,-z
x,y,-z
-x,y,z
x,-y,z
loop_
_atom_site_type_symbol
_atom_site_label
_atom_site_fract_x
_atom_site_fract_y
_atom_site_fract_z
Si Si1 0.381305 0.831502 0.149393
Si Si2 0.623641 0.837648 0.500000
Si Si3 0.223933 0.668407 0.068694
Si Si4 0.623380 0.159211 0.720070
Si Si5 0.376206 0.661485 0.611480
Si Si6 0.000000 0.666767 0.068045
O O1 0.500000 0.783488 0.140101
O O2 0.313246 0.749923 0.102415
O O3 0.343239 0.789969 0.214986
O O4 0.369718 0.000000 0.139647
O O5 0.500000 0.839701 0.500000
O O6 0.665631 0.754692 0.442897
O O7 0.666785 0.000000 0.500000
O O8 0.234842 0.500000 0.080607
O O9 0.110499 0.726224 0.092361
O O10 0.236166 0.701235 0.000000
O O11 0.500000 0.152619 0.717303
O O12 0.666950 0.268943 0.671568
O O13 0.667226 0.000000 0.706808
O O14 0.500000 0.660320 0.611378
O O15 0.333025 0.500000 0.606397
O O16 0.000000 0.500000 0.080194
O O17 0.000000 0.699055 0.000000
#
# Coordination Sequence:
#
# PCOD8200731 Si02
#       6
#     8   4   8   8   8   4
#     4   9  18  30  41  55  78 106 132 159 193 233
#     4   9  15  21  29  41  59  85 115 146 183 226
#     4   9  17  29  45  62  78  98 126 160 196 235
#     4   8  14  25  37  46  61  90 124 151 179 221
#     4   9  15  21  30  45  63  82 110 152 193 220
#     4   7  12  26  45  61  77  97 121 152 193 236
#
# _framework density 14.569993
#
# number of rings (size 3 to 8) (size 9 to 14) (size 15 to 20)
#    0.000    3.400    0.000    3.300    0.000    5.600 
#    0.000    4.500    0.000    1.800    0.000    0.000 
#    0.000    0.000    0.000    0.000    0.000    1.000 
#
# Total GULP energy -495554.130234 kJ/mol
# GULP energy per Si atom -12388.853256 kJ/mol
# Density = 1.453683 g / cm^3
# Si number density = 14.569993 Si / 1000 Ang^3
#
#
#
# Elastic Constant Matrix: (Units=GPa)
#
#
# Indices 1 2 3 4 5 6 
#
# 1 53.6012 33.1036 42.4889 0.0000 0.0000 0.0000
# 2 33.1036 84.4127 57.9391 0.0000 0.0000 0.0000
# 3 42.4889 57.9391 100.2928 0.0000 0.0000 0.0000
# 4 0.0000 0.0000 0.0000 24.3696 0.0000 0.0000
# 5 0.0000 0.0000 0.0000 0.0000 -0.3577 0.0000
# 6 0.0000 0.0000 0.0000 0.0000 0.0000 6.9205
#
#
#
# Elastic Compliance Matrix: (Units=1/GPa)
#
#
# Indices 1 2 3 4 5 6 
#
# 1 0.029271 -0.004917 -0.009560 0.000000 0.000000 0.000000
# 2 -0.004917 0.020457 -0.009734 0.000000 0.000000 0.000000
# 3 -0.009560 -0.009734 0.019644 0.000000 0.000000 0.000000
# 4 0.000000 0.000000 0.000000 0.041035 0.000000 0.000000
# 5 0.000000 0.000000 0.000000 0.000000 -2.795441 0.000000
# 6 0.000000 0.000000 0.000000 0.000000 0.000000 0.144499
#
#
# Mechanical properties :
#
#
# Convention : Reuss Voigt Hill
#
# Bulk Modulus (GPa) = 47.73584 56.15220 51.94402
# Shear Modulus (GPa) = -2.01197 13.17147 5.57975
#
# Velocity S-wave (km/s) = -1.17639 3.00994 1.95906
# Velocity P-wave (km/s) = 5.56678 7.12060 6.39109
#
# Compressibility (1/GPa) = 0.02094862
#
# Stress axis : x y z
#
# Youngs Moduli (GPa) = 34.16324 48.88421 50.90498
#
# Poissons Ratio (x) = 0.24038 0.48665
# Poissons Ratio (y) = 0.16799 0.49553
# Poissons Ratio (z) = 0.32660 0.47586
#
# Static dielectric constant tensor:
#      x y z
#    x 2.523620 0.000000 0.000000 
#    y 0.000000 2.865340 0.000000 
#    z 0.000000 0.000000 2.931220 
# 
# 
# High freq. dielectric constant tensor:
#      x y z
#    x 1.493270 0.000000 0.000000 
#    y 0.000000 1.556460 0.000000 
#    z 0.000000 0.000000 1.557350 
# 
# From -- ./inp_files/6674.got.cif
#   From: 2010.03.12/outbox.cif.g09.slc.cpg/sg47_4_cif.got.tgz:6674.got - 2010.04.14 03:12:58.
