data_PCOD8200213
_publ_section_title
;
Structure prediction by ZEFSAII (Michael W. Deem and Ramdas Pophale) SiO2 
 PCOD8200213
Probable space group: P M M M
;
_chemical_formula_sum "Si O2"
_cell_formula_units_Z 52
_cell_length_a 14.026728
_cell_length_b 28.399358
_cell_length_c 9.400986
_cell_angle_alpha 90.000000
_cell_angle_beta 90.000000
_cell_angle_gamma 90.000000
_cell_volume 3744.883432
_symmetry_space_group_name_H-M "P M M M"
_symmetry_group_IT_number 47
_symmetry_cell_setting 'orthorhombic'
loop_
_space_group_symop_operation_xyz
x,y,z
-x,-y,z
x,-y,-z
-x,y,-z
-x,-y,-z
x,y,-z
-x,y,z
x,-y,z
loop_
_atom_site_type_symbol
_atom_site_label
_atom_site_fract_x
_atom_site_fract_y
_atom_site_fract_z
Si Si1 0.393535 0.500000 0.168574
Si Si2 0.610937 0.330386 0.334348
Si Si3 0.278588 0.591199 0.830479
Si Si4 0.386048 0.138575 0.159366
Si Si5 0.613050 0.775582 0.657057
Si Si6 0.890998 0.445473 0.663400
Si Si7 0.613325 0.947993 0.340353
O O1 0.500000 0.500000 0.233558
O O2 0.339319 0.453682 0.222443
O O3 0.398166 0.500000 0.000000
O O4 0.631746 0.341101 0.500000
O O5 0.500000 0.338837 0.300523
O O6 0.672984 0.362557 0.231788
O O7 0.641548 0.277032 0.295618
O O8 0.172707 0.586381 0.767119
O O9 0.273181 0.594961 0.000000
O O10 0.500000 0.138410 0.161405
O O11 0.345670 0.185611 0.234777
O O12 0.344869 0.092201 0.237550
O O13 0.346152 0.138161 0.000000
O O14 0.654265 0.786356 0.500000
O O15 0.500000 0.779091 0.650873
O O16 0.860856 0.437081 0.500000
O O17 0.877885 0.500000 0.704369
O O18 0.000000 0.430047 0.686955
O O19 0.650738 0.938605 0.500000
O O20 0.500000 0.945624 0.339691
O O21 0.646534 0.000000 0.288304
#
# Coordination Sequence:
#
# PCOD8200213 Si02
#       7
#     4   8   8   8   8   8   8
#     4   9  18  30  40  55  82 110 131 149 176 219
#     4   9  18  31  44  58  77 102 132 162 190 224
#     4  11  20  30  45  64  85 107 127 154 190 227
#     4   9  15  20  28  43  60  77 101 137 179 220
#     4   8  14  25  38  48  61  85 116 148 180 215
#     4   9  18  33  51  67  83 103 126 154 186 221
#     4   8  13  20  28  37  51  74 103 133 169 216
#
# _framework density 13.885612
#
# number of rings (size 3 to 8) (size 9 to 14) (size 15 to 20)
#    0.000    3.000    0.769    3.231    0.000    4.000 
#    0.000    3.846    0.000    1.846    0.000    0.000 
#    0.000    0.000    0.000    0.000    0.000    0.000 
#
# Total GULP energy -644563.855310 kJ/mol
# GULP energy per Si atom -12395.458756 kJ/mol
# Density = 1.385401 g / cm^3
# Si number density = 13.885612 Si / 1000 Ang^3
#
#
#
# Elastic Constant Matrix: (Units=GPa)
#
#
# Indices 1 2 3 4 5 6 
#
# 1 41.6044 28.2777 30.4756 0.0000 0.0000 0.0000
# 2 28.2777 118.2499 69.3904 0.0000 0.0000 0.0000
# 3 30.4756 69.3904 94.6001 0.0000 0.0000 0.0000
# 4 0.0000 0.0000 0.0000 22.2085 0.0000 0.0000
# 5 0.0000 0.0000 0.0000 0.0000 14.2988 0.0000
# 6 0.0000 0.0000 0.0000 0.0000 0.0000 1.7603
#
#
#
# Elastic Compliance Matrix: (Units=1/GPa)
#
#
# Indices 1 2 3 4 5 6 
#
# 1 0.031984 -0.002813 -0.008240 0.000000 0.000000 0.000000
# 2 -0.002813 0.015095 -0.010166 0.000000 0.000000 0.000000
# 3 -0.008240 -0.010166 0.020683 0.000000 0.000000 0.000000
# 4 0.000000 0.000000 0.000000 0.045028 0.000000 0.000000
# 5 0.000000 0.000000 0.000000 0.000000 0.069936 0.000000
# 6 0.000000 0.000000 0.000000 0.000000 0.000000 0.568100
#
#
# Mechanical properties :
#
#
# Convention : Reuss Voigt Hill
#
# Bulk Modulus (GPa) = 39.49061 56.74908 48.11985
# Shear Modulus (GPa) = 6.23671 16.07421 11.15546
#
# Velocity S-wave (km/s) = 2.12161 3.40607 2.83748
# Velocity P-wave (km/s) = 5.87395 7.51173 6.74275
#
# Compressibility (1/GPa) = 0.02532247
#
# Stress axis : x y z
#
# Youngs Moduli (GPa) = 31.26564 66.24728 48.35005
#
# Poissons Ratio (x) = 0.18635 0.39842
# Poissons Ratio (y) = 0.08795 0.49153
# Poissons Ratio (z) = 0.25764 0.67348
#
# Static dielectric constant tensor:
#      x y z
#    x 2.272020 0.000000 0.000000 
#    y 0.000000 2.897840 0.000000 
#    z 0.000000 0.000000 2.813230 
# 
# 
# High freq. dielectric constant tensor:
#      x y z
#    x 1.459830 0.000000 0.000000 
#    y 0.000000 1.533270 0.000000 
#    z 0.000000 0.000000 1.533890 
# 
# From -- ./inp_files/8011.got.cif
#   From: 2010.03.12/outbox.cif.g09.slc.cpg/sg47_5_cif.got.tgz:8011.got - 2010.04.14 03:12:58.
