data_PCOD8200823
_publ_section_title
;
Structure prediction by ZEFSAII (Michael W. Deem and Ramdas Pophale) SiO2 
 PCOD8200823
Probable space group: P M M M
;
_chemical_formula_sum "Si O2"
_cell_formula_units_Z 48
_cell_length_a 9.419434
_cell_length_b 9.805974
_cell_length_c 30.811768
_cell_angle_alpha 90.000000
_cell_angle_beta 90.000000
_cell_angle_gamma 90.000000
_cell_volume 2845.982098
_symmetry_space_group_name_H-M "P M M M"
_symmetry_group_IT_number 47
_symmetry_cell_setting 'orthorhombic'
loop_
_space_group_symop_operation_xyz
x,y,z
-x,-y,z
x,-y,-z
-x,y,-z
-x,-y,-z
x,y,-z
-x,y,z
x,-y,z
loop_
_atom_site_type_symbol
_atom_site_label
_atom_site_fract_x
_atom_site_fract_y
_atom_site_fract_z
Si Si1 0.339797 0.162661 0.709615
Si Si2 0.157893 0.837853 0.789287
Si Si3 0.659327 0.162172 0.451889
Si Si4 0.160292 0.837283 0.372095
Si Si5 0.663344 0.343286 0.049859
Si Si6 0.832405 0.845450 0.114131
O O1 0.500000 0.219658 0.706816
O O2 0.267322 0.219529 0.753581
O O3 0.250091 0.217428 0.668750
O O4 0.341121 0.000000 0.709720
O O5 0.208693 0.794272 0.837404
O O6 0.000000 0.779998 0.779483
O O7 0.150997 0.000000 0.787132
O O8 0.706671 0.211538 0.500000
O O9 0.500000 0.214468 0.441633
O O10 0.767611 0.220620 0.416048
O O11 0.660020 0.000000 0.450184
O O12 0.000000 0.780748 0.369170
O O13 0.159515 0.000000 0.372300
O O14 0.500000 0.316024 0.061450
O O15 0.702821 0.500000 0.058588
O O16 0.760260 0.250195 0.079347
O O17 0.693246 0.305556 0.000000
O O18 0.000000 0.837520 0.107877
O O19 0.778950 0.000000 0.106942
#
# Coordination Sequence:
#
# PCOD8200823 Si02
#       6
#     8   8   8   8   8   8
#     4   9  15  21  30  44  61  82 110 142 176 220
#     4   8  14  25  38  52  74 100 122 149 190 237
#     4   8  13  20  27  33  43  61  87 124 171 219
#     4   9  15  20  26  36  50  70  97 130 171 220
#     4   9  19  35  51  67  90 120 152 184 217 254
#     4   9  18  31  47  69  94 117 143 178 219 262
#
# _framework density 16.865883
#
# number of rings (size 3 to 8) (size 9 to 14) (size 15 to 20)
#    0.000    3.333    0.000    3.000    0.000    6.333 
#    0.000    5.833    0.000    0.000    0.000    0.000 
#    0.000    0.000    0.000    0.000    0.000    0.000 
#
# Total GULP energy -594918.850659 kJ/mol
# GULP energy per Si atom -12394.142722 kJ/mol
# Density = 1.682750 g / cm^3
# Si number density = 16.865883 Si / 1000 Ang^3
#
#
#
# Elastic Constant Matrix: (Units=GPa)
#
#
# Indices 1 2 3 4 5 6 
#
# 1 114.5810 21.9594 83.5044 0.0000 0.0000 0.0000
# 2 21.9594 19.9196 31.4560 0.0000 0.0000 0.0000
# 3 83.5044 31.4560 145.5672 0.0000 0.0000 0.0000
# 4 0.0000 0.0000 0.0000 -2.1624 0.0000 0.0000
# 5 0.0000 0.0000 0.0000 0.0000 39.6721 0.0000
# 6 0.0000 0.0000 0.0000 0.0000 0.0000 13.4503
#
#
#
# Elastic Compliance Matrix: (Units=1/GPa)
#
#
# Indices 1 2 3 4 5 6 
#
# 1 0.015265 -0.004554 -0.007772 0.000000 0.000000 0.000000
# 2 -0.004554 0.077565 -0.014149 0.000000 0.000000 0.000000
# 3 -0.007772 -0.014149 0.014386 0.000000 0.000000 0.000000
# 4 0.000000 0.000000 0.000000 -0.462457 0.000000 0.000000
# 5 0.000000 0.000000 0.000000 0.000000 0.025207 0.000000
# 6 0.000000 0.000000 0.000000 0.000000 0.000000 0.074348
#
#
# Mechanical properties :
#
#
# Convention : Reuss Voigt Hill
#
# Bulk Modulus (GPa) = 18.42804 61.54524 39.98664
# Shear Modulus (GPa) = -27.07854 19.73522 -3.67166
#
# Velocity S-wave (km/s) = -4.01124 3.42442 -1.47706
# Velocity P-wave (km/s) = 3.24091 7.22535 4.56630
#
# Compressibility (1/GPa) = 0.05426513
#
# Stress axis : x y z
#
# Youngs Moduli (GPa) = 65.51098 12.89237 69.51283
#
# Poissons Ratio (x) = 0.05871 0.54029
# Poissons Ratio (y) = 0.29833 0.98354
# Poissons Ratio (z) = 0.50918 0.18241
#
# Static dielectric constant tensor:
#      x y z
#    x 3.307030 0.000000 0.000000 
#    y 0.000000 2.435830 0.000000 
#    z 0.000000 0.000000 3.470780 
# 
# 
# High freq. dielectric constant tensor:
#      x y z
#    x 1.656220 0.000000 0.000000 
#    y 0.000000 1.561470 0.000000 
#    z 0.000000 0.000000 1.668150 
# 
# From -- ./inp_files/4712.got.cif
#   From: 2010.03.12/outbox.cif.g09.slc.cpg/sg47_3_cif.got.tgz:4712.got - 2010.04.14 03:12:58.
