data_PCOD8200869
_publ_section_title
;
Structure prediction by ZEFSAII (Michael W. Deem and Ramdas Pophale) SiO2 
 PCOD8200869
Probable space group: P M M M
;
_chemical_formula_sum "Si O2"
_cell_formula_units_Z 36
_cell_length_a 9.913892
_cell_length_b 19.581999
_cell_length_c 12.985648
_cell_angle_alpha 90.000000
_cell_angle_beta 90.000000
_cell_angle_gamma 90.000000
_cell_volume 2520.953493
_symmetry_space_group_name_H-M "P M M M"
_symmetry_group_IT_number 47
_symmetry_cell_setting 'orthorhombic'
loop_
_space_group_symop_operation_xyz
x,y,z
-x,-y,z
x,-y,-z
-x,y,-z
-x,-y,-z
x,y,-z
-x,y,z
x,-y,z
loop_
_atom_site_type_symbol
_atom_site_label
_atom_site_fract_x
_atom_site_fract_y
_atom_site_fract_z
Si Si1 0.839572 0.660229 0.805673
Si Si2 0.161011 0.422996 0.000000
Si Si3 0.155439 0.806098 0.121284
Si Si4 0.160466 0.576818 0.614096
Si Si5 0.651136 0.075765 0.877692
O O1 0.781788 0.615107 0.899315
O O2 0.794233 0.738642 0.818833
O O3 0.781499 0.629713 0.698604
O O4 0.000000 0.656414 0.808069
O O5 0.216233 0.500000 0.000000
O O6 0.000000 0.421989 0.000000
O O7 0.243424 0.868850 0.165258
O O8 0.000000 0.822810 0.145145
O O9 0.176915 0.793733 0.000000
O O10 0.211386 0.598443 0.500000
O O11 0.210215 0.500000 0.640036
O O12 0.000000 0.578007 0.616801
O O13 0.500000 0.094702 0.840768
O O14 0.690412 0.000000 0.837048
O O15 0.657211 0.075671 0.000000
#
# Coordination Sequence:
#
# PCOD8200869 Si02
#       5
#     8   4   8   8   8
#     4   9  14  20  28  42  66  92 117 146 178 211
#     4   9  14  18  26  40  60  89 118 142 173 211
#     4   9  15  22  32  48  72  97 118 143 177 214
#     4   8  13  20  29  41  60  90 124 152 179 212
#     4   8  14  24  36  49  67  93 123 149 170 201
#
# _framework density 14.280310999999999
#
# number of rings (size 3 to 8) (size 9 to 14) (size 15 to 20)
#    0.000    3.444    1.111    2.000    0.000    3.111 
#    0.000    2.222    0.000    0.000    0.000    0.000 
#    0.000    6.222    0.000   13.556    0.000    4.444 
#
# Total GULP energy -446096.927743 kJ/mol
# GULP energy per Si atom -12391.581326 kJ/mol
# Density = 1.424781 g / cm^3
# Si number density = 14.280311 Si / 1000 Ang^3
#
#
#
# Elastic Constant Matrix: (Units=GPa)
#
#
# Indices 1 2 3 4 5 6 
#
# 1 33.3134 47.4206 18.3994 0.0000 0.0000 0.0000
# 2 47.4206 144.9505 57.5442 0.0000 0.0000 0.0000
# 3 18.3994 57.5442 75.5055 0.0000 0.0000 0.0000
# 4 0.0000 0.0000 0.0000 15.1156 0.0000 0.0000
# 5 0.0000 0.0000 0.0000 0.0000 3.0307 0.0000
# 6 0.0000 0.0000 0.0000 0.0000 0.0000 2.7934
#
#
#
# Elastic Compliance Matrix: (Units=1/GPa)
#
#
# Indices 1 2 3 4 5 6 
#
# 1 0.056191 -0.018564 0.000455 0.000000 0.000000 0.000000
# 2 -0.018564 0.016024 -0.007689 0.000000 0.000000 0.000000
# 3 0.000455 -0.007689 0.018993 0.000000 0.000000 0.000000
# 4 0.000000 0.000000 0.000000 0.066157 0.000000 0.000000
# 5 0.000000 0.000000 0.000000 0.000000 0.329952 0.000000
# 6 0.000000 0.000000 0.000000 0.000000 0.000000 0.357992
#
#
# Mechanical properties :
#
#
# Convention : Reuss Voigt Hill
#
# Bulk Modulus (GPa) = 25.24385 55.61085 40.42735
# Shear Modulus (GPa) = 5.49384 12.88163 9.18774
#
# Velocity S-wave (km/s) = 1.96354 3.00668 2.53926
# Velocity P-wave (km/s) = 4.78084 7.14705 6.08016
#
# Compressibility (1/GPa) = 0.03961361
#
# Stress axis : x y z
#
# Youngs Moduli (GPa) = 17.79629 62.40476 52.65072
#
# Poissons Ratio (x) = 1.15846 -0.02395
# Poissons Ratio (y) = 0.33036 0.40483
# Poissons Ratio (z) = -0.00809 0.47982
#
# Static dielectric constant tensor:
#      x y z
#    x 2.388730 0.000000 0.000000 
#    y 0.000000 3.066260 0.000000 
#    z 0.000000 0.000000 2.747120 
# 
# 
# High freq. dielectric constant tensor:
#      x y z
#    x 1.489090 0.000000 0.000000 
#    y 0.000000 1.554270 0.000000 
#    z 0.000000 0.000000 1.509240 
# 
# From -- ./inp_files/3886.got.cif
#   From: 2010.03.12/outbox.cif.g09.slc.cpg/sg47_2_cif.got.tgz:3886.got - 2010.04.14 03:12:58.
