data_PCOD8200249
_publ_section_title
;
Structure prediction by ZEFSAII (Michael W. Deem and Ramdas Pophale) SiO2 
 PCOD8200249
Probable space group: P M M M
;
_chemical_formula_sum "Si O2"
_cell_formula_units_Z 52
_cell_length_a 22.972195
_cell_length_b 14.089377
_cell_length_c 9.010125
_cell_angle_alpha 90.000000
_cell_angle_beta 90.000000
_cell_angle_gamma 90.000000
_cell_volume 2916.252340
_symmetry_space_group_name_H-M "P M M M"
_symmetry_group_IT_number 47
_symmetry_cell_setting 'orthorhombic'
loop_
_space_group_symop_operation_xyz
x,y,z
-x,-y,z
x,-y,-z
-x,y,-z
-x,-y,-z
x,y,-z
-x,y,z
x,-y,z
loop_
_atom_site_type_symbol
_atom_site_label
_atom_site_fract_x
_atom_site_fract_y
_atom_site_fract_z
Si Si1 0.165771 0.279824 0.324690
Si Si2 0.723217 0.606103 0.676206
Si Si3 0.392290 0.286482 0.676001
Si Si4 0.932975 0.391854 0.828117
Si Si5 0.783434 0.892101 0.828727
Si Si6 0.350230 0.892193 0.173146
Si Si7 0.500000 0.388676 0.825560
O O1 0.165056 0.278890 0.500000
O O2 0.218854 0.343535 0.261898
O O3 0.105028 0.320825 0.268723
O O4 0.173952 0.172923 0.267686
O O5 0.724883 0.602773 0.500000
O O6 0.720472 0.500000 0.742446
O O7 0.667009 0.663632 0.730095
O O8 0.400729 0.289340 0.500000
O O9 0.390822 0.177559 0.730952
O O10 0.443900 0.342414 0.752597
O O11 0.919610 0.500000 0.780664
O O12 0.000000 0.367437 0.796633
O O13 0.918039 0.377161 0.000000
O O14 0.716708 0.878529 0.777846
O O15 0.803086 0.000000 0.801695
O O16 0.789971 0.864227 0.000000
O O17 0.370072 0.000000 0.206242
O O18 0.357802 0.868978 0.000000
O O19 0.500000 0.500000 0.789965
O O20 0.500000 0.368231 0.000000
#
# Coordination Sequence:
#
# PCOD8200249 Si02
#       7
#     8   8   8   8   8   8   4
#     4  11  20  31  51  81 113 142 175 221 274 322
#     4   9  18  31  47  73 109 141 169 209 263 319
#     4  11  21  36  58  82 109 143 180 223 271 321
#     4   9  19  36  55  75 104 145 189 227 264 314
#     4   9  18  33  53  77 108 146 183 218 262 321
#     4   9  18  34  56  81 111 145 178 218 269 322
#     4  11  25  43  60  79 106 143 187 228 266 319
#
# _framework density 17.831105000000001
#
# number of rings (size 3 to 8) (size 9 to 14) (size 15 to 20)
#    0.000    2.231    1.538    3.462    0.000    3.077 
#    0.000    2.692    0.000    6.462    0.000    3.231 
#    0.000    0.000    0.000    0.000    0.000    0.000 
#
# Total GULP energy -644900.242518 kJ/mol
# GULP energy per Si atom -12401.927741 kJ/mol
# Density = 1.779052 g / cm^3
# Si number density = 17.831105 Si / 1000 Ang^3
#
#
#
# Elastic Constant Matrix: (Units=GPa)
#
#
# Indices 1 2 3 4 5 6 
#
# 1 98.8135 60.7586 49.9806 0.0000 0.0000 0.0000
# 2 60.7586 131.1574 59.1858 0.0000 0.0000 0.0000
# 3 49.9806 59.1858 76.1348 0.0000 0.0000 0.0000
# 4 0.0000 0.0000 0.0000 27.5327 0.0000 0.0000
# 5 0.0000 0.0000 0.0000 0.0000 27.2816 0.0000
# 6 0.0000 0.0000 0.0000 0.0000 0.0000 32.6438
#
#
#
# Elastic Compliance Matrix: (Units=1/GPa)
#
#
# Indices 1 2 3 4 5 6 
#
# 1 0.016565 -0.004261 -0.007562 0.000000 0.000000 0.000000
# 2 -0.004261 0.012841 -0.007185 0.000000 0.000000 0.000000
# 3 -0.007562 -0.007185 0.023684 0.000000 0.000000 0.000000
# 4 0.000000 0.000000 0.000000 0.036320 0.000000 0.000000
# 5 0.000000 0.000000 0.000000 0.000000 0.036655 0.000000
# 6 0.000000 0.000000 0.000000 0.000000 0.000000 0.030634
#
#
# Mechanical properties :
#
#
# Convention : Reuss Voigt Hill
#
# Bulk Modulus (GPa) = 66.33931 71.77286 69.05609
# Shear Modulus (GPa) = 25.03265 26.57031 25.80148
#
# Velocity S-wave (km/s) = 3.75090 3.86438 3.80806
# Velocity P-wave (km/s) = 7.48625 7.76210 7.62542
#
# Compressibility (1/GPa) = 0.01507402
#
# Stress axis : x y z
#
# Youngs Moduli (GPa) = 60.36742 77.87782 42.22280
#
# Poissons Ratio (x) = 0.33187 0.31928
# Poissons Ratio (y) = 0.25725 0.30335
# Poissons Ratio (z) = 0.45649 0.55951
#
# Static dielectric constant tensor:
#      x y z
#    x 3.214210 0.000000 0.000000 
#    y 0.000000 3.387950 0.000000 
#    z 0.000000 0.000000 3.112650 
# 
# 
# High freq. dielectric constant tensor:
#      x y z
#    x 1.675450 0.000000 0.000000 
#    y 0.000000 1.698350 0.000000 
#    z 0.000000 0.000000 1.680120 
# 
# From -- ./inp_files/10960.got.cif
#   From: 2010.03.12/outbox.cif.g09.slc.cpg/sg47_6_cif.got.tgz:10960.got - 2010.04.14 03:12:58.
