data_PCOD8200274
_publ_section_title
;
Structure prediction by ZEFSAII (Michael W. Deem and Ramdas Pophale) SiO2 
 PCOD8200274
Probable space group: P M M M
;
_chemical_formula_sum "Si O2"
_cell_formula_units_Z 56
_cell_length_a 29.462468
_cell_length_b 13.733303
_cell_length_c 9.155035
_cell_angle_alpha 90.000000
_cell_angle_beta 90.000000
_cell_angle_gamma 90.000000
_cell_volume 3704.282798
_symmetry_space_group_name_H-M "P M M M"
_symmetry_group_IT_number 47
_symmetry_cell_setting 'orthorhombic'
loop_
_space_group_symop_operation_xyz
x,y,z
-x,-y,z
x,-y,-z
-x,y,-z
-x,-y,-z
x,y,-z
-x,y,z
x,-y,z
loop_
_atom_site_type_symbol
_atom_site_label
_atom_site_fract_x
_atom_site_fract_y
_atom_site_fract_z
Si Si1 0.450577 0.709717 0.170484
Si Si2 0.049341 0.115644 0.663186
Si Si3 0.606840 0.890092 0.831425
Si Si4 0.314480 0.215550 0.674163
Si Si5 0.866844 0.884812 0.160376
Si Si6 0.360327 0.611422 0.172353
Si Si7 0.765685 0.112757 0.172213
O O1 0.500000 0.690264 0.245235
O O2 0.435722 0.820737 0.204221
O O3 0.411582 0.636281 0.227540
O O4 0.456277 0.693079 0.000000
O O5 0.051652 0.156893 0.500000
O O6 0.092011 0.162518 0.747764
O O7 0.000000 0.144289 0.732315
O O8 0.054000 0.000000 0.661672
O O9 0.648947 0.862816 0.729360
O O10 0.591527 0.000000 0.798549
O O11 0.622283 0.876912 0.000000
O O12 0.314755 0.220543 0.500000
O O13 0.324927 0.322155 0.740042
O O14 0.265669 0.182245 0.731503
O O15 0.816945 0.861607 0.224088
O O16 0.872776 0.000000 0.151432
O O17 0.870755 0.838936 0.000000
O O18 0.349373 0.500000 0.208821
O O19 0.356007 0.633913 0.000000
O O20 0.754320 0.000000 0.205123
O O21 0.759430 0.133390 0.000000
#
# Coordination Sequence:
#
# PCOD8200274 Si02
#       7
#     8   8   8   8   8   8   8
#     4   8  14  25  43  69  93 106 125 162 201 234
#     4   8  13  20  29  42  63  93 128 166 206 242
#     4   9  17  29  44  61  84 114 142 166 194 230
#     4  11  21  30  43  63  84 105 133 168 203 241
#     4   8  14  23  34  49  68  93 128 168 206 240
#     4   9  18  33  51  67  83 105 131 159 196 242
#     4   9  17  29  43  58  80 109 138 170 208 247
#
# _framework density 15.117637
#
# number of rings (size 3 to 8) (size 9 to 14) (size 15 to 20)
#    0.000    3.143    0.000    3.857    0.000    4.000 
#    0.000    5.714    0.000    6.857    0.000    8.000 
#    0.000    0.000    0.000    0.000    0.000    0.714 
#
# Total GULP energy -693893.710590 kJ/mol
# GULP energy per Si atom -12390.959118 kJ/mol
# Density = 1.508323 g / cm^3
# Si number density = 15.117637 Si / 1000 Ang^3
#
#
#
# Elastic Constant Matrix: (Units=GPa)
#
#
# Indices 1 2 3 4 5 6 
#
# 1 127.6285 34.7610 52.2246 0.0000 0.0000 0.0000
# 2 34.7610 67.4930 29.4314 0.0000 0.0000 0.0000
# 3 52.2246 29.4314 65.9448 0.0000 0.0000 0.0000
# 4 0.0000 0.0000 0.0000 11.2988 0.0000 0.0000
# 5 0.0000 0.0000 0.0000 0.0000 8.6949 0.0000
# 6 0.0000 0.0000 0.0000 0.0000 0.0000 11.0718
#
#
#
# Elastic Compliance Matrix: (Units=1/GPa)
#
#
# Indices 1 2 3 4 5 6 
#
# 1 0.011925 -0.002513 -0.008323 0.000000 0.000000 0.000000
# 2 -0.002513 0.018926 -0.006457 0.000000 0.000000 0.000000
# 3 -0.008323 -0.006457 0.024637 0.000000 0.000000 0.000000
# 4 0.000000 0.000000 0.000000 0.088505 0.000000 0.000000
# 5 0.000000 0.000000 0.000000 0.000000 0.115010 0.000000
# 6 0.000000 0.000000 0.000000 0.000000 0.000000 0.090319
#
#
# Mechanical properties :
#
#
# Convention : Reuss Voigt Hill
#
# Bulk Modulus (GPa) = 47.83804 54.87780 51.35792
# Shear Modulus (GPa) = 12.79180 15.85638 14.32409
#
# Velocity S-wave (km/s) = 2.91202 3.24213 3.08150
# Velocity P-wave (km/s) = 6.55889 7.09891 6.83424
#
# Compressibility (1/GPa) = 0.02090387
#
# Stress axis : x y z
#
# Youngs Moduli (GPa) = 83.85638 52.83717 40.58929
#
# Poissons Ratio (x) = 0.13276 0.33781
# Poissons Ratio (y) = 0.21070 0.26208
# Poissons Ratio (z) = 0.69791 0.34117
#
# Static dielectric constant tensor:
#      x y z
#    x 3.168200 0.000000 0.000000 
#    y 0.000000 2.591680 0.000000 
#    z 0.000000 0.000000 2.831640 
# 
# 
# High freq. dielectric constant tensor:
#      x y z
#    x 1.584210 0.000000 0.000000 
#    y 0.000000 1.529960 0.000000 
#    z 0.000000 0.000000 1.560010 
# 
# From -- ./inp_files/14229.got.cif
#   From: 2010.03.12/outbox.cif.g09.slc.cpg/sg47_8_cif.got.tgz:14229.got - 2010.04.14 03:12:58.
