data_PCOD8200635
_publ_section_title
;
Structure prediction by ZEFSAII (Michael W. Deem and Ramdas Pophale) SiO2 
 PCOD8200635
Probable space group: P M M M
;
_chemical_formula_sum "Si O2"
_cell_formula_units_Z 44
_cell_length_a 8.958893
_cell_length_b 9.292864
_cell_length_c 28.025066
_cell_angle_alpha 90.000000
_cell_angle_beta 90.000000
_cell_angle_gamma 90.000000
_cell_volume 2333.192518
_symmetry_space_group_name_H-M "P M M M"
_symmetry_group_IT_number 47
_symmetry_cell_setting 'orthorhombic'
loop_
_space_group_symop_operation_xyz
x,y,z
-x,-y,z
x,-y,-z
-x,y,-z
-x,-y,-z
x,y,-z
-x,y,z
x,-y,z
loop_
_atom_site_type_symbol
_atom_site_label
_atom_site_fract_x
_atom_site_fract_y
_atom_site_fract_z
Si Si1 0.675759 0.834528 0.278325
Si Si2 0.827154 0.331308 0.805021
Si Si3 0.824216 0.665215 0.364144
Si Si4 0.178450 0.839446 0.000000
Si Si5 0.177010 0.658978 0.911843
Si Si6 0.672233 0.164838 0.444767
O O1 0.500000 0.820814 0.283703
O O2 0.724806 0.762334 0.229127
O O3 0.749656 0.754276 0.322264
O O4 0.727507 0.000000 0.278557
O O5 0.798252 0.500000 0.796235
O O6 0.780249 0.287310 0.858866
O O7 0.000000 0.295043 0.795231
O O8 0.772168 0.500000 0.360863
O O9 0.775628 0.728867 0.414898
O O10 0.000000 0.678586 0.358764
O O11 0.242305 0.763461 0.047576
O O12 0.000000 0.836985 0.000000
O O13 0.241458 0.000000 0.000000
O O14 0.243451 0.500000 0.920757
O O15 0.000000 0.651163 0.915689
O O16 0.704092 0.196181 0.500000
O O17 0.500000 0.194774 0.432319
O O18 0.712008 0.000000 0.432227
#
# Coordination Sequence:
#
# PCOD8200635 Si02
#       6
#     8   8   8   4   8   8
#     4  11  24  39  55  77 104 135 173 215 260 314
#     4   9  18  33  53  77 103 132 170 214 259 309
#     4  11  24  39  56  81 111 141 176 219 263 308
#     4   9  15  21  33  59  94 129 166 205 244 292
#     4   8  14  25  41  62  92 129 164 201 248 300
#     4   9  19  37  60  85 113 145 181 219 258 304
#
# _framework density 18.858281999999999
#
# number of rings (size 3 to 8) (size 9 to 14) (size 15 to 20)
#    0.000    2.455    0.000    4.091    0.000   10.545 
#    0.000    4.545    0.000    0.000    0.000    0.636 
#    0.000    5.091    0.000    0.000    0.000    0.000 
#
# Total GULP energy -545601.323163 kJ/mol
# GULP energy per Si atom -12400.030072 kJ/mol
# Density = 1.881536 g / cm^3
# Si number density = 18.858282 Si / 1000 Ang^3
#
#
#
# Elastic Constant Matrix: (Units=GPa)
#
#
# Indices 1 2 3 4 5 6 
#
# 1 45.3716 45.8460 38.8329 0.0000 0.0000 0.0000
# 2 45.8460 134.1781 86.3963 0.0000 0.0000 0.0000
# 3 38.8329 86.3963 141.3787 0.0000 0.0000 0.0000
# 4 0.0000 0.0000 0.0000 24.7634 0.0000 0.0000
# 5 0.0000 0.0000 0.0000 0.0000 -18.7876 0.0000
# 6 0.0000 0.0000 0.0000 0.0000 0.0000 25.9617
#
#
#
# Elastic Compliance Matrix: (Units=1/GPa)
#
#
# Indices 1 2 3 4 5 6 
#
# 1 0.034849 -0.009470 -0.003785 0.000000 0.000000 0.000000
# 2 -0.009470 0.014861 -0.006481 0.000000 0.000000 0.000000
# 3 -0.003785 -0.006481 0.012073 0.000000 0.000000 0.000000
# 4 0.000000 0.000000 0.000000 0.040382 0.000000 0.000000
# 5 0.000000 0.000000 0.000000 0.000000 -0.053227 0.000000
# 6 0.000000 0.000000 0.000000 0.000000 0.000000 0.038518
#
#
# Mechanical properties :
#
#
# Convention : Reuss Voigt Hill
#
# Bulk Modulus (GPa) = 44.81872 73.67541 59.24706
# Shear Modulus (GPa) = 37.21205 16.37771 26.79488
#
# Velocity S-wave (km/s) = 4.44694 2.95017 3.77351
# Velocity P-wave (km/s) = 7.08412 7.12442 7.10430
#
# Compressibility (1/GPa) = 0.02231211
#
# Stress axis : x y z
#
# Youngs Moduli (GPa) = 28.69550 67.28895 82.82915
#
# Poissons Ratio (x) = 0.63723 0.31350
# Poissons Ratio (y) = 0.27175 0.53678
# Poissons Ratio (z) = 0.10861 0.43607
#
# Static dielectric constant tensor:
#      x y z
#    x 3.119420 0.000000 0.000000 
#    y 0.000000 3.635520 0.000000 
#    z 0.000000 0.000000 3.673010 
# 
# 
# High freq. dielectric constant tensor:
#      x y z
#    x 1.698230 0.000000 0.000000 
#    y 0.000000 1.736330 0.000000 
#    z 0.000000 0.000000 1.750630 
# 
# From -- ./inp_files/13641.got.cif
#   From: 2010.03.12/outbox.cif.g09.slc.cpg/sg47_7_cif.got.tgz:13641.got - 2010.04.14 03:12:58.
