data_PCOD8200317
_publ_section_title
;
Structure prediction by ZEFSAII (Michael W. Deem and Ramdas Pophale) SiO2 
 PCOD8200317
Probable space group: P M M M
;
_chemical_formula_sum "Si O2"
_cell_formula_units_Z 52
_cell_length_a 30.239037
_cell_length_b 10.581785
_cell_length_c 9.171768
_cell_angle_alpha 90.000000
_cell_angle_beta 90.000000
_cell_angle_gamma 90.000000
_cell_volume 2934.809731
_symmetry_space_group_name_H-M "P M M M"
_symmetry_group_IT_number 47
_symmetry_cell_setting 'orthorhombic'
loop_
_space_group_symop_operation_xyz
x,y,z
-x,-y,z
x,-y,-z
-x,y,-z
-x,-y,-z
x,y,-z
-x,y,z
x,-y,z
loop_
_atom_site_type_symbol
_atom_site_label
_atom_site_fract_x
_atom_site_fract_y
_atom_site_fract_z
Si Si1 0.050048 0.000000 0.342212
Si Si2 0.500000 0.349030 0.664979
Si Si3 0.256232 0.143694 0.328179
Si Si4 0.925027 0.758427 0.829345
Si Si5 0.326269 0.354551 0.671459
Si Si6 0.167345 0.143958 0.832397
Si Si7 0.415147 0.350729 0.163480
Si Si8 0.000000 0.359588 0.343193
O O1 0.058556 0.113725 0.236795
O O2 0.076300 0.000000 0.500000
O O3 0.000000 0.000000 0.387596
O O4 0.500000 0.500000 0.663555
O O5 0.500000 0.296869 0.500000
O O6 0.543125 0.295434 0.747999
O O7 0.251806 0.147910 0.500000
O O8 0.290243 0.251855 0.275230
O O9 0.209057 0.182802 0.263653
O O10 0.269829 0.000000 0.278196
O O11 0.871966 0.755165 0.800321
O O12 0.954548 0.654747 0.748260
O O13 0.935098 0.750870 0.000000
O O14 0.335133 0.343522 0.500000
O O15 0.312255 0.500000 0.710702
O O16 0.370607 0.313370 0.753376
O O17 0.151591 0.000000 0.795064
O O18 0.181864 0.151423 0.000000
O O19 0.419848 0.500000 0.155115
O O20 0.414496 0.293579 0.000000
O O21 0.000000 0.500000 0.394812
O O22 0.000000 0.281543 0.500000
#
# Coordination Sequence:
#
# PCOD8200317 Si02
#       8
#     4   4   8   8   8   8   8   4
#     4  11  21  31  49  81 110 128 152 190 242 289
#     4   9  15  23  37  59  90 127 162 197 244 296
#     4   9  18  32  50  73  98 127 164 204 246 294
#     4  11  21  35  56  78 102 129 162 200 242 292
#     4   9  17  30  47  67  94 127 162 200 242 291
#     4   9  18  33  51  75 103 126 153 195 245 290
#     4   9  16  25  39  62  92 124 160 202 245 289
#     4  11  25  42  55  72 101 135 171 207 242 287
#
# _framework density 17.718354000000001
#
# number of rings (size 3 to 8) (size 9 to 14) (size 15 to 20)
#    0.000    2.385    1.538    1.615    0.000    5.538 
#    0.000    0.769    0.000    2.769    0.000    0.538 
#    0.000    4.308    0.000    0.000    0.000    0.000 
#
# Total GULP energy -644217.719524 kJ/mol
# GULP energy per Si atom -12388.802299 kJ/mol
# Density = 1.767803 g / cm^3
# Si number density = 17.718354 Si / 1000 Ang^3
#
#
#
# Elastic Constant Matrix: (Units=GPa)
#
#
# Indices 1 2 3 4 5 6 
#
# 1 141.3351 49.4143 64.0869 0.0000 0.0000 0.0000
# 2 49.4143 59.4704 29.7396 0.0000 0.0000 0.0000
# 3 64.0869 29.7396 91.7808 0.0000 0.0000 0.0000
# 4 0.0000 0.0000 0.0000 15.0060 0.0000 0.0000
# 5 0.0000 0.0000 0.0000 0.0000 33.7558 0.0000
# 6 0.0000 0.0000 0.0000 0.0000 0.0000 24.1426
#
#
#
# Elastic Compliance Matrix: (Units=1/GPa)
#
#
# Indices 1 2 3 4 5 6 
#
# 1 0.012482 -0.007175 -0.006390 0.000000 0.000000 0.000000
# 2 -0.007175 0.024192 -0.002828 0.000000 0.000000 0.000000
# 3 -0.006390 -0.002828 0.016274 0.000000 0.000000 0.000000
# 4 0.000000 0.000000 0.000000 0.066640 0.000000 0.000000
# 5 0.000000 0.000000 0.000000 0.000000 0.029625 0.000000
# 6 0.000000 0.000000 0.000000 0.000000 0.000000 0.041421
#
#
# Mechanical properties :
#
#
# Convention : Reuss Voigt Hill
#
# Bulk Modulus (GPa) = 49.60591 64.34088 56.97340
# Shear Modulus (GPa) = 21.72581 24.53726 23.13153
#
# Velocity S-wave (km/s) = 3.50548 3.72539 3.61711
# Velocity P-wave (km/s) = 6.66650 7.40923 7.04766
#
# Compressibility (1/GPa) = 0.02015889
#
# Stress axis : x y z
#
# Youngs Moduli (GPa) = 80.11653 41.33657 61.44674
#
# Poissons Ratio (x) = 0.29661 0.39268
# Poissons Ratio (y) = 0.57488 0.17380
# Poissons Ratio (z) = 0.51198 0.11692
#
# Static dielectric constant tensor:
#      x y z
#    x 3.529430 0.000000 0.000000 
#    y 0.000000 2.983270 0.000000 
#    z 0.000000 0.000000 3.462400 
# 
# 
# High freq. dielectric constant tensor:
#      x y z
#    x 1.686730 0.000000 0.000000 
#    y 0.000000 1.638810 0.000000 
#    z 0.000000 0.000000 1.700630 
# 
# From -- ./inp_files/13307.got.cif
#   From: 2010.03.12/outbox.cif.g09.slc.cpg/sg47_7_cif.got.tgz:13307.got - 2010.04.14 03:12:58.
