data_PCOD8200218
_publ_section_title
;
Structure prediction by ZEFSAII (Michael W. Deem and Ramdas Pophale) SiO2 
 PCOD8200218
Probable space group: P M M M
;
_chemical_formula_sum "Si O2"
_cell_formula_units_Z 44
_cell_length_a 9.264054
_cell_length_b 14.309818
_cell_length_c 23.458378
_cell_angle_alpha 90.000000
_cell_angle_beta 90.000000
_cell_angle_gamma 90.000000
_cell_volume 3109.805076
_symmetry_space_group_name_H-M "P M M M"
_symmetry_group_IT_number 47
_symmetry_cell_setting 'orthorhombic'
loop_
_space_group_symop_operation_xyz
x,y,z
-x,-y,z
x,-y,-z
-x,y,-z
-x,-y,-z
x,y,-z
-x,y,z
x,-y,z
loop_
_atom_site_type_symbol
_atom_site_label
_atom_site_fract_x
_atom_site_fract_y
_atom_site_fract_z
Si Si1 0.331874 0.890882 0.706697
Si Si2 0.161386 0.111015 0.062125
Si Si3 0.829274 0.398718 0.436259
Si Si4 0.332978 0.110820 0.500000
Si Si5 0.172197 0.797466 0.394423
Si Si6 0.340941 0.110845 0.833832
O O1 0.500000 0.865376 0.696849
O O2 0.227529 0.833200 0.666010
O O3 0.282077 0.864100 0.770915
O O4 0.308308 0.000000 0.694833
O O5 0.247425 0.155832 0.115141
O O6 0.000000 0.150352 0.066046
O O7 0.160405 0.000000 0.067734
O O8 0.227923 0.138917 0.000000
O O9 0.767301 0.382794 0.500000
O O10 0.773748 0.500000 0.412529
O O11 0.781546 0.311878 0.397181
O O12 0.000000 0.400879 0.439798
O O13 0.500000 0.144439 0.500000
O O14 0.251205 0.146746 0.555708
O O15 0.325676 0.000000 0.500000
O O16 0.000000 0.811605 0.400003
O O17 0.500000 0.153093 0.840873
O O18 0.346718 0.000000 0.839859
#
# Coordination Sequence:
#
# PCOD8200218 Si02
#       6
#     8   8   8   4   8   8
#     4   9  18  31  42  53  76 109 136 158 193 236
#     4   8  13  20  30  46  68  91 116 153 200 235
#     4   8  14  27  46  64  81  98 115 144 192 241
#     4  11  23  35  44  55  78 110 131 149 190 237
#     4  11  20  30  46  66  79  93 126 165 193 224
#     4   8  14  24  36  48  64  92 130 162 184 217
#
# _framework density 14.148796000000001
#
# number of rings (size 3 to 8) (size 9 to 14) (size 15 to 20)
#    0.000    3.000    0.909    3.545    0.000    4.364 
#    0.000    3.636    0.000    2.727    0.000    0.000 
#    0.000    0.000    0.000    0.000    0.000    0.909 
#
# Total GULP energy -545109.802046 kJ/mol
# GULP energy per Si atom -12388.859137 kJ/mol
# Density = 1.411659 g / cm^3
# Si number density = 14.148796 Si / 1000 Ang^3
#
#
#
# Elastic Constant Matrix: (Units=GPa)
#
#
# Indices 1 2 3 4 5 6 
#
# 1 65.1103 30.1606 54.9053 0.0000 0.0000 0.0000
# 2 30.1606 59.5784 39.6032 0.0000 0.0000 0.0000
# 3 54.9053 39.6032 124.7703 0.0000 0.0000 0.0000
# 4 0.0000 0.0000 0.0000 1.3347 0.0000 0.0000
# 5 0.0000 0.0000 0.0000 0.0000 28.7173 0.0000
# 6 0.0000 0.0000 0.0000 0.0000 0.0000 5.9492
#
#
#
# Elastic Compliance Matrix: (Units=1/GPa)
#
#
# Indices 1 2 3 4 5 6 
#
# 1 0.026667 -0.007223 -0.009442 0.000000 0.000000 0.000000
# 2 -0.007223 0.023230 -0.004195 0.000000 0.000000 0.000000
# 3 -0.009442 -0.004195 0.013501 0.000000 0.000000 0.000000
# 4 0.000000 0.000000 0.000000 0.749245 0.000000 0.000000
# 5 0.000000 0.000000 0.000000 0.000000 0.034822 0.000000
# 6 0.000000 0.000000 0.000000 0.000000 0.000000 0.168089
#
#
# Mechanical properties :
#
#
# Convention : Reuss Voigt Hill
#
# Bulk Modulus (GPa) = 46.13070 55.42192 50.77631
# Shear Modulus (GPa) = 4.69705 15.51957 10.10831
#
# Velocity S-wave (km/s) = 1.82399 3.31552 2.67578
# Velocity P-wave (km/s) = 6.09186 7.34252 6.74623
#
# Compressibility (1/GPa) = 0.02167754
#
# Stress axis : x y z
#
# Youngs Moduli (GPa) = 37.50010 43.04862 74.06803
#
# Poissons Ratio (x) = 0.31095 0.69935
# Poissons Ratio (y) = 0.27087 0.31069
# Poissons Ratio (z) = 0.35407 0.18058
#
# Static dielectric constant tensor:
#      x y z
#    x 2.835220 0.000000 0.000000 
#    y 0.000000 2.645990 0.000000 
#    z 0.000000 0.000000 2.969980 
# 
# 
# High freq. dielectric constant tensor:
#      x y z
#    x 1.533730 0.000000 0.000000 
#    y 0.000000 1.488270 0.000000 
#    z 0.000000 0.000000 1.541640 
# 
# From -- ./inp_files/31919.got.cif
#   From: 2010.03.12/outbox.cif.g09.slc.cpg/sg47_16_cif.got.tgz:31919.got - 2010.04.14 03:12:58.
