data_PCOD8200114
_publ_section_title
;
Structure prediction by ZEFSAII (Michael W. Deem and Ramdas Pophale) SiO2 
 PCOD8200114
Probable space group: P M M M
;
_chemical_formula_sum "Si O2"
_cell_formula_units_Z 40
_cell_length_a 13.001230
_cell_length_b 16.098571
_cell_length_c 10.232689
_cell_angle_alpha 90.000000
_cell_angle_beta 90.000000
_cell_angle_gamma 90.000000
_cell_volume 2141.714335
_symmetry_space_group_name_H-M "P M M M"
_symmetry_group_IT_number 47
_symmetry_cell_setting 'orthorhombic'
loop_
_space_group_symop_operation_xyz
x,y,z
-x,-y,z
x,-y,-z
-x,y,-z
-x,-y,-z
x,y,-z
-x,y,z
x,-y,z
loop_
_atom_site_type_symbol
_atom_site_label
_atom_site_fract_x
_atom_site_fract_y
_atom_site_fract_z
Si Si1 0.389101 0.692649 0.650652
Si Si2 0.804527 0.596372 0.346960
Si Si3 0.114097 0.719899 0.855581
Si Si4 0.882609 0.901955 0.500000
Si Si5 0.618819 0.000000 0.845230
Si Si6 0.260067 0.155979 0.732754
O O1 0.407863 0.678182 0.500000
O O2 0.500000 0.683525 0.723121
O O3 0.310608 0.621450 0.699147
O O4 0.345405 0.784579 0.670748
O O5 0.822897 0.619169 0.500000
O O6 0.823990 0.500000 0.321447
O O7 0.880231 0.649335 0.256310
O O8 0.196676 0.793645 0.841600
O O9 0.000000 0.758519 0.845833
O O10 0.131632 0.680441 0.000000
O O11 0.823161 0.870889 0.626641
O O12 0.000000 0.867351 0.500000
O O13 0.883940 0.000000 0.500000
O O14 0.679252 0.920372 0.793774
O O15 0.500000 0.000000 0.795462
O O16 0.621178 0.000000 0.000000
#
# Coordination Sequence:
#
# PCOD8200114 Si02
#       6
#     8   8   8   4   4   8
#     4   9  17  30  52  81 111 142 178 221 274 333
#     4   9  19  35  55  81 113 145 182 227 279 334
#     4  10  22  38  57  81 109 146 189 231 279 334
#     4  11  22  36  56  84 113 146 187 231 288 344
#     4  11  24  39  57  80 108 149 194 234 281 337
#     4  11  20  38  56  81 113 147 181 233 281 332
#
# _framework density 18.676628000000001
#
# number of rings (size 3 to 8) (size 9 to 14) (size 15 to 20)
#    0.000    2.000    2.000    1.800    1.400    1.600 
#    0.000    4.500    0.000    7.800    0.000    5.600 
#    0.000    0.000    0.000    0.000    0.000    0.000 
#
# Total GULP energy -495755.989075 kJ/mol
# GULP energy per Si atom -12393.899727 kJ/mol
# Density = 1.863412 g / cm^3
# Si number density = 18.676628 Si / 1000 Ang^3
#
#
#
# Elastic Constant Matrix: (Units=GPa)
#
#
# Indices 1 2 3 4 5 6 
#
# 1 122.4633 35.2839 44.6541 0.0000 0.0000 0.0000
# 2 35.2839 98.1276 38.1561 0.0000 0.0000 0.0000
# 3 44.6541 38.1561 84.5937 0.0000 0.0000 0.0000
# 4 0.0000 0.0000 0.0000 20.1245 0.0000 0.0000
# 5 0.0000 0.0000 0.0000 0.0000 29.3698 0.0000
# 6 0.0000 0.0000 0.0000 0.0000 0.0000 19.9518
#
#
#
# Elastic Compliance Matrix: (Units=1/GPa)
#
#
# Indices 1 2 3 4 5 6 
#
# 1 0.010410 -0.001948 -0.004617 0.000000 0.000000 0.000000
# 2 -0.001948 0.012723 -0.004710 0.000000 0.000000 0.000000
# 3 -0.004617 -0.004710 0.016383 0.000000 0.000000 0.000000
# 4 0.000000 0.000000 0.000000 0.049691 0.000000 0.000000
# 5 0.000000 0.000000 0.000000 0.000000 0.034049 0.000000
# 6 0.000000 0.000000 0.000000 0.000000 0.000000 0.050121
#
#
# Mechanical properties :
#
#
# Convention : Reuss Voigt Hill
#
# Bulk Modulus (GPa) = 58.94165 60.15251 59.54708
# Shear Modulus (GPa) = 24.80391 26.36194 25.58292
#
# Velocity S-wave (km/s) = 3.64823 3.76106 3.70507
# Velocity P-wave (km/s) = 7.02664 7.15109 7.08914
#
# Compressibility (1/GPa) = 0.01696593
#
# Stress axis : x y z
#
# Youngs Moduli (GPa) = 96.05825 78.59858 61.03999
#
# Poissons Ratio (x) = 0.15312 0.28179
# Poissons Ratio (y) = 0.18714 0.28752
# Poissons Ratio (z) = 0.44346 0.37022
#
# Static dielectric constant tensor:
#      x y z
#    x 4.246530 0.000000 0.000000 
#    y 0.000000 3.383500 0.000000 
#    z 0.000000 0.000000 3.375990 
# 
# 
# High freq. dielectric constant tensor:
#      x y z
#    x 1.742880 0.000000 0.000000 
#    y 0.000000 1.719460 0.000000 
#    z 0.000000 0.000000 1.712450 
# 
# From -- ./inp_files/5735.got.cif
#   From: 2010.03.12/outbox.cif.g09.slc.cpg/sg47_3_cif.got.tgz:5735.got - 2010.04.14 03:12:58.
