data_PCOD8200953
_publ_section_title
;
Structure prediction by ZEFSAII (Michael W. Deem and Ramdas Pophale) SiO2 
 PCOD8200953
Probable space group: P M M M
;
_chemical_formula_sum "Si O2"
_cell_formula_units_Z 40
_cell_length_a 9.366447
_cell_length_b 9.569733
_cell_length_c 25.846189
_cell_angle_alpha 90.000000
_cell_angle_beta 90.000000
_cell_angle_gamma 90.000000
_cell_volume 2316.707564
_symmetry_space_group_name_H-M "P M M M"
_symmetry_group_IT_number 47
_symmetry_cell_setting 'orthorhombic'
loop_
_space_group_symop_operation_xyz
x,y,z
-x,-y,z
x,-y,-z
-x,y,-z
-x,-y,-z
x,y,-z
-x,y,z
x,-y,z
loop_
_atom_site_type_symbol
_atom_site_label
_atom_site_fract_x
_atom_site_fract_y
_atom_site_fract_z
Si Si1 0.830331 0.342868 0.443041
Si Si2 0.834160 0.161878 0.651194
Si Si3 0.333215 0.161257 0.752578
Si Si4 0.330165 0.843279 0.942462
Si Si5 0.329941 0.657853 0.849491
O O1 0.775336 0.294747 0.500000
O O2 0.777714 0.500000 0.431702
O O3 0.769636 0.242692 0.398347
O O4 0.000000 0.336413 0.442709
O O5 0.749939 0.211600 0.701794
O O6 0.000000 0.196341 0.660109
O O7 0.808174 0.000000 0.640139
O O8 0.500000 0.183467 0.742376
O O9 0.277360 0.256577 0.799534
O O10 0.299323 0.000000 0.766026
O O11 0.500000 0.842736 0.940032
O O12 0.267876 0.734397 0.900626
O O13 0.275364 0.000000 0.929701
O O14 0.279065 0.798434 0.000000
O O15 0.500000 0.656775 0.851312
O O16 0.269712 0.500000 0.847376
#
# Coordination Sequence:
#
# PCOD8200953 Si02
#       5
#     8   8   8   8   8
#     4   8  14  25  41  61  84 108 132 159 196 242
#     4   9  17  28  43  64  85 103 130 170 206 232
#     4   9  17  29  43  57  78 110 140 163 195 242
#     4   8  13  21  33  49  71 101 134 165 200 243
#     4   9  16  24  35  53  76 102 134 170 203 235
#
# _framework density 17.265881
#
# number of rings (size 3 to 8) (size 9 to 14) (size 15 to 20)
#    0.000    3.400    0.000    1.800    0.000    4.000 
#    0.000    4.000    0.000    0.600    0.000    4.200 
#    0.000    0.800    0.000    9.200    0.000   11.800 
#
# Total GULP energy -495782.820867 kJ/mol
# GULP energy per Si atom -12394.570522 kJ/mol
# Density = 1.722658 g / cm^3
# Si number density = 17.265881 Si / 1000 Ang^3
#
#
#
# Elastic Constant Matrix: (Units=GPa)
#
#
# Indices 1 2 3 4 5 6 
#
# 1 13.5120 17.7381 27.2163 0.0000 0.0000 0.0000
# 2 17.7381 115.3240 107.1328 0.0000 0.0000 0.0000
# 3 27.2163 107.1328 193.9314 0.0000 0.0000 0.0000
# 4 0.0000 0.0000 0.0000 29.5575 0.0000 0.0000
# 5 0.0000 0.0000 0.0000 0.0000 -1.2468 0.0000
# 6 0.0000 0.0000 0.0000 0.0000 0.0000 9.0610
#
#
#
# Elastic Compliance Matrix: (Units=1/GPa)
#
#
# Indices 1 2 3 4 5 6 
#
# 1 0.104577 -0.005035 -0.011895 0.000000 0.000000 0.000000
# 2 -0.005035 0.018055 -0.009267 0.000000 0.000000 0.000000
# 3 -0.011895 -0.009267 0.011945 0.000000 0.000000 0.000000
# 4 0.000000 0.000000 0.000000 0.033832 0.000000 0.000000
# 5 0.000000 0.000000 0.000000 0.000000 -0.802055 0.000000
# 6 0.000000 0.000000 0.000000 0.000000 0.000000 0.110363
#
#
# Mechanical properties :
#
#
# Convention : Reuss Voigt Hill
#
# Bulk Modulus (GPa) = 12.16799 69.66019 40.91409
# Shear Modulus (GPa) = -11.27411 18.85303 3.78946
#
# Velocity S-wave (km/s) = -2.55810 3.30801 1.48308
# Velocity P-wave (km/s) = 1.28936 7.41780 5.16533
#
# Compressibility (1/GPa) = 0.08218284
#
# Stress axis : x y z
#
# Youngs Moduli (GPa) = 9.56229 55.38710 83.71530
#
# Poissons Ratio (x) = 0.27889 0.99577
# Poissons Ratio (y) = 0.04815 0.77581
# Poissons Ratio (z) = 0.11374 0.51329
#
# Static dielectric constant tensor:
#      x y z
#    x 2.581940 0.000000 0.000000 
#    y 0.000000 3.377730 0.000000 
#    z 0.000000 0.000000 3.604680 
# 
# 
# High freq. dielectric constant tensor:
#      x y z
#    x 1.591480 0.000000 0.000000 
#    y 0.000000 1.666970 0.000000 
#    z 0.000000 0.000000 1.683240 
# 
# From -- ./inp_files/1379.got.cif
#   From: 2010.03.12/outbox.cif.g09.slc.cpg/sg47_1_cif.got.tgz:1379.got - 2010.04.14 03:12:58.
