data_PCOD8200656
_publ_section_title
;
Structure prediction by ZEFSAII (Michael W. Deem and Ramdas Pophale) SiO2 
 PCOD8200656
Probable space group: P M M M
;
_chemical_formula_sum "Si O2"
_cell_formula_units_Z 44
_cell_length_a 9.758846
_cell_length_b 29.871945
_cell_length_c 7.641251
_cell_angle_alpha 90.000000
_cell_angle_beta 90.000000
_cell_angle_gamma 90.000000
_cell_volume 2227.544718
_symmetry_space_group_name_H-M "P M M M"
_symmetry_group_IT_number 47
_symmetry_cell_setting 'orthorhombic'
loop_
_space_group_symop_operation_xyz
x,y,z
-x,-y,z
x,-y,-z
-x,y,-z
-x,-y,-z
x,y,-z
-x,y,z
x,-y,z
loop_
_atom_site_type_symbol
_atom_site_label
_atom_site_fract_x
_atom_site_fract_y
_atom_site_fract_z
Si Si1 0.654920 0.725676 0.792415
Si Si2 0.849478 0.801335 0.207176
Si Si3 0.648736 0.371796 0.202221
Si Si4 0.152360 0.549204 0.706267
Si Si5 0.839022 0.097273 0.204661
Si Si6 0.341372 0.052911 0.500000
O O1 0.500000 0.734069 0.730449
O O2 0.748296 0.764519 0.707606
O O3 0.702712 0.676134 0.723825
O O4 0.666688 0.728791 0.000000
O O5 0.803055 0.851497 0.254369
O O6 0.000000 0.792095 0.285355
O O7 0.854450 0.796551 0.000000
O O8 0.500000 0.383678 0.286711
O O9 0.751124 0.412182 0.226910
O O10 0.625621 0.363703 0.000000
O O11 0.149057 0.550198 0.500000
O O12 0.203812 0.500000 0.769922
O O13 0.000000 0.557820 0.780635
O O14 0.739815 0.067868 0.325454
O O15 0.000000 0.087365 0.242694
O O16 0.807442 0.087461 0.000000
O O17 0.500000 0.070614 0.500000
O O18 0.342608 0.000000 0.500000
#
# Coordination Sequence:
#
# PCOD8200656 Si02
#       6
#     8   8   8   8   8   4
#     4   8  14  25  42  67 100 134 164 196 241 299
#     4   8  14  26  47  76 105 132 168 213 256 302
#     4   9  18  31  47  71 101 128 157 197 243 295
#     4   9  19  35  51  66  87 118 158 204 251 299
#     4   9  19  37  61  87 114 148 192 239 285 336
#     4  11  25  41  57  83 119 155 191 237 290 339
#
# _framework density 19.752690999999999
#
# number of rings (size 3 to 8) (size 9 to 14) (size 15 to 20)
#    0.000    3.182    0.000    3.000    0.000    4.364 
#    0.000    8.182    2.000    0.000    0.000    0.000 
#    0.000    0.000    0.000    0.000    0.000    0.000 
#
# Total GULP energy -545079.981748 kJ/mol
# GULP energy per Si atom -12388.181403 kJ/mol
# Density = 1.970773 g / cm^3
# Si number density = 19.752691 Si / 1000 Ang^3
#
#
#
# Elastic Constant Matrix: (Units=GPa)
#
#
# Indices 1 2 3 4 5 6 
#
# 1 117.8838 85.9015 33.3775 0.0000 0.0000 0.0000
# 2 85.9015 138.7051 27.1300 0.0000 0.0000 0.0000
# 3 33.3775 27.1300 50.1317 0.0000 0.0000 0.0000
# 4 0.0000 0.0000 0.0000 96.8332 0.0000 0.0000
# 5 0.0000 0.0000 0.0000 0.0000 27.7876 0.0000
# 6 0.0000 0.0000 0.0000 0.0000 0.0000 45.1252
#
#
#
# Elastic Compliance Matrix: (Units=1/GPa)
#
#
# Indices 1 2 3 4 5 6 
#
# 1 0.017078 -0.009341 -0.006315 0.000000 0.000000 0.000000
# 2 -0.009341 0.013173 -0.000909 0.000000 0.000000 0.000000
# 3 -0.006315 -0.000909 0.024644 0.000000 0.000000 0.000000
# 4 0.000000 0.000000 0.000000 0.010327 0.000000 0.000000
# 5 0.000000 0.000000 0.000000 0.000000 0.035987 0.000000
# 6 0.000000 0.000000 0.000000 0.000000 0.000000 0.022161
#
#
# Mechanical properties :
#
#
# Convention : Reuss Voigt Hill
#
# Bulk Modulus (GPa) = 45.94907 66.61539 56.28223
# Shear Modulus (GPa) = 30.53329 44.63663 37.58496
#
# Velocity S-wave (km/s) = 3.93590 4.75887 4.36682
# Velocity P-wave (km/s) = 6.63082 7.99960 7.34716
#
# Compressibility (1/GPa) = 0.02176322
#
# Stress axis : x y z
#
# Youngs Moduli (GPa) = 58.55474 75.91521 40.57757
#
# Poissons Ratio (x) = 0.70915 0.25626
# Poissons Ratio (y) = 0.54698 0.03689
# Poissons Ratio (z) = 0.36979 0.06902
#
# Static dielectric constant tensor:
#      x y z
#    x 3.570680 0.000000 0.000000 
#    y 0.000000 1.984450 0.000000 
#    z 0.000000 0.000000 3.286010 
# 
# 
# High freq. dielectric constant tensor:
#      x y z
#    x 1.763160 0.000000 0.000000 
#    y 0.000000 1.776440 0.000000 
#    z 0.000000 0.000000 1.746220 
# 
# From -- ./inp_files/2109.got.cif
#   From: 2010.03.12/outbox.cif.g09.slc.cpg/sg47_2_cif.got.tgz:2109.got - 2010.04.14 03:12:58.
