data_PCOD8200289
_publ_section_title
;
Structure prediction by ZEFSAII (Michael W. Deem and Ramdas Pophale) SiO2 
 PCOD8200289
Probable space group: P M M M
;
_chemical_formula_sum "Si O2"
_cell_formula_units_Z 36
_cell_length_a 16.225503
_cell_length_b 14.232355
_cell_length_c 9.305345
_cell_angle_alpha 90.000000
_cell_angle_beta 90.000000
_cell_angle_gamma 90.000000
_cell_volume 2148.856510
_symmetry_space_group_name_H-M "P M M M"
_symmetry_group_IT_number 47
_symmetry_cell_setting 'orthorhombic'
loop_
_space_group_symop_operation_xyz
x,y,z
-x,-y,z
x,-y,-z
-x,y,-z
-x,-y,-z
x,y,-z
-x,y,z
x,-y,z
loop_
_atom_site_type_symbol
_atom_site_label
_atom_site_fract_x
_atom_site_fract_y
_atom_site_fract_z
Si Si1 0.313181 0.760642 0.332521
Si Si2 0.000000 0.889003 0.838997
Si Si3 0.160693 0.108857 0.668594
Si Si4 0.404117 0.101874 0.156120
Si Si5 0.406265 0.391209 0.832228
O O1 0.314068 0.739533 0.500000
O O2 0.230483 0.815981 0.284937
O O3 0.386248 0.830010 0.287980
O O4 0.333123 0.663333 0.251263
O O5 0.080704 0.855606 0.753860
O O6 0.000000 0.000000 0.846827
O O7 0.000000 0.845957 0.000000
O O8 0.142394 0.116153 0.500000
O O9 0.184131 0.000000 0.707214
O O10 0.500000 0.089216 0.146636
O O11 0.363365 0.000000 0.185874
O O12 0.372008 0.140355 0.000000
O O13 0.500000 0.360986 0.786813
O O14 0.393399 0.500000 0.796093
O O15 0.395080 0.371316 0.000000
#
# Coordination Sequence:
#
# PCOD8200289 Si02
#       5
#     8   4   8   8   8
#     4  11  21  30  45  71  97 121 153 194 238 282
#     4   9  17  29  47  71  94 119 158 201 231 260
#     4   9  18  32  47  65  96 134 161 183 223 280
#     4   9  18  31  44  59  85 124 163 193 225 269
#     4   9  19  36  54  69  89 122 162 201 243 290
#
# _framework density 16.753095999999999
#
# number of rings (size 3 to 8) (size 9 to 14) (size 15 to 20)
#    0.000    2.556    0.000    3.667    0.000    8.444 
#    0.000    4.444    0.000    0.000    0.000    0.778 
#    0.000    6.222    0.000    0.000    0.000    0.000 
#
# Total GULP energy -445987.029124 kJ/mol
# GULP energy per Si atom -12388.528587 kJ/mol
# Density = 1.671497 g / cm^3
# Si number density = 16.753096 Si / 1000 Ang^3
#
#
#
# Elastic Constant Matrix: (Units=GPa)
#
#
# Indices 1 2 3 4 5 6 
#
# 1 92.8451 55.3124 54.5466 0.0000 0.0000 0.0000
# 2 55.3124 89.9393 43.2070 0.0000 0.0000 0.0000
# 3 54.5466 43.2070 66.5168 0.0000 0.0000 0.0000
# 4 0.0000 0.0000 0.0000 24.3521 0.0000 0.0000
# 5 0.0000 0.0000 0.0000 0.0000 25.7083 0.0000
# 6 0.0000 0.0000 0.0000 0.0000 0.0000 12.8265
#
#
#
# Elastic Compliance Matrix: (Units=1/GPa)
#
#
# Indices 1 2 3 4 5 6 
#
# 1 0.023966 -0.007700 -0.014651 0.000000 0.000000 0.000000
# 2 -0.007700 0.018636 -0.005791 0.000000 0.000000 0.000000
# 3 -0.014651 -0.005791 0.030810 0.000000 0.000000 0.000000
# 4 0.000000 0.000000 0.000000 0.041064 0.000000 0.000000
# 5 0.000000 0.000000 0.000000 0.000000 0.038898 0.000000
# 6 0.000000 0.000000 0.000000 0.000000 0.000000 0.077964
#
#
# Mechanical properties :
#
#
# Convention : Reuss Voigt Hill
#
# Bulk Modulus (GPa) = 58.38635 61.71480 60.05058
# Shear Modulus (GPa) = 17.04562 18.99304 18.01933
#
# Velocity S-wave (km/s) = 3.19323 3.37070 3.28316
# Velocity P-wave (km/s) = 6.96580 7.21572 7.09186
#
# Compressibility (1/GPa) = 0.01712729
#
# Stress axis : x y z
#
# Youngs Moduli (GPa) = 41.72661 53.65886 32.45748
#
# Poissons Ratio (x) = 0.41320 0.47553
# Poissons Ratio (y) = 0.32131 0.18795
# Poissons Ratio (z) = 0.61133 0.31073
#
# Static dielectric constant tensor:
#      x y z
#    x 3.075940 0.000000 0.000000 
#    y 0.000000 3.077710 0.000000 
#    z 0.000000 0.000000 3.208520 
# 
# 
# High freq. dielectric constant tensor:
#      x y z
#    x 1.626760 0.000000 0.000000 
#    y 0.000000 1.624930 0.000000 
#    z 0.000000 0.000000 1.648820 
# 
# From -- ./inp_files/5491.got.cif
#   From: 2010.03.12/outbox.cif.g09.slc.cpg/sg47_3_cif.got.tgz:5491.got - 2010.04.14 03:12:58.
