data_PCOD8200676
_publ_section_title
;
Structure prediction by ZEFSAII (Michael W. Deem and Ramdas Pophale) SiO2 
 PCOD8200676
Probable space group: P M M M
;
_chemical_formula_sum "Si O2"
_cell_formula_units_Z 40
_cell_length_a 26.285960
_cell_length_b 9.272526
_cell_length_c 9.186544
_cell_angle_alpha 90.000000
_cell_angle_beta 90.000000
_cell_angle_gamma 90.000000
_cell_volume 2239.102949
_symmetry_space_group_name_H-M "P M M M"
_symmetry_group_IT_number 47
_symmetry_cell_setting 'orthorhombic'
loop_
_space_group_symop_operation_xyz
x,y,z
-x,-y,z
x,-y,-z
-x,y,-z
-x,-y,-z
x,y,-z
-x,y,z
x,-y,z
loop_
_atom_site_type_symbol
_atom_site_label
_atom_site_fract_x
_atom_site_fract_y
_atom_site_fract_z
Si Si1 0.000000 0.828548 0.664127
Si Si2 0.801874 0.662907 0.173293
Si Si3 0.294974 0.837333 0.826294
Si Si4 0.500000 0.671218 0.840543
Si Si5 0.099312 0.167588 0.829984
Si Si6 0.609069 0.337686 0.825661
O O1 0.949837 0.771787 0.745846
O O2 0.000000 0.768943 0.500000
O O3 0.000000 0.000000 0.668112
O O4 0.801469 0.500000 0.233922
O O5 0.752745 0.746876 0.234758
O O6 0.852386 0.743640 0.228256
O O7 0.800463 0.663318 0.000000
O O8 0.347017 0.767060 0.765995
O O9 0.291132 0.000000 0.767124
O O10 0.294721 0.835075 0.000000
O O11 0.500000 0.500000 0.857697
O O12 0.446446 0.714738 0.762402
O O13 0.500000 0.743718 0.000000
O O14 0.109551 0.000000 0.796562
O O15 0.089649 0.193021 0.000000
O O16 0.621581 0.500000 0.773042
O O17 0.606585 0.334605 0.000000
#
# Coordination Sequence:
#
# PCOD8200676 Si02
#       6
#     4   8   8   4   8   8
#     4   9  17  29  46  67  88 110 136 163 192 232
#     4   9  16  25  37  53  72  94 121 154 193 236
#     4   9  15  21  29  43  63  85 110 145 191 237
#     4   7  10  16  25  35  47  69 105 145 182 223
#     4   9  16  27  44  64  84 106 133 165 198 231
#     4   8  12  18  27  37  51  75 108 145 185 229
#
# _framework density 17.864297000000001
#
# number of rings (size 3 to 8) (size 9 to 14) (size 15 to 20)
#    0.000    3.400    0.000    2.700    0.000    6.000 
#    0.000    1.000    0.000    6.600    0.000    0.000 
#    0.000    0.000    0.000    0.000    0.000    0.000 
#
# Total GULP energy -495653.386674 kJ/mol
# GULP energy per Si atom -12391.334667 kJ/mol
# Density = 1.782364 g / cm^3
# Si number density = 17.864297 Si / 1000 Ang^3
#
#
#
# Elastic Constant Matrix: (Units=GPa)
#
#
# Indices 1 2 3 4 5 6 
#
# 1 216.7720 91.0082 26.8571 0.0000 0.0000 0.0000
# 2 91.0082 111.8928 14.4016 0.0000 0.0000 0.0000
# 3 26.8571 14.4016 18.6350 0.0000 0.0000 0.0000
# 4 0.0000 0.0000 0.0000 3.4231 0.0000 0.0000
# 5 0.0000 0.0000 0.0000 0.0000 0.4281 0.0000
# 6 0.0000 0.0000 0.0000 0.0000 0.0000 33.5235
#
#
#
# Elastic Compliance Matrix: (Units=1/GPa)
#
#
# Indices 1 2 3 4 5 6 
#
# 1 0.007747 -0.005401 -0.006991 0.000000 0.000000 0.000000
# 2 -0.005401 0.013690 -0.002796 0.000000 0.000000 0.000000
# 3 -0.006991 -0.002796 0.065898 0.000000 0.000000 0.000000
# 4 0.000000 0.000000 0.000000 0.292130 0.000000 0.000000
# 5 0.000000 0.000000 0.000000 0.000000 2.336158 0.000000
# 6 0.000000 0.000000 0.000000 0.000000 0.000000 0.029830
#
#
# Mechanical properties :
#
#
# Convention : Reuss Voigt Hill
#
# Bulk Modulus (GPa) = 17.55618 67.98150 42.76884
# Shear Modulus (GPa) = 1.78903 21.81047 11.79975
#
# Velocity S-wave (km/s) = 1.00181 3.49792 2.57285
# Velocity P-wave (km/s) = 3.34470 7.37909 5.72879
#
# Compressibility (1/GPa) = 0.05695999
#
# Stress axis : x y z
#
# Youngs Moduli (GPa) = 129.08476 73.04606 15.17486
#
# Poissons Ratio (x) = 0.39453 0.10608
# Poissons Ratio (y) = 0.69720 0.04243
# Poissons Ratio (z) = 0.90240 0.20422
#
# Static dielectric constant tensor:
#      x y z
#    x 3.788090 0.000000 0.000000 
#    y 0.000000 3.223790 0.000000 
#    z 0.000000 0.000000 2.522700 
# 
# 
# High freq. dielectric constant tensor:
#      x y z
#    x 1.719090 0.000000 0.000000 
#    y 0.000000 1.672120 0.000000 
#    z 0.000000 0.000000 1.598930 
# 
# From -- ./inp_files/12977.got.cif
#   From: 2010.03.12/outbox.cif.g09.slc.cpg/sg47_7_cif.got.tgz:12977.got - 2010.04.14 03:12:58.
