data_PCOD8200016
_publ_section_title
;
Structure prediction by ZEFSAII (Michael W. Deem and Ramdas Pophale) SiO2 
 PCOD8200016
Probable space group: P M M M
;
_chemical_formula_sum "Si O2"
_cell_formula_units_Z 40
_cell_length_a 15.465336
_cell_length_b 9.006165
_cell_length_c 14.493947
_cell_angle_alpha 90.000000
_cell_angle_beta 90.000000
_cell_angle_gamma 90.000000
_cell_volume 2018.765751
_symmetry_space_group_name_H-M "P M M M"
_symmetry_group_IT_number 47
_symmetry_cell_setting 'orthorhombic'
loop_
_space_group_symop_operation_xyz
x,y,z
-x,-y,z
x,-y,-z
-x,y,-z
-x,-y,-z
x,y,-z
-x,y,z
x,-y,z
loop_
_atom_site_type_symbol
_atom_site_label
_atom_site_fract_x
_atom_site_fract_y
_atom_site_fract_z
Si Si1 0.097768 0.824001 0.901107
Si Si2 0.500000 0.324769 0.393571
Si Si3 0.349119 0.172170 0.283151
Si Si4 0.398385 0.329777 0.104122
Si Si5 0.155492 0.827437 0.291740
Si Si6 0.000000 0.670695 0.608133
O O1 0.152042 0.766187 0.813772
O O2 0.000000 0.767973 0.887300
O O3 0.100107 0.000000 0.904308
O O4 0.133873 0.762544 0.000000
O O5 0.500000 0.500000 0.381269
O O6 0.500000 0.276268 0.500000
O O7 0.414432 0.262996 0.346062
O O8 0.349624 0.226005 0.177093
O O9 0.253562 0.197405 0.325888
O O10 0.375018 0.000000 0.284840
O O11 0.500000 0.312644 0.121154
O O12 0.370586 0.500000 0.119577
O O13 0.374514 0.278897 0.000000
O O14 0.087936 0.742003 0.354722
O O15 0.129614 0.000000 0.295049
O O16 0.000000 0.500000 0.636929
O O17 0.000000 0.694859 0.500000
#
# Coordination Sequence:
#
# PCOD8200016 Si02
#       6
#     8   4   8   8   8   4
#     4   8  13  25  51  83 113 148 187 224 265 322
#     4  11  25  45  66  83 108 153 199 242 300 365
#     4  11  23  37  60  94 124 151 191 247 303 353
#     4   9  18  34  57  84 119 165 207 239 281 344
#     4  10  21  38  61  89 120 154 191 234 291 352
#     4  11  25  43  62  85 114 150 195 247 296 345
#
# _framework density 19.814086
#
# number of rings (size 3 to 8) (size 9 to 14) (size 15 to 20)
#    0.000    2.200    2.000    2.400    0.000    5.200 
#    0.000    7.000    0.000    1.200    0.000    0.000 
#    0.000    0.000    0.000    0.000    0.000    0.000 
#
# Total GULP energy -495840.820813 kJ/mol
# GULP energy per Si atom -12396.020520 kJ/mol
# Density = 1.976899 g / cm^3
# Si number density = 19.814086 Si / 1000 Ang^3
#
#
#
# Elastic Constant Matrix: (Units=GPa)
#
#
# Indices 1 2 3 4 5 6 
#
# 1 105.3957 46.6807 55.7276 0.0000 0.0000 0.0000
# 2 46.6807 77.5196 56.9019 0.0000 0.0000 0.0000
# 3 55.7276 56.9019 106.5052 0.0000 0.0000 0.0000
# 4 0.0000 0.0000 0.0000 28.7816 0.0000 0.0000
# 5 0.0000 0.0000 0.0000 0.0000 7.7520 0.0000
# 6 0.0000 0.0000 0.0000 0.0000 0.0000 12.9631
#
#
#
# Elastic Compliance Matrix: (Units=1/GPa)
#
#
# Indices 1 2 3 4 5 6 
#
# 1 0.014251 -0.005114 -0.004725 0.000000 0.000000 0.000000
# 2 -0.005114 0.023058 -0.009643 0.000000 0.000000 0.000000
# 3 -0.004725 -0.009643 0.017013 0.000000 0.000000 0.000000
# 4 0.000000 0.000000 0.000000 0.034744 0.000000 0.000000
# 5 0.000000 0.000000 0.000000 0.000000 0.128999 0.000000
# 6 0.000000 0.000000 0.000000 0.000000 0.000000 0.077142
#
#
# Mechanical properties :
#
#
# Convention : Reuss Voigt Hill
#
# Bulk Modulus (GPa) = 65.10819 67.56011 66.33415
# Shear Modulus (GPa) = 14.73661 18.57336 16.65499
#
# Velocity S-wave (km/s) = 2.73013 3.06499 2.90239
# Velocity P-wave (km/s) = 6.54744 6.83349 6.69199
#
# Compressibility (1/GPa) = 0.01535905
#
# Stress axis : x y z
#
# Youngs Moduli (GPa) = 70.17001 43.36932 58.77716
#
# Poissons Ratio (x) = 0.22178 0.27770
# Poissons Ratio (y) = 0.35882 0.56680
# Poissons Ratio (z) = 0.33153 0.41822
#
# Static dielectric constant tensor:
#      x y z
#    x 3.511310 0.000000 0.000000 
#    y 0.000000 3.378910 0.000000 
#    z 0.000000 0.000000 3.968920 
# 
# 
# High freq. dielectric constant tensor:
#      x y z
#    x 1.770810 0.000000 0.000000 
#    y 0.000000 1.749010 0.000000 
#    z 0.000000 0.000000 1.779960 
# 
# From -- ./inp_files/20731.got.cif
#   From: 2010.03.12/outbox.cif.g09.slc.cpg/sg47_11_cif.got.tgz:20731.got - 2010.04.14 03:12:58.
