data_PCOD8201855
_publ_section_title
;
Structure prediction by ZEFSAII (Michael W. Deem and Ramdas Pophale) SiO2 
 PCOD8201855
Probable space group: P N N N
;
_chemical_formula_sum "Si O2"
_cell_formula_units_Z 36
_cell_length_a 10.443263
_cell_length_b 21.630481
_cell_length_c 7.368241
_cell_angle_alpha 90.000000
_cell_angle_beta 90.000000
_cell_angle_gamma 90.000000
_cell_volume 1664.432605
_symmetry_space_group_name_H-M "P N N N"
_symmetry_group_IT_number 48
_space_group.IT_coordinate_system_code '2'
_symmetry_cell_setting 'orthorhombic'
loop_
_space_group_symop_operation_xyz
x,y,z
1/2-x,1/2-y,z
x,1/2-y,1/2-z
1/2-x,y,1/2-z
-x,-y,-z
1/2+x,1/2+y,-z
-x,1/2+y,1/2+z
1/2+x,-y,1/2+z
loop_
_atom_site_type_symbol
_atom_site_label
_atom_site_fract_x
_atom_site_fract_y
_atom_site_fract_z
Si Si1 0.925193 0.589184 0.013099
Si Si2 0.602961 0.815548 0.305887
Si Si3 0.020952 0.179161 0.212128
Si Si4 0.301814 0.531329 0.453985
Si Si5 0.250000 0.620939 0.750000
O O1 0.950176 0.626956 0.195451
O O2 0.056147 0.552666 0.995928
O O3 0.804326 0.541338 0.012603
O O4 0.897591 0.635846 0.846463
O O5 0.536320 0.750000 0.250000
O O6 0.750000 0.810254 0.250000
O O7 0.570882 0.833921 0.510617
O O8 0.052156 0.250000 0.250000
O O9 0.871904 0.165950 0.256093
O O10 0.250000 0.538783 0.250000
O O11 0.216525 0.575664 0.580159
#
# Coordination Sequence:
#
# PCOD8201855 Si02
#       5
#     8   8   8   8   4
#     4  10  23  40  61  93 125 165 213 264 322 387
#     4  11  24  40  61  91 126 166 212 259 319 392
#     4  11  22  42  65  92 130 166 216 270 327 395
#     4  10  22  40  62  91 126 163 213 264 321 385
#     4  10  23  40  68  94 123 168 214 272 328 388
#
# _framework density 21.628992
#
# number of rings (size 3 to 8) (size 9 to 14) (size 15 to 20)
#    0.000    1.556    2.222    1.667    4.667    0.000 
#    0.000    6.667    0.000    0.000    0.000    0.000 
#    0.000    0.000    0.000    0.000    0.000    0.000 
#
# Total GULP energy -446005.910656 kJ/mol
# GULP energy per Si atom -12389.053074 kJ/mol
# Density = 2.157976 g / cm^3
# Si number density = 21.628992 Si / 1000 Ang^3
#
#
#
# Elastic Constant Matrix: (Units=GPa)
#
#
# Indices 1 2 3 4 5 6 
#
# 1 25.5921 5.1871 6.3424 0.0000 0.0000 0.0000
# 2 5.1871 128.0343 54.5397 0.0000 0.0000 0.0000
# 3 6.3424 54.5397 176.7421 0.0000 0.0000 0.0000
# 4 0.0000 0.0000 0.0000 20.2944 0.0000 0.0000
# 5 0.0000 0.0000 0.0000 0.0000 31.9232 0.0000
# 6 0.0000 0.0000 0.0000 0.0000 0.0000 -2.6789
#
#
#
# Elastic Compliance Matrix: (Units=1/GPa)
#
#
# Indices 1 2 3 4 5 6 
#
# 1 0.039571 -0.001149 -0.001065 0.000000 0.000000 0.000000
# 2 -0.001149 0.009026 -0.002744 0.000000 0.000000 0.000000
# 3 -0.001065 -0.002744 0.006543 0.000000 0.000000 0.000000
# 4 0.000000 0.000000 0.000000 0.049275 0.000000 0.000000
# 5 0.000000 0.000000 0.000000 0.000000 0.031325 0.000000
# 6 0.000000 0.000000 0.000000 0.000000 0.000000 -0.373281
#
#
# Mechanical properties :
#
#
# Convention : Reuss Voigt Hill
#
# Bulk Modulus (GPa) = 22.11270 51.38965 36.75118
# Shear Modulus (GPa) = -23.52396 27.52769 2.00186
#
# Velocity S-wave (km/s) = -3.30147 3.57139 0.96310
# Velocity P-wave (km/s) = 2.07054 6.38887 4.27379
#
# Compressibility (1/GPa) = 0.04522287
#
# Stress axis : x y z
#
# Youngs Moduli (GPa) = 25.27073 110.79287 152.83644
#
# Poissons Ratio (x) = 0.12734 0.16282
# Poissons Ratio (y) = 0.02905 0.41938
# Poissons Ratio (z) = 0.02692 0.30401
#
# Static dielectric constant tensor:
#      x y z
#    x 3.563180 0.000000 0.000000 
#    y 0.000000 4.812090 0.000000 
#    z 0.000000 0.000000 3.945700 
# 
# 
# High freq. dielectric constant tensor:
#      x y z
#    x 1.822630 0.000000 0.000000 
#    y 0.000000 1.878740 0.000000 
#    z 0.000000 0.000000 1.855480 
# 
# From -- ./inp_files/2233.got.cif
#   From: 2010.06.25/outbox.cif.g09.slc.cpg/sg48_2_cif.got.tgz:2233.got - 2010.06.26 18:06:46.
