data_PCOD8201427
_publ_section_title
;
Structure prediction by ZEFSAII (Michael W. Deem and Ramdas Pophale) SiO2 
 PCOD8201427
Probable space group: P N N N
;
_chemical_formula_sum "Si O2"
_cell_formula_units_Z 52
_cell_length_a 10.239256
_cell_length_b 25.588326
_cell_length_c 9.655884
_cell_angle_alpha 90.000000
_cell_angle_beta 90.000000
_cell_angle_gamma 90.000000
_cell_volume 2529.893948
_symmetry_space_group_name_H-M "P N N N"
_symmetry_group_IT_number 48
_space_group.IT_coordinate_system_code '2'
_symmetry_cell_setting 'orthorhombic'
loop_
_space_group_symop_operation_xyz
x,y,z
1/2-x,1/2-y,z
x,1/2-y,1/2-z
1/2-x,y,1/2-z
-x,-y,-z
1/2+x,1/2+y,-z
-x,1/2+y,1/2+z
1/2+x,-y,1/2+z
loop_
_atom_site_type_symbol
_atom_site_label
_atom_site_fract_x
_atom_site_fract_y
_atom_site_fract_z
Si Si1 0.392830 0.469483 0.083543
Si Si2 0.097838 0.260283 0.597528
Si Si3 0.923876 0.830604 0.605428
Si Si4 0.926244 0.421453 0.978516
Si Si5 0.250000 0.955329 0.250000
Si Si6 0.838206 0.520598 0.116061
Si Si7 0.376705 0.350919 0.092053
O O1 0.372516 0.505365 0.219390
O O2 0.435778 0.409408 0.105675
O O3 0.500000 0.500000 0.000000
O O4 0.251467 0.468900 0.015108
O O5 0.250000 0.250000 0.611437
O O6 0.033402 0.250000 0.750000
O O7 0.044798 0.221801 0.479220
O O8 0.069461 0.319434 0.542829
O O9 0.925622 0.820179 0.770720
O O10 0.780047 0.854148 0.575703
O O11 0.041743 0.868171 0.557646
O O12 0.798213 0.418537 0.877773
O O13 0.050339 0.435426 0.881594
O O14 0.903859 0.463653 0.100639
O O15 0.750000 0.524585 0.250000
#
# Coordination Sequence:
#
# PCOD8201427 Si02
#       7
#     8   8   8   8   4   8   8
#     4  11  22  34  54  83 118 157 194 237 285 350
#     4   9  19  34  53  82 117 147 188 237 297 361
#     4  10  19  35  58  80 115 157 191 236 298 354
#     4  10  21  36  56  80 116 160 195 244 292 346
#     4  10  22  38  52  80 124 152 204 240 284 350
#     4  10  21  34  52  80 117 156 198 238 286 346
#     4  10  20  34  54  84 117 156 189 237 292 359
#
# _framework density 20.554220999999998
#
# number of rings (size 3 to 8) (size 9 to 14) (size 15 to 20)
#    0.000    2.000    1.538    2.308    6.462    4.308 
#    0.000    0.000    0.000    0.000    0.000   10.231 
#    0.000    0.000    0.000    0.000    0.000    0.000 
#
# Total GULP energy -644320.435417 kJ/mol
# GULP energy per Si atom -12390.777604 kJ/mol
# Density = 2.050744 g / cm^3
# Si number density = 20.554221 Si / 1000 Ang^3
#
#
#
# Elastic Constant Matrix: (Units=GPa)
#
#
# Indices 1 2 3 4 5 6 
#
# 1 40.3849 14.2250 13.6549 0.0000 0.0000 0.0000
# 2 14.2250 86.3276 35.5426 0.0000 0.0000 0.0000
# 3 13.6549 35.5426 100.5533 0.0000 0.0000 0.0000
# 4 0.0000 0.0000 0.0000 29.7763 0.0000 0.0000
# 5 0.0000 0.0000 0.0000 0.0000 37.4310 0.0000
# 6 0.0000 0.0000 0.0000 0.0000 0.0000 18.9432
#
#
#
# Elastic Compliance Matrix: (Units=1/GPa)
#
#
# Indices 1 2 3 4 5 6 
#
# 1 0.026786 -0.003413 -0.002431 0.000000 0.000000 0.000000
# 2 -0.003413 0.013992 -0.004482 0.000000 0.000000 0.000000
# 3 -0.002431 -0.004482 0.011859 0.000000 0.000000 0.000000
# 4 0.000000 0.000000 0.000000 0.033584 0.000000 0.000000
# 5 0.000000 0.000000 0.000000 0.000000 0.026716 0.000000
# 6 0.000000 0.000000 0.000000 0.000000 0.000000 0.052789
#
#
# Mechanical properties :
#
#
# Convention : Reuss Voigt Hill
#
# Bulk Modulus (GPa) = 31.26500 39.34564 35.30532
# Shear Modulus (GPa) = 25.37563 28.15299 26.76431
#
# Velocity S-wave (km/s) = 3.51746 3.70495 3.61242
# Velocity P-wave (km/s) = 5.63389 6.12259 5.88332
#
# Compressibility (1/GPa) = 0.03198465
#
# Stress axis : x y z
#
# Youngs Moduli (GPa) = 37.33312 71.47185 84.32110
#
# Poissons Ratio (x) = 0.24392 0.20500
# Poissons Ratio (y) = 0.12741 0.37794
# Poissons Ratio (z) = 0.09076 0.32035
#
# Static dielectric constant tensor:
#      x y z
#    x 3.521210 0.000000 0.000000 
#    y 0.000000 3.620400 0.000000 
#    z 0.000000 0.000000 3.920940 
# 
# 
# High freq. dielectric constant tensor:
#      x y z
#    x 1.761290 0.000000 0.000000 
#    y 0.000000 1.787290 0.000000 
#    z 0.000000 0.000000 1.814800 
# 
# From -- ./inp_files/11411.got.cif
#   From: 2010.06.25/outbox.cif.g09.slc.cpg/sg48_6_cif.got.tgz:11411.got - 2010.06.26 18:06:46.
