data_PCOD8201296
_publ_section_title
;
Structure prediction by ZEFSAII (Michael W. Deem and Ramdas Pophale) SiO2 
 PCOD8201296
Probable space group: P N N N
;
_chemical_formula_sum "Si O2"
_cell_formula_units_Z 48
_cell_length_a 16.802124
_cell_length_b 17.354762
_cell_length_c 8.833345
_cell_angle_alpha 90.000000
_cell_angle_beta 90.000000
_cell_angle_gamma 90.000000
_cell_volume 2575.775693
_symmetry_space_group_name_H-M "P N N N"
_symmetry_group_IT_number 48
_space_group.IT_coordinate_system_code '2'
_symmetry_cell_setting 'orthorhombic'
loop_
_space_group_symop_operation_xyz
x,y,z
1/2-x,1/2-y,z
x,1/2-y,1/2-z
1/2-x,y,1/2-z
-x,-y,-z
1/2+x,1/2+y,-z
-x,1/2+y,1/2+z
1/2+x,-y,1/2+z
loop_
_atom_site_type_symbol
_atom_site_label
_atom_site_fract_x
_atom_site_fract_y
_atom_site_fract_z
Si Si1 0.580411 0.979410 0.585165
Si Si2 0.332627 0.512540 0.801424
Si Si3 0.992512 0.953815 0.345967
Si Si4 0.037843 0.187367 0.142842
Si Si5 0.126505 0.828052 0.689051
Si Si6 0.544004 0.211111 0.902722
O O1 0.591298 0.887273 0.608507
O O2 0.500000 0.000000 0.500000
O O3 0.655207 0.010169 0.484964
O O4 0.570464 0.022182 0.746202
O O5 0.250000 0.471242 0.750000
O O6 0.408002 0.471290 0.729039
O O7 0.322256 0.598962 0.736600
O O8 0.990100 0.862615 0.367132
O O9 0.000000 0.000000 0.500000
O O10 0.083839 0.250000 0.250000
O O11 0.960893 0.160135 0.238077
O O12 0.010808 0.225427 0.985447
O O13 0.167685 0.750000 0.750000
O O14 0.117149 0.818079 0.507659
O O15 0.578013 0.250000 0.750000
#
# Coordination Sequence:
#
# PCOD8201296 Si02
#       6
#     8   8   8   8   8   8
#     4  10  18  32  56  78 107 148 185 225 268 331
#     4  11  22  36  53  80 113 150 184 220 280 335
#     4  11  19  34  57  83 104 139 184 237 269 317
#     4   9  16  31  51  81 106 137 179 227 271 326
#     4   9  18  32  52  77 109 143 179 217 269 337
#     4  10  18  27  52  84 104 128 176 235 275 303
#
# _framework density 18.635164
#
# number of rings (size 3 to 8) (size 9 to 14) (size 15 to 20)
#    0.000    2.333    5.000    3.000    2.333    0.333 
#    0.000    0.833    0.000    4.500    0.000    4.667 
#    0.000    0.000    0.000    0.000    0.000    0.000 
#
# Total GULP energy -594766.272815 kJ/mol
# GULP energy per Si atom -12390.964017 kJ/mol
# Density = 1.859275 g / cm^3
# Si number density = 18.635164 Si / 1000 Ang^3
#
#
#
# Elastic Constant Matrix: (Units=GPa)
#
#
# Indices 1 2 3 4 5 6 
#
# 1 64.8790 15.7634 35.8264 0.0000 0.0000 0.0000
# 2 15.7634 94.4255 38.1024 0.0000 0.0000 0.0000
# 3 35.8264 38.1024 147.7386 0.0000 0.0000 0.0000
# 4 0.0000 0.0000 0.0000 37.3098 0.0000 0.0000
# 5 0.0000 0.0000 0.0000 0.0000 18.0333 0.0000
# 6 0.0000 0.0000 0.0000 0.0000 0.0000 10.0750
#
#
#
# Elastic Compliance Matrix: (Units=1/GPa)
#
#
# Indices 1 2 3 4 5 6 
#
# 1 0.017957 -0.001385 -0.003997 0.000000 0.000000 0.000000
# 2 -0.001385 0.011927 -0.002740 0.000000 0.000000 0.000000
# 3 -0.003997 -0.002740 0.008445 0.000000 0.000000 0.000000
# 4 0.000000 0.000000 0.000000 0.026803 0.000000 0.000000
# 5 0.000000 0.000000 0.000000 0.000000 0.055453 0.000000
# 6 0.000000 0.000000 0.000000 0.000000 0.000000 0.099256
#
#
# Mechanical properties :
#
#
# Convention : Reuss Voigt Hill
#
# Bulk Modulus (GPa) = 45.28103 54.04751 49.66427
# Shear Modulus (GPa) = 20.53836 27.57366 24.05601
#
# Velocity S-wave (km/s) = 3.32343 3.85081 3.59680
# Velocity P-wave (km/s) = 6.25127 6.98839 6.63008
#
# Compressibility (1/GPa) = 0.02208430
#
# Stress axis : x y z
#
# Youngs Moduli (GPa) = 55.68804 83.84132 118.41573
#
# Poissons Ratio (x) = 0.11610 0.47336
# Poissons Ratio (y) = 0.07711 0.32449
# Poissons Ratio (z) = 0.22261 0.22975
#
# Static dielectric constant tensor:
#      x y z
#    x 2.751670 0.000000 0.000000 
#    y 0.000000 3.824170 0.000000 
#    z 0.000000 0.000000 4.018490 
# 
# 
# High freq. dielectric constant tensor:
#      x y z
#    x 1.649680 0.000000 0.000000 
#    y 0.000000 1.737690 0.000000 
#    z 0.000000 0.000000 1.741060 
# 
# From -- ./inp_files/14339.got.cif
#   From: 2010.06.25/outbox.cif.g09.slc.cpg/sg48_8_cif.got.tgz:14339.got - 2010.06.26 18:06:46.
