data_PCOD8201834
_publ_section_title
;
Structure prediction by ZEFSAII (Michael W. Deem and Ramdas Pophale) SiO2 
 PCOD8201834
Probable space group: P N N N
;
_chemical_formula_sum "Si O2"
_cell_formula_units_Z 56
_cell_length_a 9.110245
_cell_length_b 21.541012
_cell_length_c 14.234759
_cell_angle_alpha 90.000000
_cell_angle_beta 90.000000
_cell_angle_gamma 90.000000
_cell_volume 2793.484577
_symmetry_space_group_name_H-M "P N N N"
_symmetry_group_IT_number 48
_space_group.IT_coordinate_system_code '2'
_symmetry_cell_setting 'orthorhombic'
loop_
_space_group_symop_operation_xyz
x,y,z
1/2-x,1/2-y,z
x,1/2-y,1/2-z
1/2-x,y,1/2-z
-x,-y,-z
1/2+x,1/2+y,-z
-x,1/2+y,1/2+z
1/2+x,-y,1/2+z
loop_
_atom_site_type_symbol
_atom_site_label
_atom_site_fract_x
_atom_site_fract_y
_atom_site_fract_z
Si Si1 0.868974 0.872031 0.684347
Si Si2 0.181883 0.436310 0.664657
Si Si3 0.516854 0.250000 0.250000
Si Si4 0.332716 0.876254 0.506862
Si Si5 0.336500 0.938574 0.836654
Si Si6 0.853146 0.033018 0.841755
Si Si7 0.344426 0.406354 0.043904
Si Si8 0.750000 0.250000 0.085928
O O1 0.750000 0.907224 0.750000
O O2 0.779423 0.860261 0.587307
O O3 0.915328 0.810565 0.741231
O O4 0.993162 0.922963 0.671998
O O5 0.250000 0.393478 0.750000
O O6 0.308745 0.488677 0.663615
O O7 0.183085 0.401375 0.566933
O O8 0.024204 0.467518 0.688174
O O9 0.609975 0.245721 0.154315
O O10 0.214763 0.914875 0.563706
O O11 0.330795 0.902756 0.400844
O O12 0.490126 0.882475 0.559509
O O13 0.274429 0.806050 0.513384
O O14 0.250000 0.904814 0.750000
O O15 0.750000 0.033929 0.750000
O O16 0.825320 0.975577 0.913191
#
# Coordination Sequence:
#
# PCOD8201834 Si02
#       8
#     8   8   4   8   8   8   8   4
#     4  12  25  35  56  87 127 166 203 250 304 368
#     4  10  22  38  59  89 128 162 201 256 316 378
#     4  11  23  40  56  90 126 158 210 256 298 374
#     4  11  21  42  61  88 120 164 209 254 312 375
#     4  11  20  35  56  84 122 161 201 253 299 377
#     4  11  23  39  62  92 126 163 206 264 314 373
#     4  11  22  40  61  91 129 167 202 255 322 373
#     4  11  22  38  67  84 116 168 205 252 315 368
#
# _framework density 20.046645999999999
#
# number of rings (size 3 to 8) (size 9 to 14) (size 15 to 20)
#    0.000    1.000    4.286    4.071    6.000    1.714 
#    0.000    0.357    0.000    0.000    0.000    0.000 
#    0.000    0.000    0.000    0.000    0.000    0.000 
#
# Total GULP energy -693784.303046 kJ/mol
# GULP energy per Si atom -12389.005412 kJ/mol
# Density = 2.000102 g / cm^3
# Si number density = 20.046646 Si / 1000 Ang^3
#
#
#
# Elastic Constant Matrix: (Units=GPa)
#
#
# Indices 1 2 3 4 5 6 
#
# 1 135.8112 28.5033 51.1188 0.0000 0.0000 0.0000
# 2 28.5033 75.1379 34.0750 0.0000 0.0000 0.0000
# 3 51.1188 34.0750 106.9720 0.0000 0.0000 0.0000
# 4 0.0000 0.0000 0.0000 -152.1175 0.0000 0.0000
# 5 0.0000 0.0000 0.0000 0.0000 33.2055 0.0000
# 6 0.0000 0.0000 0.0000 0.0000 0.0000 28.2202
#
#
#
# Elastic Compliance Matrix: (Units=1/GPa)
#
#
# Indices 1 2 3 4 5 6 
#
# 1 0.009169 -0.001743 -0.003827 0.000000 0.000000 0.000000
# 2 -0.001743 0.015887 -0.004228 0.000000 0.000000 0.000000
# 3 -0.003827 -0.004228 0.012524 0.000000 0.000000 0.000000
# 4 0.000000 0.000000 0.000000 -0.006574 0.000000 0.000000
# 5 0.000000 0.000000 0.000000 0.000000 0.030115 0.000000
# 6 0.000000 0.000000 0.000000 0.000000 0.000000 0.035436
#
#
# Mechanical properties :
#
#
# Convention : Reuss Voigt Hill
#
# Bulk Modulus (GPa) = 55.60041 60.59059 58.09550
# Shear Modulus (GPa) = 40.93417 -4.52343 18.20537
#
# Velocity S-wave (km/s) = 4.52369 -1.50378 3.01682
# Velocity P-wave (km/s) = 7.42164 5.22257 6.41701
#
# Compressibility (1/GPa) = 0.01798548
#
# Stress axis : x y z
#
# Youngs Moduli (GPa) = 109.06007 62.94295 79.84946
#
# Poissons Ratio (x) = 0.10971 0.30554
# Poissons Ratio (y) = 0.19009 0.33759
# Poissons Ratio (z) = 0.41732 0.26611
#
# Static dielectric constant tensor:
#      x y z
#    x 4.083560 0.000000 0.000000 
#    y 0.000000 3.509710 0.000000 
#    z 0.000000 0.000000 3.842330 
# 
# 
# High freq. dielectric constant tensor:
#      x y z
#    x 1.801690 0.000000 0.000000 
#    y 0.000000 1.739880 0.000000 
#    z 0.000000 0.000000 1.784730 
# 
# From -- ./inp_files/25658.got.cif
#   From: 2010.06.25/outbox.cif.g09.slc.cpg/sg48_13_cif.got.tgz:25658.got - 2010.06.26 18:06:46.
