data_PCOD8201145
_publ_section_title
;
Structure prediction by ZEFSAII (Michael W. Deem and Ramdas Pophale) SiO2 
 PCOD8201145
Probable space group: P M M M
;
_chemical_formula_sum "Si O2"
_cell_formula_units_Z 44
_cell_length_a 15.313739
_cell_length_b 9.566664
_cell_length_c 17.591047
_cell_angle_alpha 90.000000
_cell_angle_beta 90.000000
_cell_angle_gamma 90.000000
_cell_volume 2577.112936
_symmetry_space_group_name_H-M "P M M M"
_symmetry_group_IT_number 47
_symmetry_cell_setting 'orthorhombic'
loop_
_space_group_symop_operation_xyz
x,y,z
-x,-y,z
x,-y,-z
-x,y,-z
-x,-y,-z
x,y,-z
-x,y,z
x,-y,z
loop_
_atom_site_type_symbol
_atom_site_label
_atom_site_fract_x
_atom_site_fract_y
_atom_site_fract_z
Si Si1 0.682660 0.841545 0.135564
Si Si2 0.597211 0.165929 0.586349
Si Si3 0.748495 0.840454 0.695894
Si Si4 0.834094 0.339105 0.083356
Si Si5 0.500000 0.166012 0.084604
Si Si6 0.901472 0.662768 0.245403
O O1 0.703597 0.832843 0.223366
O O2 0.746285 0.750166 0.084231
O O3 0.585756 0.779000 0.127334
O O4 0.689172 0.000000 0.105107
O O5 0.614541 0.213801 0.500000
O O6 0.500000 0.219363 0.612160
O O7 0.677308 0.224623 0.637242
O O8 0.597577 0.000000 0.593314
O O9 0.837059 0.749177 0.699354
O O10 0.773585 0.000000 0.674183
O O11 0.807682 0.500000 0.091768
O O12 0.893788 0.295564 0.155572
O O13 0.879739 0.313942 0.000000
O O14 0.500000 0.000000 0.084913
O O15 0.500000 0.226638 0.000000
O O16 0.880003 0.500000 0.256543
O O17 0.000000 0.697838 0.270608
#
# Coordination Sequence:
#
# PCOD8201145 Si02
#       6
#     8   8   8   8   4   8
#     4   9  17  27  40  59  83 113 147 182 218 258
#     4   8  14  25  44  72 102 126 147 176 217 264
#     4   9  17  28  46  70  92 116 147 185 223 260
#     4   9  17  29  44  61  82 108 142 186 230 269
#     4   9  16  24  35  53  78 110 146 179 209 247
#     4   9  18  32  48  65  87 117 151 186 228 275
#
# _framework density 17.073370000000001
#
# number of rings (size 3 to 8) (size 9 to 14) (size 15 to 20)
#    0.000    3.182    0.000    1.091    1.273    1.818 
#    0.000    2.273    0.000    3.273    0.000   10.182 
#    0.000    0.000    0.000    0.000    0.000    0.000 
#
# Total GULP energy -545178.108397 kJ/mol
# GULP energy per Si atom -12390.411554 kJ/mol
# Density = 1.703451 g / cm^3
# Si number density = 17.073370 Si / 1000 Ang^3
#
#
#
# Elastic Constant Matrix: (Units=GPa)
#
#
# Indices 1 2 3 4 5 6 
#
# 1 135.6463 40.7800 45.7507 0.0000 0.0000 0.0000
# 2 40.7800 36.8750 20.4309 0.0000 0.0000 0.0000
# 3 45.7507 20.4309 62.9003 0.0000 0.0000 0.0000
# 4 0.0000 0.0000 0.0000 14.3891 0.0000 0.0000
# 5 0.0000 0.0000 0.0000 0.0000 21.5113 0.0000
# 6 0.0000 0.0000 0.0000 0.0000 0.0000 9.4717
#
#
#
# Elastic Compliance Matrix: (Units=1/GPa)
#
#
# Indices 1 2 3 4 5 6 
#
# 1 0.012476 -0.010694 -0.005601 0.000000 0.000000 0.000000
# 2 -0.010694 0.042237 -0.005941 0.000000 0.000000 0.000000
# 3 -0.005601 -0.005941 0.021902 0.000000 0.000000 0.000000
# 4 0.000000 0.000000 0.000000 0.069497 0.000000 0.000000
# 5 0.000000 0.000000 0.000000 0.000000 0.046487 0.000000
# 6 0.000000 0.000000 0.000000 0.000000 0.000000 0.105578
#
#
# Mechanical properties :
#
#
# Convention : Reuss Voigt Hill
#
# Bulk Modulus (GPa) = 31.11099 49.92720 40.51909
# Shear Modulus (GPa) = 14.14975 17.63841 15.89408
#
# Velocity S-wave (km/s) = 2.88194 3.21767 3.05442
# Velocity P-wave (km/s) = 5.41624 6.56588 6.01857
#
# Compressibility (1/GPa) = 0.03214298
#
# Stress axis : x y z
#
# Youngs Moduli (GPa) = 80.15228 23.67607 45.65851
#
# Poissons Ratio (x) = 0.25320 0.25573
# Poissons Ratio (y) = 0.85716 0.27124
# Poissons Ratio (z) = 0.44893 0.14065
#
# Static dielectric constant tensor:
#      x y z
#    x 3.365750 0.000000 0.000000 
#    y 0.000000 2.986910 0.000000 
#    z 0.000000 0.000000 3.184850 
# 
# 
# High freq. dielectric constant tensor:
#      x y z
#    x 1.658560 0.000000 0.000000 
#    y 0.000000 1.622150 0.000000 
#    z 0.000000 0.000000 1.645260 
# 
# From -- ./inp_files/8956.got.cif
#   From: 2010.03.12/outbox.cif.g09.slc.cpg/sg47_5_cif.got.tgz:8956.got - 2010.04.14 03:12:58.
