data_PCOD8201806
_publ_section_title
;
Structure prediction by ZEFSAII (Michael W. Deem and Ramdas Pophale) SiO2 
 PCOD8201806
Probable space group: P N N N
;
_chemical_formula_sum "Si O2"
_cell_formula_units_Z 36
_cell_length_a 23.699666
_cell_length_b 5.261387
_cell_length_c 11.468542
_cell_angle_alpha 90.000000
_cell_angle_beta 90.000000
_cell_angle_gamma 90.000000
_cell_volume 1430.048222
_symmetry_space_group_name_H-M "P N N N"
_symmetry_group_IT_number 48
_space_group.IT_coordinate_system_code '2'
_symmetry_cell_setting 'orthorhombic'
loop_
_space_group_symop_operation_xyz
x,y,z
1/2-x,1/2-y,z
x,1/2-y,1/2-z
1/2-x,y,1/2-z
-x,-y,-z
1/2+x,1/2+y,-z
-x,1/2+y,1/2+z
1/2+x,-y,1/2+z
loop_
_atom_site_type_symbol
_atom_site_label
_atom_site_fract_x
_atom_site_fract_y
_atom_site_fract_z
Si Si1 0.836197 0.945180 0.418108
Si Si2 0.950985 0.029114 0.341528
Si Si3 0.961366 0.189960 0.928573
Si Si4 0.750000 0.250000 0.750000
Si Si5 0.839242 0.444284 0.572062
Si Si6 0.750000 0.750000 0.250000
O O1 0.833632 0.716498 0.511171
O O2 0.783993 0.939390 0.332286
O O3 0.888756 0.914223 0.326464
O O4 0.831272 0.216066 0.481472
O O5 0.965883 0.250000 0.250000
O O6 0.944071 0.101404 0.477053
O O7 0.000278 0.818718 0.327613
O O8 0.903726 0.069901 0.875320
O O9 0.000000 0.000000 0.000000
O O10 0.791532 0.426994 0.672422
#
# Coordination Sequence:
#
# PCOD8201806 Si02
#       6
#     8   8   8   2   8   2
#     4  11  26  46  70 107 145 183 244 308 367 447
#     4  10  23  41  69 103 143 189 237 301 382 451
#     4  10  21  43  68 102 145 186 238 313 372 439
#     4  12  28  50  78 100 144 214 252 308 384 456
#     4  11  26  48  72 105 146 190 251 310 361 449
#     4  12  28  42  74 100 136 198 224 292 376 440
#
# _framework density 25.173974999999999
#
# number of rings (size 3 to 8) (size 9 to 14) (size 15 to 20)
#    0.000    1.333    2.222    1.333    6.222    5.333 
#    0.000    0.000    0.000    0.000    0.000    0.000 
#    0.000    0.000    0.000    0.000    0.000    0.000 
#
# Total GULP energy -446067.491668 kJ/mol
# GULP energy per Si atom -12390.763657 kJ/mol
# Density = 2.511668 g / cm^3
# Si number density = 25.173975 Si / 1000 Ang^3
#
#
#
# Elastic Constant Matrix: (Units=GPa)
#
#
# Indices 1 2 3 4 5 6 
#
# 1 200.5091 20.3209 46.9993 0.0000 0.0000 0.0000
# 2 20.3209 98.4842 19.7705 0.0000 0.0000 0.0000
# 3 46.9993 19.7705 80.9007 0.0000 0.0000 0.0000
# 4 0.0000 0.0000 0.0000 40.2224 0.0000 0.0000
# 5 0.0000 0.0000 0.0000 0.0000 311.8582 0.0000
# 6 0.0000 0.0000 0.0000 0.0000 0.0000 132.2557
#
#
#
# Elastic Compliance Matrix: (Units=1/GPa)
#
#
# Indices 1 2 3 4 5 6 
#
# 1 0.005801 -0.000547 -0.003237 0.000000 0.000000 0.000000
# 2 -0.000547 0.010729 -0.002304 0.000000 0.000000 0.000000
# 3 -0.003237 -0.002304 0.014804 0.000000 0.000000 0.000000
# 4 0.000000 0.000000 0.000000 0.024862 0.000000 0.000000
# 5 0.000000 0.000000 0.000000 0.000000 0.003207 0.000000
# 6 0.000000 0.000000 0.000000 0.000000 0.000000 0.007561
#
#
# Mechanical properties :
#
#
# Convention : Reuss Voigt Hill
#
# Bulk Modulus (GPa) = 52.19467 61.56392 56.87930
# Shear Modulus (GPa) = 58.46122 116.38749 87.42435
#
# Velocity S-wave (km/s) = 4.82424 6.80688 5.89945
# Velocity P-wave (km/s) = 7.19789 9.28906 8.30952
#
# Compressibility (1/GPa) = 0.01915904
#
# Stress axis : x y z
#
# Youngs Moduli (GPa) = 172.37142 93.20200 67.54845
#
# Poissons Ratio (x) = 0.05101 0.21863
# Poissons Ratio (y) = 0.09434 0.15564
# Poissons Ratio (z) = 0.55789 0.21475
#
# Static dielectric constant tensor:
#      x y z
#    x 6.855240 0.000000 0.000000 
#    y 0.000000 4.157410 0.000000 
#    z 0.000000 0.000000 3.306240 
# 
# 
# High freq. dielectric constant tensor:
#      x y z
#    x 2.032850 0.000000 0.000000 
#    y 0.000000 1.998190 0.000000 
#    z 0.000000 0.000000 2.006000 
# 
# From -- ./inp_files/23158.got.cif
#   From: 2010.06.25/outbox.cif.g09.slc.cpg/sg48_12_cif.got.tgz:23158.got - 2010.06.26 18:06:46.
