data_PCOD8201576
_publ_section_title
;
Structure prediction by ZEFSAII (Michael W. Deem and Ramdas Pophale) SiO2 
 PCOD8201576
Probable space group: P N N N
;
_chemical_formula_sum "Si O2"
_cell_formula_units_Z 54
_cell_length_a 16.876467
_cell_length_b 13.090641
_cell_length_c 11.818223
_cell_angle_alpha 90.000000
_cell_angle_beta 90.000000
_cell_angle_gamma 90.000000
_cell_volume 2610.926390
_symmetry_space_group_name_H-M "P N N N"
_symmetry_group_IT_number 48
_space_group.IT_coordinate_system_code '2'
_symmetry_cell_setting 'orthorhombic'
loop_
_space_group_symop_operation_xyz
x,y,z
1/2-x,1/2-y,z
x,1/2-y,1/2-z
1/2-x,y,1/2-z
-x,-y,-z
1/2+x,1/2+y,-z
-x,1/2+y,1/2+z
1/2+x,-y,1/2+z
loop_
_atom_site_type_symbol
_atom_site_label
_atom_site_fract_x
_atom_site_fract_y
_atom_site_fract_z
Si Si1 0.364228 0.590028 0.169569
Si Si2 0.535013 0.638931 0.217839
Si Si3 0.250000 0.750000 0.250000
Si Si4 0.156483 0.865993 0.732623
Si Si5 0.918264 0.985323 0.429630
Si Si6 0.771535 0.636517 0.993809
Si Si7 0.130100 0.490100 0.567877
Si Si8 0.250000 0.430741 0.250000
O O1 0.440761 0.638537 0.225765
O O2 0.300585 0.681495 0.162477
O O3 0.328744 0.501443 0.249737
O O4 0.389409 0.544146 0.049656
O O5 0.567647 0.750000 0.250000
O O6 0.565522 0.561190 0.309207
O O7 0.569078 0.603103 0.095395
O O8 0.127976 0.750000 0.750000
O O9 0.250000 0.875758 0.750000
O O10 0.126237 0.908326 0.608305
O O11 0.117639 0.927104 0.835379
O O12 0.861471 0.904138 0.494112
O O13 0.000000 0.000000 0.500000
O O14 0.750000 0.750000 0.039747
O O15 0.750413 0.638526 0.861050
O O16 0.718479 0.556360 0.063752
#
# Coordination Sequence:
#
# PCOD8201576 Si02
#       8
#     8   8   2   8   8   8   8   4
#     4  10  20  38  58  87 126 158 214 258 325 373
#     4  11  22  38  59  90 128 165 208 261 322 387
#     4  10  20  36  62  92 120 174 214 264 318 402
#     4  10  21  41  63  92 124 165 219 263 323 396
#     4  11  24  41  64  94 132 169 216 277 334 384
#     4  11  21  40  63  89 120 168 218 259 327 400
#     4  10  22  38  60  89 120 166 205 267 317 382
#     4   9  21  37  59  86 120 160 206 274 312 382
#
# _framework density 20.682316
#
# number of rings (size 3 to 8) (size 9 to 14) (size 15 to 20)
#    0.000    1.630    2.222    2.444    0.000    2.370 
#    2.667    9.630    0.000    0.000    0.000    0.000 
#    0.000    0.000    0.000    0.000    0.000    0.000 
#
# Total GULP energy -669179.722220 kJ/mol
# GULP energy per Si atom -12392.217078 kJ/mol
# Density = 2.063524 g / cm^3
# Si number density = 20.682316 Si / 1000 Ang^3
#
#
#
# Elastic Constant Matrix: (Units=GPa)
#
#
# Indices 1 2 3 4 5 6 
#
# 1 107.1278 39.8979 20.7696 0.0000 0.0000 0.0000
# 2 39.8979 131.9173 43.9064 0.0000 0.0000 0.0000
# 3 20.7696 43.9064 72.7069 0.0000 0.0000 0.0000
# 4 0.0000 0.0000 0.0000 16.4120 0.0000 0.0000
# 5 0.0000 0.0000 0.0000 0.0000 19.3406 0.0000
# 6 0.0000 0.0000 0.0000 0.0000 0.0000 52.4729
#
#
#
# Elastic Compliance Matrix: (Units=1/GPa)
#
#
# Indices 1 2 3 4 5 6 
#
# 1 0.010628 -0.002758 -0.001370 0.000000 0.000000 0.000000
# 2 -0.002758 0.010203 -0.005374 0.000000 0.000000 0.000000
# 3 -0.001370 -0.005374 0.017390 0.000000 0.000000 0.000000
# 4 0.000000 0.000000 0.000000 0.060931 0.000000 0.000000
# 5 0.000000 0.000000 0.000000 0.000000 0.051705 0.000000
# 6 0.000000 0.000000 0.000000 0.000000 0.000000 0.019057
#
#
# Mechanical properties :
#
#
# Convention : Reuss Voigt Hill
#
# Bulk Modulus (GPa) = 52.03748 57.87775 54.95762
# Shear Modulus (GPa) = 25.59846 31.45697 28.52771
#
# Velocity S-wave (km/s) = 3.52191 3.90418 3.71796
# Velocity P-wave (km/s) = 6.46169 6.95474 6.71274
#
# Compressibility (1/GPa) = 0.01921692
#
# Stress axis : x y z
#
# Youngs Moduli (GPa) = 94.09513 98.00821 57.50327
#
# Poissons Ratio (x) = 0.27033 0.07879
# Poissons Ratio (y) = 0.25953 0.30900
# Poissons Ratio (z) = 0.12894 0.52666
#
# Static dielectric constant tensor:
#      x y z
#    x 4.431930 0.000000 0.000000 
#    y 0.000000 3.853800 0.000000 
#    z 0.000000 0.000000 3.655990 
# 
# 
# High freq. dielectric constant tensor:
#      x y z
#    x 1.808820 0.000000 0.000000 
#    y 0.000000 1.815420 0.000000 
#    z 0.000000 0.000000 1.799740 
# 
# From -- ./inp_files/21364.got.cif
#   From: 2010.06.25/outbox.cif.g09.slc.cpg/sg48_11_cif.got.tgz:21364.got - 2010.06.26 18:06:46.
