data_PCOD8201110
_publ_section_title
;
Structure prediction by ZEFSAII (Michael W. Deem and Ramdas Pophale) SiO2 
 PCOD8201110
Probable space group: P M M M
;
_chemical_formula_sum "Si O2"
_cell_formula_units_Z 44
_cell_length_a 30.393977
_cell_length_b 7.970294
_cell_length_c 9.711967
_cell_angle_alpha 90.000000
_cell_angle_beta 90.000000
_cell_angle_gamma 90.000000
_cell_volume 2352.713638
_symmetry_space_group_name_H-M "P M M M"
_symmetry_group_IT_number 47
_symmetry_cell_setting 'orthorhombic'
loop_
_space_group_symop_operation_xyz
x,y,z
-x,-y,z
x,-y,-z
-x,y,-z
-x,-y,-z
x,y,-z
-x,y,z
x,-y,z
loop_
_atom_site_type_symbol
_atom_site_label
_atom_site_fract_x
_atom_site_fract_y
_atom_site_fract_z
Si Si1 0.691581 0.196360 0.345979
Si Si2 0.951240 0.800456 0.846226
Si Si3 0.610026 0.805483 0.161421
Si Si4 0.123960 0.805495 0.346762
Si Si5 0.548873 0.500000 0.162572
Si Si6 0.784132 0.695092 0.657029
O O1 0.685842 0.276864 0.500000
O O2 0.652854 0.254409 0.245100
O O3 0.737901 0.250069 0.274704
O O4 0.690465 0.000000 0.360671
O O5 0.914152 0.721271 0.746252
O O6 0.000000 0.746846 0.794597
O O7 0.947549 0.000000 0.848828
O O8 0.943232 0.730503 0.000000
O O9 0.572526 0.673631 0.208697
O O10 0.596433 0.000000 0.195081
O O11 0.620512 0.787452 0.000000
O O12 0.122919 0.723187 0.500000
O O13 0.172170 0.778734 0.277173
O O14 0.113793 0.000000 0.358753
O O15 0.500000 0.500000 0.228233
O O16 0.545563 0.500000 0.000000
O O17 0.781095 0.757496 0.500000
O O18 0.790559 0.500000 0.672108
#
# Coordination Sequence:
#
# PCOD8201110 Si02
#       6
#     8   8   8   8   4   8
#     4   9  17  30  49  71  94 123 159 195 232 279
#     4   8  14  25  41  61  84 109 138 174 218 267
#     4   9  18  32  50  73 100 128 160 202 247 287
#     4   9  16  26  42  63  85 108 138 180 222 258
#     4   9  18  32  51  75 101 131 167 205 244 287
#     4   9  17  28  43  64  89 118 150 183 221 269
#
# _framework density 18.701809000000001
#
# number of rings (size 3 to 8) (size 9 to 14) (size 15 to 20)
#    0.000    3.182    0.000    1.091    1.273    2.909 
#    0.000    4.545    0.000    7.636    0.000    6.364 
#    0.000    0.000    0.000    0.000    0.000    0.000 
#
# Total GULP energy -545153.066409 kJ/mol
# GULP energy per Si atom -12389.842418 kJ/mol
# Density = 1.865924 g / cm^3
# Si number density = 18.701809 Si / 1000 Ang^3
#
#
#
# Elastic Constant Matrix: (Units=GPa)
#
#
# Indices 1 2 3 4 5 6 
#
# 1 196.5225 48.5701 65.2859 0.0000 0.0000 0.0000
# 2 48.5701 43.9764 19.6082 0.0000 0.0000 0.0000
# 3 65.2859 19.6082 55.5022 0.0000 0.0000 0.0000
# 4 0.0000 0.0000 0.0000 9.3220 0.0000 0.0000
# 5 0.0000 0.0000 0.0000 0.0000 120.3058 0.0000
# 6 0.0000 0.0000 0.0000 0.0000 0.0000 6.8077
#
#
#
# Elastic Compliance Matrix: (Units=1/GPa)
#
#
# Indices 1 2 3 4 5 6 
#
# 1 0.009788 -0.006738 -0.009132 0.000000 0.000000 0.000000
# 2 -0.006738 0.031630 -0.003249 0.000000 0.000000 0.000000
# 3 -0.009132 -0.003249 0.029907 0.000000 0.000000 0.000000
# 4 0.000000 0.000000 0.000000 0.107273 0.000000 0.000000
# 5 0.000000 0.000000 0.000000 0.000000 0.008312 0.000000
# 6 0.000000 0.000000 0.000000 0.000000 0.000000 0.146893
#
#
# Mechanical properties :
#
#
# Convention : Reuss Voigt Hill
#
# Bulk Modulus (GPa) = 30.22385 62.54773 46.38579
# Shear Modulus (GPa) = 13.05243 38.12289 25.58766
#
# Velocity S-wave (km/s) = 2.64469 4.51983 3.70292
# Velocity P-wave (km/s) = 5.05192 7.79460 6.56802
#
# Compressibility (1/GPa) = 0.03308646
#
# Stress axis : x y z
#
# Youngs Moduli (GPa) = 102.16982 31.61574 33.43663
#
# Poissons Ratio (x) = 0.21303 0.30536
# Poissons Ratio (y) = 0.68842 0.10862
# Poissons Ratio (z) = 0.93306 0.10271
#
# Static dielectric constant tensor:
#      x y z
#    x 3.837800 0.000000 0.000000 
#    y 0.000000 3.176300 0.000000 
#    z 0.000000 0.000000 4.646100 
# 
# 
# High freq. dielectric constant tensor:
#      x y z
#    x 1.735970 0.000000 0.000000 
#    y 0.000000 1.710160 0.000000 
#    z 0.000000 0.000000 1.682590 
# 
# From -- ./inp_files/2117.got.cif
#   From: 2010.03.12/outbox.cif.g09.slc.cpg/sg47_2_cif.got.tgz:2117.got - 2010.04.14 03:12:58.
