data_PCOD8201156
_publ_section_title
;
Structure prediction by ZEFSAII (Michael W. Deem and Ramdas Pophale) SiO2 
 PCOD8201156
Probable space group: P M M M
;
_chemical_formula_sum "Si O2"
_cell_formula_units_Z 36
_cell_length_a 10.507063
_cell_length_b 20.191087
_cell_length_c 9.559954
_cell_angle_alpha 90.000000
_cell_angle_beta 90.000000
_cell_angle_gamma 90.000000
_cell_volume 2028.134902
_symmetry_space_group_name_H-M "P M M M"
_symmetry_group_IT_number 47
_symmetry_cell_setting 'orthorhombic'
loop_
_space_group_symop_operation_xyz
x,y,z
-x,-y,z
x,-y,-z
-x,y,-z
-x,-y,-z
x,y,-z
-x,y,z
x,-y,z
loop_
_atom_site_type_symbol
_atom_site_label
_atom_site_fract_x
_atom_site_fract_y
_atom_site_fract_z
Si Si1 0.650766 0.427074 0.843831
Si Si2 0.646056 0.696137 0.665585
Si Si3 0.264781 0.925148 0.339535
Si Si4 0.862136 0.206218 0.662854
Si Si5 0.500000 0.921848 0.155446
O O1 0.500000 0.429394 0.844014
O O2 0.702966 0.500000 0.799689
O O3 0.696533 0.371940 0.734103
O O4 0.699820 0.409243 0.000000
O O5 0.653463 0.687582 0.500000
O O6 0.500000 0.713346 0.710523
O O7 0.741859 0.752927 0.723827
O O8 0.312712 0.922216 0.500000
O O9 0.152311 0.872891 0.313022
O O10 0.377305 0.899318 0.241091
O O11 0.219213 0.000000 0.302495
O O12 0.866251 0.222127 0.500000
O O13 0.000000 0.226271 0.729159
O O14 0.500000 0.000000 0.143291
O O15 0.500000 0.889882 0.000000
#
# Coordination Sequence:
#
# PCOD8201156 Si02
#       5
#     8   8   8   8   4
#     4   8  14  26  45  69  96 122 148 185 233 277
#     4   9  17  28  45  69  94 122 156 192 229 274
#     4   9  17  29  48  71  92 119 159 202 240 280
#     4   9  18  31  47  68  96 128 158 195 242 284
#     4   9  17  29  45  67  95 121 146 185 240 291
#
# _framework density 17.750297
#
# number of rings (size 3 to 8) (size 9 to 14) (size 15 to 20)
#    0.000    3.222    0.000    1.000    1.556    2.222 
#    0.000    5.556    0.000    3.333    0.000    7.778 
#    0.000    0.000    0.000    0.000    0.000    0.000 
#
# Total GULP energy -445972.082037 kJ/mol
# GULP energy per Si atom -12388.113390 kJ/mol
# Density = 1.770990 g / cm^3
# Si number density = 17.750297 Si / 1000 Ang^3
#
#
#
# Elastic Constant Matrix: (Units=GPa)
#
#
# Indices 1 2 3 4 5 6 
#
# 1 100.0589 58.1669 26.5241 0.0000 0.0000 0.0000
# 2 58.1669 119.8708 29.1164 0.0000 0.0000 0.0000
# 3 26.5241 29.1164 44.5753 0.0000 0.0000 0.0000
# 4 0.0000 0.0000 0.0000 13.4733 0.0000 0.0000
# 5 0.0000 0.0000 0.0000 0.0000 4.4385 0.0000
# 6 0.0000 0.0000 0.0000 0.0000 0.0000 11.1657
#
#
#
# Elastic Compliance Matrix: (Units=1/GPa)
#
#
# Indices 1 2 3 4 5 6 
#
# 1 0.014763 -0.005979 -0.004879 0.000000 0.000000 0.000000
# 2 -0.005979 0.012337 -0.004501 0.000000 0.000000 0.000000
# 3 -0.004879 -0.004501 0.028277 0.000000 0.000000 0.000000
# 4 0.000000 0.000000 0.000000 0.074221 0.000000 0.000000
# 5 0.000000 0.000000 0.000000 0.000000 0.225301 0.000000
# 6 0.000000 0.000000 0.000000 0.000000 0.000000 0.089560
#
#
# Mechanical properties :
#
#
# Convention : Reuss Voigt Hill
#
# Bulk Modulus (GPa) = 40.55234 54.67995 47.61615
# Shear Modulus (GPa) = 10.34349 15.86201 13.10275
#
# Velocity S-wave (km/s) = 2.41658 2.99259 2.71988
# Velocity P-wave (km/s) = 5.53914 6.54315 6.06197
#
# Compressibility (1/GPa) = 0.02465949
#
# Stress axis : x y z
#
# Youngs Moduli (GPa) = 67.73664 81.05967 35.36402
#
# Poissons Ratio (x) = 0.48462 0.17256
# Poissons Ratio (y) = 0.40496 0.15916
# Poissons Ratio (z) = 0.33052 0.36483
#
# Static dielectric constant tensor:
#      x y z
#    x 3.228360 0.000000 0.000000 
#    y 0.000000 3.505570 0.000000 
#    z 0.000000 0.000000 3.263250 
# 
# 
# High freq. dielectric constant tensor:
#      x y z
#    x 1.653850 0.000000 0.000000 
#    y 0.000000 1.687300 0.000000 
#    z 0.000000 0.000000 1.657610 
# 
# From -- ./inp_files/3919.got.cif
#   From: 2010.03.12/outbox.cif.g09.slc.cpg/sg47_2_cif.got.tgz:3919.got - 2010.04.14 03:12:58.
