data_PCOD8201475
_publ_section_title
;
Structure prediction by ZEFSAII (Michael W. Deem and Ramdas Pophale) SiO2 
 PCOD8201475
Probable space group: P N N N
;
_chemical_formula_sum "Si O2"
_cell_formula_units_Z 44
_cell_length_a 12.030383
_cell_length_b 13.899320
_cell_length_c 12.823576
_cell_angle_alpha 90.000000
_cell_angle_beta 90.000000
_cell_angle_gamma 90.000000
_cell_volume 2144.283272
_symmetry_space_group_name_H-M "P N N N"
_symmetry_group_IT_number 48
_space_group.IT_coordinate_system_code '2'
_symmetry_cell_setting 'orthorhombic'
loop_
_space_group_symop_operation_xyz
x,y,z
1/2-x,1/2-y,z
x,1/2-y,1/2-z
1/2-x,y,1/2-z
-x,-y,-z
1/2+x,1/2+y,-z
-x,1/2+y,1/2+z
1/2+x,-y,1/2+z
loop_
_atom_site_type_symbol
_atom_site_label
_atom_site_fract_x
_atom_site_fract_y
_atom_site_fract_z
Si Si1 0.250000 0.054448 0.750000
Si Si2 0.542893 0.843943 0.192042
Si Si3 0.869651 0.798028 0.538626
Si Si4 0.917508 0.264798 0.371935
Si Si5 0.904689 0.004511 0.586679
Si Si6 0.234603 0.594254 0.930451
O O1 0.358468 0.120147 0.731398
O O2 0.280492 0.991062 0.849187
O O3 0.490950 0.750000 0.250000
O O4 0.449222 0.928495 0.181784
O O5 0.595214 0.818729 0.079871
O O6 0.750000 0.750000 0.542601
O O7 0.956125 0.723501 0.590986
O O8 0.875002 0.893558 0.613024
O O9 0.902210 0.250000 0.250000
O O10 0.864076 0.170925 0.422067
O O11 0.855070 0.359452 0.414234
O O12 0.788181 0.049635 0.544226
O O13 0.000000 0.000000 0.500000
#
# Coordination Sequence:
#
# PCOD8201475 Si02
#       6
#     4   8   8   8   8   8
#     4  12  17  31  60  96 120 148 206 273 313 360
#     4  11  22  35  62  95 122 164 215 266 317 380
#     4  11  22  39  60  89 128 168 207 262 332 385
#     4  11  21  34  59  89 117 155 210 262 310 377
#     4  10  19  38  60  86 125 169 195 256 341 384
#     4  11  19  34  59  92 118 150 205 260 314 380
#
# _framework density 20.519677000000001
#
# number of rings (size 3 to 8) (size 9 to 14) (size 15 to 20)
#    0.000    1.091    9.091    1.909    0.000    0.364 
#    0.000    0.909    0.000    2.182    4.727    0.000 
#    0.000    0.000    0.000    0.000    0.000    0.000 
#
# Total GULP energy -545291.709744 kJ/mol
# GULP energy per Si atom -12392.993403 kJ/mol
# Density = 2.047297 g / cm^3
# Si number density = 20.519677 Si / 1000 Ang^3
#
#
#
# Elastic Constant Matrix: (Units=GPa)
#
#
# Indices 1 2 3 4 5 6 
#
# 1 113.7588 39.9798 28.9656 0.0000 0.0000 0.0000
# 2 39.9798 104.3615 22.7876 0.0000 0.0000 0.0000
# 3 28.9656 22.7876 28.4869 0.0000 0.0000 0.0000
# 4 0.0000 0.0000 0.0000 26.7914 0.0000 0.0000
# 5 0.0000 0.0000 0.0000 0.0000 29.5186 0.0000
# 6 0.0000 0.0000 0.0000 0.0000 0.0000 27.3253
#
#
#
# Elastic Compliance Matrix: (Units=1/GPa)
#
#
# Indices 1 2 3 4 5 6 
#
# 1 0.012342 -0.002409 -0.010622 0.000000 0.000000 0.000000
# 2 -0.002409 0.012080 -0.007214 0.000000 0.000000 0.000000
# 3 -0.010622 -0.007214 0.051676 0.000000 0.000000 0.000000
# 4 0.000000 0.000000 0.000000 0.037325 0.000000 0.000000
# 5 0.000000 0.000000 0.000000 0.000000 0.033877 0.000000
# 6 0.000000 0.000000 0.000000 0.000000 0.000000 0.036596
#
#
# Mechanical properties :
#
#
# Convention : Reuss Voigt Hill
#
# Bulk Modulus (GPa) = 28.08436 47.78592 37.93514
# Shear Modulus (GPa) = 21.16358 27.05201 24.10780
#
# Velocity S-wave (km/s) = 3.21499 3.63484 3.43134
# Velocity P-wave (km/s) = 5.24384 6.39957 5.85031
#
# Compressibility (1/GPa) = 0.03560700
#
# Stress axis : x y z
#
# Youngs Moduli (GPa) = 81.02601 82.78147 19.35151
#
# Poissons Ratio (x) = 0.19938 0.20556
# Poissons Ratio (y) = 0.19515 0.13960
# Poissons Ratio (z) = 0.86069 0.59720
#
# Static dielectric constant tensor:
#      x y z
#    x 3.767510 0.000000 0.000000 
#    y 0.000000 4.188270 0.000000 
#    z 0.000000 0.000000 3.412100 
# 
# 
# High freq. dielectric constant tensor:
#      x y z
#    x 1.789660 0.000000 0.000000 
#    y 0.000000 1.819080 0.000000 
#    z 0.000000 0.000000 1.761980 
# 
# From -- ./inp_files/26392.got.cif
#   From: 2010.06.25/outbox.cif.g09.slc.cpg/sg48_14_cif.got.tgz:26392.got - 2010.06.26 18:06:46.
