data_PCOD8201403
_publ_section_title
;
Structure prediction by ZEFSAII (Michael W. Deem and Ramdas Pophale) SiO2 
 PCOD8201403
Probable space group: P N N N
;
_chemical_formula_sum "Si O2"
_cell_formula_units_Z 64
_cell_length_a 17.495865
_cell_length_b 20.066983
_cell_length_c 9.580836
_cell_angle_alpha 90.000000
_cell_angle_beta 90.000000
_cell_angle_gamma 90.000000
_cell_volume 3363.728291
_symmetry_space_group_name_H-M "P N N N"
_symmetry_group_IT_number 48
_space_group.IT_coordinate_system_code '2'
_symmetry_cell_setting 'orthorhombic'
loop_
_space_group_symop_operation_xyz
x,y,z
1/2-x,1/2-y,z
x,1/2-y,1/2-z
1/2-x,y,1/2-z
-x,-y,-z
1/2+x,1/2+y,-z
-x,1/2+y,1/2+z
1/2+x,-y,1/2+z
loop_
_atom_site_type_symbol
_atom_site_label
_atom_site_fract_x
_atom_site_fract_y
_atom_site_fract_z
Si Si1 0.085822 0.501029 0.172141
Si Si2 0.833108 0.061213 0.202702
Si Si3 0.439469 0.334236 0.875839
Si Si4 0.449697 0.916390 0.923060
Si Si5 0.301307 0.386614 0.379537
Si Si6 0.430832 0.317301 0.549759
Si Si7 0.057217 0.559998 0.456316
Si Si8 0.201954 0.085481 0.871126
O O1 0.143575 0.440541 0.186953
O O2 0.095068 0.542295 0.311175
O O3 0.000837 0.473223 0.149226
O O4 0.101147 0.552177 0.046693
O O5 0.750000 0.088622 0.250000
O O6 0.888379 0.101165 0.306585
O O7 0.831125 0.980424 0.205909
O O8 0.869170 0.076575 0.051654
O O9 0.431419 0.343504 0.708515
O O10 0.444736 0.260986 0.939515
O O11 0.511700 0.371555 0.939166
O O12 0.363259 0.367719 0.934393
O O13 0.498833 0.852459 0.969866
O O14 0.250000 0.356772 0.250000
O O15 0.351833 0.331129 0.463971
O O16 0.252714 0.428275 0.492605
O O17 0.000000 0.500000 0.500000
O O18 0.250000 0.123717 0.750000
#
# Coordination Sequence:
#
# PCOD8201403 Si02
#       8
#     8   8   8   8   8   8   8   8
#     4  10  19  33  58  85 116 158 201 245 301 347
#     4  11  23  36  60  93 125 152 193 253 323 370
#     4  11  22  40  64  87 115 166 216 250 287 373
#     4  10  19  36  59  85 117 154 198 258 303 343
#     4  11  23  36  56  89 130 164 196 247 304 363
#     4  10  23  41  61  86 118 165 217 241 295 365
#     4  12  21  37  63  91 118 158 203 257 307 361
#     4  11  20  36  58  88 127 166 199 238 297 375
#
# _framework density 19.026506000000001
#
# number of rings (size 3 to 8) (size 9 to 14) (size 15 to 20)
#    0.000    1.250    5.000    2.250    1.750    0.500 
#    0.000    3.125    0.000    1.500    0.000    1.750 
#    0.000    0.000    0.000    0.000    0.000    0.000 
#
# Total GULP energy -792915.660132 kJ/mol
# GULP energy per Si atom -12389.307190 kJ/mol
# Density = 1.898320 g / cm^3
# Si number density = 19.026506 Si / 1000 Ang^3
#
#
#
# Elastic Constant Matrix: (Units=GPa)
#
#
# Indices 1 2 3 4 5 6 
#
# 1 98.8178 42.4713 62.6753 0.0000 0.0000 0.0000
# 2 42.4713 81.5605 35.4550 0.0000 0.0000 0.0000
# 3 62.6753 35.4550 129.4276 0.0000 0.0000 0.0000
# 4 0.0000 0.0000 0.0000 24.4505 0.0000 0.0000
# 5 0.0000 0.0000 0.0000 0.0000 44.3880 0.0000
# 6 0.0000 0.0000 0.0000 0.0000 0.0000 17.3671
#
#
#
# Elastic Compliance Matrix: (Units=1/GPa)
#
#
# Indices 1 2 3 4 5 6 
#
# 1 0.016791 -0.005913 -0.006511 0.000000 0.000000 0.000000
# 2 -0.005913 0.016001 -0.001520 0.000000 0.000000 0.000000
# 3 -0.006511 -0.001520 0.011296 0.000000 0.000000 0.000000
# 4 0.000000 0.000000 0.000000 0.040899 0.000000 0.000000
# 5 0.000000 0.000000 0.000000 0.000000 0.022529 0.000000
# 6 0.000000 0.000000 0.000000 0.000000 0.000000 0.057580
#
#
# Mechanical properties :
#
#
# Convention : Reuss Voigt Hill
#
# Bulk Modulus (GPa) = 61.73164 65.66764 63.69964
# Shear Modulus (GPa) = 25.20387 28.52141 26.86264
#
# Velocity S-wave (km/s) = 3.64355 3.87594 3.76154
# Velocity P-wave (km/s) = 7.08633 7.39048 7.24001
#
# Compressibility (1/GPa) = 0.01619915
#
# Stress axis : x y z
#
# Youngs Moduli (GPa) = 59.55678 62.49757 88.52974
#
# Poissons Ratio (x) = 0.36955 0.57643
# Poissons Ratio (y) = 0.35216 0.13454
# Poissons Ratio (z) = 0.38778 0.09498
#
# Static dielectric constant tensor:
#      x y z
#    x 3.614190 0.000000 0.000000 
#    y 0.000000 3.105540 0.000000 
#    z 0.000000 0.000000 3.607620 
# 
# 
# High freq. dielectric constant tensor:
#      x y z
#    x 1.740140 0.000000 0.000000 
#    y 0.000000 1.697950 0.000000 
#    z 0.000000 0.000000 1.757870 
# 
# From -- ./inp_files/14592.got.cif
#   From: 2010.06.25/outbox.cif.g09.slc.cpg/sg48_8_cif.got.tgz:14592.got - 2010.06.26 18:06:46.
