data_PCOD8201625
_publ_section_title
;
Structure prediction by ZEFSAII (Michael W. Deem and Ramdas Pophale) SiO2 
 PCOD8201625
Probable space group: P N N N
;
_chemical_formula_sum "Si O2"
_cell_formula_units_Z 52
_cell_length_a 18.463906
_cell_length_b 15.300738
_cell_length_c 9.134377
_cell_angle_alpha 90.000000
_cell_angle_beta 90.000000
_cell_angle_gamma 90.000000
_cell_volume 2580.565526
_symmetry_space_group_name_H-M "P N N N"
_symmetry_group_IT_number 48
_space_group.IT_coordinate_system_code '2'
_symmetry_cell_setting 'orthorhombic'
loop_
_space_group_symop_operation_xyz
x,y,z
1/2-x,1/2-y,z
x,1/2-y,1/2-z
1/2-x,y,1/2-z
-x,-y,-z
1/2+x,1/2+y,-z
-x,1/2+y,1/2+z
1/2+x,-y,1/2+z
loop_
_atom_site_type_symbol
_atom_site_label
_atom_site_fract_x
_atom_site_fract_y
_atom_site_fract_z
Si Si1 0.986513 0.379613 0.635865
Si Si2 0.396465 0.461097 0.062895
Si Si3 0.250000 0.750000 0.250000
Si Si4 0.671965 0.145000 0.003307
Si Si5 0.513609 0.185169 0.954434
Si Si6 0.250000 0.750000 0.750000
Si Si7 0.882110 0.660511 0.827457
Si Si8 0.735286 0.969415 0.914017
O O1 0.915536 0.438750 0.605316
O O2 0.004004 0.365528 0.805483
O O3 0.970326 0.287467 0.562046
O O4 0.056633 0.427751 0.572261
O O5 0.413440 0.404780 0.206430
O O6 0.313167 0.450920 0.012460
O O7 0.302239 0.692265 0.353474
O O8 0.700860 0.189677 0.148953
O O9 0.585708 0.143381 0.020621
O O10 0.695767 0.044390 0.004891
O O11 0.445697 0.175456 0.058969
O O12 0.857101 0.750000 0.750000
O O13 0.812613 0.619002 0.910004
O O14 0.750000 0.003566 0.750000
#
# Coordination Sequence:
#
# PCOD8201625 Si02
#       8
#     8   8   2   8   8   2   8   8
#     4  10  22  40  64  96 125 164 215 265 330 386
#     4  10  22  41  65  93 124 170 215 278 316 387
#     4  10  20  38  68  86 122 170 218 258 312 406
#     4  11  23  41  62  96 129 169 211 264 330 396
#     4  11  23  40  65  92 129 168 208 267 325 398
#     4  10  28  38  60 102 140 168 206 270 344 402
#     4  11  23  42  63  96 127 173 225 270 321 382
#     4  10  22  40  67  93 125 170 228 268 318 382
#
# _framework density 20.150621999999998
#
# number of rings (size 3 to 8) (size 9 to 14) (size 15 to 20)
#    0.000    1.538    2.308    2.769    5.385    5.231 
#    5.538    0.000    0.000    1.846    0.000    0.000 
#    0.000    0.000    0.000    0.000    0.000    0.000 
#
# Total GULP energy -644917.431971 kJ/mol
# GULP energy per Si atom -12402.258307 kJ/mol
# Density = 2.010476 g / cm^3
# Si number density = 20.150622 Si / 1000 Ang^3
#
#
#
# Elastic Constant Matrix: (Units=GPa)
#
#
# Indices 1 2 3 4 5 6 
#
# 1 148.6727 68.1078 51.8887 0.0000 0.0000 0.0000
# 2 68.1078 133.1432 57.6166 0.0000 0.0000 0.0000
# 3 51.8887 57.6166 88.0520 0.0000 0.0000 0.0000
# 4 0.0000 0.0000 0.0000 25.2973 0.0000 0.0000
# 5 0.0000 0.0000 0.0000 0.0000 22.3904 0.0000
# 6 0.0000 0.0000 0.0000 0.0000 0.0000 24.6568
#
#
#
# Elastic Compliance Matrix: (Units=1/GPa)
#
#
# Indices 1 2 3 4 5 6 
#
# 1 0.009445 -0.003380 -0.003354 0.000000 0.000000 0.000000
# 2 -0.003380 0.011687 -0.005656 0.000000 0.000000 0.000000
# 3 -0.003354 -0.005656 0.017034 0.000000 0.000000 0.000000
# 4 0.000000 0.000000 0.000000 0.039530 0.000000 0.000000
# 5 0.000000 0.000000 0.000000 0.000000 0.044662 0.000000
# 6 0.000000 0.000000 0.000000 0.000000 0.000000 0.040557
#
#
# Mechanical properties :
#
#
# Convention : Reuss Voigt Hill
#
# Bulk Modulus (GPa) = 74.70047 80.56600 77.63323
# Shear Modulus (GPa) = 26.02029 27.28590 26.65309
#
# Velocity S-wave (km/s) = 3.59735 3.68380 3.64083
# Velocity P-wave (km/s) = 7.37605 7.62643 7.50229
#
# Compressibility (1/GPa) = 0.01338680
#
# Stress axis : x y z
#
# Youngs Moduli (GPa) = 105.87246 85.56403 58.70493
#
# Poissons Ratio (x) = 0.28921 0.19692
# Poissons Ratio (y) = 0.35786 0.33201
# Poissons Ratio (z) = 0.35513 0.48391
#
# Static dielectric constant tensor:
#      x y z
#    x 3.739980 0.000000 0.000000 
#    y 0.000000 3.841630 0.000000 
#    z 0.000000 0.000000 3.601550 
# 
# 
# High freq. dielectric constant tensor:
#      x y z
#    x 1.794910 0.000000 0.000000 
#    y 0.000000 1.798530 0.000000 
#    z 0.000000 0.000000 1.771810 
# 
# From -- ./inp_files/15255.got.cif
#   From: 2010.06.25/outbox.cif.g09.slc.cpg/sg48_8_cif.got.tgz:15255.got - 2010.06.26 18:06:46.
