data_PCOD8201590
_publ_section_title
;
Structure prediction by ZEFSAII (Michael W. Deem and Ramdas Pophale) SiO2 
 PCOD8201590
Probable space group: P N N N
;
_chemical_formula_sum "Si O2"
_cell_formula_units_Z 48
_cell_length_a 14.607756
_cell_length_b 11.174980
_cell_length_c 15.408050
_cell_angle_alpha 90.000000
_cell_angle_beta 90.000000
_cell_angle_gamma 90.000000
_cell_volume 2515.231363
_symmetry_space_group_name_H-M "P N N N"
_symmetry_group_IT_number 48
_space_group.IT_coordinate_system_code '2'
_symmetry_cell_setting 'orthorhombic'
loop_
_space_group_symop_operation_xyz
x,y,z
1/2-x,1/2-y,z
x,1/2-y,1/2-z
1/2-x,y,1/2-z
-x,-y,-z
1/2+x,1/2+y,-z
-x,1/2+y,1/2+z
1/2+x,-y,1/2+z
loop_
_atom_site_type_symbol
_atom_site_label
_atom_site_fract_x
_atom_site_fract_y
_atom_site_fract_z
Si Si1 0.750000 0.058481 0.250000
Si Si2 0.103064 0.750000 0.750000
Si Si3 0.271536 0.114026 0.351281
Si Si4 0.868564 0.991270 0.534065
Si Si5 0.747517 0.618632 0.098881
Si Si6 0.528045 0.170199 0.068327
Si Si7 0.925946 0.899322 0.979974
O O1 0.725413 0.978029 0.169240
O O2 0.836109 0.137645 0.222491
O O3 0.044718 0.716093 0.834277
O O4 0.250000 0.250000 0.384485
O O5 0.250000 0.107404 0.250000
O O6 0.375686 0.087508 0.384843
O O7 0.207629 0.007841 0.390271
O O8 0.882871 0.120494 0.485671
O O9 0.830089 0.890042 0.469158
O O10 0.962866 0.945520 0.576066
O O11 0.750000 0.750000 0.140830
O O12 0.649975 0.592079 0.054981
O O13 0.480989 0.275272 0.014168
O O14 0.000000 0.000000 0.000000
#
# Coordination Sequence:
#
# PCOD8201590 Si02
#       7
#     4   4   8   8   8   8   8
#     4  11  23  40  56  86 115 163 196 246 310 369
#     4  11  24  36  58  87 126 146 204 261 312 352
#     4  10  20  38  63  92 121 163 207 255 307 371
#     4  10  20  37  61  86 122 158 198 246 310 372
#     4  11  20  41  58  82 121 161 202 239 308 380
#     4  11  21  37  59  89 118 154 198 261 304 362
#     4  11  22  37  60  89 120 156 205 256 307 361
#
# _framework density 19.083729999999999
#
# number of rings (size 3 to 8) (size 9 to 14) (size 15 to 20)
#    0.000    1.333    5.000    2.250    2.333    0.000 
#    0.000    0.000    0.000    1.000    0.000    0.000 
#    0.000    0.000    0.000    0.000    0.000    0.000 
#
# Total GULP energy -594734.444628 kJ/mol
# GULP energy per Si atom -12390.300930 kJ/mol
# Density = 1.904029 g / cm^3
# Si number density = 19.083730 Si / 1000 Ang^3
#
#
#
# Elastic Constant Matrix: (Units=GPa)
#
#
# Indices 1 2 3 4 5 6 
#
# 1 101.0372 48.0368 42.1244 0.0000 0.0000 0.0000
# 2 48.0368 93.1147 48.4387 0.0000 0.0000 0.0000
# 3 42.1244 48.4387 104.8406 0.0000 0.0000 0.0000
# 4 0.0000 0.0000 0.0000 35.9857 0.0000 0.0000
# 5 0.0000 0.0000 0.0000 0.0000 29.7162 0.0000
# 6 0.0000 0.0000 0.0000 0.0000 0.0000 32.1982
#
#
#
# Elastic Compliance Matrix: (Units=1/GPa)
#
#
# Indices 1 2 3 4 5 6 
#
# 1 0.013780 -0.005567 -0.002965 0.000000 0.000000 0.000000
# 2 -0.005567 0.016386 -0.005334 0.000000 0.000000 0.000000
# 3 -0.002965 -0.005334 0.013194 0.000000 0.000000 0.000000
# 4 0.000000 0.000000 0.000000 0.027789 0.000000 0.000000
# 5 0.000000 0.000000 0.000000 0.000000 0.033652 0.000000
# 6 0.000000 0.000000 0.000000 0.000000 0.000000 0.031058
#
#
# Mechanical properties :
#
#
# Convention : Reuss Voigt Hill
#
# Bulk Modulus (GPa) = 63.98369 64.02136 64.00252
# Shear Modulus (GPa) = 29.62105 30.27286 29.94696
#
# Velocity S-wave (km/s) = 3.94402 3.98718 3.96566
# Velocity P-wave (km/s) = 7.37164 7.40387 7.38777
#
# Compressibility (1/GPa) = 0.01562898
#
# Stress axis : x y z
#
# Youngs Moduli (GPa) = 72.56875 61.02761 75.79207
#
# Poissons Ratio (x) = 0.33972 0.22471
# Poissons Ratio (y) = 0.40397 0.40428
# Poissons Ratio (z) = 0.21515 0.32552
#
# Static dielectric constant tensor:
#      x y z
#    x 3.543700 0.000000 0.000000 
#    y 0.000000 3.509800 0.000000 
#    z 0.000000 0.000000 3.459680 
# 
# 
# High freq. dielectric constant tensor:
#      x y z
#    x 1.747770 0.000000 0.000000 
#    y 0.000000 1.731820 0.000000 
#    z 0.000000 0.000000 1.735250 
# 
# From -- ./inp_files/31586.got.cif
#   From: 2010.06.25/outbox.cif.g09.slc.cpg/sg48_16_cif.got.tgz:31586.got - 2010.06.26 18:06:46.
