data_PCOD8201530
_publ_section_title
;
Structure prediction by ZEFSAII (Michael W. Deem and Ramdas Pophale) SiO2 
 PCOD8201530
Probable space group: P N N N
;
_chemical_formula_sum "Si O2"
_cell_formula_units_Z 46
_cell_length_a 13.472665
_cell_length_b 8.154196
_cell_length_c 21.889088
_cell_angle_alpha 90.000000
_cell_angle_beta 90.000000
_cell_angle_gamma 90.000000
_cell_volume 2404.707869
_symmetry_space_group_name_H-M "P N N N"
_symmetry_group_IT_number 48
_space_group.IT_coordinate_system_code '2'
_symmetry_cell_setting 'orthorhombic'
loop_
_space_group_symop_operation_xyz
x,y,z
1/2-x,1/2-y,z
x,1/2-y,1/2-z
1/2-x,y,1/2-z
-x,-y,-z
1/2+x,1/2+y,-z
-x,1/2+y,1/2+z
1/2+x,-y,1/2+z
loop_
_atom_site_type_symbol
_atom_site_label
_atom_site_fract_x
_atom_site_fract_y
_atom_site_fract_z
Si Si1 0.436136 0.566606 0.091203
Si Si2 0.250000 0.750000 0.750000
Si Si3 0.250000 0.750000 0.432694
Si Si4 0.645911 0.467039 0.469691
Si Si5 0.592184 0.694248 0.183409
Si Si6 0.710798 0.995145 0.157592
Si Si7 0.465573 0.248002 0.478689
O O1 0.330085 0.649662 0.107780
O O2 0.505696 0.597040 0.149382
O O3 0.427165 0.372328 0.075597
O O4 0.479391 0.647476 0.030812
O O5 0.181013 0.641850 0.795944
O O6 0.303735 0.615129 0.472942
O O7 0.723233 0.449338 0.412877
O O8 0.542929 0.378794 0.450075
O O9 0.625984 0.655208 0.490135
O O10 0.556112 0.750000 0.250000
O O11 0.622581 0.863053 0.150450
O O12 0.688279 0.577177 0.186249
#
# Coordination Sequence:
#
# PCOD8201530 Si02
#       7
#     8   2   4   8   8   8   8
#     4  10  21  37  56  80 112 153 198 237 291 350
#     4  12  22  34  52  84 120 150 208 228 286 374
#     4  10  23  36  55  83 114 147 196 242 290 352
#     4  10  20  35  54  87 121 150 183 239 295 363
#     4  11  22  40  54  79 116 155 194 237 291 352
#     4  11  22  34  55  84 117 155 185 235 294 362
#     4   9  20  35  56  84 116 151 188 233 300 354
#
# _framework density 19.129142999999999
#
# number of rings (size 3 to 8) (size 9 to 14) (size 15 to 20)
#    0.000    1.739    3.478    1.043    9.739    0.696 
#    0.000    0.435    0.000    0.000    0.000    0.000 
#    0.000    0.000    0.000    0.000    0.000    0.000 
#
# Total GULP energy -570147.694679 kJ/mol
# GULP energy per Si atom -12394.515102 kJ/mol
# Density = 1.908560 g / cm^3
# Si number density = 19.129143 Si / 1000 Ang^3
#
#
#
# Elastic Constant Matrix: (Units=GPa)
#
#
# Indices 1 2 3 4 5 6 
#
# 1 78.3762 40.4018 34.2032 0.0000 0.0000 0.0000
# 2 40.4018 113.9331 39.9570 0.0000 0.0000 0.0000
# 3 34.2032 39.9570 93.7445 0.0000 0.0000 0.0000
# 4 0.0000 0.0000 0.0000 24.9456 0.0000 0.0000
# 5 0.0000 0.0000 0.0000 0.0000 21.1625 0.0000
# 6 0.0000 0.0000 0.0000 0.0000 0.0000 10.4904
#
#
#
# Elastic Compliance Matrix: (Units=1/GPa)
#
#
# Indices 1 2 3 4 5 6 
#
# 1 0.016945 -0.004516 -0.004258 0.000000 0.000000 0.000000
# 2 -0.004516 0.011523 -0.003264 0.000000 0.000000 0.000000
# 3 -0.004258 -0.003264 0.013612 0.000000 0.000000 0.000000
# 4 0.000000 0.000000 0.000000 0.040087 0.000000 0.000000
# 5 0.000000 0.000000 0.000000 0.000000 0.047253 0.000000
# 6 0.000000 0.000000 0.000000 0.000000 0.000000 0.095325
#
#
# Mechanical properties :
#
#
# Convention : Reuss Voigt Hill
#
# Bulk Modulus (GPa) = 55.53934 57.24198 56.39066
# Shear Modulus (GPa) = 19.62158 22.75250 21.18704
#
# Velocity S-wave (km/s) = 3.20620 3.45253 3.33164
# Velocity P-wave (km/s) = 6.54241 6.77364 6.65903
#
# Compressibility (1/GPa) = 0.01800525
#
# Stress axis : x y z
#
# Youngs Moduli (GPa) = 59.01535 86.78261 73.46489
#
# Poissons Ratio (x) = 0.39187 0.31279
# Poissons Ratio (y) = 0.26649 0.23979
# Poissons Ratio (z) = 0.25127 0.28326
#
# Static dielectric constant tensor:
#      x y z
#    x 3.446790 0.000000 0.000000 
#    y 0.000000 3.905610 0.000000 
#    z 0.000000 0.000000 3.218960 
# 
# 
# High freq. dielectric constant tensor:
#      x y z
#    x 1.710570 0.000000 0.000000 
#    y 0.000000 1.763920 0.000000 
#    z 0.000000 0.000000 1.718710 
# 
# From -- ./inp_files/34409.got.cif
#   From: 2010.06.25/outbox.cif.g09.slc.cpg/sg48_18_cif.got.tgz:34409.got - 2010.06.26 18:06:46.
