data_PCOD8201945
_publ_section_title
;
Structure prediction by ZEFSAII (Michael W. Deem and Ramdas Pophale) SiO2 
 PCOD8201945
Probable space group: P N N N
;
_chemical_formula_sum "Si O2"
_cell_formula_units_Z 56
_cell_length_a 19.913499
_cell_length_b 9.190576
_cell_length_c 12.978040
_cell_angle_alpha 90.000000
_cell_angle_beta 90.000000
_cell_angle_gamma 90.000000
_cell_volume 2375.195795
_symmetry_space_group_name_H-M "P N N N"
_symmetry_group_IT_number 48
_space_group.IT_coordinate_system_code '2'
_symmetry_cell_setting 'orthorhombic'
loop_
_space_group_symop_operation_xyz
x,y,z
1/2-x,1/2-y,z
x,1/2-y,1/2-z
1/2-x,y,1/2-z
-x,-y,-z
1/2+x,1/2+y,-z
-x,1/2+y,1/2+z
1/2+x,-y,1/2+z
loop_
_atom_site_type_symbol
_atom_site_label
_atom_site_fract_x
_atom_site_fract_y
_atom_site_fract_z
Si Si1 0.324783 0.893821 0.066190
Si Si2 0.880256 0.879396 0.820821
Si Si3 0.930778 0.823444 0.151646
Si Si4 0.616635 0.365927 0.167745
Si Si5 0.250000 0.524626 0.250000
Si Si6 0.750000 0.250000 0.386834
Si Si7 0.172591 0.211684 0.505924
Si Si8 0.430662 0.842095 0.431634
O O1 0.387928 0.798520 0.107559
O O2 0.262831 0.878457 0.147843
O O3 0.298361 0.849509 0.954775
O O4 0.344536 0.060877 0.050087
O O5 0.915284 0.750000 0.750000
O O6 0.814990 0.923196 0.756005
O O7 0.922773 0.024064 0.849384
O O8 0.857810 0.833996 0.933382
O O9 0.964828 0.750000 0.250000
O O10 0.867438 0.729131 0.112553
O O11 0.988970 0.822066 0.064494
O O12 0.905169 0.974828 0.199449
O O13 0.584511 0.250000 0.250000
O O14 0.698234 0.350108 0.178127
O O15 0.592048 0.358254 0.049421
O O16 0.250000 0.250000 0.524847
#
# Coordination Sequence:
#
# PCOD8201945 Si02
#       8
#     8   8   8   8   4   4   8   8
#     4  11  24  40  73 107 150 198 234 303 375 428
#     4  12  23  42  73 109 152 193 236 295 367 449
#     4  12  30  50  72 105 146 188 252 303 363 447
#     4  11  24  49  79 105 142 194 244 301 368 437
#     4  12  21  39  66 112 148 182 242 284 358 442
#     4  10  23  45  72 106 148 182 239 302 363 436
#     4  12  24  47  71 106 148 187 245 312 375 434
#     4  11  28  50  70 105 153 196 243 298 362 446
#
# _framework density 23.577006000000001
#
# number of rings (size 3 to 8) (size 9 to 14) (size 15 to 20)
#    0.000    0.571    4.286    3.429    6.000    3.429 
#    2.571    0.000    0.000    0.000    0.000    0.000 
#    0.000    0.000    0.000    0.000    0.000    0.000 
#
# Total GULP energy -693806.035289 kJ/mol
# GULP energy per Si atom -12389.393487 kJ/mol
# Density = 2.352334 g / cm^3
# Si number density = 23.577006 Si / 1000 Ang^3
#
#
#
# Elastic Constant Matrix: (Units=GPa)
#
#
# Indices 1 2 3 4 5 6 
#
# 1 123.7994 60.3028 26.9212 0.0000 0.0000 0.0000
# 2 60.3028 141.6532 41.3395 0.0000 0.0000 0.0000
# 3 26.9212 41.3395 88.5936 0.0000 0.0000 0.0000
# 4 0.0000 0.0000 0.0000 3.1402 0.0000 0.0000
# 5 0.0000 0.0000 0.0000 0.0000 15.7916 0.0000
# 6 0.0000 0.0000 0.0000 0.0000 0.0000 4.8211
#
#
#
# Elastic Compliance Matrix: (Units=1/GPa)
#
#
# Indices 1 2 3 4 5 6 
#
# 1 0.010310 -0.004023 -0.001256 0.000000 0.000000 0.000000
# 2 -0.004023 0.009742 -0.003323 0.000000 0.000000 0.000000
# 3 -0.001256 -0.003323 0.013220 0.000000 0.000000 0.000000
# 4 0.000000 0.000000 0.000000 0.318451 0.000000 0.000000
# 5 0.000000 0.000000 0.000000 0.000000 0.063325 0.000000
# 6 0.000000 0.000000 0.000000 0.000000 0.000000 0.207420
#
#
# Mechanical properties :
#
#
# Convention : Reuss Voigt Hill
#
# Bulk Modulus (GPa) = 62.23535 67.90812 65.07174
# Shear Modulus (GPa) = 7.75162 19.78278 13.76720
#
# Velocity S-wave (km/s) = 1.81519 2.89981 2.41908
# Velocity P-wave (km/s) = 5.55402 6.33065 5.95501
#
# Compressibility (1/GPa) = 0.01606804
#
# Stress axis : x y z
#
# Youngs Moduli (GPa) = 96.99241 102.65050 75.64356
#
# Poissons Ratio (x) = 0.41292 0.09501
# Poissons Ratio (y) = 0.39016 0.25139
# Poissons Ratio (z) = 0.12182 0.34115
#
# Static dielectric constant tensor:
#      x y z
#    x 4.157200 0.000000 0.000000 
#    y 0.000000 4.558960 0.000000 
#    z 0.000000 0.000000 -0.263810 
# 
# 
# High freq. dielectric constant tensor:
#      x y z
#    x 1.918430 0.000000 0.000000 
#    y 0.000000 1.940920 0.000000 
#    z 0.000000 0.000000 1.944090 
# 
# From -- ./inp_files/28381.got.cif
#   From: 2010.06.25/outbox.cif.g09.slc.cpg/sg48_15_cif.got.tgz:28381.got - 2010.06.26 18:06:46.
