data_PCOD8201283
_publ_section_title
;
Structure prediction by ZEFSAII (Michael W. Deem and Ramdas Pophale) SiO2 
 PCOD8201283
Probable space group: P N N N
;
_chemical_formula_sum "Si O2"
_cell_formula_units_Z 40
_cell_length_a 12.228829
_cell_length_b 7.485347
_cell_length_c 23.017741
_cell_angle_alpha 90.000000
_cell_angle_beta 90.000000
_cell_angle_gamma 90.000000
_cell_volume 2106.975613
_symmetry_space_group_name_H-M "P N N N"
_symmetry_group_IT_number 48
_space_group.IT_coordinate_system_code '2'
_symmetry_cell_setting 'orthorhombic'
loop_
_space_group_symop_operation_xyz
x,y,z
1/2-x,1/2-y,z
x,1/2-y,1/2-z
1/2-x,y,1/2-z
-x,-y,-z
1/2+x,1/2+y,-z
-x,1/2+y,1/2+z
1/2+x,-y,1/2+z
loop_
_atom_site_type_symbol
_atom_site_label
_atom_site_fract_x
_atom_site_fract_y
_atom_site_fract_z
Si Si1 0.470167 0.486863 0.400511
Si Si2 0.861870 0.168314 0.861252
Si Si3 0.120074 0.577741 0.490673
Si Si4 0.347893 0.517844 0.516780
Si Si5 0.123354 0.293659 0.315760
O O1 0.443725 0.665823 0.364557
O O2 0.395592 0.438166 0.456699
O O3 0.590858 0.539873 0.424279
O O4 0.458268 0.317676 0.357693
O O5 0.750000 0.250000 0.836374
O O6 0.844050 0.079638 0.923947
O O7 0.901565 0.005705 0.820933
O O8 0.218698 0.466760 0.521815
O O9 0.125498 0.772775 0.516494
O O10 0.000000 0.500000 0.500000
O O11 0.250000 0.250000 0.330828
O O12 0.094120 0.250000 0.250000
#
# Coordination Sequence:
#
# PCOD8201283 Si02
#       5
#     8   8   8   8   8
#     4  10  19  35  53  76 115 148 188 236 279 351
#     4  11  19  36  52  74 115 151 188 238 288 337
#     4  10  17  31  54  83 115 151 189 230 285 342
#     4   9  18  32  52  81 114 153 189 223 287 347
#     4  11  22  34  52  81 108 153 198 239 299 351
#
# _framework density 18.984559000000001
#
# number of rings (size 3 to 8) (size 9 to 14) (size 15 to 20)
#    0.000    1.800    6.000    1.200    0.000    0.800 
#    0.000    8.000    0.000    0.000    0.000   11.200 
#    0.000   19.200    0.000    0.000    0.000    0.000 
#
# Total GULP energy -495565.092533 kJ/mol
# GULP energy per Si atom -12389.127313 kJ/mol
# Density = 1.894135 g / cm^3
# Si number density = 18.984559 Si / 1000 Ang^3
#
#
#
# Elastic Constant Matrix: (Units=GPa)
#
#
# Indices 1 2 3 4 5 6 
#
# 1 134.2472 30.6280 31.4912 0.0000 0.0000 0.0000
# 2 30.6280 101.4668 52.3387 0.0000 0.0000 0.0000
# 3 31.4912 52.3387 78.1210 0.0000 0.0000 0.0000
# 4 0.0000 0.0000 0.0000 22.8503 0.0000 0.0000
# 5 0.0000 0.0000 0.0000 0.0000 13.9654 0.0000
# 6 0.0000 0.0000 0.0000 0.0000 0.0000 20.6037
#
#
#
# Elastic Compliance Matrix: (Units=1/GPa)
#
#
# Indices 1 2 3 4 5 6 
#
# 1 0.008320 -0.001194 -0.002554 0.000000 0.000000 0.000000
# 2 -0.001194 0.015231 -0.009723 0.000000 0.000000 0.000000
# 3 -0.002554 -0.009723 0.020344 0.000000 0.000000 0.000000
# 4 0.000000 0.000000 0.000000 0.043763 0.000000 0.000000
# 5 0.000000 0.000000 0.000000 0.000000 0.071605 0.000000
# 6 0.000000 0.000000 0.000000 0.000000 0.000000 0.048535
#
#
# Mechanical properties :
#
#
# Convention : Reuss Voigt Hill
#
# Bulk Modulus (GPa) = 58.98453 60.30565 59.64509
# Shear Modulus (GPa) = 20.79923 24.77569 22.78746
#
# Velocity S-wave (km/s) = 3.31356 3.61646 3.46832
# Velocity P-wave (km/s) = 6.76585 7.01947 6.89383
#
# Compressibility (1/GPa) = 0.01695360
#
# Stress axis : x y z
#
# Youngs Moduli (GPa) = 120.18512 65.65433 49.15361
#
# Poissons Ratio (x) = 0.07840 0.12554
# Poissons Ratio (y) = 0.14352 0.47793
# Poissons Ratio (z) = 0.30695 0.63837
#
# Static dielectric constant tensor:
#      x y z
#    x 3.579820 0.000000 0.000000 
#    y 0.000000 2.305690 0.000000 
#    z 0.000000 0.000000 3.247960 
# 
# 
# High freq. dielectric constant tensor:
#      x y z
#    x 1.713210 0.000000 0.000000 
#    y 0.000000 1.748940 0.000000 
#    z 0.000000 0.000000 1.703130 
# 
# From -- ./inp_files/34034.got.cif
#   From: 2010.06.25/outbox.cif.g09.slc.cpg/sg48_18_cif.got.tgz:34034.got - 2010.06.26 18:06:46.
