data_PCOD8201977
_publ_section_title
;
Structure prediction by ZEFSAII (Michael W. Deem and Ramdas Pophale) SiO2 
 PCOD8201977
Probable space group: P N N N
;
_chemical_formula_sum "Si O2"
_cell_formula_units_Z 22
_cell_length_a 30.076320
_cell_length_b 6.069643
_cell_length_c 5.052961
_cell_angle_alpha 90.000000
_cell_angle_beta 90.000000
_cell_angle_gamma 90.000000
_cell_volume 922.430790
_symmetry_space_group_name_H-M "P N N N"
_symmetry_group_IT_number 48
_space_group.IT_coordinate_system_code '2'
_symmetry_cell_setting 'orthorhombic'
loop_
_space_group_symop_operation_xyz
x,y,z
1/2-x,1/2-y,z
x,1/2-y,1/2-z
1/2-x,y,1/2-z
-x,-y,-z
1/2+x,1/2+y,-z
-x,1/2+y,1/2+z
1/2+x,-y,1/2+z
loop_
_atom_site_type_symbol
_atom_site_label
_atom_site_fract_x
_atom_site_fract_y
_atom_site_fract_z
Si Si1 0.111688 0.250000 0.250000
Si Si2 0.334838 0.612604 0.509023
Si Si3 0.549017 0.403048 0.996897
Si Si4 0.750000 0.250000 0.250000
O O1 0.143111 0.377189 0.040491
O O2 0.082491 0.393942 0.453598
O O3 0.344089 0.750000 0.250000
O O4 0.281738 0.592557 0.570269
O O5 0.357984 0.750000 0.750000
O O6 0.556115 0.250000 0.750000
O O7 0.558724 0.250000 0.250000
O O8 0.500000 0.500000 0.000000
#
# Coordination Sequence:
#
# PCOD8201977 Si02
#       4
#     4   8   8   2
#     4  12  28  48  83 117 158 206 265 325 402 448
#     4  10  24  48  79 112 157 203 253 326 388 473
#     4  12  28  51  78 113 157 209 264 317 388 471
#     4   8  22  52  80 110 164 192 264 322 390 484
#
# _framework density 23.85003
#
# number of rings (size 3 to 8) (size 9 to 14) (size 15 to 20)
#    1.091    0.000    1.818    2.727    0.000   10.182 
#    0.000    5.455    8.000    0.000    0.000    0.000 
#    0.000    0.000    0.000    0.000    0.000    0.000 
#
# Total GULP energy -272612.775976 kJ/mol
# GULP energy per Si atom -12391.489817 kJ/mol
# Density = 2.379575 g / cm^3
# Si number density = 23.850030 Si / 1000 Ang^3
#
#
#
# Elastic Constant Matrix: (Units=GPa)
#
#
# Indices 1 2 3 4 5 6 
#
# 1 194.0447 107.2757 56.7672 0.0000 0.0000 0.0000
# 2 107.2757 175.6413 95.8213 0.0000 0.0000 0.0000
# 3 56.7672 95.8213 212.2005 0.0000 0.0000 0.0000
# 4 0.0000 0.0000 0.0000 59.0493 0.0000 0.0000
# 5 0.0000 0.0000 0.0000 0.0000 67.6817 0.0000
# 6 0.0000 0.0000 0.0000 0.0000 0.0000 54.6929
#
#
#
# Elastic Compliance Matrix: (Units=1/GPa)
#
#
# Indices 1 2 3 4 5 6 
#
# 1 0.007782 -0.004799 0.000086 0.000000 0.000000 0.000000
# 2 -0.004799 0.010515 -0.003464 0.000000 0.000000 0.000000
# 3 0.000086 -0.003464 0.006254 0.000000 0.000000 0.000000
# 4 0.000000 0.000000 0.000000 0.016935 0.000000 0.000000
# 5 0.000000 0.000000 0.000000 0.000000 0.014775 0.000000
# 6 0.000000 0.000000 0.000000 0.000000 0.000000 0.018284
#
#
# Mechanical properties :
#
#
# Convention : Reuss Voigt Hill
#
# Bulk Modulus (GPa) = 122.03739 122.40166 122.21952
# Shear Modulus (GPa) = 53.40075 57.75294 55.57684
#
# Velocity S-wave (km/s) = 4.73696 4.92622 4.83252
# Velocity P-wave (km/s) = 9.01100 9.15367 9.08261
#
# Compressibility (1/GPa) = 0.00819421
#
# Stress axis : x y z
#
# Youngs Moduli (GPa) = 128.50506 95.10592 159.90103
#
# Poissons Ratio (x) = 0.45646 -0.01367
# Poissons Ratio (y) = 0.61676 0.55390
# Poissons Ratio (z) = -0.01099 0.32945
#
# Static dielectric constant tensor:
#      x y z
#    x 4.514630 0.000000 0.000000 
#    y 0.000000 4.345940 0.000000 
#    z 0.000000 0.000000 4.292210 
# 
# 
# High freq. dielectric constant tensor:
#      x y z
#    x 1.969960 0.000000 0.000000 
#    y 0.000000 1.936930 0.000000 
#    z 0.000000 0.000000 1.960580 
# 
# From -- ./inp_files/6719.got.cif
#   From: 2010.06.25/outbox.cif.g09.slc.cpg/sg48_4_cif.got.tgz:6719.got - 2010.06.26 18:06:46.
