data_PCOD8201361
_publ_section_title
;
Structure prediction by ZEFSAII (Michael W. Deem and Ramdas Pophale) SiO2 
 PCOD8201361
Probable space group: P N N N
;
_chemical_formula_sum "Si O2"
_cell_formula_units_Z 56
_cell_length_a 11.932856
_cell_length_b 22.180278
_cell_length_c 11.613999
_cell_angle_alpha 90.000000
_cell_angle_beta 90.000000
_cell_angle_gamma 90.000000
_cell_volume 3073.924308
_symmetry_space_group_name_H-M "P N N N"
_symmetry_group_IT_number 48
_space_group.IT_coordinate_system_code '2'
_symmetry_cell_setting 'orthorhombic'
loop_
_space_group_symop_operation_xyz
x,y,z
1/2-x,1/2-y,z
x,1/2-y,1/2-z
1/2-x,y,1/2-z
-x,-y,-z
1/2+x,1/2+y,-z
-x,1/2+y,1/2+z
1/2+x,-y,1/2+z
loop_
_atom_site_type_symbol
_atom_site_label
_atom_site_fract_x
_atom_site_fract_y
_atom_site_fract_z
Si Si1 0.074280 0.510161 0.833903
Si Si2 0.766024 0.382302 0.589452
Si Si3 0.408264 0.818922 0.222957
Si Si4 0.332395 0.004563 0.080203
Si Si5 0.125654 0.119343 0.769500
Si Si6 0.627419 0.935717 0.508603
Si Si7 0.897714 0.065841 0.104645
O O1 0.101745 0.442605 0.796322
O O2 0.126956 0.556867 0.740621
O O3 0.940947 0.521502 0.844977
O O4 0.133757 0.521629 0.954470
O O5 0.864277 0.360005 0.672707
O O6 0.657636 0.337855 0.604815
O O7 0.731510 0.448273 0.636953
O O8 0.816089 0.385225 0.458228
O O9 0.382862 0.750000 0.250000
O O10 0.540845 0.831244 0.216449
O O11 0.250094 0.063261 0.071312
O O12 0.250000 0.143779 0.750000
O O13 0.115955 0.112025 0.906296
O O14 0.529277 0.917032 0.596210
O O15 0.616660 0.003426 0.462097
#
# Coordination Sequence:
#
# PCOD8201361 Si02
#       7
#     8   8   8   8   8   8   8
#     4  10  20  31  46  78 114 148 177 206 255 337
#     4  10  19  33  53  73 104 138 174 225 270 322
#     4  11  23  37  54  78 102 141 189 232 278 321
#     4  10  19  30  49  75 111 149 178 202 264 331
#     4  11  19  34  53  71 110 145 175 224 270 317
#     4   9  17  28  44  72 101 141 176 201 257 324
#     4   9  18  28  46  71 104 141 173 208 262 324
#
# _framework density 18.217753999999999
#
# number of rings (size 3 to 8) (size 9 to 14) (size 15 to 20)
#    0.000    2.000    4.286    0.857    2.000    0.857 
#    0.000    0.000    0.000    0.000    0.000    8.000 
#    0.000    0.000    0.857    0.000    0.000    0.000 
#
# Total GULP energy -693839.528569 kJ/mol
# GULP energy per Si atom -12389.991582 kJ/mol
# Density = 1.817629 g / cm^3
# Si number density = 18.217754 Si / 1000 Ang^3
#
#
#
# Elastic Constant Matrix: (Units=GPa)
#
#
# Indices 1 2 3 4 5 6 
#
# 1 142.7277 28.8693 30.6097 0.0000 0.0000 0.0000
# 2 28.8693 51.9771 31.5191 0.0000 0.0000 0.0000
# 3 30.6097 31.5191 79.8543 0.0000 0.0000 0.0000
# 4 0.0000 0.0000 0.0000 11.0954 0.0000 0.0000
# 5 0.0000 0.0000 0.0000 0.0000 23.9635 0.0000
# 6 0.0000 0.0000 0.0000 0.0000 0.0000 12.9143
#
#
#
# Elastic Compliance Matrix: (Units=1/GPa)
#
#
# Indices 1 2 3 4 5 6 
#
# 1 0.008073 -0.003428 -0.001742 0.000000 0.000000 0.000000
# 2 -0.003428 0.026749 -0.009244 0.000000 0.000000 0.000000
# 3 -0.001742 -0.009244 0.016839 0.000000 0.000000 0.000000
# 4 0.000000 0.000000 0.000000 0.090128 0.000000 0.000000
# 5 0.000000 0.000000 0.000000 0.000000 0.041730 0.000000
# 6 0.000000 0.000000 0.000000 0.000000 0.000000 0.077433
#
#
# Mechanical properties :
#
#
# Convention : Reuss Voigt Hill
#
# Bulk Modulus (GPa) = 43.79419 50.72836 47.26128
# Shear Modulus (GPa) = 16.81289 21.83203 19.32246
#
# Velocity S-wave (km/s) = 3.04120 3.46554 3.26028
# Velocity P-wave (km/s) = 6.03517 6.62716 6.33808
#
# Compressibility (1/GPa) = 0.02283408
#
# Stress axis : x y z
#
# Youngs Moduli (GPa) = 123.86632 37.38490 59.38573
#
# Poissons Ratio (x) = 0.12815 0.10343
# Poissons Ratio (y) = 0.42461 0.54896
# Poissons Ratio (z) = 0.21572 0.34558
#
# Static dielectric constant tensor:
#      x y z
#    x 3.906430 0.000000 0.000000 
#    y 0.000000 2.811290 0.000000 
#    z 0.000000 0.000000 3.369030 
# 
# 
# High freq. dielectric constant tensor:
#      x y z
#    x 1.737350 0.000000 0.000000 
#    y 0.000000 1.628300 0.000000 
#    z 0.000000 0.000000 1.692680 
# 
# From -- ./inp_files/20408.got.cif
#   From: 2010.06.25/outbox.cif.g09.slc.cpg/sg48_11_cif.got.tgz:20408.got - 2010.06.26 18:06:46.
