data_PCOD8201057
_publ_section_title
;
Structure prediction by ZEFSAII (Michael W. Deem and Ramdas Pophale) SiO2 
 PCOD8201057
Probable space group: P M M M
;
_chemical_formula_sum "Si O2"
_cell_formula_units_Z 40
_cell_length_a 16.807709
_cell_length_b 18.237034
_cell_length_c 9.530807
_cell_angle_alpha 90.000000
_cell_angle_beta 90.000000
_cell_angle_gamma 90.000000
_cell_volume 2921.409271
_symmetry_space_group_name_H-M "P M M M"
_symmetry_group_IT_number 47
_symmetry_cell_setting 'orthorhombic'
loop_
_space_group_symop_operation_xyz
x,y,z
-x,-y,z
x,-y,-z
-x,y,-z
-x,-y,-z
x,y,-z
-x,y,z
x,-y,z
loop_
_atom_site_type_symbol
_atom_site_label
_atom_site_fract_x
_atom_site_fract_y
_atom_site_fract_z
Si Si1 0.149191 0.585739 0.338004
Si Si2 0.000000 0.412893 0.841184
Si Si3 0.318966 0.359702 0.334237
Si Si4 0.405529 0.080733 0.157441
Si Si5 0.410199 0.500000 0.667678
Si Si6 0.407355 0.783771 0.664170
O O1 0.125830 0.598950 0.500000
O O2 0.167818 0.500000 0.313319
O O3 0.226316 0.632828 0.294052
O O4 0.077951 0.615023 0.240654
O O5 0.000000 0.500000 0.840861
O O6 0.000000 0.382032 0.000000
O O7 0.329834 0.361445 0.500000
O O8 0.367195 0.428155 0.270045
O O9 0.356128 0.284278 0.275983
O O10 0.500000 0.080639 0.161449
O O11 0.373378 0.143426 0.260972
O O12 0.374619 0.000000 0.205260
O O13 0.375560 0.097541 0.000000
O O14 0.500000 0.500000 0.722326
O O15 0.406017 0.500000 0.500000
O O16 0.394081 0.795222 0.500000
O O17 0.500000 0.769143 0.698551
#
# Coordination Sequence:
#
# PCOD8201057 Si02
#       6
#     8   4   8   8   4   8
#     4   9  15  25  40  55  71  94 125 155 184 222
#     4   9  17  27  39  55  73  89 112 151 198 237
#     4   9  15  23  34  52  76 100 127 159 189 218
#     4   8  14  25  39  52  67  91 124 158 190 227
#     4   9  14  20  32  49  71 100 132 163 191 213
#     4   9  16  24  35  54  78 100 124 157 194 224
#
# _framework density 13.692021
#
# number of rings (size 3 to 8) (size 9 to 14) (size 15 to 20)
#    0.000    3.200    1.000    1.500    0.000    4.000 
#    0.000    3.000    0.000    0.000    0.000    0.000 
#    0.000    4.800    0.000    0.900    0.000   18.800 
#
# Total GULP energy -495777.823412 kJ/mol
# GULP energy per Si atom -12394.445585 kJ/mol
# Density = 1.366086 g / cm^3
# Si number density = 13.692021 Si / 1000 Ang^3
#
#
#
# Elastic Constant Matrix: (Units=GPa)
#
#
# Indices 1 2 3 4 5 6 
#
# 1 80.4162 49.2525 37.5034 0.0000 0.0000 0.0000
# 2 49.2525 110.8912 39.9060 0.0000 0.0000 0.0000
# 3 37.5034 39.9060 48.6611 0.0000 0.0000 0.0000
# 4 0.0000 0.0000 0.0000 10.7231 0.0000 0.0000
# 5 0.0000 0.0000 0.0000 0.0000 7.6670 0.0000
# 6 0.0000 0.0000 0.0000 0.0000 0.0000 6.9170
#
#
#
# Elastic Compliance Matrix: (Units=1/GPa)
#
#
# Indices 1 2 3 4 5 6 
#
# 1 0.021216 -0.005020 -0.012234 0.000000 0.000000 0.000000
# 2 -0.005020 0.013981 -0.007597 0.000000 0.000000 0.000000
# 3 -0.012234 -0.007597 0.036209 0.000000 0.000000 0.000000
# 4 0.000000 0.000000 0.000000 0.093257 0.000000 0.000000
# 5 0.000000 0.000000 0.000000 0.000000 0.130428 0.000000
# 6 0.000000 0.000000 0.000000 0.000000 0.000000 0.144572
#
#
# Mechanical properties :
#
#
# Convention : Reuss Voigt Hill
#
# Bulk Modulus (GPa) = 46.07426 54.81027 50.44227
# Shear Modulus (GPa) = 10.06847 12.61519 11.34183
#
# Velocity S-wave (km/s) = 2.71468 3.03867 2.88123
# Velocity P-wave (km/s) = 6.59920 7.24079 6.92743
#
# Compressibility (1/GPa) = 0.02170409
#
# Stress axis : x y z
#
# Youngs Moduli (GPa) = 47.13506 71.52341 27.61745
#
# Poissons Ratio (x) = 0.35907 0.33787
# Poissons Ratio (y) = 0.23664 0.20980
# Poissons Ratio (z) = 0.57665 0.54334
#
# Static dielectric constant tensor:
#      x y z
#    x 2.582050 0.000000 0.000000 
#    y 0.000000 2.838720 0.000000 
#    z 0.000000 0.000000 2.564380 
# 
# 
# High freq. dielectric constant tensor:
#      x y z
#    x 1.496140 0.000000 0.000000 
#    y 0.000000 1.503930 0.000000 
#    z 0.000000 0.000000 1.498200 
# 
# From -- ./inp_files/9336.got.cif
#   From: 2010.03.12/outbox.cif.g09.slc.cpg/sg47_5_cif.got.tgz:9336.got - 2010.04.14 03:12:58.
