data_PCOD8201380
_publ_section_title
;
Structure prediction by ZEFSAII (Michael W. Deem and Ramdas Pophale) SiO2 
 PCOD8201380
Probable space group: P N N N
;
_chemical_formula_sum "Si O2"
_cell_formula_units_Z 40
_cell_length_a 4.946233
_cell_length_b 23.802565
_cell_length_c 16.056958
_cell_angle_alpha 90.000000
_cell_angle_beta 90.000000
_cell_angle_gamma 90.000000
_cell_volume 1890.434358
_symmetry_space_group_name_H-M "P N N N"
_symmetry_group_IT_number 48
_space_group.IT_coordinate_system_code '2'
_symmetry_cell_setting 'orthorhombic'
loop_
_space_group_symop_operation_xyz
x,y,z
1/2-x,1/2-y,z
x,1/2-y,1/2-z
1/2-x,y,1/2-z
-x,-y,-z
1/2+x,1/2+y,-z
-x,1/2+y,1/2+z
1/2+x,-y,1/2+z
loop_
_atom_site_type_symbol
_atom_site_label
_atom_site_fract_x
_atom_site_fract_y
_atom_site_fract_z
Si Si1 0.355857 0.311059 0.493301
Si Si2 0.182888 0.931149 0.113668
Si Si3 0.155909 0.878472 0.946031
Si Si4 0.331692 0.137736 0.838759
Si Si5 0.498339 0.957716 0.695827
O O1 0.250000 0.250000 0.467910
O O2 0.634049 0.326074 0.445147
O O3 0.409272 0.314244 0.593692
O O4 0.141306 0.357045 0.465936
O O5 0.423899 0.906981 0.171676
O O6 0.921550 0.894790 0.127109
O O7 0.126543 0.995586 0.135112
O O8 0.258498 0.923625 0.015758
O O9 0.139408 0.907848 0.856553
O O10 0.250000 0.165225 0.750000
O O11 0.750000 0.934333 0.750000
O O12 0.250000 0.983095 0.750000
#
# Coordination Sequence:
#
# PCOD8201380 Si02
#       5
#     8   8   8   8   8
#     4  10  21  38  60  81 107 150 195 238 291 340
#     4  10  20  35  55  81 117 157 185 214 274 346
#     4  10  22  39  58  83 114 147 190 238 280 343
#     4  10  19  32  53  84 119 149 185 229 272 332
#     4  12  23  36  58  86 117 150 188 234 285 341
#
# _framework density 21.159157
#
# number of rings (size 3 to 8) (size 9 to 14) (size 15 to 20)
#    0.000    1.600    0.000    6.000    0.000    0.400 
#    0.000    8.000    0.000   16.200    0.000    0.000 
#    0.000    0.000    0.000    0.000    0.000    0.000 
#
# Total GULP energy -495931.622030 kJ/mol
# GULP energy per Si atom -12398.290551 kJ/mol
# Density = 2.111100 g / cm^3
# Si number density = 21.159157 Si / 1000 Ang^3
#
#
#
# Elastic Constant Matrix: (Units=GPa)
#
#
# Indices 1 2 3 4 5 6 
#
# 1 122.4371 18.5483 27.9636 0.0000 0.0000 0.0000
# 2 18.5483 79.9962 36.8247 0.0000 0.0000 0.0000
# 3 27.9636 36.8247 84.6196 0.0000 0.0000 0.0000
# 4 0.0000 0.0000 0.0000 16.2693 0.0000 0.0000
# 5 0.0000 0.0000 0.0000 0.0000 32.3046 0.0000
# 6 0.0000 0.0000 0.0000 0.0000 0.0000 36.3470
#
#
#
# Elastic Compliance Matrix: (Units=1/GPa)
#
#
# Indices 1 2 3 4 5 6 
#
# 1 0.008884 -0.000886 -0.002550 0.000000 0.000000 0.000000
# 2 -0.000886 0.015720 -0.006548 0.000000 0.000000 0.000000
# 3 -0.002550 -0.006548 0.015510 0.000000 0.000000 0.000000
# 4 0.000000 0.000000 0.000000 0.061466 0.000000 0.000000
# 5 0.000000 0.000000 0.000000 0.000000 0.030955 0.000000
# 6 0.000000 0.000000 0.000000 0.000000 0.000000 0.027513
#
#
# Mechanical properties :
#
#
# Convention : Reuss Voigt Hill
#
# Bulk Modulus (GPa) = 49.63934 50.41400 50.02667
# Shear Modulus (GPa) = 26.77623 30.56527 28.67075
#
# Velocity S-wave (km/s) = 3.56120 3.80483 3.68503
# Velocity P-wave (km/s) = 6.35771 6.57116 6.46532
#
# Compressibility (1/GPa) = 0.02014531
#
# Stress axis : x y z
#
# Youngs Moduli (GPa) = 112.56011 63.61138 64.47395
#
# Poissons Ratio (x) = 0.05635 0.16443
# Poissons Ratio (y) = 0.09972 0.42220
# Poissons Ratio (z) = 0.28707 0.41656
#
# Static dielectric constant tensor:
#      x y z
#    x 4.017800 0.000000 0.000000 
#    y 0.000000 3.329410 0.000000 
#    z 0.000000 0.000000 3.986220 
# 
# 
# High freq. dielectric constant tensor:
#      x y z
#    x 1.854310 0.000000 0.000000 
#    y 0.000000 1.788870 0.000000 
#    z 0.000000 0.000000 1.820230 
# 
# From -- ./inp_files/3351.got.cif
#   From: 2010.06.25/outbox.cif.g09.slc.cpg/sg48_2_cif.got.tgz:3351.got - 2010.06.26 18:06:46.
