data_PCOD8201677
_publ_section_title
;
Structure prediction by ZEFSAII (Michael W. Deem and Ramdas Pophale) SiO2 
 PCOD8201677
Probable space group: P N N N
;
_chemical_formula_sum "Si O2"
_cell_formula_units_Z 48
_cell_length_a 32.675130
_cell_length_b 7.537077
_cell_length_c 8.912978
_cell_angle_alpha 90.000000
_cell_angle_beta 90.000000
_cell_angle_gamma 90.000000
_cell_volume 2195.043397
_symmetry_space_group_name_H-M "P N N N"
_symmetry_group_IT_number 48
_space_group.IT_coordinate_system_code '2'
_symmetry_cell_setting 'orthorhombic'
loop_
_space_group_symop_operation_xyz
x,y,z
1/2-x,1/2-y,z
x,1/2-y,1/2-z
1/2-x,y,1/2-z
-x,-y,-z
1/2+x,1/2+y,-z
-x,1/2+y,1/2+z
1/2+x,-y,1/2+z
loop_
_atom_site_type_symbol
_atom_site_label
_atom_site_fract_x
_atom_site_fract_y
_atom_site_fract_z
Si Si1 0.012137 0.056724 0.267819
Si Si2 0.655375 0.413099 0.046577
Si Si3 0.152121 0.508136 0.892951
Si Si4 0.797883 0.776637 0.920467
Si Si5 0.425754 0.648540 0.096462
Si Si6 0.438911 0.500492 0.549361
O O1 0.993919 0.250000 0.250000
O O2 0.973061 0.942582 0.326704
O O3 0.033471 0.970294 0.121996
O O4 0.048266 0.077563 0.389707
O O5 0.660249 0.199904 0.029626
O O6 0.659379 0.475811 0.216967
O O7 0.690950 0.520067 0.961312
O O8 0.612092 0.466675 0.968313
O O9 0.106121 0.433493 0.910685
O O10 0.181173 0.363669 0.968070
O O11 0.750000 0.750000 0.938735
O O12 0.812412 0.750000 0.750000
O O13 0.413138 0.750000 0.250000
O O14 0.437891 0.785127 0.965445
#
# Coordination Sequence:
#
# PCOD8201677 Si02
#       6
#     8   8   8   8   8   8
#     4  10  21  34  57  84 119 173 215 277 317 370
#     4  10  23  41  70  99 130 181 217 275 339 388
#     4  10  23  44  69  97 135 175 224 275 330 405
#     4  11  27  46  70 104 136 168 215 272 336 416
#     4   9  20  37  59  89 123 172 222 273 323 388
#     4   9  21  39  53  85 127 163 219 270 322 382
#
# _framework density 21.867448
#
# number of rings (size 3 to 8) (size 9 to 14) (size 15 to 20)
#    0.000    2.167    0.000    0.500   14.000    2.667 
#    0.000    6.667    0.000    0.000    0.000    0.000 
#    0.000    0.000    0.000    0.000    0.000    0.000 
#
# Total GULP energy -594899.057280 kJ/mol
# GULP energy per Si atom -12393.730360 kJ/mol
# Density = 2.181768 g / cm^3
# Si number density = 21.867448 Si / 1000 Ang^3
#
#
#
# Elastic Constant Matrix: (Units=GPa)
#
#
# Indices 1 2 3 4 5 6 
#
# 1 104.5464 35.3761 41.5004 0.0000 0.0000 0.0000
# 2 35.3761 67.7602 27.8762 0.0000 0.0000 0.0000
# 3 41.5004 27.8762 71.8124 0.0000 0.0000 0.0000
# 4 0.0000 0.0000 0.0000 30.8197 0.0000 0.0000
# 5 0.0000 0.0000 0.0000 0.0000 28.1368 0.0000
# 6 0.0000 0.0000 0.0000 0.0000 0.0000 32.0933
#
#
#
# Elastic Compliance Matrix: (Units=1/GPa)
#
#
# Indices 1 2 3 4 5 6 
#
# 1 0.013505 -0.004570 -0.006031 0.000000 0.000000 0.000000
# 2 -0.004570 0.019109 -0.004777 0.000000 0.000000 0.000000
# 3 -0.006031 -0.004777 0.019265 0.000000 0.000000 0.000000
# 4 0.000000 0.000000 0.000000 0.032447 0.000000 0.000000
# 5 0.000000 0.000000 0.000000 0.000000 0.035541 0.000000
# 6 0.000000 0.000000 0.000000 0.000000 0.000000 0.031159
#
#
# Mechanical properties :
#
#
# Convention : Reuss Voigt Hill
#
# Bulk Modulus (GPa) = 47.33953 50.40272 48.87113
# Shear Modulus (GPa) = 26.47998 27.50105 26.99051
#
# Velocity S-wave (km/s) = 3.48362 3.55015 3.51704
# Velocity P-wave (km/s) = 6.15436 6.31696 6.23619
#
# Compressibility (1/GPa) = 0.02112399
#
# Stress axis : x y z
#
# Youngs Moduli (GPa) = 74.04422 52.33173 51.90851
#
# Poissons Ratio (x) = 0.23915 0.31305
# Poissons Ratio (y) = 0.33837 0.24796
# Poissons Ratio (z) = 0.44655 0.24998
#
# Static dielectric constant tensor:
#      x y z
#    x 3.892790 0.000000 0.000000 
#    y 0.000000 3.929770 0.000000 
#    z 0.000000 0.000000 3.980880 
# 
# 
# High freq. dielectric constant tensor:
#      x y z
#    x 1.850730 0.000000 0.000000 
#    y 0.000000 1.847890 0.000000 
#    z 0.000000 0.000000 1.866150 
# 
# From -- ./inp_files/16798.got.cif
#   From: 2010.06.25/outbox.cif.g09.slc.cpg/sg48_9_cif.got.tgz:16798.got - 2010.06.26 18:06:46.
