data_PCOD8201058
_publ_section_title
;
Structure prediction by ZEFSAII (Michael W. Deem and Ramdas Pophale) SiO2 
 PCOD8201058
Probable space group: P M M M
;
_chemical_formula_sum "Si O2"
_cell_formula_units_Z 56
_cell_length_a 9.869097
_cell_length_b 24.885356
_cell_length_c 15.152263
_cell_angle_alpha 90.000000
_cell_angle_beta 90.000000
_cell_angle_gamma 90.000000
_cell_volume 3721.335066
_symmetry_space_group_name_H-M "P M M M"
_symmetry_group_IT_number 47
_symmetry_cell_setting 'orthorhombic'
loop_
_space_group_symop_operation_xyz
x,y,z
-x,-y,z
x,-y,-z
-x,y,-z
-x,-y,-z
x,y,-z
-x,y,z
x,-y,z
loop_
_atom_site_type_symbol
_atom_site_label
_atom_site_fract_x
_atom_site_fract_y
_atom_site_fract_z
Si Si1 0.656009 0.438110 0.251903
Si Si2 0.152330 0.563806 0.097867
Si Si3 0.651259 0.936225 0.097628
Si Si4 0.343932 0.646477 0.398521
Si Si5 0.157875 0.937484 0.251962
Si Si6 0.150712 0.259503 0.604869
Si Si7 0.839305 0.141228 0.597529
O O1 0.500000 0.431593 0.224149
O O2 0.692731 0.500000 0.271206
O O3 0.744418 0.413849 0.171410
O O4 0.689292 0.406124 0.341297
O O5 0.160145 0.500000 0.096830
O O6 0.000000 0.582655 0.121633
O O7 0.192394 0.585357 0.000000
O O8 0.500000 0.916904 0.124161
O O9 0.760465 0.914891 0.167733
O O10 0.655900 0.000000 0.095648
O O11 0.688660 0.914112 0.000000
O O12 0.307729 0.632819 0.500000
O O13 0.500000 0.663676 0.389199
O O14 0.254678 0.695568 0.360750
O O15 0.212421 0.904841 0.336511
O O16 0.000000 0.926909 0.233585
O O17 0.187100 0.000000 0.270254
O O18 0.145057 0.259862 0.500000
O O19 0.202482 0.200268 0.634242
O O20 0.000000 0.271560 0.642777
O O21 0.776673 0.130537 0.500000
O O22 0.000000 0.139346 0.590050
#
# Coordination Sequence:
#
# PCOD8201058 Si02
#       7
#     8   8   8   8   8   8   8
#     4   9  17  27  39  58  83 109 134 157 188 235
#     4   8  14  25  40  57  78 104 132 162 195 228
#     4   8  14  25  39  53  73 104 136 162 192 232
#     4   9  17  28  41  58  81 106 132 165 199 228
#     4   9  16  24  37  60  85 106 130 160 193 230
#     4   8  14  26  43  58  72  97 135 172 200 227
#     4   8  14  25  40  58  81 107 133 161 193 230
#
# _framework density 15.048361999999999
#
# number of rings (size 3 to 8) (size 9 to 14) (size 15 to 20)
#    0.000    3.571    0.000    1.714    0.000    1.714 
#    0.000    6.429    0.000    1.286    0.000    7.000 
#    0.000    1.143    0.000    0.000    0.000    0.000 
#
# Total GULP energy -693980.404325 kJ/mol
# GULP energy per Si atom -12392.507220 kJ/mol
# Density = 1.501411 g / cm^3
# Si number density = 15.048362 Si / 1000 Ang^3
#
#
#
# Elastic Constant Matrix: (Units=GPa)
#
#
# Indices 1 2 3 4 5 6 
#
# 1 65.9630 39.3916 55.8739 0.0000 0.0000 0.0000
# 2 39.3916 64.4428 48.6244 0.0000 0.0000 0.0000
# 3 55.8739 48.6244 103.0155 0.0000 0.0000 0.0000
# 4 0.0000 0.0000 0.0000 3.2448 0.0000 0.0000
# 5 0.0000 0.0000 0.0000 0.0000 21.0085 0.0000
# 6 0.0000 0.0000 0.0000 0.0000 0.0000 15.5133
#
#
#
# Elastic Compliance Matrix: (Units=1/GPa)
#
#
# Indices 1 2 3 4 5 6 
#
# 1 0.031672 -0.009938 -0.012488 0.000000 0.000000 0.000000
# 2 -0.009938 0.027219 -0.007458 0.000000 0.000000 0.000000
# 3 -0.012488 -0.007458 0.020001 0.000000 0.000000 0.000000
# 4 0.000000 0.000000 0.000000 0.308187 0.000000 0.000000
# 5 0.000000 0.000000 0.000000 0.000000 0.047600 0.000000
# 6 0.000000 0.000000 0.000000 0.000000 0.000000 0.064461
#
#
# Mechanical properties :
#
#
# Convention : Reuss Voigt Hill
#
# Bulk Modulus (GPa) = 52.28562 57.91121 55.09842
# Shear Modulus (GPa) = 8.84514 13.92209 11.38362
#
# Velocity S-wave (km/s) = 2.42705 3.04494 2.75338
# Velocity P-wave (km/s) = 6.53258 7.13647 6.84119
#
# Compressibility (1/GPa) = 0.01912572
#
# Stress axis : x y z
#
# Youngs Moduli (GPa) = 31.57319 36.73856 49.99832
#
# Poissons Ratio (x) = 0.36510 0.62438
# Poissons Ratio (y) = 0.31376 0.37288
# Poissons Ratio (z) = 0.39428 0.27399
#
# Static dielectric constant tensor:
#      x y z
#    x 2.970010 0.000000 0.000000 
#    y 0.000000 2.781000 0.000000 
#    z 0.000000 0.000000 3.116910 
# 
# 
# High freq. dielectric constant tensor:
#      x y z
#    x 1.567470 0.000000 0.000000 
#    y 0.000000 1.542200 0.000000 
#    z 0.000000 0.000000 1.566100 
# 
# From -- ./inp_files/16697.got.cif
#   From: 2010.03.12/outbox.cif.g09.slc.cpg/sg47_9_cif.got.tgz:16697.got - 2010.04.14 03:12:58.
