data_PCOD8201572
_publ_section_title
;
Structure prediction by ZEFSAII (Michael W. Deem and Ramdas Pophale) SiO2 
 PCOD8201572
Probable space group: P N N N
;
_chemical_formula_sum "Si O2"
_cell_formula_units_Z 44
_cell_length_a 29.006231
_cell_length_b 8.061195
_cell_length_c 8.215682
_cell_angle_alpha 90.000000
_cell_angle_beta 90.000000
_cell_angle_gamma 90.000000
_cell_volume 1921.030893
_symmetry_space_group_name_H-M "P N N N"
_symmetry_group_IT_number 48
_space_group.IT_coordinate_system_code '2'
_symmetry_cell_setting 'orthorhombic'
loop_
_space_group_symop_operation_xyz
x,y,z
1/2-x,1/2-y,z
x,1/2-y,1/2-z
1/2-x,y,1/2-z
-x,-y,-z
1/2+x,1/2+y,-z
-x,1/2+y,1/2+z
1/2+x,-y,1/2+z
loop_
_atom_site_type_symbol
_atom_site_label
_atom_site_fract_x
_atom_site_fract_y
_atom_site_fract_z
Si Si1 0.251139 0.947388 0.934417
Si Si2 0.430153 0.146670 0.507894
Si Si3 0.505050 0.750000 0.750000
Si Si4 0.658326 0.478495 0.904846
Si Si5 0.651935 0.396363 0.535570
Si Si6 0.935870 0.000473 0.345508
O O1 0.250000 0.750000 0.943688
O O2 0.250000 0.013865 0.750000
O O3 0.211232 0.029486 0.049735
O O4 0.301125 0.996336 0.000213
O O5 0.462481 0.119526 0.349948
O O6 0.445052 0.328900 0.564960
O O7 0.439350 0.015386 0.649951
O O8 0.375895 0.123125 0.466996
O O9 0.474064 0.642570 0.621827
O O10 0.642757 0.450459 0.719655
O O11 0.653139 0.301143 0.992250
O O12 0.614327 0.448587 0.404770
#
# Coordination Sequence:
#
# PCOD8201572 Si02
#       6
#     8   8   4   8   8   8
#     4   9  17  31  56  89 124 163 208 256 309 373
#     4  11  24  41  62  90 122 158 206 265 324 380
#     4  12  24  44  66  88 122 168 216 264 322 394
#     4  10  20  36  60  90 125 164 208 262 316 375
#     4  10  20  36  60  90 124 165 211 256 313 385
#     4  11  24  41  63  90 121 160 209 262 320 387
#
# _framework density 22.904368000000002
#
# number of rings (size 3 to 8) (size 9 to 14) (size 15 to 20)
#    0.000    1.636    0.000    4.909    0.000    5.091 
#    0.000    4.545    0.000    5.455    0.000    0.000 
#    0.000    0.000    0.000    0.000    0.000    0.000 
#
# Total GULP energy -545109.371518 kJ/mol
# GULP energy per Si atom -12388.849353 kJ/mol
# Density = 2.285224 g / cm^3
# Si number density = 22.904368 Si / 1000 Ang^3
#
#
#
# Elastic Constant Matrix: (Units=GPa)
#
#
# Indices 1 2 3 4 5 6 
#
# 1 185.0889 44.0696 58.2047 0.0000 0.0000 0.0000
# 2 44.0696 54.5753 25.2533 0.0000 0.0000 0.0000
# 3 58.2047 25.2533 89.4111 0.0000 0.0000 0.0000
# 4 0.0000 0.0000 0.0000 26.1748 0.0000 0.0000
# 5 0.0000 0.0000 0.0000 0.0000 43.2607 0.0000
# 6 0.0000 0.0000 0.0000 0.0000 0.0000 28.9243
#
#
#
# Elastic Compliance Matrix: (Units=1/GPa)
#
#
# Indices 1 2 3 4 5 6 
#
# 1 0.007627 -0.004442 -0.003711 0.000000 0.000000 0.000000
# 2 -0.004442 0.023665 -0.003792 0.000000 0.000000 0.000000
# 3 -0.003711 -0.003792 0.014671 0.000000 0.000000 0.000000
# 4 0.000000 0.000000 0.000000 0.038205 0.000000 0.000000
# 5 0.000000 0.000000 0.000000 0.000000 0.023116 0.000000
# 6 0.000000 0.000000 0.000000 0.000000 0.000000 0.034573
#
#
# Mechanical properties :
#
#
# Convention : Reuss Voigt Hill
#
# Bulk Modulus (GPa) = 45.30342 64.90339 55.10340
# Shear Modulus (GPa) = 28.88431 33.10848 30.99640
#
# Velocity S-wave (km/s) = 3.55503 3.80611 3.68271
# Velocity P-wave (km/s) = 6.05585 6.90750 6.49564
#
# Compressibility (1/GPa) = 0.02207339
#
# Stress axis : x y z
#
# Youngs Moduli (GPa) = 131.10732 42.25638 68.16211
#
# Poissons Ratio (x) = 0.18771 0.25292
# Poissons Ratio (y) = 0.58239 0.25849
# Poissons Ratio (z) = 0.48649 0.16025
#
# Static dielectric constant tensor:
#      x y z
#    x 4.331140 0.000000 0.000000 
#    y 0.000000 3.825080 0.000000 
#    z 0.000000 0.000000 4.184090 
# 
# 
# High freq. dielectric constant tensor:
#      x y z
#    x 1.916440 0.000000 0.000000 
#    y 0.000000 1.874750 0.000000 
#    z 0.000000 0.000000 1.906690 
# 
# From -- ./inp_files/16708.got.cif
#   From: 2010.06.25/outbox.cif.g09.slc.cpg/sg48_9_cif.got.tgz:16708.got - 2010.06.26 18:06:46.
