data_PCOD8201684
_publ_section_title
;
Structure prediction by ZEFSAII (Michael W. Deem and Ramdas Pophale) SiO2 
 PCOD8201684
Probable space group: P N N N
;
_chemical_formula_sum "Si O2"
_cell_formula_units_Z 38
_cell_length_a 11.214390
_cell_length_b 27.841384
_cell_length_c 6.251903
_cell_angle_alpha 90.000000
_cell_angle_beta 90.000000
_cell_angle_gamma 90.000000
_cell_volume 1951.995027
_symmetry_space_group_name_H-M "P N N N"
_symmetry_group_IT_number 48
_space_group.IT_coordinate_system_code '2'
_symmetry_cell_setting 'orthorhombic'
loop_
_space_group_symop_operation_xyz
x,y,z
1/2-x,1/2-y,z
x,1/2-y,1/2-z
1/2-x,y,1/2-z
-x,-y,-z
1/2+x,1/2+y,-z
-x,1/2+y,1/2+z
1/2+x,-y,1/2+z
loop_
_atom_site_type_symbol
_atom_site_label
_atom_site_fract_x
_atom_site_fract_y
_atom_site_fract_z
Si Si1 0.750000 0.250000 0.750000
Si Si2 0.750000 0.910659 0.750000
Si Si3 0.112332 0.959019 0.740277
Si Si4 0.632162 0.297245 0.126379
Si Si5 0.031317 0.115469 0.006827
Si Si6 0.569667 0.560845 0.394367
O O1 0.665661 0.216253 0.612646
O O2 0.843360 0.877996 0.874794
O O3 0.823515 0.940669 0.570408
O O4 0.250000 0.943912 0.750000
O O5 0.042214 0.932119 0.929018
O O6 0.057717 0.943639 0.511008
O O7 0.095185 0.016359 0.765434
O O8 0.581215 0.250000 0.250000
O O9 0.750000 0.316484 0.250000
O O10 0.535848 0.338081 0.093899
O O11 0.059308 0.109175 0.752513
#
# Coordination Sequence:
#
# PCOD8201684 Si02
#       6
#     2   4   8   8   8   8
#     4   8  18  36  60  80 110 144 168 216 288 340
#     4  10  22  38  55  77 114 154 189 229 272 326
#     4  10  21  35  54  83 115 146 188 235 275 327
#     4   9  20  38  58  85 113 138 175 229 284 334
#     4  11  21  36  59  82 109 147 190 231 278 334
#     4  10  22  37  54  79 115 156 189 226 278 331
#
# _framework density 19.467262000000002
#
# number of rings (size 3 to 8) (size 9 to 14) (size 15 to 20)
#    0.000    2.316    0.000    3.158    0.000   12.632 
#    0.000    0.526    0.000    0.000    0.000    0.000 
#    0.000    0.000    0.000    0.000    0.000    0.000 
#
# Total GULP energy -470838.483626 kJ/mol
# GULP energy per Si atom -12390.486411 kJ/mol
# Density = 1.942295 g / cm^3
# Si number density = 19.467262 Si / 1000 Ang^3
#
#
#
# Elastic Constant Matrix: (Units=GPa)
#
#
# Indices 1 2 3 4 5 6 
#
# 1 150.9837 52.9740 53.7753 0.0000 0.0000 0.0000
# 2 52.9740 99.9819 49.2802 0.0000 0.0000 0.0000
# 3 53.7753 49.2802 111.6591 0.0000 0.0000 0.0000
# 4 0.0000 0.0000 0.0000 16.5042 0.0000 0.0000
# 5 0.0000 0.0000 0.0000 0.0000 25.0195 0.0000
# 6 0.0000 0.0000 0.0000 0.0000 0.0000 26.5173
#
#
#
# Elastic Compliance Matrix: (Units=1/GPa)
#
#
# Indices 1 2 3 4 5 6 
#
# 1 0.008760 -0.003274 -0.002774 0.000000 0.000000 0.000000
# 2 -0.003274 0.014006 -0.004605 0.000000 0.000000 0.000000
# 3 -0.002774 -0.004605 0.012324 0.000000 0.000000 0.000000
# 4 0.000000 0.000000 0.000000 0.060591 0.000000 0.000000
# 5 0.000000 0.000000 0.000000 0.000000 0.039969 0.000000
# 6 0.000000 0.000000 0.000000 0.000000 0.000000 0.037711
#
#
# Mechanical properties :
#
#
# Convention : Reuss Voigt Hill
#
# Bulk Modulus (GPa) = 72.54376 74.96486 73.75431
# Shear Modulus (GPa) = 25.09271 27.38121 26.23696
#
# Velocity S-wave (km/s) = 3.59412 3.75444 3.67515
# Velocity P-wave (km/s) = 7.38708 7.57537 7.48182
#
# Compressibility (1/GPa) = 0.01378478
#
# Stress axis : x y z
#
# Youngs Moduli (GPa) = 114.15628 71.39690 81.14274
#
# Poissons Ratio (x) = 0.23376 0.22507
# Poissons Ratio (y) = 0.37377 0.37364
# Poissons Ratio (z) = 0.31664 0.32876
#
# Static dielectric constant tensor:
#      x y z
#    x 3.628310 0.000000 0.000000 
#    y 0.000000 3.269610 0.000000 
#    z 0.000000 0.000000 3.702410 
# 
# 
# High freq. dielectric constant tensor:
#      x y z
#    x 1.761330 0.000000 0.000000 
#    y 0.000000 1.724510 0.000000 
#    z 0.000000 0.000000 1.771760 
# 
# From -- ./inp_files/2414.got.cif
#   From: 2010.06.25/outbox.cif.g09.slc.cpg/sg48_2_cif.got.tgz:2414.got - 2010.06.26 18:06:46.
