data_PCOD8201978
_publ_section_title
;
Structure prediction by ZEFSAII (Michael W. Deem and Ramdas Pophale) SiO2 
 PCOD8201978
Probable space group: P N N N
;
_chemical_formula_sum "Si O2"
_cell_formula_units_Z 34
_cell_length_a 8.881326
_cell_length_b 27.910680
_cell_length_c 5.570849
_cell_angle_alpha 90.000000
_cell_angle_beta 90.000000
_cell_angle_gamma 90.000000
_cell_volume 1380.923487
_symmetry_space_group_name_H-M "P N N N"
_symmetry_group_IT_number 48
_space_group.IT_coordinate_system_code '2'
_symmetry_cell_setting 'orthorhombic'
loop_
_space_group_symop_operation_xyz
x,y,z
1/2-x,1/2-y,z
x,1/2-y,1/2-z
1/2-x,y,1/2-z
-x,-y,-z
1/2+x,1/2+y,-z
-x,1/2+y,1/2+z
1/2+x,-y,1/2+z
loop_
_atom_site_type_symbol
_atom_site_label
_atom_site_fract_x
_atom_site_fract_y
_atom_site_fract_z
Si Si1 0.750000 0.833413 0.250000
Si Si2 0.750000 0.393012 0.750000
Si Si3 0.750000 0.250000 0.750000
Si Si4 0.899678 0.460516 0.372073
Si Si5 0.002744 0.292052 0.435444
Si Si6 0.492688 0.376041 0.423228
O O1 0.637030 0.796797 0.376260
O O2 0.833593 0.867751 0.443321
O O3 0.851350 0.424422 0.576322
O O4 0.629922 0.361593 0.601101
O O5 0.650797 0.216813 0.577473
O O6 0.750000 0.483567 0.250000
O O7 0.000000 0.500000 0.500000
O O8 0.994127 0.431219 0.167899
O O9 0.042421 0.250000 0.250000
O O10 0.986546 0.342394 0.304431
#
# Coordination Sequence:
#
# PCOD8201978 Si02
#       6
#     4   4   2   8   8   8
#     4  12  28  49  70 112 152 198 246 314 366 443
#     4  10  24  49  74 105 148 188 239 304 369 440
#     4  12  30  48  76 106 148 194 246 308 362 436
#     4  10  24  49  76 111 148 194 252 314 379 458
#     4  12  29  49  73 112 149 199 253 302 372 447
#     4  11  26  48  76 108 149 199 248 306 379 443
#
# _framework density 24.621206000000001
#
# number of rings (size 3 to 8) (size 9 to 14) (size 15 to 20)
#    0.000    0.941    0.000    3.882    0.000   28.706 
#   21.176    0.000    0.000    0.000    0.000    0.000 
#    0.000    0.000    0.000    0.000    0.000    0.000 
#
# Total GULP energy -421726.998935 kJ/mol
# GULP energy per Si atom -12403.735263 kJ/mol
# Density = 2.456517 g / cm^3
# Si number density = 24.621206 Si / 1000 Ang^3
#
#
#
# Elastic Constant Matrix: (Units=GPa)
#
#
# Indices 1 2 3 4 5 6 
#
# 1 189.4999 76.6387 90.0382 0.0000 0.0000 0.0000
# 2 76.6387 92.4693 44.5893 0.0000 0.0000 0.0000
# 3 90.0382 44.5893 143.2219 0.0000 0.0000 0.0000
# 4 0.0000 0.0000 0.0000 15.6221 0.0000 0.0000
# 5 0.0000 0.0000 0.0000 0.0000 54.4163 0.0000
# 6 0.0000 0.0000 0.0000 0.0000 0.0000 1.5225
#
#
#
# Elastic Compliance Matrix: (Units=1/GPa)
#
#
# Indices 1 2 3 4 5 6 
#
# 1 0.009725 -0.006015 -0.004241 0.000000 0.000000 0.000000
# 2 -0.006015 0.016445 -0.001339 0.000000 0.000000 0.000000
# 3 -0.004241 -0.001339 0.010065 0.000000 0.000000 0.000000
# 4 0.000000 0.000000 0.000000 0.064012 0.000000 0.000000
# 5 0.000000 0.000000 0.000000 0.000000 0.018377 0.000000
# 6 0.000000 0.000000 0.000000 0.000000 0.000000 0.656809
#
#
# Mechanical properties :
#
#
# Convention : Reuss Voigt Hill
#
# Bulk Modulus (GPa) = 76.65147 94.19150 85.42149
# Shear Modulus (GPa) = 6.22689 28.57383 17.40036
#
# Velocity S-wave (km/s) = 1.59203 3.41036 2.66131
# Velocity P-wave (km/s) = 5.88042 7.33803 6.64929
#
# Compressibility (1/GPa) = 0.01304606
#
# Stress axis : x y z
#
# Youngs Moduli (GPa) = 102.83240 60.80919 99.35432
#
# Poissons Ratio (x) = 0.36575 0.42135
# Poissons Ratio (y) = 0.61851 0.13299
# Poissons Ratio (z) = 0.43610 0.08140
#
# Static dielectric constant tensor:
#      x y z
#    x 4.682680 0.000000 0.000000 
#    y 0.000000 4.409780 0.000000 
#    z 0.000000 0.000000 4.992160 
# 
# 
# High freq. dielectric constant tensor:
#      x y z
#    x 1.990520 0.000000 0.000000 
#    y 0.000000 1.964720 0.000000 
#    z 0.000000 0.000000 2.010440 
# 
# From -- ./inp_files/1206.got.cif
#   From: 2010.06.25/outbox.cif.g09.slc.cpg/sg48_1_cif.got.tgz:1206.got - 2010.06.26 18:06:46.
