data_PCOD8201051
_publ_section_title
;
Structure prediction by ZEFSAII (Michael W. Deem and Ramdas Pophale) SiO2 
 PCOD8201051
Probable space group: P M M M
;
_chemical_formula_sum "Si O2"
_cell_formula_units_Z 60
_cell_length_a 24.919087
_cell_length_b 15.583989
_cell_length_c 9.866248
_cell_angle_alpha 90.000000
_cell_angle_beta 90.000000
_cell_angle_gamma 90.000000
_cell_volume 3831.446689
_symmetry_space_group_name_H-M "P M M M"
_symmetry_group_IT_number 47
_symmetry_cell_setting 'orthorhombic'
loop_
_space_group_symop_operation_xyz
x,y,z
-x,-y,z
x,-y,-z
-x,y,-z
-x,-y,-z
x,y,-z
-x,y,z
x,-y,z
loop_
_atom_site_type_symbol
_atom_site_label
_atom_site_fract_x
_atom_site_fract_y
_atom_site_fract_z
Si Si1 0.147811 0.400742 0.147313
Si Si2 0.562272 0.751731 0.343864
Si Si3 0.359537 0.401026 0.343133
Si Si4 0.265176 0.601396 0.153358
Si Si5 0.938836 0.335504 0.656254
Si Si6 0.936469 0.141242 0.351935
Si Si7 0.436293 0.904186 0.153423
Si Si8 0.064158 0.000000 0.151280
O O1 0.158181 0.500000 0.126667
O O2 0.205706 0.362033 0.193122
O O3 0.100968 0.391573 0.255870
O O4 0.130931 0.361549 0.000000
O O5 0.571396 0.777591 0.500000
O O6 0.500000 0.736556 0.311192
O O7 0.590726 0.661313 0.309553
O O8 0.586138 0.830272 0.253834
O O9 0.343136 0.395446 0.500000
O O10 0.374629 0.500000 0.304993
O O11 0.309506 0.363510 0.257416
O O12 0.265893 0.500000 0.166229
O O13 0.279406 0.630046 0.000000
O O14 0.933536 0.362445 0.500000
O O15 0.920312 0.238162 0.679437
O O16 0.000000 0.350061 0.705113
O O17 0.913786 0.113297 0.500000
O O18 0.913372 0.082437 0.231988
O O19 0.000000 0.132617 0.357727
O O20 0.500000 0.904383 0.161647
O O21 0.415536 0.000000 0.195416
O O22 0.417492 0.883331 0.000000
O O23 0.000000 0.000000 0.145351
O O24 0.088293 0.000000 0.000000
#
# Coordination Sequence:
#
# PCOD8201051 Si02
#       8
#     8   8   8   8   8   8   8   4
#     4   9  18  31  45  61  81 106 137 173 213 254
#     4   9  17  27  39  59  88 119 148 177 211 254
#     4   9  17  28  42  61  85 113 145 179 213 250
#     4   8  15  29  46  61  78 102 135 176 217 251
#     4   9  18  30  42  59  84 112 140 168 199 240
#     4   8  14  25  38  51  73 105 133 156 187 228
#     4   8  14  25  40  57  79 109 144 181 218 253
#     4   9  15  21  33  55  77  97 127 163 193 223
#
# _framework density 15.659882
#
# number of rings (size 3 to 8) (size 9 to 14) (size 15 to 20)
#    0.000    3.400    0.000    2.200    0.000    3.733 
#    0.000    6.667    0.000    0.000    0.000    3.733 
#    2.000    0.000    4.400    0.000    1.733    0.000 
#
# Total GULP energy -743369.611095 kJ/mol
# GULP energy per Si atom -12389.493518 kJ/mol
# Density = 1.562424 g / cm^3
# Si number density = 15.659882 Si / 1000 Ang^3
#
#
#
# Elastic Constant Matrix: (Units=GPa)
#
#
# Indices 1 2 3 4 5 6 
#
# 1 62.7021 29.4552 44.2683 0.0000 0.0000 0.0000
# 2 29.4552 61.8283 41.2584 0.0000 0.0000 0.0000
# 3 44.2683 41.2584 86.6713 0.0000 0.0000 0.0000
# 4 0.0000 0.0000 0.0000 21.2901 0.0000 0.0000
# 5 0.0000 0.0000 0.0000 0.0000 21.5014 0.0000
# 6 0.0000 0.0000 0.0000 0.0000 0.0000 2.1303
#
#
#
# Elastic Compliance Matrix: (Units=1/GPa)
#
#
# Indices 1 2 3 4 5 6 
#
# 1 0.026024 -0.005171 -0.010831 0.000000 0.000000 0.000000
# 2 -0.005171 0.024731 -0.009132 0.000000 0.000000 0.000000
# 3 -0.010831 -0.009132 0.021417 0.000000 0.000000 0.000000
# 4 0.000000 0.000000 0.000000 0.046970 0.000000 0.000000
# 5 0.000000 0.000000 0.000000 0.000000 0.046509 0.000000
# 6 0.000000 0.000000 0.000000 0.000000 0.000000 0.469413
#
#
# Mechanical properties :
#
#
# Convention : Reuss Voigt Hill
#
# Bulk Modulus (GPa) = 45.65054 49.01840 47.33447
# Shear Modulus (GPa) = 7.21885 15.39901 11.30893
#
# Velocity S-wave (km/s) = 2.14937 3.13923 2.69022
# Velocity P-wave (km/s) = 5.94763 6.67155 6.31996
#
# Compressibility (1/GPa) = 0.02190554
#
# Stress axis : x y z
#
# Youngs Moduli (GPa) = 38.42618 40.43543 46.69239
#
# Poissons Ratio (x) = 0.20907 0.50571
# Poissons Ratio (y) = 0.19868 0.42638
# Poissons Ratio (z) = 0.41618 0.36925
#
# Static dielectric constant tensor:
#      x y z
#    x 2.739040 0.000000 0.000000 
#    y 0.000000 3.033220 0.000000 
#    z 0.000000 0.000000 3.194430 
# 
# 
# High freq. dielectric constant tensor:
#      x y z
#    x 1.556570 0.000000 0.000000 
#    y 0.000000 1.584620 0.000000 
#    z 0.000000 0.000000 1.608660 
# 
# From -- ./inp_files/12875.got.cif
#   From: 2010.03.12/outbox.cif.g09.slc.cpg/sg47_7_cif.got.tgz:12875.got - 2010.04.14 03:12:58.
