data_PCOD8201987
_publ_section_title
;
Structure prediction by ZEFSAII (Michael W. Deem and Ramdas Pophale) SiO2 
 PCOD8201987
Probable space group: P N N N
;
_chemical_formula_sum "Si O2"
_cell_formula_units_Z 32
_cell_length_a 6.533126
_cell_length_b 13.317515
_cell_length_c 16.711616
_cell_angle_alpha 90.000000
_cell_angle_beta 90.000000
_cell_angle_gamma 90.000000
_cell_volume 1453.994209
_symmetry_space_group_name_H-M "P N N N"
_symmetry_group_IT_number 48
_space_group.IT_coordinate_system_code '2'
_symmetry_cell_setting 'orthorhombic'
loop_
_space_group_symop_operation_xyz
x,y,z
1/2-x,1/2-y,z
x,1/2-y,1/2-z
1/2-x,y,1/2-z
-x,-y,-z
1/2+x,1/2+y,-z
-x,1/2+y,1/2+z
1/2+x,-y,1/2+z
loop_
_atom_site_type_symbol
_atom_site_label
_atom_site_fract_x
_atom_site_fract_y
_atom_site_fract_z
Si Si1 0.750000 0.750000 0.971994
Si Si2 0.750000 0.250000 0.250000
Si Si3 0.592142 0.394380 0.980899
Si Si4 0.151195 0.564852 0.171823
Si Si5 0.565804 0.379527 0.385622
Si Si6 0.750000 0.250000 0.750000
O O1 0.576396 0.694371 0.024118
O O2 0.648031 0.836681 0.918155
O O3 0.612088 0.321085 0.304545
O O4 0.756673 0.365659 0.049223
O O5 0.500000 0.500000 0.000000
O O6 0.682008 0.408400 0.894096
O O7 0.250000 0.507895 0.250000
O O8 0.091024 0.677644 0.200851
O O9 0.967924 0.497937 0.135173
#
# Coordination Sequence:
#
# PCOD8201987 Si02
#       6
#     4   2   8   8   8   2
#     4  12  26  45  74 107 148 192 244 306 365 455
#     4  12  28  44  76 114 152 188 248 310 390 442
#     4  12  26  47  73 109 143 204 241 304 380 439
#     4  10  25  46  74 102 150 192 250 305 362 441
#     4  12  27  45  74 109 149 191 246 307 373 447
#     4   8  24  38  72 100 136 202 230 304 358 428
#
# _framework density 22.008341000000001
#
# number of rings (size 3 to 8) (size 9 to 14) (size 15 to 20)
#    0.750    0.000    5.000    0.750   10.500    0.000 
#    0.000    0.000    0.000    2.250    0.000    0.000 
#    0.000    0.000    0.000    0.000    0.000    0.000 
#
# Total GULP energy -396430.742834 kJ/mol
# GULP energy per Si atom -12388.460714 kJ/mol
# Density = 2.195825 g / cm^3
# Si number density = 22.008341 Si / 1000 Ang^3
#
#
#
# Elastic Constant Matrix: (Units=GPa)
#
#
# Indices 1 2 3 4 5 6 
#
# 1 109.0499 58.4024 61.4502 0.0000 0.0000 0.0000
# 2 58.4024 161.2905 45.3344 0.0000 0.0000 0.0000
# 3 61.4502 45.3344 157.2102 0.0000 0.0000 0.0000
# 4 0.0000 0.0000 0.0000 38.6996 0.0000 0.0000
# 5 0.0000 0.0000 0.0000 0.0000 7.4523 0.0000
# 6 0.0000 0.0000 0.0000 0.0000 0.0000 70.8837
#
#
#
# Elastic Compliance Matrix: (Units=1/GPa)
#
#
# Indices 1 2 3 4 5 6 
#
# 1 0.013538 -0.003716 -0.004220 0.000000 0.000000 0.000000
# 2 -0.003716 0.007767 -0.000787 0.000000 0.000000 0.000000
# 3 -0.004220 -0.000787 0.008238 0.000000 0.000000 0.000000
# 4 0.000000 0.000000 0.000000 0.025840 0.000000 0.000000
# 5 0.000000 0.000000 0.000000 0.000000 0.134187 0.000000
# 6 0.000000 0.000000 0.000000 0.000000 0.000000 0.014108
#
#
# Mechanical properties :
#
#
# Convention : Reuss Voigt Hill
#
# Bulk Modulus (GPa) = 82.67350 84.21384 83.44367
# Shear Modulus (GPa) = 22.20675 40.89801 31.55238
#
# Velocity S-wave (km/s) = 3.17995 4.31547 3.79047
# Velocity P-wave (km/s) = 7.15045 7.94850 7.56001
#
# Compressibility (1/GPa) = 0.01209577
#
# Stress axis : x y z
#
# Youngs Moduli (GPa) = 73.86405 128.75344 121.39539
#
# Poissons Ratio (x) = 0.47844 0.51233
# Poissons Ratio (y) = 0.27448 0.09556
# Poissons Ratio (z) = 0.31173 0.10135
#
# Static dielectric constant tensor:
#      x y z
#    x 5.200390 0.000000 0.000000 
#    y 0.000000 4.485830 0.000000 
#    z 0.000000 0.000000 3.976610 
# 
# 
# High freq. dielectric constant tensor:
#      x y z
#    x 1.836890 0.000000 0.000000 
#    y 0.000000 1.891210 0.000000 
#    z 0.000000 0.000000 1.877950 
# 
# From -- ./inp_files/3028.got.cif
#   From: 2010.06.25/outbox.cif.g09.slc.cpg/sg48_2_cif.got.tgz:3028.got - 2010.06.26 18:06:46.
