data_PCOD8201651
_publ_section_title
;
Structure prediction by ZEFSAII (Michael W. Deem and Ramdas Pophale) SiO2 
 PCOD8201651
Probable space group: P N N N
;
_chemical_formula_sum "Si O2"
_cell_formula_units_Z 48
_cell_length_a 11.462860
_cell_length_b 8.602662
_cell_length_c 21.052820
_cell_angle_alpha 90.000000
_cell_angle_beta 90.000000
_cell_angle_gamma 90.000000
_cell_volume 2076.041952
_symmetry_space_group_name_H-M "P N N N"
_symmetry_group_IT_number 48
_space_group.IT_coordinate_system_code '2'
_symmetry_cell_setting 'orthorhombic'
loop_
_space_group_symop_operation_xyz
x,y,z
1/2-x,1/2-y,z
x,1/2-y,1/2-z
1/2-x,y,1/2-z
-x,-y,-z
1/2+x,1/2+y,-z
-x,1/2+y,1/2+z
1/2+x,-y,1/2+z
loop_
_atom_site_type_symbol
_atom_site_label
_atom_site_fract_x
_atom_site_fract_y
_atom_site_fract_z
Si Si1 0.871320 0.819336 0.081526
Si Si2 0.082462 0.096445 0.205321
Si Si3 0.538836 0.651326 0.536804
Si Si4 0.129852 0.830651 0.879368
Si Si5 0.176449 0.432132 0.159734
Si Si6 0.937122 0.247873 0.819205
O O1 0.750000 0.750000 0.103756
O O2 0.967882 0.738457 0.125544
O O3 0.855770 0.003007 0.087979
O O4 0.901337 0.778155 0.008856
O O5 0.956981 0.151236 0.180453
O O6 0.197118 0.155221 0.167406
O O7 0.090934 0.132877 0.282066
O O8 0.117585 0.922022 0.183333
O O9 0.500000 0.500000 0.500000
O O10 0.422027 0.720206 0.566800
O O11 0.630717 0.609309 0.590904
O O12 0.250000 0.750000 0.855995
O O13 0.162625 0.619818 0.170436
O O14 0.001123 0.250000 0.750000
#
# Coordination Sequence:
#
# PCOD8201651 Si02
#       6
#     8   8   8   8   8   8
#     4  11  24  44  69 101 138 185 239 287 354 429
#     4   9  21  41  70 104 135 184 232 296 352 418
#     4  12  25  44  68 102 141 186 226 291 362 430
#     4  11  26  48  68 100 140 187 242 293 346 425
#     4  10  20  40  70 105 142 174 232 291 361 428
#     4   9  18  38  68 103 140 176 227 289 356 423
#
# _framework density 23.120918
#
# number of rings (size 3 to 8) (size 9 to 14) (size 15 to 20)
#    0.000    1.667    1.667    2.000    2.333    3.000 
#    6.000    3.333    3.667    0.000    0.000    0.000 
#    0.000    0.000    0.000    0.000    0.000    0.000 
#
# Total GULP energy -594684.171716 kJ/mol
# GULP energy per Si atom -12389.253577 kJ/mol
# Density = 2.306829 g / cm^3
# Si number density = 23.120918 Si / 1000 Ang^3
#
#
#
# Elastic Constant Matrix: (Units=GPa)
#
#
# Indices 1 2 3 4 5 6 
#
# 1 150.8060 52.8752 70.7466 0.0000 0.0000 0.0000
# 2 52.8752 110.2561 52.4252 0.0000 0.0000 0.0000
# 3 70.7466 52.4252 165.6524 0.0000 0.0000 0.0000
# 4 0.0000 0.0000 0.0000 43.7955 0.0000 0.0000
# 5 0.0000 0.0000 0.0000 0.0000 20.4622 0.0000
# 6 0.0000 0.0000 0.0000 0.0000 0.0000 43.3951
#
#
#
# Elastic Compliance Matrix: (Units=1/GPa)
#
#
# Indices 1 2 3 4 5 6 
#
# 1 0.009036 -0.002941 -0.002928 0.000000 0.000000 0.000000
# 2 -0.002941 0.011634 -0.002426 0.000000 0.000000 0.000000
# 3 -0.002928 -0.002426 0.008055 0.000000 0.000000 0.000000
# 4 0.000000 0.000000 0.000000 0.022833 0.000000 0.000000
# 5 0.000000 0.000000 0.000000 0.000000 0.048871 0.000000
# 6 0.000000 0.000000 0.000000 0.000000 0.000000 0.023044
#
#
# Mechanical properties :
#
#
# Convention : Reuss Voigt Hill
#
# Bulk Modulus (GPa) = 82.40939 86.53427 84.47183
# Shear Modulus (GPa) = 34.69631 38.24173 36.46902
#
# Velocity S-wave (km/s) = 3.87802 4.07134 3.97585
# Velocity P-wave (km/s) = 7.46808 7.72070 7.59544
#
# Compressibility (1/GPa) = 0.01213454
#
# Stress axis : x y z
#
# Youngs Moduli (GPa) = 110.66937 85.95804 124.14582
#
# Poissons Ratio (x) = 0.25280 0.36354
# Poissons Ratio (y) = 0.32547 0.30115
# Poissons Ratio (z) = 0.32407 0.20851
#
# Static dielectric constant tensor:
#      x y z
#    x 3.976300 0.000000 0.000000 
#    y 0.000000 4.596640 0.000000 
#    z 0.000000 0.000000 4.224070 
# 
# 
# High freq. dielectric constant tensor:
#      x y z
#    x 1.902950 0.000000 0.000000 
#    y 0.000000 1.973770 0.000000 
#    z 0.000000 0.000000 1.912980 
# 
# From -- ./inp_files/12970.got.cif
#   From: 2010.06.25/outbox.cif.g09.slc.cpg/sg48_7_cif.got.tgz:12970.got - 2010.06.26 18:06:46.
