data_PCOD8201326
_publ_section_title
;
Structure prediction by ZEFSAII (Michael W. Deem and Ramdas Pophale) SiO2 
 PCOD8201326
Probable space group: P N N N
;
_chemical_formula_sum "Si O2"
_cell_formula_units_Z 48
_cell_length_a 13.595105
_cell_length_b 20.162646
_cell_length_c 9.684669
_cell_angle_alpha 90.000000
_cell_angle_beta 90.000000
_cell_angle_gamma 90.000000
_cell_volume 2654.696477
_symmetry_space_group_name_H-M "P N N N"
_symmetry_group_IT_number 48
_space_group.IT_coordinate_system_code '2'
_symmetry_cell_setting 'orthorhombic'
loop_
_space_group_symop_operation_xyz
x,y,z
1/2-x,1/2-y,z
x,1/2-y,1/2-z
1/2-x,y,1/2-z
-x,-y,-z
1/2+x,1/2+y,-z
-x,1/2+y,1/2+z
1/2+x,-y,1/2+z
loop_
_atom_site_type_symbol
_atom_site_label
_atom_site_fract_x
_atom_site_fract_y
_atom_site_fract_z
Si Si1 0.583096 0.528284 0.397223
Si Si2 0.347011 0.452433 0.322807
Si Si3 0.135352 0.683520 0.024447
Si Si4 0.639044 0.165419 0.481480
Si Si5 0.446160 0.895867 0.787933
Si Si6 0.078811 0.593855 0.255651
O O1 0.500000 0.500000 0.500000
O O2 0.663741 0.555498 0.507654
O O3 0.616851 0.464735 0.305786
O O4 0.535422 0.582789 0.293240
O O5 0.250000 0.423131 0.250000
O O6 0.439269 0.411969 0.261286
O O7 0.357321 0.529318 0.280197
O O8 0.124327 0.657691 0.179924
O O9 0.243581 0.663901 0.972536
O O10 0.108469 0.760665 0.024025
O O11 0.057494 0.645951 0.928522
O O12 0.598261 0.148819 0.331460
O O13 0.589593 0.111227 0.583099
#
# Coordination Sequence:
#
# PCOD8201326 Si02
#       6
#     8   8   8   8   8   8
#     4   8  16  32  54  70  99 140 168 212 275 306
#     4  10  18  33  59  76  96 139 181 217 262 316
#     4  11  19  36  48  74 111 147 173 199 262 327
#     4  11  23  28  52  80 107 142 175 212 250 324
#     4  10  19  35  49  73 110 135 174 218 268 305
#     4  10  18  34  53  77 108 137 173 214 259 319
#
# _framework density 18.081163
#
# number of rings (size 3 to 8) (size 9 to 14) (size 15 to 20)
#    0.000    2.333    5.000    3.000    0.000    5.333 
#    0.000    0.000    0.000    2.000    0.000    0.000 
#    5.000    0.000    0.000    0.000    0.000    0.000 
#
# Total GULP energy -594809.396763 kJ/mol
# GULP energy per Si atom -12391.862433 kJ/mol
# Density = 1.804001 g / cm^3
# Si number density = 18.081163 Si / 1000 Ang^3
#
#
#
# Elastic Constant Matrix: (Units=GPa)
#
#
# Indices 1 2 3 4 5 6 
#
# 1 62.7527 22.4842 21.1304 0.0000 0.0000 0.0000
# 2 22.4842 72.1590 8.2782 0.0000 0.0000 0.0000
# 3 21.1304 8.2782 54.7242 0.0000 0.0000 0.0000
# 4 0.0000 0.0000 0.0000 25.4485 0.0000 0.0000
# 5 0.0000 0.0000 0.0000 0.0000 27.9211 0.0000
# 6 0.0000 0.0000 0.0000 0.0000 0.0000 22.7170
#
#
#
# Elastic Compliance Matrix: (Units=1/GPa)
#
#
# Indices 1 2 3 4 5 6 
#
# 1 0.020265 -0.005512 -0.006991 0.000000 0.000000 0.000000
# 2 -0.005512 0.015602 -0.000232 0.000000 0.000000 0.000000
# 3 -0.006991 -0.000232 0.021008 0.000000 0.000000 0.000000
# 4 0.000000 0.000000 0.000000 0.039295 0.000000 0.000000
# 5 0.000000 0.000000 0.000000 0.000000 0.035815 0.000000
# 6 0.000000 0.000000 0.000000 0.000000 0.000000 0.044020
#
#
# Mechanical properties :
#
#
# Convention : Reuss Voigt Hill
#
# Bulk Modulus (GPa) = 31.84192 32.60238 32.22215
# Shear Modulus (GPa) = 23.59122 24.40019 23.99571
#
# Velocity S-wave (km/s) = 3.61604 3.67751 3.64691
# Velocity P-wave (km/s) = 5.92310 6.00853 5.96597
#
# Compressibility (1/GPa) = 0.03140514
#
# Stress axis : x y z
#
# Youngs Moduli (GPa) = 49.34718 64.09242 47.60127
#
# Poissons Ratio (x) = 0.35330 0.33277
# Poissons Ratio (y) = 0.27202 0.01103
# Poissons Ratio (z) = 0.34498 0.01486
#
# Static dielectric constant tensor:
#      x y z
#    x 3.219750 0.000000 0.000000 
#    y 0.000000 3.323860 0.000000 
#    z 0.000000 0.000000 3.652940 
# 
# 
# High freq. dielectric constant tensor:
#      x y z
#    x 1.662600 0.000000 0.000000 
#    y 0.000000 1.688630 0.000000 
#    z 0.000000 0.000000 1.707230 
# 
# From -- ./inp_files/12959.got.cif
#   From: 2010.06.25/outbox.cif.g09.slc.cpg/sg48_7_cif.got.tgz:12959.got - 2010.06.26 18:06:46.
