data_PCOD8201903
_publ_section_title
;
Structure prediction by ZEFSAII (Michael W. Deem and Ramdas Pophale) SiO2 
 PCOD8201903
Probable space group: P N N N
;
_chemical_formula_sum "Si O2"
_cell_formula_units_Z 56
_cell_length_a 13.915585
_cell_length_b 11.983723
_cell_length_c 16.855473
_cell_angle_alpha 90.000000
_cell_angle_beta 90.000000
_cell_angle_gamma 90.000000
_cell_volume 2810.827375
_symmetry_space_group_name_H-M "P N N N"
_symmetry_group_IT_number 48
_space_group.IT_coordinate_system_code '2'
_symmetry_cell_setting 'orthorhombic'
loop_
_space_group_symop_operation_xyz
x,y,z
1/2-x,1/2-y,z
x,1/2-y,1/2-z
1/2-x,y,1/2-z
-x,-y,-z
1/2+x,1/2+y,-z
-x,1/2+y,1/2+z
1/2+x,-y,1/2+z
loop_
_atom_site_type_symbol
_atom_site_label
_atom_site_fract_x
_atom_site_fract_y
_atom_site_fract_z
Si Si1 0.990351 0.309934 0.165573
Si Si2 0.253218 0.933155 0.492673
Si Si3 0.680396 0.645399 0.572132
Si Si4 0.608070 0.537064 0.297514
Si Si5 0.817180 0.571123 0.362808
Si Si6 0.083063 0.210938 0.583879
Si Si7 0.898291 0.246560 0.490380
O O1 0.998967 0.250000 0.250000
O O2 0.923266 0.417034 0.173133
O O3 0.937855 0.231626 0.099724
O O4 0.096585 0.347290 0.137474
O O5 0.149513 0.877108 0.510840
O O6 0.325097 0.833919 0.470563
O O7 0.239374 0.027631 0.423629
O O8 0.311104 0.982827 0.567140
O O9 0.750000 0.750000 0.586013
O O10 0.637332 0.637822 0.483201
O O11 0.714988 0.571463 0.321306
O O12 0.600666 0.538989 0.201875
O O13 0.548371 0.634416 0.341931
O O14 0.842473 0.692750 0.394591
O O15 0.986713 0.260602 0.548850
#
# Coordination Sequence:
#
# PCOD8201903 Si02
#       7
#     8   8   8   8   8   8   8
#     4  11  23  41  59  87 122 159 206 242 307 362
#     4  11  20  40  58  93 119 155 207 247 310 355
#     4  11  21  39  64  84 116 161 204 254 288 351
#     4  11  21  36  59  91 123 161 185 247 306 369
#     4  11  21  34  60  90 122 154 191 243 304 364
#     4  11  20  38  59  90 120 157 205 242 300 365
#     4  10  23  37  62  87 121 160 199 256 300 361
#
# _framework density 19.922958999999999
#
# number of rings (size 3 to 8) (size 9 to 14) (size 15 to 20)
#    0.000    1.143    4.286    2.571    0.000    4.286 
#    2.571    0.000    0.000    0.000    0.000    2.000 
#    0.000    0.000    0.000    0.000    0.000    0.000 
#
# Total GULP energy -693892.691668 kJ/mol
# GULP energy per Si atom -12390.940923 kJ/mol
# Density = 1.987761 g / cm^3
# Si number density = 19.922959 Si / 1000 Ang^3
#
#
#
# Elastic Constant Matrix: (Units=GPa)
#
#
# Indices 1 2 3 4 5 6 
#
# 1 90.6127 51.7293 52.3490 0.0000 0.0000 0.0000
# 2 51.7293 123.4233 45.6709 0.0000 0.0000 0.0000
# 3 52.3490 45.6709 77.2450 0.0000 0.0000 0.0000
# 4 0.0000 0.0000 0.0000 14.7071 0.0000 0.0000
# 5 0.0000 0.0000 0.0000 0.0000 -2.5834 0.0000
# 6 0.0000 0.0000 0.0000 0.0000 0.0000 19.9308
#
#
#
# Elastic Compliance Matrix: (Units=1/GPa)
#
#
# Indices 1 2 3 4 5 6 
#
# 1 0.019740 -0.004254 -0.010863 0.000000 0.000000 0.000000
# 2 -0.004254 0.011288 -0.003791 0.000000 0.000000 0.000000
# 3 -0.010863 -0.003791 0.022549 0.000000 0.000000 0.000000
# 4 0.000000 0.000000 0.000000 0.067994 0.000000 0.000000
# 5 0.000000 0.000000 0.000000 0.000000 -0.387084 0.000000
# 6 0.000000 0.000000 0.000000 0.000000 0.000000 0.050174
#
#
# Mechanical properties :
#
#
# Convention : Reuss Voigt Hill
#
# Bulk Modulus (GPa) = 63.44565 65.64214 64.54390
# Shear Modulus (GPa) = -29.02433 15.84634 -6.58900
#
# Velocity S-wave (km/s) = -3.82098 2.82331 -1.82055
# Velocity P-wave (km/s) = 3.52818 6.60663 5.29602
#
# Compressibility (1/GPa) = 0.01576152
#
# Stress axis : x y z
#
# Youngs Moduli (GPa) = 50.65815 88.59013 44.34781
#
# Poissons Ratio (x) = 0.37685 0.48174
# Poissons Ratio (y) = 0.21550 0.16813
# Poissons Ratio (z) = 0.55029 0.33585
#
# Static dielectric constant tensor:
#      x y z
#    x 3.655750 0.000000 0.000000 
#    y 0.000000 3.614480 0.000000 
#    z 0.000000 0.000000 3.951120 
# 
# 
# High freq. dielectric constant tensor:
#      x y z
#    x 1.771080 0.000000 0.000000 
#    y 0.000000 1.783330 0.000000 
#    z 0.000000 0.000000 1.760880 
# 
# From -- ./inp_files/26529.got.cif
#   From: 2010.06.25/outbox.cif.g09.slc.cpg/sg48_14_cif.got.tgz:26529.got - 2010.06.26 18:06:46.
