data_PCOD8201132
_publ_section_title
;
Structure prediction by ZEFSAII (Michael W. Deem and Ramdas Pophale) SiO2 
 PCOD8201132
Probable space group: P M M M
;
_chemical_formula_sum "Si O2"
_cell_formula_units_Z 44
_cell_length_a 9.575013
_cell_length_b 9.487294
_cell_length_c 28.198556
_cell_angle_alpha 90.000000
_cell_angle_beta 90.000000
_cell_angle_gamma 90.000000
_cell_volume 2561.583993
_symmetry_space_group_name_H-M "P M M M"
_symmetry_group_IT_number 47
_symmetry_cell_setting 'orthorhombic'
loop_
_space_group_symop_operation_xyz
x,y,z
-x,-y,z
x,-y,-z
-x,y,-z
-x,-y,-z
x,y,-z
-x,y,z
x,-y,z
loop_
_atom_site_type_symbol
_atom_site_label
_atom_site_fract_x
_atom_site_fract_y
_atom_site_fract_z
Si Si1 0.338199 0.163244 0.770343
Si Si2 0.838788 0.162769 0.680502
Si Si3 0.161048 0.664780 0.588490
Si Si4 0.337893 0.663901 0.861255
Si Si5 0.843057 0.667480 0.052231
Si Si6 0.658490 0.667498 0.500000
O O1 0.500000 0.192646 0.759572
O O2 0.251473 0.214754 0.724989
O O3 0.285696 0.252394 0.815210
O O4 0.309590 0.000000 0.781429
O O5 0.792184 0.253308 0.635400
O O6 0.000000 0.188923 0.693054
O O7 0.808777 0.000000 0.668779
O O8 0.184078 0.500000 0.597767
O O9 0.258859 0.721609 0.546219
O O10 0.000000 0.696622 0.575257
O O11 0.500000 0.690564 0.870698
O O12 0.304238 0.500000 0.852946
O O13 0.258234 0.726660 0.907030
O O14 0.837214 0.500000 0.052416
O O15 0.000000 0.719633 0.062894
O O16 0.795466 0.721977 0.000000
O O17 0.657847 0.500000 0.500000
O O18 0.500000 0.726843 0.500000
#
# Coordination Sequence:
#
# PCOD8201132 Si02
#       6
#     8   8   8   8   8   4
#     4   9  18  32  47  62  85 118 148 174 213 263
#     4   9  18  32  48  66  88 114 146 182 217 255
#     4   9  17  30  48  68  90 117 147 178 214 256
#     4   9  17  28  43  65  89 111 141 181 217 250
#     4   8  14  25  41  62  88 115 141 172 214 260
#     4   9  17  29  46  69  94 118 146 179 214 254
#
# _framework density 17.176870999999998
#
# number of rings (size 3 to 8) (size 9 to 14) (size 15 to 20)
#    0.000    3.182    0.000    0.818    0.000    3.636 
#    0.000    2.273    0.000    3.273    0.000    3.818 
#    0.000    0.000    0.000    0.000    0.000    0.000 
#
# Total GULP energy -545543.757765 kJ/mol
# GULP energy per Si atom -12398.721767 kJ/mol
# Density = 1.713778 g / cm^3
# Si number density = 17.176871 Si / 1000 Ang^3
#
#
#
# Elastic Constant Matrix: (Units=GPa)
#
#
# Indices 1 2 3 4 5 6 
#
# 1 86.2820 31.9145 95.3189 0.0000 0.0000 0.0000
# 2 31.9145 36.4095 56.0483 0.0000 0.0000 0.0000
# 3 95.3189 56.0483 194.5310 0.0000 0.0000 0.0000
# 4 0.0000 0.0000 0.0000 3.3669 0.0000 0.0000
# 5 0.0000 0.0000 0.0000 0.0000 37.4501 0.0000
# 6 0.0000 0.0000 0.0000 0.0000 0.0000 15.3133
#
#
#
# Elastic Compliance Matrix: (Units=1/GPa)
#
#
# Indices 1 2 3 4 5 6 
#
# 1 0.025908 -0.005692 -0.011055 0.000000 0.000000 0.000000
# 2 -0.005692 0.050607 -0.011792 0.000000 0.000000 0.000000
# 3 -0.011055 -0.011792 0.013955 0.000000 0.000000 0.000000
# 4 0.000000 0.000000 0.000000 0.297008 0.000000 0.000000
# 5 0.000000 0.000000 0.000000 0.000000 0.026702 0.000000
# 6 0.000000 0.000000 0.000000 0.000000 0.000000 0.065303
#
#
# Mechanical properties :
#
#
# Convention : Reuss Voigt Hill
#
# Bulk Modulus (GPa) = 29.94678 75.97620 52.96149
# Shear Modulus (GPa) = 9.12924 20.15544 14.64234
#
# Velocity S-wave (km/s) = 2.30790 3.42922 2.92283
# Velocity P-wave (km/s) = 4.95722 7.74642 6.50312
#
# Compressibility (1/GPa) = 0.03339257
#
# Stress axis : x y z
#
# Youngs Moduli (GPa) = 38.59846 19.76019 71.65991
#
# Poissons Ratio (x) = 0.11247 0.79218
# Poissons Ratio (y) = 0.21969 0.84501
# Poissons Ratio (z) = 0.42670 0.23301
#
# Static dielectric constant tensor:
#      x y z
#    x 3.270910 0.000000 0.000000 
#    y 0.000000 2.907820 0.000000 
#    z 0.000000 0.000000 3.443210 
# 
# 
# High freq. dielectric constant tensor:
#      x y z
#    x 1.661110 0.000000 0.000000 
#    y 0.000000 1.627520 0.000000 
#    z 0.000000 0.000000 1.672700 
# 
# From -- ./inp_files/2070.got.cif
#   From: 2010.03.12/outbox.cif.g09.slc.cpg/sg47_2_cif.got.tgz:2070.got - 2010.04.14 03:12:58.
