data_PCOD8201989
_publ_section_title
;
Structure prediction by ZEFSAII (Michael W. Deem and Ramdas Pophale) SiO2 
 PCOD8201989
Probable space group: P N N N
;
_chemical_formula_sum "Si O2"
_cell_formula_units_Z 38
_cell_length_a 12.772776
_cell_length_b 5.407884
_cell_length_c 27.095861
_cell_angle_alpha 90.000000
_cell_angle_beta 90.000000
_cell_angle_gamma 90.000000
_cell_volume 1871.611129
_symmetry_space_group_name_H-M "P N N N"
_symmetry_group_IT_number 48
_space_group.IT_coordinate_system_code '2'
_symmetry_cell_setting 'orthorhombic'
loop_
_space_group_symop_operation_xyz
x,y,z
1/2-x,1/2-y,z
x,1/2-y,1/2-z
1/2-x,y,1/2-z
-x,-y,-z
1/2+x,1/2+y,-z
-x,1/2+y,1/2+z
1/2+x,-y,1/2+z
loop_
_atom_site_type_symbol
_atom_site_label
_atom_site_fract_x
_atom_site_fract_y
_atom_site_fract_z
Si Si1 0.628137 0.196045 0.084769
Si Si2 0.250000 0.250000 0.250000
Si Si3 0.136060 0.631734 0.027177
Si Si4 0.518592 0.706362 0.108825
Si Si5 0.836941 0.436469 0.668980
Si Si6 0.750000 0.750000 0.582378
O O1 0.750000 0.250000 0.089559
O O2 0.576626 0.444478 0.105458
O O3 0.594231 0.947265 0.114603
O O4 0.593913 0.134611 0.028596
O O5 0.163259 0.377508 0.285226
O O6 0.250000 0.750000 0.029967
O O7 0.155386 0.355087 0.048360
O O8 0.052233 0.772125 0.060209
O O9 0.448326 0.696154 0.158921
O O10 0.750000 0.250000 0.687321
O O11 0.803550 0.546257 0.616407
#
# Coordination Sequence:
#
# PCOD8201989 Si02
#       6
#     8   2   8   8   8   4
#     4  11  27  39  57  84 132 176 237 274 295 336
#     4  10  26  40  68  98 146 144 190 248 354 414
#     4  11  22  34  57  87 128 174 223 268 312 370
#     4  12  22  41  62  89 122 177 219 261 323 374
#     4  11  22  40  64  96 132 162 195 257 332 419
#     4  11  18  35  58  86 134 172 210 247 320 379
#
# _framework density 20.303363000000001
#
# number of rings (size 3 to 8) (size 9 to 14) (size 15 to 20)
#    0.000    0.842    4.211    3.474    8.842    0.000 
#    0.000    0.000    0.000    0.000    0.000    0.737 
#    0.000    0.000    0.000    0.000    0.000    0.000 
#
# Total GULP energy -470895.950095 kJ/mol
# GULP energy per Si atom -12391.998687 kJ/mol
# Density = 2.025715 g / cm^3
# Si number density = 20.303363 Si / 1000 Ang^3
#
#
#
# Elastic Constant Matrix: (Units=GPa)
#
#
# Indices 1 2 3 4 5 6 
#
# 1 77.4902 39.9353 47.0912 0.0000 0.0000 0.0000
# 2 39.9353 134.3821 44.2389 0.0000 0.0000 0.0000
# 3 47.0912 44.2389 88.7375 0.0000 0.0000 0.0000
# 4 0.0000 0.0000 0.0000 -3.8236 0.0000 0.0000
# 5 0.0000 0.0000 0.0000 0.0000 44.7449 0.0000
# 6 0.0000 0.0000 0.0000 0.0000 0.0000 43.5235
#
#
#
# Elastic Compliance Matrix: (Units=1/GPa)
#
#
# Indices 1 2 3 4 5 6 
#
# 1 0.019965 -0.002925 -0.009137 0.000000 0.000000 0.000000
# 2 -0.002925 0.009331 -0.003100 0.000000 0.000000 0.000000
# 3 -0.009137 -0.003100 0.017663 0.000000 0.000000 0.000000
# 4 0.000000 0.000000 0.000000 -0.261535 0.000000 0.000000
# 5 0.000000 0.000000 0.000000 0.000000 0.022349 0.000000
# 6 0.000000 0.000000 0.000000 0.000000 0.000000 0.022976
#
#
# Mechanical properties :
#
#
# Convention : Reuss Voigt Hill
#
# Bulk Modulus (GPa) = 60.10987 62.57118 61.34052
# Shear Modulus (GPa) = -37.48600 28.17858 -4.65371
#
# Velocity S-wave (km/s) = -4.30151 3.72946 -1.51561
# Velocity P-wave (km/s) = 2.23594 7.03066 5.21678
#
# Compressibility (1/GPa) = 0.01663620
#
# Stress axis : x y z
#
# Youngs Moduli (GPa) = 50.08828 107.16769 56.61555
#
# Poissons Ratio (x) = 0.31350 0.51727
# Poissons Ratio (y) = 0.14652 0.17548
# Poissons Ratio (z) = 0.45763 0.33217
#
# Static dielectric constant tensor:
#      x y z
#    x 4.004940 0.000000 0.000000 
#    y 0.000000 4.205610 0.000000 
#    z 0.000000 0.000000 3.452130 
# 
# 
# High freq. dielectric constant tensor:
#      x y z
#    x 1.789480 0.000000 0.000000 
#    y 0.000000 1.814100 0.000000 
#    z 0.000000 0.000000 1.755810 
# 
# From -- ./inp_files/2452.got.cif
#   From: 2010.06.25/outbox.cif.g09.slc.cpg/sg48_2_cif.got.tgz:2452.got - 2010.06.26 18:06:46.
