data_PCOD8201683
_publ_section_title
;
Structure prediction by ZEFSAII (Michael W. Deem and Ramdas Pophale) SiO2 
 PCOD8201683
Probable space group: P N N N
;
_chemical_formula_sum "Si O2"
_cell_formula_units_Z 42
_cell_length_a 17.730461
_cell_length_b 19.870125
_cell_length_c 6.295012
_cell_angle_alpha 90.000000
_cell_angle_beta 90.000000
_cell_angle_gamma 90.000000
_cell_volume 2217.773496
_symmetry_space_group_name_H-M "P N N N"
_symmetry_group_IT_number 48
_space_group.IT_coordinate_system_code '2'
_symmetry_cell_setting 'orthorhombic'
loop_
_space_group_symop_operation_xyz
x,y,z
1/2-x,1/2-y,z
x,1/2-y,1/2-z
1/2-x,y,1/2-z
-x,-y,-z
1/2+x,1/2+y,-z
-x,1/2+y,1/2+z
1/2+x,-y,1/2+z
loop_
_atom_site_type_symbol
_atom_site_label
_atom_site_fract_x
_atom_site_fract_y
_atom_site_fract_z
Si Si1 0.995942 0.820029 0.304417
Si Si2 0.079774 0.612731 0.577975
Si Si3 0.661108 0.030338 0.758149
Si Si4 0.750000 0.250000 0.750000
Si Si5 0.541828 0.563747 0.591395
Si Si6 0.360238 0.838047 0.978087
O O1 0.951030 0.750000 0.250000
O O2 0.060731 0.801411 0.474066
O O3 0.944493 0.878696 0.409381
O O4 0.041769 0.841728 0.097950
O O5 0.127595 0.552457 0.470597
O O6 0.141231 0.655143 0.720274
O O7 0.010189 0.587997 0.717487
O O8 0.750000 0.018970 0.750000
O O9 0.623601 0.959017 0.822978
O O10 0.638924 0.085953 0.932406
O O11 0.706071 0.297191 0.587334
O O12 0.500000 0.500000 0.500000
#
# Coordination Sequence:
#
# PCOD8201683 Si02
#       6
#     8   8   8   2   8   8
#     4  10  21  38  55  84 116 146 206 246 280 353
#     4  10  21  38  61  80 115 162 192 240 293 340
#     4  11  22  38  53  88 121 145 198 252 290 352
#     4  12  20  40  46  76 130 168 196 238 276 364
#     4  11  20  37  62  85 115 154 198 244 294 348
#     4  10  21  35  54  77 116 162 199 231 280 344
#
# _framework density 18.937912000000001
#
# number of rings (size 3 to 8) (size 9 to 14) (size 15 to 20)
#    0.000    1.524    7.619    0.571    0.000    3.810 
#    0.000    5.714    0.000    0.000    0.000    4.000 
#    0.000    0.000    0.000    0.000    0.000    0.000 
#
# Total GULP energy -520315.778132 kJ/mol
# GULP energy per Si atom -12388.470908 kJ/mol
# Density = 1.889481 g / cm^3
# Si number density = 18.937912 Si / 1000 Ang^3
#
#
#
# Elastic Constant Matrix: (Units=GPa)
#
#
# Indices 1 2 3 4 5 6 
#
# 1 70.9898 44.9596 35.1128 0.0000 0.0000 0.0000
# 2 44.9596 126.0564 54.7044 0.0000 0.0000 0.0000
# 3 35.1128 54.7044 122.2593 0.0000 0.0000 0.0000
# 4 0.0000 0.0000 0.0000 22.7376 0.0000 0.0000
# 5 0.0000 0.0000 0.0000 0.0000 19.9530 0.0000
# 6 0.0000 0.0000 0.0000 0.0000 0.0000 24.2872
#
#
#
# Elastic Compliance Matrix: (Units=1/GPa)
#
#
# Indices 1 2 3 4 5 6 
#
# 1 0.019054 -0.005486 -0.003017 0.000000 0.000000 0.000000
# 2 -0.005486 0.011424 -0.003536 0.000000 0.000000 0.000000
# 3 -0.003017 -0.003536 0.010628 0.000000 0.000000 0.000000
# 4 0.000000 0.000000 0.000000 0.043980 0.000000 0.000000
# 5 0.000000 0.000000 0.000000 0.000000 0.050118 0.000000
# 6 0.000000 0.000000 0.000000 0.000000 0.000000 0.041174
#
#
# Mechanical properties :
#
#
# Convention : Reuss Voigt Hill
#
# Bulk Modulus (GPa) = 58.73188 65.42877 62.08032
# Shear Modulus (GPa) = 24.25623 25.69748 24.97685
#
# Velocity S-wave (km/s) = 3.58275 3.68765 3.63558
# Velocity P-wave (km/s) = 6.94226 7.26332 7.10460
#
# Compressibility (1/GPa) = 0.01702653
#
# Stress axis : x y z
#
# Youngs Moduli (GPa) = 52.48370 87.53322 94.09001
#
# Poissons Ratio (x) = 0.48023 0.28390
# Poissons Ratio (y) = 0.28794 0.33271
# Poissons Ratio (z) = 0.15836 0.30952
#
# Static dielectric constant tensor:
#      x y z
#    x 3.127030 0.000000 0.000000 
#    y 0.000000 3.642920 0.000000 
#    z 0.000000 0.000000 3.731420 
# 
# 
# High freq. dielectric constant tensor:
#      x y z
#    x 1.692630 0.000000 0.000000 
#    y 0.000000 1.729700 0.000000 
#    z 0.000000 0.000000 1.755540 
# 
# From -- ./inp_files/4419.got.cif
#   From: 2010.06.25/outbox.cif.g09.slc.cpg/sg48_3_cif.got.tgz:4419.got - 2010.06.26 18:06:46.
