data_PCOD8201386
_publ_section_title
;
Structure prediction by ZEFSAII (Michael W. Deem and Ramdas Pophale) SiO2 
 PCOD8201386
Probable space group: P N N N
;
_chemical_formula_sum "Si O2"
_cell_formula_units_Z 52
_cell_length_a 14.686299
_cell_length_b 17.149661
_cell_length_c 11.698509
_cell_angle_alpha 90.000000
_cell_angle_beta 90.000000
_cell_angle_gamma 90.000000
_cell_volume 2946.445545
_symmetry_space_group_name_H-M "P N N N"
_symmetry_group_IT_number 48
_space_group.IT_coordinate_system_code '2'
_symmetry_cell_setting 'orthorhombic'
loop_
_space_group_symop_operation_xyz
x,y,z
1/2-x,1/2-y,z
x,1/2-y,1/2-z
1/2-x,y,1/2-z
-x,-y,-z
1/2+x,1/2+y,-z
-x,1/2+y,1/2+z
1/2+x,-y,1/2+z
loop_
_atom_site_type_symbol
_atom_site_label
_atom_site_fract_x
_atom_site_fract_y
_atom_site_fract_z
Si Si1 0.945435 0.894575 0.927075
Si Si2 0.171283 0.815297 0.550992
Si Si3 0.250000 0.916376 0.750000
Si Si4 0.154472 0.403690 0.200342
Si Si5 0.026179 0.271934 0.121299
Si Si6 0.275087 0.936180 0.122864
Si Si7 0.630343 0.026831 0.439845
O O1 0.903944 0.928846 0.810099
O O2 0.925448 0.802391 0.938742
O O3 0.905480 0.939347 0.037411
O O4 0.052548 0.909458 0.920843
O O5 0.250000 0.750000 0.535742
O O6 0.190359 0.862480 0.666977
O O7 0.165806 0.870174 0.439245
O O8 0.068458 0.784815 0.556463
O O9 0.311449 0.974490 0.675580
O O10 0.250000 0.368579 0.250000
O O11 0.099138 0.342794 0.120413
O O12 0.172149 0.480950 0.125218
O O13 0.000996 0.250000 0.250000
O O14 0.250000 0.908372 0.250000
O O15 0.183872 0.944017 0.050089
#
# Coordination Sequence:
#
# PCOD8201386 Si02
#       7
#     8   8   4   8   8   8   8
#     4  10  19  33  56  80 107 143 186 228 277 337
#     4  11  21  35  57  83 115 142 181 241 288 336
#     4  10  19  32  56  82 107 138 180 230 279 322
#     4  10  19  36  55  84 114 145 189 234 280 340
#     4  10  20  32  53  85 112 141 183 239 293 324
#     4  10  20  37  56  81 113 149 185 225 286 349
#     4  10  19  34  56  82 107 145 185 229 277 338
#
# _framework density 17.648382999999999
#
# number of rings (size 3 to 8) (size 9 to 14) (size 15 to 20)
#    0.000    1.846    3.077    4.846    0.000    3.692 
#    0.000    0.000    0.000    0.000    0.000    6.462 
#    0.000    0.000    0.000    0.000    0.000    0.000 
#
# Total GULP energy -644517.283402 kJ/mol
# GULP energy per Si atom -12394.563142 kJ/mol
# Density = 1.760821 g / cm^3
# Si number density = 17.648383 Si / 1000 Ang^3
#
#
#
# Elastic Constant Matrix: (Units=GPa)
#
#
# Indices 1 2 3 4 5 6 
#
# 1 104.2496 45.8969 38.4223 0.0000 0.0000 0.0000
# 2 45.8969 104.8626 44.4725 0.0000 0.0000 0.0000
# 3 38.4223 44.4725 95.3681 0.0000 0.0000 0.0000
# 4 0.0000 0.0000 0.0000 27.6897 0.0000 0.0000
# 5 0.0000 0.0000 0.0000 0.0000 30.1581 0.0000
# 6 0.0000 0.0000 0.0000 0.0000 0.0000 28.3596
#
#
#
# Elastic Compliance Matrix: (Units=1/GPa)
#
#
# Indices 1 2 3 4 5 6 
#
# 1 0.012584 -0.004186 -0.003118 0.000000 0.000000 0.000000
# 2 -0.004186 0.013279 -0.004506 0.000000 0.000000 0.000000
# 3 -0.003118 -0.004506 0.013843 0.000000 0.000000 0.000000
# 4 0.000000 0.000000 0.000000 0.036115 0.000000 0.000000
# 5 0.000000 0.000000 0.000000 0.000000 0.033159 0.000000
# 6 0.000000 0.000000 0.000000 0.000000 0.000000 0.035261
#
#
# Mechanical properties :
#
#
# Convention : Reuss Voigt Hill
#
# Bulk Modulus (GPa) = 62.16166 62.45154 62.30660
# Shear Modulus (GPa) = 28.86439 28.95405 28.90922
#
# Velocity S-wave (km/s) = 4.04855 4.05483 4.05169
# Velocity P-wave (km/s) = 7.55997 7.57533 7.56765
#
# Compressibility (1/GPa) = 0.01608709
#
# Stress axis : x y z
#
# Youngs Moduli (GPa) = 79.46384 75.30505 72.23712
#
# Poissons Ratio (x) = 0.31519 0.22525
# Poissons Ratio (y) = 0.33260 0.32551
# Poissons Ratio (z) = 0.24778 0.33934
#
# Static dielectric constant tensor:
#      x y z
#    x 3.376450 0.000000 0.000000 
#    y 0.000000 3.444020 0.000000 
#    z 0.000000 0.000000 3.270930 
# 
# 
# High freq. dielectric constant tensor:
#      x y z
#    x 1.689700 0.000000 0.000000 
#    y 0.000000 1.680960 0.000000 
#    z 0.000000 0.000000 1.662980 
# 
# From -- ./inp_files/21497.got.cif
#   From: 2010.06.25/outbox.cif.g09.slc.cpg/sg48_11_cif.got.tgz:21497.got - 2010.06.26 18:06:46.
