data_PCOD8201106
_publ_section_title
;
Structure prediction by ZEFSAII (Michael W. Deem and Ramdas Pophale) SiO2 
 PCOD8201106
Probable space group: P M M M
;
_chemical_formula_sum "Si O2"
_cell_formula_units_Z 36
_cell_length_a 9.320246
_cell_length_b 9.438168
_cell_length_c 23.399990
_cell_angle_alpha 90.000000
_cell_angle_beta 90.000000
_cell_angle_gamma 90.000000
_cell_volume 2058.404633
_symmetry_space_group_name_H-M "P M M M"
_symmetry_group_IT_number 47
_symmetry_cell_setting 'orthorhombic'
loop_
_space_group_symop_operation_xyz
x,y,z
-x,-y,z
x,-y,-z
-x,y,-z
-x,-y,-z
x,y,-z
-x,y,z
x,-y,z
loop_
_atom_site_type_symbol
_atom_site_label
_atom_site_fract_x
_atom_site_fract_y
_atom_site_fract_z
Si Si1 0.832443 0.663259 0.829708
Si Si2 0.338305 0.331621 0.062580
Si Si3 0.836856 0.169050 0.500000
Si Si4 0.166251 0.165288 0.719609
Si Si5 0.337448 0.168548 0.390956
O O1 0.789394 0.500000 0.819939
O O2 0.759293 0.728711 0.886400
O O3 0.779201 0.750857 0.775062
O O4 0.000000 0.681978 0.838969
O O5 0.500000 0.278839 0.072946
O O6 0.331448 0.500000 0.063283
O O7 0.284437 0.277858 0.000000
O O8 0.752912 0.227447 0.555414
O O9 0.000000 0.227206 0.500000
O O10 0.838966 0.000000 0.500000
O O11 0.260107 0.220932 0.666630
O O12 0.000000 0.197518 0.706060
O O13 0.191189 0.000000 0.731013
O O14 0.500000 0.227865 0.393205
O O15 0.339006 0.000000 0.393019
#
# Coordination Sequence:
#
# PCOD8201106 Si02
#       5
#     8   8   4   8   8
#     4   9  17  28  43  64  86 107 136 174 209 241
#     4   8  14  25  41  61  84 108 134 167 208 250
#     4   9  15  23  37  57  82 111 140 171 210 252
#     4   9  17  29  43  59  83 114 142 167 202 249
#     4   9  16  25  38  58  83 109 139 175 210 243
#
# _framework density 17.489272
#
# number of rings (size 3 to 8) (size 9 to 14) (size 15 to 20)
#    0.000    3.222    0.000    1.667    0.000    5.333 
#    0.000    2.222    0.000    0.667    0.000    5.444 
#    0.000    6.222    0.000    0.000    0.000    0.000 
#
# Total GULP energy -446252.842974 kJ/mol
# GULP energy per Si atom -12395.912305 kJ/mol
# Density = 1.744947 g / cm^3
# Si number density = 17.489272 Si / 1000 Ang^3
#
#
#
# Elastic Constant Matrix: (Units=GPa)
#
#
# Indices 1 2 3 4 5 6 
#
# 1 107.2943 20.1108 96.8234 0.0000 0.0000 0.0000
# 2 20.1108 18.7696 34.4731 0.0000 0.0000 0.0000
# 3 96.8234 34.4731 206.1772 0.0000 0.0000 0.0000
# 4 0.0000 0.0000 0.0000 10.4068 0.0000 0.0000
# 5 0.0000 0.0000 0.0000 0.0000 36.5618 0.0000
# 6 0.0000 0.0000 0.0000 0.0000 0.0000 9.7652
#
#
#
# Elastic Compliance Matrix: (Units=1/GPa)
#
#
# Indices 1 2 3 4 5 6 
#
# 1 0.016490 -0.004973 -0.006913 0.000000 0.000000 0.000000
# 2 -0.004973 0.078389 -0.010772 0.000000 0.000000 0.000000
# 3 -0.006913 -0.010772 0.009897 0.000000 0.000000 0.000000
# 4 0.000000 0.000000 0.000000 0.096091 0.000000 0.000000
# 5 0.000000 0.000000 0.000000 0.000000 0.027351 0.000000
# 6 0.000000 0.000000 0.000000 0.000000 0.000000 0.102404
#
#
# Mechanical properties :
#
#
# Convention : Reuss Voigt Hill
#
# Bulk Modulus (GPa) = 16.81709 70.56176 43.68943
# Shear Modulus (GPa) = 12.63398 23.40233 18.01816
#
# Velocity S-wave (km/s) = 2.69064 3.66197 3.21322
# Velocity P-wave (km/s) = 4.39195 7.63632 6.22907
#
# Compressibility (1/GPa) = 0.05946330
#
# Stress axis : x y z
#
# Youngs Moduli (GPa) = 60.64215 12.75687 101.03600
#
# Poissons Ratio (x) = 0.06343 0.69842
# Poissons Ratio (y) = 0.30155 1.08832
# Poissons Ratio (z) = 0.41919 0.13741
#
# Static dielectric constant tensor:
#      x y z
#    x 3.356620 0.000000 0.000000 
#    y 0.000000 2.668920 0.000000 
#    z 0.000000 0.000000 3.645280 
# 
# 
# High freq. dielectric constant tensor:
#      x y z
#    x 1.677940 0.000000 0.000000 
#    y 0.000000 1.603800 0.000000 
#    z 0.000000 0.000000 1.694680 
# 
# From -- ./inp_files/1387.got.cif
#   From: 2010.03.12/outbox.cif.g09.slc.cpg/sg47_1_cif.got.tgz:1387.got - 2010.04.14 03:12:58.
