data_PCOD8201269
_publ_section_title
;
Structure prediction by ZEFSAII (Michael W. Deem and Ramdas Pophale) SiO2 
 PCOD8201269
Probable space group: P N N N
;
_chemical_formula_sum "Si O2"
_cell_formula_units_Z 52
_cell_length_a 10.428095
_cell_length_b 30.398449
_cell_length_c 8.565104
_cell_angle_alpha 90.000000
_cell_angle_beta 90.000000
_cell_angle_gamma 90.000000
_cell_volume 2715.120101
_symmetry_space_group_name_H-M "P N N N"
_symmetry_group_IT_number 48
_space_group.IT_coordinate_system_code '2'
_symmetry_cell_setting 'orthorhombic'
loop_
_space_group_symop_operation_xyz
x,y,z
1/2-x,1/2-y,z
x,1/2-y,1/2-z
1/2-x,y,1/2-z
-x,-y,-z
1/2+x,1/2+y,-z
-x,1/2+y,1/2+z
1/2+x,-y,1/2+z
loop_
_atom_site_type_symbol
_atom_site_label
_atom_site_fract_x
_atom_site_fract_y
_atom_site_fract_z
Si Si1 0.636280 0.960148 0.870745
Si Si2 0.250000 0.250000 0.250000
Si Si3 0.984263 0.610056 0.074505
Si Si4 0.829983 0.813461 0.494986
Si Si5 0.750000 0.750000 0.250000
Si Si6 0.487616 0.546892 0.922999
Si Si7 0.721413 0.445330 0.568445
Si Si8 0.147721 0.111760 0.878008
O O1 0.750000 0.950234 0.750000
O O2 0.506787 0.958444 0.763529
O O3 0.655419 0.006960 0.957783
O O4 0.625936 0.923583 0.006644
O O5 0.167122 0.216534 0.352230
O O6 0.974925 0.618424 0.261891
O O7 0.122497 0.592964 0.023946
O O8 0.956386 0.656521 0.990875
O O9 0.844122 0.780199 0.351437
O O10 0.702468 0.844092 0.463491
O O11 0.500000 0.500000 0.000000
O O12 0.344906 0.563968 0.960780
O O13 0.602017 0.577369 0.991186
O O14 0.750000 0.442024 0.750000
O O15 0.250000 0.093998 0.750000
#
# Coordination Sequence:
#
# PCOD8201269 Si02
#       8
#     8   2   8   8   2   8   8   8
#     4  11  22  36  56  81 120 160 213 258 300 344
#     4  10  24  38  64  94 130 142 180 262 334 370
#     4  11  21  37  56  83 118 158 200 245 301 366
#     4  10  21  36  61  92 122 147 185 245 316 374
#     4  10  16  38  56  94 114 142 184 242 318 374
#     4  12  22  37  54  81 122 167 211 258 292 348
#     4  11  22  37  54  80 121 169 215 253 287 347
#     4  10  20  35  57  83 116 157 193 244 303 354
#
# _framework density 19.152007999999999
#
# number of rings (size 3 to 8) (size 9 to 14) (size 15 to 20)
#    0.000    1.231    6.923    2.308    3.231    0.615 
#    0.000    0.000    0.000    0.000    0.000   11.308 
#    0.000    0.000    0.000    0.000    0.000    0.000 
#
# Total GULP energy -644184.639516 kJ/mol
# GULP energy per Si atom -12388.166145 kJ/mol
# Density = 1.910842 g / cm^3
# Si number density = 19.152008 Si / 1000 Ang^3
#
#
#
# Elastic Constant Matrix: (Units=GPa)
#
#
# Indices 1 2 3 4 5 6 
#
# 1 89.8624 41.4128 12.9773 0.0000 0.0000 0.0000
# 2 41.4128 135.5381 46.2689 0.0000 0.0000 0.0000
# 3 12.9773 46.2689 83.4205 0.0000 0.0000 0.0000
# 4 0.0000 0.0000 0.0000 51.3610 0.0000 0.0000
# 5 0.0000 0.0000 0.0000 0.0000 19.4741 0.0000
# 6 0.0000 0.0000 0.0000 0.0000 0.0000 27.3787
#
#
#
# Elastic Compliance Matrix: (Units=1/GPa)
#
#
# Indices 1 2 3 4 5 6 
#
# 1 0.012955 -0.004034 0.000222 0.000000 0.000000 0.000000
# 2 -0.004034 0.010357 -0.005117 0.000000 0.000000 0.000000
# 3 0.000222 -0.005117 0.014791 0.000000 0.000000 0.000000
# 4 0.000000 0.000000 0.000000 0.019470 0.000000 0.000000
# 5 0.000000 0.000000 0.000000 0.000000 0.051350 0.000000
# 6 0.000000 0.000000 0.000000 0.000000 0.000000 0.036525
#
#
# Mechanical properties :
#
#
# Convention : Reuss Voigt Hill
#
# Bulk Modulus (GPa) = 49.39390 56.68211 53.03800
# Shear Modulus (GPa) = 29.40214 33.52022 31.46118
#
# Velocity S-wave (km/s) = 3.92241 4.18810 4.05743
# Velocity P-wave (km/s) = 6.80883 7.28334 7.05008
#
# Compressibility (1/GPa) = 0.02024541
#
# Stress axis : x y z
#
# Youngs Moduli (GPa) = 77.18906 96.54844 67.60817
#
# Poissons Ratio (x) = 0.38950 -0.01502
# Poissons Ratio (y) = 0.31140 0.34596
# Poissons Ratio (z) = -0.01715 0.49405
#
# Static dielectric constant tensor:
#      x y z
#    x 4.011560 0.000000 0.000000 
#    y 0.000000 3.572790 0.000000 
#    z 0.000000 0.000000 4.269870 
# 
# 
# High freq. dielectric constant tensor:
#      x y z
#    x 1.719300 0.000000 0.000000 
#    y 0.000000 1.727990 0.000000 
#    z 0.000000 0.000000 1.758960 
# 
# From -- ./inp_files/11518.got.cif
#   From: 2010.06.25/outbox.cif.g09.slc.cpg/sg48_6_cif.got.tgz:11518.got - 2010.06.26 18:06:46.
