data_PCOD8201721
_publ_section_title
;
Structure prediction by ZEFSAII (Michael W. Deem and Ramdas Pophale) SiO2 
 PCOD8201721
Probable space group: P N N N
;
_chemical_formula_sum "Si O2"
_cell_formula_units_Z 64
_cell_length_a 24.010762
_cell_length_b 15.030137
_cell_length_c 7.820859
_cell_angle_alpha 90.000000
_cell_angle_beta 90.000000
_cell_angle_gamma 90.000000
_cell_volume 2822.431031
_symmetry_space_group_name_H-M "P N N N"
_symmetry_group_IT_number 48
_space_group.IT_coordinate_system_code '2'
_symmetry_cell_setting 'orthorhombic'
loop_
_space_group_symop_operation_xyz
x,y,z
1/2-x,1/2-y,z
x,1/2-y,1/2-z
1/2-x,y,1/2-z
-x,-y,-z
1/2+x,1/2+y,-z
-x,1/2+y,1/2+z
1/2+x,-y,1/2+z
loop_
_atom_site_type_symbol
_atom_site_label
_atom_site_fract_x
_atom_site_fract_y
_atom_site_fract_z
Si Si1 0.935137 0.077076 0.494700
Si Si2 0.052161 0.386424 0.884145
Si Si3 0.950968 0.789335 0.928193
Si Si4 0.773449 0.024206 0.077975
Si Si5 0.684937 0.120859 0.881456
Si Si6 0.063490 0.872966 0.905234
Si Si7 0.675970 0.308582 0.995556
Si Si8 0.110596 0.057973 0.963718
O O1 0.879000 0.108144 0.580219
O O2 0.941748 0.112190 0.299384
O O3 0.984424 0.113747 0.616664
O O4 0.932367 0.969705 0.504533
O O5 0.085007 0.397946 0.707709
O O6 0.071213 0.289817 0.951578
O O7 0.969090 0.750000 0.750000
O O8 0.007226 0.838057 0.994115
O O9 0.903866 0.865512 0.898646
O O10 0.750000 0.980457 0.250000
O O11 0.823108 0.957883 0.022827
O O12 0.723386 0.037576 0.939886
O O13 0.797738 0.122328 0.131948
O O14 0.703058 0.210781 0.985133
O O15 0.690378 0.137251 0.679833
O O16 0.079235 0.965484 0.998371
O O17 0.110790 0.800344 0.955298
#
# Coordination Sequence:
#
# PCOD8201721 Si02
#       8
#     8   8   8   8   8   8   8   8
#     4  10  21  38  62  95 132 174 212 262 320 401
#     4  10  21  38  60  90 131 167 219 264 326 391
#     4  12  23  38  64  97 132 173 215 273 323 392
#     4  11  23  43  65  88 120 171 223 276 324 388
#     4  11  22  38  62  94 133 172 219 261 331 394
#     4  10  21  40  60  96 140 175 214 253 325 402
#     4  10  23  36  60  98 134 171 210 265 324 403
#     4  10  24  42  63  91 130 174 220 268 334 397
#
# _framework density 22.675487
#
# number of rings (size 3 to 8) (size 9 to 14) (size 15 to 20)
#    0.000    1.500    1.250    4.500    1.750    5.000 
#    0.000    1.250    0.000    5.250    0.000    3.500 
#    0.000    0.000    0.000    0.000    0.000    0.000 
#
# Total GULP energy -792974.177713 kJ/mol
# GULP energy per Si atom -12390.221527 kJ/mol
# Density = 2.262388 g / cm^3
# Si number density = 22.675487 Si / 1000 Ang^3
#
#
#
# Elastic Constant Matrix: (Units=GPa)
#
#
# Indices 1 2 3 4 5 6 
#
# 1 93.6006 22.5123 23.9168 0.0000 0.0000 0.0000
# 2 22.5123 90.8151 24.7447 0.0000 0.0000 0.0000
# 3 23.9168 24.7447 41.8759 0.0000 0.0000 0.0000
# 4 0.0000 0.0000 0.0000 29.1809 0.0000 0.0000
# 5 0.0000 0.0000 0.0000 0.0000 34.5948 0.0000
# 6 0.0000 0.0000 0.0000 0.0000 0.0000 28.7755
#
#
#
# Elastic Compliance Matrix: (Units=1/GPa)
#
#
# Indices 1 2 3 4 5 6 
#
# 1 0.012655 -0.001392 -0.006405 0.000000 0.000000 0.000000
# 2 -0.001392 0.013278 -0.007051 0.000000 0.000000 0.000000
# 3 -0.006405 -0.007051 0.031705 0.000000 0.000000 0.000000
# 4 0.000000 0.000000 0.000000 0.034269 0.000000 0.000000
# 5 0.000000 0.000000 0.000000 0.000000 0.028906 0.000000
# 6 0.000000 0.000000 0.000000 0.000000 0.000000 0.034752
#
#
# Mechanical properties :
#
#
# Convention : Reuss Voigt Hill
#
# Bulk Modulus (GPa) = 35.78917 40.95993 38.37455
# Shear Modulus (GPa) = 25.69711 28.85141 27.27426
#
# Velocity S-wave (km/s) = 3.37004 3.57089 3.47192
# Velocity P-wave (km/s) = 5.56420 5.92490 5.74738
#
# Compressibility (1/GPa) = 0.02794141
#
# Stress axis : x y z
#
# Youngs Moduli (GPa) = 79.01926 75.31495 31.54096
#
# Poissons Ratio (x) = 0.10482 0.20203
# Poissons Ratio (y) = 0.10998 0.22239
# Poissons Ratio (z) = 0.50615 0.53104
#
# Static dielectric constant tensor:
#      x y z
#    x 4.194060 0.000000 0.000000 
#    y 0.000000 4.460130 0.000000 
#    z 0.000000 0.000000 4.042710 
# 
# 
# High freq. dielectric constant tensor:
#      x y z
#    x 1.895930 0.000000 0.000000 
#    y 0.000000 1.884410 0.000000 
#    z 0.000000 0.000000 1.880280 
# 
# From -- ./inp_files/16038.got.cif
#   From: 2010.06.25/outbox.cif.g09.slc.cpg/sg48_9_cif.got.tgz:16038.got - 2010.06.26 18:06:46.
