data_PCOD8201176
_publ_section_title
;
Structure prediction by ZEFSAII (Michael W. Deem and Ramdas Pophale) SiO2 
 PCOD8201176
Probable space group: P M M M
;
_chemical_formula_sum "Si O2"
_cell_formula_units_Z 36
_cell_length_a 21.806199
_cell_length_b 9.438332
_cell_length_c 10.056176
_cell_angle_alpha 90.000000
_cell_angle_beta 90.000000
_cell_angle_gamma 90.000000
_cell_volume 2069.703274
_symmetry_space_group_name_H-M "P M M M"
_symmetry_group_IT_number 47
_symmetry_cell_setting 'orthorhombic'
loop_
_space_group_symop_operation_xyz
x,y,z
-x,-y,z
x,-y,-z
-x,y,-z
-x,-y,-z
x,y,-z
-x,y,z
x,-y,z
loop_
_atom_site_type_symbol
_atom_site_label
_atom_site_fract_x
_atom_site_fract_y
_atom_site_fract_z
Si Si1 0.107768 0.666931 0.847572
Si Si2 0.771865 0.838058 0.154503
Si Si3 0.430237 0.830787 0.500000
Si Si4 0.642443 0.168627 0.752040
Si Si5 0.000000 0.668068 0.346628
Si Si6 0.568622 0.830618 0.000000
O O1 0.117270 0.500000 0.836508
O O2 0.170890 0.741176 0.807578
O O3 0.058410 0.720773 0.739070
O O4 0.088094 0.706675 0.000000
O O5 0.713532 0.783431 0.239726
O O6 0.788640 0.000000 0.189637
O O7 0.754162 0.824630 0.000000
O O8 0.500000 0.772013 0.500000
O O9 0.391736 0.771104 0.623454
O O10 0.432385 0.000000 0.500000
O O11 0.640834 0.000000 0.755529
O O12 0.603986 0.231010 0.873709
O O13 0.000000 0.500000 0.352805
O O14 0.000000 0.727669 0.500000
O O15 0.500000 0.770318 0.000000
O O16 0.567962 0.000000 0.000000
#
# Coordination Sequence:
#
# PCOD8201176 Si02
#       6
#     8   8   4   8   4   4
#     4   9  17  30  50  72  91 114 148 184 216 255
#     4   9  16  28  45  65  91 121 149 178 218 265
#     4   9  16  24  34  52  81 114 145 180 222 263
#     4   9  15  24  36  53  80 113 145 177 216 260
#     4   9  17  31  50  71  94 118 144 181 224 258
#     4   9  14  20  34  54  75 104 143 182 216 253
#
# _framework density 17.393796999999999
#
# number of rings (size 3 to 8) (size 9 to 14) (size 15 to 20)
#    0.000    3.000    1.111    1.000    0.000    4.000 
#    2.000    0.556    0.000    3.333    0.000    0.000 
#    0.000    5.333    0.000    0.000    0.000    0.000 
#
# Total GULP energy -446154.065418 kJ/mol
# GULP energy per Si atom -12393.168484 kJ/mol
# Density = 1.735421 g / cm^3
# Si number density = 17.393797 Si / 1000 Ang^3
#
#
#
# Elastic Constant Matrix: (Units=GPa)
#
#
# Indices 1 2 3 4 5 6 
#
# 1 176.6508 29.4478 96.6359 0.0000 0.0000 0.0000
# 2 29.4478 15.8692 17.5645 0.0000 0.0000 0.0000
# 3 96.6359 17.5645 145.7862 0.0000 0.0000 0.0000
# 4 0.0000 0.0000 0.0000 8.0397 0.0000 0.0000
# 5 0.0000 0.0000 0.0000 0.0000 34.3331 0.0000
# 6 0.0000 0.0000 0.0000 0.0000 0.0000 -3.9216
#
#
#
# Elastic Compliance Matrix: (Units=1/GPa)
#
#
# Indices 1 2 3 4 5 6 
#
# 1 0.011168 -0.014458 -0.005661 0.000000 0.000000 0.000000
# 2 -0.014458 0.091429 -0.001432 0.000000 0.000000 0.000000
# 3 -0.005661 -0.001432 0.010784 0.000000 0.000000 0.000000
# 4 0.000000 0.000000 0.000000 0.124382 0.000000 0.000000
# 5 0.000000 0.000000 0.000000 0.000000 0.029126 0.000000
# 6 0.000000 0.000000 0.000000 0.000000 0.000000 -0.254998
#
#
# Mechanical properties :
#
#
# Convention : Reuss Voigt Hill
#
# Bulk Modulus (GPa) = 14.22885 69.51139 41.87012
# Shear Modulus (GPa) = 63.76029 20.66745 42.21387
#
# Velocity S-wave (km/s) = 6.06106 3.45078 4.93175
# Velocity P-wave (km/s) = 7.56176 7.47845 7.52022
#
# Compressibility (1/GPa) = 0.07027976
#
# Stress axis : x y z
#
# Youngs Moduli (GPa) = 89.54388 10.93745 92.72875
#
# Poissons Ratio (x) = 0.15813 0.52491
# Poissons Ratio (y) = 1.29462 0.13277
# Poissons Ratio (z) = 0.50688 0.01566
#
# Static dielectric constant tensor:
#      x y z
#    x 3.402100 0.000000 0.000000 
#    y 0.000000 2.616800 0.000000 
#    z 0.000000 0.000000 3.437980 
# 
# 
# High freq. dielectric constant tensor:
#      x y z
#    x 1.687820 0.000000 0.000000 
#    y 0.000000 1.600160 0.000000 
#    z 0.000000 0.000000 1.670200 
# 
# From -- ./inp_files/3981.got.cif
#   From: 2010.03.12/outbox.cif.g09.slc.cpg/sg47_2_cif.got.tgz:3981.got - 2010.04.14 03:12:58.
