data_PCOD8201091
_publ_section_title
;
Structure prediction by ZEFSAII (Michael W. Deem and Ramdas Pophale) SiO2 
 PCOD8201091
Probable space group: P M M M
;
_chemical_formula_sum "Si O2"
_cell_formula_units_Z 36
_cell_length_a 7.834697
_cell_length_b 9.303401
_cell_length_c 25.388187
_cell_angle_alpha 90.000000
_cell_angle_beta 90.000000
_cell_angle_gamma 90.000000
_cell_volume 1850.527887
_symmetry_space_group_name_H-M "P M M M"
_symmetry_group_IT_number 47
_symmetry_cell_setting 'orthorhombic'
loop_
_space_group_symop_operation_xyz
x,y,z
-x,-y,z
x,-y,-z
-x,y,-z
-x,-y,-z
x,y,-z
-x,y,z
x,-y,z
loop_
_atom_site_type_symbol
_atom_site_label
_atom_site_fract_x
_atom_site_fract_y
_atom_site_fract_z
Si Si1 0.304275 0.331288 0.366925
Si Si2 0.800604 0.666984 0.056354
Si Si3 0.297903 0.160253 0.736911
Si Si4 0.000000 0.670120 0.558602
Si Si5 0.696466 0.340057 0.833001
O O1 0.500000 0.293685 0.383372
O O2 0.286222 0.500000 0.355419
O O3 0.246347 0.249033 0.314595
O O4 0.173802 0.279735 0.412308
O O5 0.753521 0.500000 0.055398
O O6 0.716585 0.733765 0.109039
O O7 0.000000 0.692908 0.060667
O O8 0.735006 0.733591 0.000000
O O9 0.500000 0.150675 0.741943
O O10 0.218718 0.239682 0.788301
O O11 0.219704 0.000000 0.733419
O O12 0.000000 0.500000 0.554924
O O13 0.000000 0.737830 0.500000
O O14 0.500000 0.356237 0.819010
O O15 0.781626 0.500000 0.832036
#
# Coordination Sequence:
#
# PCOD8201091 Si02
#       5
#     8   8   8   4   8
#     4   9  17  31  52  75 100 132 166 199 238 284
#     4   8  14  25  40  59  85 115 146 183 229 280
#     4   9  17  30  48  68  93 125 157 193 239 287
#     4   9  18  32  51  79 109 131 160 203 242 279
#     4   9  16  26  43  67  91 114 146 191 237 281
#
# _framework density 19.45391
#
# number of rings (size 3 to 8) (size 9 to 14) (size 15 to 20)
#    0.000    3.222    0.000    1.333    0.000    3.556 
#    2.000    5.000    0.000    2.000    0.000    7.778 
#    0.000    0.000    0.000    0.000    0.000    0.000 
#
# Total GULP energy -445993.616384 kJ/mol
# GULP energy per Si atom -12388.711566 kJ/mol
# Density = 1.940963 g / cm^3
# Si number density = 19.453910 Si / 1000 Ang^3
#
#
#
# Elastic Constant Matrix: (Units=GPa)
#
#
# Indices 1 2 3 4 5 6 
#
# 1 55.8258 18.7114 55.8651 0.0000 0.0000 0.0000
# 2 18.7114 63.5993 63.4248 0.0000 0.0000 0.0000
# 3 55.8651 63.4248 207.3135 0.0000 0.0000 0.0000
# 4 0.0000 0.0000 0.0000 3.7469 0.0000 0.0000
# 5 0.0000 0.0000 0.0000 0.0000 17.2950 0.0000
# 6 0.0000 0.0000 0.0000 0.0000 0.0000 6.2852
#
#
#
# Elastic Compliance Matrix: (Units=1/GPa)
#
#
# Indices 1 2 3 4 5 6 
#
# 1 0.024563 -0.000900 -0.006343 0.000000 0.000000 0.000000
# 2 -0.000900 0.022660 -0.006690 0.000000 0.000000 0.000000
# 3 -0.006343 -0.006690 0.008580 0.000000 0.000000 0.000000
# 4 0.000000 0.000000 0.000000 0.266889 0.000000 0.000000
# 5 0.000000 0.000000 0.000000 0.000000 0.057820 0.000000
# 6 0.000000 0.000000 0.000000 0.000000 0.000000 0.159103
#
#
# Mechanical properties :
#
#
# Convention : Reuss Voigt Hill
#
# Bulk Modulus (GPa) = 35.79788 66.97123 51.38456
# Shear Modulus (GPa) = 8.66861 18.04791 13.35826
#
# Velocity S-wave (km/s) = 2.11321 3.04916 2.62327
# Velocity P-wave (km/s) = 4.93918 6.84813 5.97044
#
# Compressibility (1/GPa) = 0.02793461
#
# Stress axis : x y z
#
# Youngs Moduli (GPa) = 40.71238 44.13088 116.55488
#
# Poissons Ratio (x) = 0.03974 0.73936
# Poissons Ratio (y) = 0.03666 0.77973
# Poissons Ratio (z) = 0.25826 0.29523
#
# Static dielectric constant tensor:
#      x y z
#    x 3.290620 0.000000 0.000000 
#    y 0.000000 3.330690 0.000000 
#    z 0.000000 0.000000 3.932560 
# 
# 
# High freq. dielectric constant tensor:
#      x y z
#    x 1.735920 0.000000 0.000000 
#    y 0.000000 1.703080 0.000000 
#    z 0.000000 0.000000 1.771460 
# 
# From -- ./inp_files/1426.got.cif
#   From: 2010.03.12/outbox.cif.g09.slc.cpg/sg47_1_cif.got.tgz:1426.got - 2010.04.14 03:12:58.
