data_PCOD8201802
_publ_section_title
;
Structure prediction by ZEFSAII (Michael W. Deem and Ramdas Pophale) SiO2 
 PCOD8201802
Probable space group: P N N N
;
_chemical_formula_sum "Si O2"
_cell_formula_units_Z 38
_cell_length_a 27.744543
_cell_length_b 13.411044
_cell_length_c 4.916601
_cell_angle_alpha 90.000000
_cell_angle_beta 90.000000
_cell_angle_gamma 90.000000
_cell_volume 1829.385061
_symmetry_space_group_name_H-M "P N N N"
_symmetry_group_IT_number 48
_space_group.IT_coordinate_system_code '2'
_symmetry_cell_setting 'orthorhombic'
loop_
_space_group_symop_operation_xyz
x,y,z
1/2-x,1/2-y,z
x,1/2-y,1/2-z
1/2-x,y,1/2-z
-x,-y,-z
1/2+x,1/2+y,-z
-x,1/2+y,1/2+z
1/2+x,-y,1/2+z
loop_
_atom_site_type_symbol
_atom_site_label
_atom_site_fract_x
_atom_site_fract_y
_atom_site_fract_z
Si Si1 0.750000 0.122201 0.750000
Si Si2 0.012819 0.867030 0.775991
Si Si3 0.334913 0.021658 0.182031
Si Si4 0.305393 0.135520 0.695649
Si Si5 0.940612 0.461496 0.783501
Si Si6 0.250000 0.750000 0.750000
O O1 0.725416 0.179598 0.485048
O O2 0.705527 0.061203 0.865287
O O3 0.001891 0.750000 0.750000
O O4 0.053653 0.906876 0.571778
O O5 0.032632 0.888840 0.074641
O O6 0.963483 0.927528 0.718781
O O7 0.317431 0.107062 0.388099
O O8 0.384256 0.971265 0.279603
O O9 0.341223 0.074012 0.890686
O O10 0.315784 0.250000 0.750000
O O11 0.250000 0.107685 0.750000
#
# Coordination Sequence:
#
# PCOD8201802 Si02
#       6
#     4   8   8   8   8   2
#     4  11  22  42  61  82 124 168 191 264 292 353
#     4  10  21  43  65  87 124 155 195 256 314 358
#     4  12  22  41  63  89 126 164 200 246 305 350
#     4  11  22  37  59  88 124 165 203 241 290 358
#     4  10  23  40  63  95 119 156 205 250 299 376
#     4  10  24  42  56  82 114 166 220 242 296 342
#
# _framework density 20.772006000000001
#
# number of rings (size 3 to 8) (size 9 to 14) (size 15 to 20)
#    0.000    1.263    2.105    3.789    0.000    3.368 
#   11.368    0.000    0.000    0.000    0.000    0.000 
#    0.000    0.000    0.000    0.000    0.000    0.000 
#
# Total GULP energy -470877.498085 kJ/mol
# GULP energy per Si atom -12391.513107 kJ/mol
# Density = 2.072473 g / cm^3
# Si number density = 20.772006 Si / 1000 Ang^3
#
#
#
# Elastic Constant Matrix: (Units=GPa)
#
#
# Indices 1 2 3 4 5 6 
#
# 1 96.2626 37.6483 4.6147 0.0000 0.0000 0.0000
# 2 37.6483 136.7647 35.7678 0.0000 0.0000 0.0000
# 3 4.6147 35.7678 102.2163 0.0000 0.0000 0.0000
# 4 0.0000 0.0000 0.0000 31.5081 0.0000 0.0000
# 5 0.0000 0.0000 0.0000 0.0000 23.4463 0.0000
# 6 0.0000 0.0000 0.0000 0.0000 0.0000 11.8079
#
#
#
# Elastic Compliance Matrix: (Units=1/GPa)
#
#
# Indices 1 2 3 4 5 6 
#
# 1 0.011682 -0.003388 0.000658 0.000000 0.000000 0.000000
# 2 -0.003388 0.009031 -0.003007 0.000000 0.000000 0.000000
# 3 0.000658 -0.003007 0.010806 0.000000 0.000000 0.000000
# 4 0.000000 0.000000 0.000000 0.031738 0.000000 0.000000
# 5 0.000000 0.000000 0.000000 0.000000 0.042651 0.000000
# 6 0.000000 0.000000 0.000000 0.000000 0.000000 0.084689
#
#
# Mechanical properties :
#
#
# Convention : Reuss Voigt Hill
#
# Bulk Modulus (GPa) = 49.88895 54.58946 52.23921
# Shear Modulus (GPa) = 23.95193 30.49998 27.22596
#
# Velocity S-wave (km/s) = 3.39940 3.83603 3.62429
# Velocity P-wave (km/s) = 6.28311 6.77919 6.53586
#
# Compressibility (1/GPa) = 0.02004452
#
# Stress axis : x y z
#
# Youngs Moduli (GPa) = 85.60418 110.73120 92.54340
#
# Poissons Ratio (x) = 0.37514 -0.06090
# Poissons Ratio (y) = 0.29001 0.27829
# Poissons Ratio (z) = -0.05634 0.33299
#
# Static dielectric constant tensor:
#      x y z
#    x 3.417250 0.000000 0.000000 
#    y 0.000000 3.874880 0.000000 
#    z 0.000000 0.000000 4.034260 
# 
# 
# High freq. dielectric constant tensor:
#      x y z
#    x 1.781470 0.000000 0.000000 
#    y 0.000000 1.822580 0.000000 
#    z 0.000000 0.000000 1.836540 
# 
# From -- ./inp_files/6309.got.cif
#   From: 2010.06.25/outbox.cif.g09.slc.cpg/sg48_4_cif.got.tgz:6309.got - 2010.06.26 18:06:46.
