data_PCOD8201185
_publ_section_title
;
Structure prediction by ZEFSAII (Michael W. Deem and Ramdas Pophale) SiO2 
 PCOD8201185
Probable space group: P M M M
;
_chemical_formula_sum "Si O2"
_cell_formula_units_Z 40
_cell_length_a 12.580200
_cell_length_b 9.165959
_cell_length_c 22.959815
_cell_angle_alpha 90.000000
_cell_angle_beta 90.000000
_cell_angle_gamma 90.000000
_cell_volume 2647.487024
_symmetry_space_group_name_H-M "P M M M"
_symmetry_group_IT_number 47
_symmetry_cell_setting 'orthorhombic'
loop_
_space_group_symop_operation_xyz
x,y,z
-x,-y,z
x,-y,-z
-x,y,-z
-x,-y,-z
x,y,-z
-x,y,z
x,-y,z
loop_
_atom_site_type_symbol
_atom_site_label
_atom_site_fract_x
_atom_site_fract_y
_atom_site_fract_z
Si Si1 0.626494 0.164662 0.274463
Si Si2 0.378454 0.330395 0.160305
Si Si3 0.626670 0.165221 0.500000
Si Si4 0.793279 0.669903 0.933551
Si Si5 0.373220 0.334821 0.613187
Si Si6 0.000000 0.164534 0.930748
O O1 0.500000 0.165639 0.276550
O O2 0.665813 0.240423 0.215209
O O3 0.671583 0.254098 0.329512
O O4 0.670682 0.000000 0.276947
O O5 0.500000 0.288849 0.145793
O O6 0.368217 0.500000 0.176267
O O7 0.309828 0.288267 0.103945
O O8 0.500000 0.163890 0.500000
O O9 0.669877 0.248941 0.443169
O O10 0.670577 0.000000 0.500000
O O11 0.820405 0.500000 0.929291
O O12 0.894509 0.755327 0.907643
O O13 0.768479 0.715760 0.000000
O O14 0.500000 0.335268 0.613491
O O15 0.329609 0.500000 0.611903
O O16 0.000000 0.000000 0.907091
O O17 0.000000 0.171313 0.000000
#
# Coordination Sequence:
#
# PCOD8201185 Si02
#       6
#     8   8   4   8   8   4
#     4   9  16  25  36  49  67  94 127 160 193 230
#     4   9  17  28  41  58  80 105 133 164 198 238
#     4   9  15  21  29  43  63  85 113 152 195 234
#     4   9  17  29  45  63  82 104 130 162 200 241
#     4   9  15  22  32  45  62  86 118 156 195 231
#     4   9  17  29  45  63  81 101 127 160 197 238
#
# _framework density 15.108667000000001
#
# number of rings (size 3 to 8) (size 9 to 14) (size 15 to 20)
#    0.000    3.000    0.000    1.800    0.000    8.400 
#    0.000    2.000    0.000    0.000    0.000    5.600 
#    0.000    0.000    0.000    0.000    0.000    1.000 
#
# Total GULP energy -495936.880801 kJ/mol
# GULP energy per Si atom -12398.422020 kJ/mol
# Density = 1.507428 g / cm^3
# Si number density = 15.108667 Si / 1000 Ang^3
#
#
#
# Elastic Constant Matrix: (Units=GPa)
#
#
# Indices 1 2 3 4 5 6 
#
# 1 46.8317 32.4886 39.4502 0.0000 0.0000 0.0000
# 2 32.4886 111.8461 65.9452 0.0000 0.0000 0.0000
# 3 39.4502 65.9452 117.0981 0.0000 0.0000 0.0000
# 4 0.0000 0.0000 0.0000 24.4352 0.0000 0.0000
# 5 0.0000 0.0000 0.0000 0.0000 1.0993 0.0000
# 6 0.0000 0.0000 0.0000 0.0000 0.0000 10.3194
#
#
#
# Elastic Compliance Matrix: (Units=1/GPa)
#
#
# Indices 1 2 3 4 5 6 
#
# 1 0.031125 -0.004279 -0.008076 0.000000 0.000000 0.000000
# 2 -0.004279 0.013974 -0.006428 0.000000 0.000000 0.000000
# 3 -0.008076 -0.006428 0.014881 0.000000 0.000000 0.000000
# 4 0.000000 0.000000 0.000000 0.040925 0.000000 0.000000
# 5 0.000000 0.000000 0.000000 0.000000 0.909633 0.000000
# 6 0.000000 0.000000 0.000000 0.000000 0.000000 0.096905
#
#
# Mechanical properties :
#
#
# Convention : Reuss Voigt Hill
#
# Bulk Modulus (GPa) = 44.61713 61.28267 52.94990
# Shear Modulus (GPa) = 4.33847 16.36357 10.35102
#
# Velocity S-wave (km/s) = 1.69639 3.29456 2.62029
# Velocity P-wave (km/s) = 5.78203 7.42438 6.65407
#
# Compressibility (1/GPa) = 0.02241292
#
# Stress axis : x y z
#
# Youngs Moduli (GPa) = 32.12867 71.56260 67.20199
#
# Poissons Ratio (x) = 0.30624 0.54272
# Poissons Ratio (y) = 0.13749 0.43196
# Poissons Ratio (z) = 0.25947 0.45999
#
# Static dielectric constant tensor:
#      x y z
#    x 2.419790 0.000000 0.000000 
#    y 0.000000 3.090770 0.000000 
#    z 0.000000 0.000000 2.978670 
# 
# 
# High freq. dielectric constant tensor:
#      x y z
#    x 1.505570 0.000000 0.000000 
#    y 0.000000 1.592850 0.000000 
#    z 0.000000 0.000000 1.578940 
# 
# From -- ./inp_files/4087.got.cif
#   From: 2010.03.12/outbox.cif.g09.slc.cpg/sg47_3_cif.got.tgz:4087.got - 2010.04.14 03:12:58.
