data_PCOD8201004
_publ_section_title
;
Structure prediction by ZEFSAII (Michael W. Deem and Ramdas Pophale) SiO2 
 PCOD8201004
Probable space group: P M M M
;
_chemical_formula_sum "Si O2"
_cell_formula_units_Z 52
_cell_length_a 19.641105
_cell_length_b 13.694038
_cell_length_c 13.569338
_cell_angle_alpha 90.000000
_cell_angle_beta 90.000000
_cell_angle_gamma 90.000000
_cell_volume 3649.691083
_symmetry_space_group_name_H-M "P M M M"
_symmetry_group_IT_number 47
_symmetry_cell_setting 'orthorhombic'
loop_
_space_group_symop_operation_xyz
x,y,z
-x,-y,z
x,-y,-z
-x,y,-z
-x,-y,-z
x,y,-z
-x,y,z
x,-y,z
loop_
_atom_site_type_symbol
_atom_site_label
_atom_site_fract_x
_atom_site_fract_y
_atom_site_fract_z
Si Si1 0.794096 0.107441 0.616641
Si Si2 0.843834 0.386660 0.299087
Si Si3 0.075897 0.778802 0.383853
Si Si4 0.229906 0.384778 0.892462
Si Si5 0.285864 0.705282 0.385703
Si Si6 0.363873 0.615743 0.218174
Si Si7 0.500000 0.616029 0.111466
O O1 0.796424 0.101069 0.500000
O O2 0.868708 0.142537 0.654012
O O3 0.736156 0.184989 0.647802
O O4 0.778408 0.000000 0.661695
O O5 0.862696 0.500000 0.305399
O O6 0.908928 0.325862 0.334409
O O7 0.826523 0.352855 0.187100
O O8 0.778131 0.366487 0.367776
O O9 0.082143 0.764021 0.500000
O O10 0.000000 0.813355 0.353909
O O11 0.229479 0.500000 0.901330
O O12 0.304670 0.352333 0.857021
O O13 0.214543 0.337754 0.000000
O O14 0.306766 0.701734 0.500000
O O15 0.350849 0.670493 0.322185
O O16 0.364289 0.500000 0.237647
O O17 0.434199 0.653037 0.171174
O O18 0.500000 0.500000 0.105220
O O19 0.500000 0.658623 0.000000
#
# Coordination Sequence:
#
# PCOD8201004 Si02
#       7
#     8   8   8   8   8   8   4
#     4   8  14  25  40  56  73  94 121 154 192 228
#     4   9  16  24  35  51  72 100 130 157 185 219
#     4   9  17  26  35  51  75 100 125 152 182 221
#     4   8  13  22  36  52  69  91 122 159 193 217
#     4   9  16  25  37  54  77 102 127 156 187 221
#     4   9  16  24  36  56  80 106 132 154 179 214
#     4   9  16  26  39  55  80 111 137 161 187 214
#
# _framework density 14.247782000000001
#
# number of rings (size 3 to 8) (size 9 to 14) (size 15 to 20)
#    0.000    3.308    0.000    3.231    0.000    4.615 
#    0.000    2.692    0.000    1.846    0.000    2.692 
#    0.000   64.615    0.000   12.462    0.000    1.385 
#
# Total GULP energy -644392.469626 kJ/mol
# GULP energy per Si atom -12392.162877 kJ/mol
# Density = 1.421535 g / cm^3
# Si number density = 14.247782 Si / 1000 Ang^3
#
#
#
# Elastic Constant Matrix: (Units=GPa)
#
#
# Indices 1 2 3 4 5 6 
#
# 1 56.6618 20.1435 33.5079 0.0000 0.0000 0.0000
# 2 20.1435 64.9358 23.9146 0.0000 0.0000 0.0000
# 3 33.5079 23.9146 76.8070 0.0000 0.0000 0.0000
# 4 0.0000 0.0000 0.0000 3.2409 0.0000 0.0000
# 5 0.0000 0.0000 0.0000 0.0000 15.7598 0.0000
# 6 0.0000 0.0000 0.0000 0.0000 0.0000 12.0838
#
#
#
# Elastic Compliance Matrix: (Units=1/GPa)
#
#
# Indices 1 2 3 4 5 6 
#
# 1 0.024750 -0.004181 -0.009496 0.000000 0.000000 0.000000
# 2 -0.004181 0.018101 -0.003812 0.000000 0.000000 0.000000
# 3 -0.009496 -0.003812 0.018349 0.000000 0.000000 0.000000
# 4 0.000000 0.000000 0.000000 0.308556 0.000000 0.000000
# 5 0.000000 0.000000 0.000000 0.000000 0.063452 0.000000
# 6 0.000000 0.000000 0.000000 0.000000 0.000000 0.082755
#
#
# Mechanical properties :
#
#
# Convention : Reuss Voigt Hill
#
# Bulk Modulus (GPa) = 38.13416 39.28185 38.70800
# Shear Modulus (GPa) = 8.93365 14.27281 11.60323
#
# Velocity S-wave (km/s) = 2.50675 3.16849 2.85685
# Velocity P-wave (km/s) = 5.93309 6.40438 6.17323
#
# Compressibility (1/GPa) = 0.02622321
#
# Stress axis : x y z
#
# Youngs Moduli (GPa) = 40.40336 55.24698 54.49806
#
# Poissons Ratio (x) = 0.23096 0.51751
# Poissons Ratio (y) = 0.16891 0.20775
# Poissons Ratio (z) = 0.38367 0.21060
#
# Static dielectric constant tensor:
#      x y z
#    x 2.711970 0.000000 0.000000 
#    y 0.000000 2.803240 0.000000 
#    z 0.000000 0.000000 3.017910 
# 
# 
# High freq. dielectric constant tensor:
#      x y z
#    x 1.525700 0.000000 0.000000 
#    y 0.000000 1.512120 0.000000 
#    z 0.000000 0.000000 1.530980 
# 
# From -- ./inp_files/19281.got.cif
#   From: 2010.03.12/outbox.cif.g09.slc.cpg/sg47_10_cif.got.tgz:19281.got - 2010.04.14 03:12:58.
