data_PCOD8201771
_publ_section_title
;
Structure prediction by ZEFSAII (Michael W. Deem and Ramdas Pophale) SiO2 
 PCOD8201771
Probable space group: P N N N
;
_chemical_formula_sum "Si O2"
_cell_formula_units_Z 26
_cell_length_a 7.404810
_cell_length_b 18.896349
_cell_length_c 8.985039
_cell_angle_alpha 90.000000
_cell_angle_beta 90.000000
_cell_angle_gamma 90.000000
_cell_volume 1257.221465
_symmetry_space_group_name_H-M "P N N N"
_symmetry_group_IT_number 48
_space_group.IT_coordinate_system_code '2'
_symmetry_cell_setting 'orthorhombic'
loop_
_space_group_symop_operation_xyz
x,y,z
1/2-x,1/2-y,z
x,1/2-y,1/2-z
1/2-x,y,1/2-z
-x,-y,-z
1/2+x,1/2+y,-z
-x,1/2+y,1/2+z
1/2+x,-y,1/2+z
loop_
_atom_site_type_symbol
_atom_site_label
_atom_site_fract_x
_atom_site_fract_y
_atom_site_fract_z
Si Si1 0.057654 0.425033 0.438394
Si Si2 0.250000 0.250000 0.250000
Si Si3 0.234558 0.668255 0.424635
Si Si4 0.060987 0.377848 0.112084
O O1 0.010707 0.419259 0.263400
O O2 0.271732 0.417169 0.467507
O O3 0.000000 0.500000 0.500000
O O4 0.957844 0.361400 0.523787
O O5 0.121313 0.297802 0.147870
O O6 0.250000 0.750000 0.470875
O O7 0.250000 0.657537 0.250000
O O8 0.390930 0.622383 0.503162
#
# Coordination Sequence:
#
# PCOD8201771 Si02
#       4
#     8   2   8   8
#     4  10  23  41  63  93 123 164 216 260 319 383
#     4   8  16  36  70  90 112 150 214 262 310 368
#     4  11  24  41  64  95 129 167 211 262 321 389
#     4  10  21  40  65  91 121 164 206 268 314 379
#
# _framework density 20.680524999999999
#
# number of rings (size 3 to 8) (size 9 to 14) (size 15 to 20)
#    0.000    2.154    0.000    4.615    4.308    3.692 
#    5.538    3.077    0.000    0.000    0.000    0.000 
#    0.000    0.000    0.000    0.000    0.000    0.000 
#
# Total GULP energy -322447.434113 kJ/mol
# GULP energy per Si atom -12401.824389 kJ/mol
# Density = 2.063346 g / cm^3
# Si number density = 20.680525 Si / 1000 Ang^3
#
#
#
# Elastic Constant Matrix: (Units=GPa)
#
#
# Indices 1 2 3 4 5 6 
#
# 1 102.9895 38.0026 65.9918 0.0000 0.0000 0.0000
# 2 38.0026 133.8611 54.4988 0.0000 0.0000 0.0000
# 3 65.9918 54.4988 105.7845 0.0000 0.0000 0.0000
# 4 0.0000 0.0000 0.0000 17.5755 0.0000 0.0000
# 5 0.0000 0.0000 0.0000 0.0000 34.1154 0.0000
# 6 0.0000 0.0000 0.0000 0.0000 0.0000 25.2528
#
#
#
# Elastic Compliance Matrix: (Units=1/GPa)
#
#
# Indices 1 2 3 4 5 6 
#
# 1 0.016215 -0.000614 -0.009799 0.000000 0.000000 0.000000
# 2 -0.000614 0.009476 -0.004499 0.000000 0.000000 0.000000
# 3 -0.009799 -0.004499 0.017884 0.000000 0.000000 0.000000
# 4 0.000000 0.000000 0.000000 0.056898 0.000000 0.000000
# 5 0.000000 0.000000 0.000000 0.000000 0.029312 0.000000
# 6 0.000000 0.000000 0.000000 0.000000 0.000000 0.039600
#
#
# Mechanical properties :
#
#
# Convention : Reuss Voigt Hill
#
# Bulk Modulus (GPa) = 72.72107 73.29127 73.00617
# Shear Modulus (GPa) = 24.53458 27.66486 26.09972
#
# Velocity S-wave (km/s) = 3.44810 3.66146 3.55638
# Velocity P-wave (km/s) = 7.14793 7.30697 7.22788
#
# Compressibility (1/GPa) = 0.01375117
#
# Stress axis : x y z
#
# Youngs Moduli (GPa) = 61.67016 105.52461 55.91503
#
# Poissons Ratio (x) = 0.06478 0.54793
# Poissons Ratio (y) = 0.03786 0.25157
# Poissons Ratio (z) = 0.60433 0.47478
#
# Static dielectric constant tensor:
#      x y z
#    x 3.820520 0.000000 0.000000 
#    y 0.000000 3.691540 0.000000 
#    z 0.000000 0.000000 3.677350 
# 
# 
# High freq. dielectric constant tensor:
#      x y z
#    x 1.818790 0.000000 0.000000 
#    y 0.000000 1.811930 0.000000 
#    z 0.000000 0.000000 1.802150 
# 
# From -- ./inp_files/8340.got.cif
#   From: 2010.06.25/outbox.cif.g09.slc.cpg/sg48_5_cif.got.tgz:8340.got - 2010.06.26 18:06:46.
