data_PCOD8201611
_publ_section_title
;
Structure prediction by ZEFSAII (Michael W. Deem and Ramdas Pophale) SiO2 
 PCOD8201611
Probable space group: P N N N
;
_chemical_formula_sum "Si O2"
_cell_formula_units_Z 40
_cell_length_a 17.450106
_cell_length_b 21.607615
_cell_length_c 4.902808
_cell_angle_alpha 90.000000
_cell_angle_beta 90.000000
_cell_angle_gamma 90.000000
_cell_volume 1848.629114
_symmetry_space_group_name_H-M "P N N N"
_symmetry_group_IT_number 48
_space_group.IT_coordinate_system_code '2'
_symmetry_cell_setting 'orthorhombic'
loop_
_space_group_symop_operation_xyz
x,y,z
1/2-x,1/2-y,z
x,1/2-y,1/2-z
1/2-x,y,1/2-z
-x,-y,-z
1/2+x,1/2+y,-z
-x,1/2+y,1/2+z
1/2+x,-y,1/2+z
loop_
_atom_site_type_symbol
_atom_site_label
_atom_site_fract_x
_atom_site_fract_y
_atom_site_fract_z
Si Si1 0.903841 0.679481 0.259563
Si Si2 0.061141 0.710182 0.004822
Si Si3 0.159485 0.897192 0.744164
Si Si4 0.159383 0.974271 0.250221
Si Si5 0.659198 0.612941 0.735501
O O1 0.873889 0.750000 0.250000
O O2 0.890053 0.657048 0.567899
O O3 0.855977 0.633105 0.073185
O O4 0.992083 0.675697 0.161894
O O5 0.027670 0.750000 0.750000
O O6 0.121656 0.665700 0.859251
O O7 0.101843 0.750000 0.250000
O O8 0.250000 0.885134 0.750000
O O9 0.133011 0.952166 0.545589
O O10 0.129807 0.922458 0.035250
O O11 0.250000 0.977075 0.250000
O O12 0.128765 0.043525 0.201229
O O13 0.750000 0.619246 0.750000
#
# Coordination Sequence:
#
# PCOD8201611 Si02
#       5
#     8   8   8   8   8
#     4  11  23  39  57  83 119 158 196 242 302 355
#     4  11  23  41  61  84 121 163 199 246 306 361
#     4  10  20  38  62  87 115 153 199 246 297 359
#     4   9  19  36  58  85 118 151 188 245 310 353
#     4  11  22  38  61  87 116 153 199 247 294 356
#
# _framework density 21.637654000000001
#
# number of rings (size 3 to 8) (size 9 to 14) (size 15 to 20)
#    0.000    1.600    0.000    6.000    0.000    6.000 
#    0.000    7.000    0.000    0.000    0.000    0.000 
#    0.000    0.000    0.000    0.000    0.000    0.000 
#
# Total GULP energy -495744.919285 kJ/mol
# GULP energy per Si atom -12393.622982 kJ/mol
# Density = 2.158841 g / cm^3
# Si number density = 21.637654 Si / 1000 Ang^3
#
#
#
# Elastic Constant Matrix: (Units=GPa)
#
#
# Indices 1 2 3 4 5 6 
#
# 1 64.4345 45.0715 25.6099 0.0000 0.0000 0.0000
# 2 45.0715 125.9063 35.4924 0.0000 0.0000 0.0000
# 3 25.6099 35.4924 103.2906 0.0000 0.0000 0.0000
# 4 0.0000 0.0000 0.0000 36.6888 0.0000 0.0000
# 5 0.0000 0.0000 0.0000 0.0000 30.5087 0.0000
# 6 0.0000 0.0000 0.0000 0.0000 0.0000 -27.7800
#
#
#
# Elastic Compliance Matrix: (Units=1/GPa)
#
#
# Indices 1 2 3 4 5 6 
#
# 1 0.021498 -0.006858 -0.002974 0.000000 0.000000 0.000000
# 2 -0.006858 0.010982 -0.002073 0.000000 0.000000 0.000000
# 3 -0.002974 -0.002073 0.011131 0.000000 0.000000 0.000000
# 4 0.000000 0.000000 0.000000 0.027256 0.000000 0.000000
# 5 0.000000 0.000000 0.000000 0.000000 0.032778 0.000000
# 6 0.000000 0.000000 0.000000 0.000000 0.000000 -0.035997
#
#
# Mechanical properties :
#
#
# Convention : Reuss Voigt Hill
#
# Bulk Modulus (GPa) = 50.50045 56.21990 53.36017
# Shear Modulus (GPa) = 50.99016 20.38069 35.68542
#
# Velocity S-wave (km/s) = 4.85969 3.07238 4.06547
# Velocity P-wave (km/s) = 7.40801 6.21489 6.83753
#
# Compressibility (1/GPa) = 0.01980181
#
# Stress axis : x y z
#
# Youngs Moduli (GPa) = 46.51492 91.06053 89.83775
#
# Poissons Ratio (x) = 0.62446 0.26717
# Poissons Ratio (y) = 0.31898 0.18625
# Poissons Ratio (z) = 0.13833 0.18879
#
# Static dielectric constant tensor:
#      x y z
#    x 3.504170 0.000000 0.000000 
#    y 0.000000 4.029980 0.000000 
#    z 0.000000 0.000000 4.514400 
# 
# 
# High freq. dielectric constant tensor:
#      x y z
#    x 1.815660 0.000000 0.000000 
#    y 0.000000 1.856690 0.000000 
#    z 0.000000 0.000000 1.875840 
# 
# From -- ./inp_files/4396.got.cif
#   From: 2010.06.25/outbox.cif.g09.slc.cpg/sg48_3_cif.got.tgz:4396.got - 2010.06.26 18:06:46.
