data_PCOD8201919
_publ_section_title
;
Structure prediction by ZEFSAII (Michael W. Deem and Ramdas Pophale) SiO2 
 PCOD8201919
Probable space group: P N N N
;
_chemical_formula_sum "Si O2"
_cell_formula_units_Z 38
_cell_length_a 23.712469
_cell_length_b 7.254616
_cell_length_c 10.335681
_cell_angle_alpha 90.000000
_cell_angle_beta 90.000000
_cell_angle_gamma 90.000000
_cell_volume 1777.994046
_symmetry_space_group_name_H-M "P N N N"
_symmetry_group_IT_number 48
_space_group.IT_coordinate_system_code '2'
_symmetry_cell_setting 'orthorhombic'
loop_
_space_group_symop_operation_xyz
x,y,z
1/2-x,1/2-y,z
x,1/2-y,1/2-z
1/2-x,y,1/2-z
-x,-y,-z
1/2+x,1/2+y,-z
-x,1/2+y,1/2+z
1/2+x,-y,1/2+z
loop_
_atom_site_type_symbol
_atom_site_label
_atom_site_fract_x
_atom_site_fract_y
_atom_site_fract_z
Si Si1 0.104461 0.432535 0.483654
Si Si2 0.750000 0.750000 0.250000
Si Si3 0.448691 0.037817 0.738896
Si Si4 0.961924 0.750000 0.750000
Si Si5 0.656134 0.927422 0.091965
Si Si6 0.315328 0.741809 0.402377
O O1 0.058366 0.511205 0.585823
O O2 0.076456 0.341868 0.358749
O O3 0.138289 0.276337 0.556383
O O4 0.150122 0.586787 0.454654
O O5 0.714740 0.896802 0.165329
O O6 0.467317 0.250000 0.750000
O O7 0.390884 0.987663 0.812817
O O8 0.498041 0.914344 0.802484
O O9 0.661201 0.053478 0.964401
O O10 0.250000 0.750000 0.441140
O O11 0.323932 0.750000 0.250000
#
# Coordination Sequence:
#
# PCOD8201919 Si02
#       6
#     8   2   8   4   8   8
#     4  11  23  44  63  98 132 176 230 272 342 413
#     4  12  20  44  74 102 128 182 224 290 356 396
#     4  10  23  42  62  99 134 168 230 287 328 401
#     4  12  24  38  70  90 136 194 218 274 342 402
#     4  11  23  43  68  97 137 166 226 283 339 402
#     4  11  25  42  64  97 135 175 221 275 337 410
#
# _framework density 21.372399000000001
#
# number of rings (size 3 to 8) (size 9 to 14) (size 15 to 20)
#    0.000    1.053    3.158    4.421    0.000    5.895 
#    0.000    2.105    0.000    0.000    0.000    0.000 
#    0.000    0.000    0.000    0.000    0.000    0.000 
#
# Total GULP energy -471107.444988 kJ/mol
# GULP energy per Si atom -12397.564342 kJ/mol
# Density = 2.132375 g / cm^3
# Si number density = 21.372399 Si / 1000 Ang^3
#
#
#
# Elastic Constant Matrix: (Units=GPa)
#
#
# Indices 1 2 3 4 5 6 
#
# 1 94.7783 36.8373 33.3563 0.0000 0.0000 0.0000
# 2 36.8373 80.1581 39.9418 0.0000 0.0000 0.0000
# 3 33.3563 39.9418 89.1057 0.0000 0.0000 0.0000
# 4 0.0000 0.0000 0.0000 43.0060 0.0000 0.0000
# 5 0.0000 0.0000 0.0000 0.0000 4.4288 0.0000
# 6 0.0000 0.0000 0.0000 0.0000 0.0000 -108.6360
#
#
#
# Elastic Compliance Matrix: (Units=1/GPa)
#
#
# Indices 1 2 3 4 5 6 
#
# 1 0.013405 -0.004713 -0.002906 0.000000 0.000000 0.000000
# 2 -0.004713 0.017720 -0.006179 0.000000 0.000000 0.000000
# 3 -0.002906 -0.006179 0.015080 0.000000 0.000000 0.000000
# 4 0.000000 0.000000 0.000000 0.023253 0.000000 0.000000
# 5 0.000000 0.000000 0.000000 0.000000 0.225794 0.000000
# 6 0.000000 0.000000 0.000000 0.000000 0.000000 -0.009205
#
#
# Mechanical properties :
#
#
# Convention : Reuss Voigt Hill
#
# Bulk Modulus (GPa) = 53.73219 53.81254 53.77236
# Shear Modulus (GPa) = 15.63259 -1.97979 6.82640
#
# Velocity S-wave (km/s) = 2.70745 -0.96350 1.78912
# Velocity P-wave (km/s) = 5.91348 4.89851 5.42976
#
# Compressibility (1/GPa) = 0.01861082
#
# Stress axis : x y z
#
# Youngs Moduli (GPa) = 74.59781 56.43382 66.31273
#
# Poissons Ratio (x) = 0.26595 0.19269
# Poissons Ratio (y) = 0.35155 0.40974
# Poissons Ratio (z) = 0.21676 0.34870
#
# Static dielectric constant tensor:
#      x y z
#    x 4.023470 0.000000 0.000000 
#    y 0.000000 3.242920 0.000000 
#    z 0.000000 0.000000 4.144150 
# 
# 
# High freq. dielectric constant tensor:
#      x y z
#    x 1.847120 0.000000 0.000000 
#    y 0.000000 1.844610 0.000000 
#    z 0.000000 0.000000 1.845670 
# 
# From -- ./inp_files/15721.got.cif
#   From: 2010.06.25/outbox.cif.g09.slc.cpg/sg48_8_cif.got.tgz:15721.got - 2010.06.26 18:06:46.
