data_PCOD8201985
_publ_section_title
;
Structure prediction by ZEFSAII (Michael W. Deem and Ramdas Pophale) SiO2 
 PCOD8201985
Probable space group: P N N N
;
_chemical_formula_sum "Si O2"
_cell_formula_units_Z 40
_cell_length_a 18.352876
_cell_length_b 17.171751
_cell_length_c 5.732837
_cell_angle_alpha 90.000000
_cell_angle_beta 90.000000
_cell_angle_gamma 90.000000
_cell_volume 1806.709410
_symmetry_space_group_name_H-M "P N N N"
_symmetry_group_IT_number 48
_space_group.IT_coordinate_system_code '2'
_symmetry_cell_setting 'orthorhombic'
loop_
_space_group_symop_operation_xyz
x,y,z
1/2-x,1/2-y,z
x,1/2-y,1/2-z
1/2-x,y,1/2-z
-x,-y,-z
1/2+x,1/2+y,-z
-x,1/2+y,1/2+z
1/2+x,-y,1/2+z
loop_
_atom_site_type_symbol
_atom_site_label
_atom_site_fract_x
_atom_site_fract_y
_atom_site_fract_z
Si Si1 0.670543 0.598067 0.205243
Si Si2 0.928765 0.535194 0.894879
Si Si3 0.393966 0.709100 0.004778
Si Si4 0.444785 0.320982 0.085162
Si Si5 0.823135 0.445705 0.607917
O O1 0.750000 0.634935 0.250000
O O2 0.628330 0.576578 0.437718
O O3 0.623215 0.665843 0.086007
O O4 0.685002 0.520010 0.057889
O O5 0.958051 0.598426 0.716033
O O6 0.889412 0.461578 0.782044
O O7 0.000000 0.500000 0.000000
O O8 0.367130 0.750000 0.250000
O O9 0.345828 0.631552 0.968235
O O10 0.382920 0.750000 0.750000
O O11 0.479874 0.695402 0.048475
O O12 0.422376 0.250000 0.250000
O O13 0.750000 0.430515 0.750000
#
# Coordination Sequence:
#
# PCOD8201985 Si02
#       5
#     8   8   8   8   8
#     4  11  23  42  71 101 139 187 239 299 365 436
#     4  11  23  41  74 102 132 185 243 289 353 428
#     4  11  27  46  74 106 146 191 246 298 365 438
#     4  10  25  43  69 101 142 182 241 301 357 427
#     4  11  24  44  69 104 142 185 236 304 360 436
#
# _framework density 22.139697999999999
#
# number of rings (size 3 to 8) (size 9 to 14) (size 15 to 20)
#    0.000    1.200    2.000    2.400   14.000    3.600 
#    0.000    4.000    0.000    0.000    0.000    0.000 
#    0.000    0.000    0.000    0.000    0.000    0.000 
#
# Total GULP energy -495809.055098 kJ/mol
# GULP energy per Si atom -12395.226377 kJ/mol
# Density = 2.208931 g / cm^3
# Si number density = 22.139698 Si / 1000 Ang^3
#
#
#
# Elastic Constant Matrix: (Units=GPa)
#
#
# Indices 1 2 3 4 5 6 
#
# 1 53.2036 23.8286 5.1037 0.0000 0.0000 0.0000
# 2 23.8286 91.1801 17.7207 0.0000 0.0000 0.0000
# 3 5.1037 17.7207 86.4404 0.0000 0.0000 0.0000
# 4 0.0000 0.0000 0.0000 13.4228 0.0000 0.0000
# 5 0.0000 0.0000 0.0000 0.0000 26.5343 0.0000
# 6 0.0000 0.0000 0.0000 0.0000 0.0000 39.4251
#
#
#
# Elastic Compliance Matrix: (Units=1/GPa)
#
#
# Indices 1 2 3 4 5 6 
#
# 1 0.021289 -0.005540 -0.000121 0.000000 0.000000 0.000000
# 2 -0.005540 0.012864 -0.002310 0.000000 0.000000 0.000000
# 3 -0.000121 -0.002310 0.012049 0.000000 0.000000 0.000000
# 4 0.000000 0.000000 0.000000 0.074500 0.000000 0.000000
# 5 0.000000 0.000000 0.000000 0.000000 0.037687 0.000000
# 6 0.000000 0.000000 0.000000 0.000000 0.000000 0.025365
#
#
# Mechanical properties :
#
#
# Convention : Reuss Voigt Hill
#
# Bulk Modulus (GPa) = 33.04742 36.01444 34.53093
# Shear Modulus (GPa) = 23.83419 28.15452 25.99435
#
# Velocity S-wave (km/s) = 3.28462 3.56993 3.43024
# Velocity P-wave (km/s) = 5.41702 5.77016 5.59638
#
# Compressibility (1/GPa) = 0.03025955
#
# Stress axis : x y z
#
# Youngs Moduli (GPa) = 46.97363 77.73615 82.99163
#
# Poissons Ratio (x) = 0.43065 0.01006
# Poissons Ratio (y) = 0.26023 0.19172
# Poissons Ratio (z) = 0.00570 0.17958
#
# Static dielectric constant tensor:
#      x y z
#    x 3.986590 0.000000 0.000000 
#    y 0.000000 4.088930 0.000000 
#    z 0.000000 0.000000 3.496750 
# 
# 
# High freq. dielectric constant tensor:
#      x y z
#    x 1.883780 0.000000 0.000000 
#    y 0.000000 1.874230 0.000000 
#    z 0.000000 0.000000 1.876980 
# 
# From -- ./inp_files/4186.got.cif
#   From: 2010.06.25/outbox.cif.g09.slc.cpg/sg48_3_cif.got.tgz:4186.got - 2010.06.26 18:06:46.
