data_PCOD8201996
_publ_section_title
;
Structure prediction by ZEFSAII (Michael W. Deem and Ramdas Pophale) SiO2 
 PCOD8201996
Probable space group: P N N N
;
_chemical_formula_sum "Si O2"
_cell_formula_units_Z 22
_cell_length_a 5.642439
_cell_length_b 30.963918
_cell_length_c 5.002958
_cell_angle_alpha 90.000000
_cell_angle_beta 90.000000
_cell_angle_gamma 90.000000
_cell_volume 874.076891
_symmetry_space_group_name_H-M "P N N N"
_symmetry_group_IT_number 48
_space_group.IT_coordinate_system_code '2'
_symmetry_cell_setting 'orthorhombic'
loop_
_space_group_symop_operation_xyz
x,y,z
1/2-x,1/2-y,z
x,1/2-y,1/2-z
1/2-x,y,1/2-z
-x,-y,-z
1/2+x,1/2+y,-z
-x,1/2+y,1/2+z
1/2+x,-y,1/2+z
loop_
_atom_site_type_symbol
_atom_site_label
_atom_site_fract_x
_atom_site_fract_y
_atom_site_fract_z
Si Si1 0.579411 0.182166 0.988724
Si Si2 0.089761 0.548629 0.499445
Si Si3 0.250000 0.250000 0.750000
Si Si4 0.250000 0.111515 0.750000
O O1 0.750000 0.190915 0.750000
O O2 0.397320 0.222003 0.967849
O O3 0.430774 0.138657 0.934615
O O4 0.750000 0.179942 0.250000
O O5 0.250000 0.557297 0.250000
O O6 0.000000 0.500000 0.500000
O O7 0.872705 0.581691 0.475115
O O8 0.250000 0.559921 0.750000
#
# Coordination Sequence:
#
# PCOD8201996 Si02
#       4
#     8   8   2   4
#     4  11  27  51  78 118 158 204 255 316 393 473
#     4  12  27  48  75 110 148 203 268 328 387 455
#     4  10  26  50  88 116 156 202 254 322 384 472
#     4  11  28  49  78 112 164 208 258 328 397 458
#
# _framework density 25.169409999999999
#
# number of rings (size 3 to 8) (size 9 to 14) (size 15 to 20)
#    0.000    0.727    1.818    2.727    0.000   18.909 
#    0.000    5.455    0.000    0.000    0.000    0.000 
#    0.000    0.000    0.000    0.000    0.000    0.000 
#
# Total GULP energy -272645.144345 kJ/mol
# GULP energy per Si atom -12392.961107 kJ/mol
# Density = 2.511212 g / cm^3
# Si number density = 25.169410 Si / 1000 Ang^3
#
#
#
# Elastic Constant Matrix: (Units=GPa)
#
#
# Indices 1 2 3 4 5 6 
#
# 1 168.6086 95.2580 87.0100 0.0000 0.0000 0.0000
# 2 95.2580 200.9804 59.5951 0.0000 0.0000 0.0000
# 3 87.0100 59.5951 195.9518 0.0000 0.0000 0.0000
# 4 0.0000 0.0000 0.0000 24.2005 0.0000 0.0000
# 5 0.0000 0.0000 0.0000 0.0000 71.4879 0.0000
# 6 0.0000 0.0000 0.0000 0.0000 0.0000 50.4275
#
#
#
# Elastic Compliance Matrix: (Units=1/GPa)
#
#
# Indices 1 2 3 4 5 6 
#
# 1 0.009607 -0.003614 -0.003167 0.000000 0.000000 0.000000
# 2 -0.003614 0.006829 -0.000472 0.000000 0.000000 0.000000
# 3 -0.003167 -0.000472 0.006653 0.000000 0.000000 0.000000
# 4 0.000000 0.000000 0.000000 0.041321 0.000000 0.000000
# 5 0.000000 0.000000 0.000000 0.000000 0.013988 0.000000
# 6 0.000000 0.000000 0.000000 0.000000 0.000000 0.019830
#
#
# Mechanical properties :
#
#
# Convention : Reuss Voigt Hill
#
# Bulk Modulus (GPa) = 116.51279 116.58521 116.54900
# Shear Modulus (GPa) = 43.25420 50.80169 47.02794
#
# Velocity S-wave (km/s) = 4.15000 4.49752 4.32725
# Velocity P-wave (km/s) = 8.32798 8.56686 8.44826
#
# Compressibility (1/GPa) = 0.00858275
#
# Stress axis : x y z
#
# Youngs Moduli (GPa) = 104.09002 146.44170 150.31018
#
# Poissons Ratio (x) = 0.52931 0.47598
# Poissons Ratio (y) = 0.37623 0.07092
# Poissons Ratio (z) = 0.32962 0.06910
#
# Static dielectric constant tensor:
#      x y z
#    x 5.057350 0.000000 0.000000 
#    y 0.000000 4.782390 0.000000 
#    z 0.000000 0.000000 4.273130 
# 
# 
# High freq. dielectric constant tensor:
#      x y z
#    x 2.034280 0.000000 0.000000 
#    y 0.000000 2.026580 0.000000 
#    z 0.000000 0.000000 2.006080 
# 
# From -- ./inp_files/358.got.cif
#   From: 2010.06.25/outbox.cif.g09.slc.cpg/sg48_1_cif.got.tgz:358.got - 2010.06.26 18:06:46.
