data_PCOD8201184
_publ_section_title
;
Structure prediction by ZEFSAII (Michael W. Deem and Ramdas Pophale) SiO2 
 PCOD8201184
Probable space group: P M M M
;
_chemical_formula_sum "Si O2"
_cell_formula_units_Z 48
_cell_length_a 9.151683
_cell_length_b 17.780047
_cell_length_c 22.986928
_cell_angle_alpha 90.000000
_cell_angle_beta 90.000000
_cell_angle_gamma 90.000000
_cell_volume 3740.372098
_symmetry_space_group_name_H-M "P M M M"
_symmetry_group_IT_number 47
_symmetry_cell_setting 'orthorhombic'
loop_
_space_group_symop_operation_xyz
x,y,z
-x,-y,z
x,-y,-z
-x,y,-z
-x,-y,-z
x,y,-z
-x,y,z
x,-y,z
loop_
_atom_site_type_symbol
_atom_site_label
_atom_site_fract_x
_atom_site_fract_y
_atom_site_fract_z
Si Si1 0.669838 0.414076 0.660409
Si Si2 0.665361 0.589704 0.886844
Si Si3 0.164820 0.854777 0.430765
Si Si4 0.330115 0.707357 0.433573
Si Si5 0.164881 0.589510 0.774498
Si Si6 0.165399 0.589629 0.000000
Si Si7 0.334784 0.000000 0.569428
O O1 0.500000 0.407301 0.676382
O O2 0.712253 0.500000 0.645917
O O3 0.711376 0.365410 0.604108
O O4 0.759515 0.382534 0.715285
O O5 0.500000 0.620532 0.888129
O O6 0.665207 0.500000 0.886552
O O7 0.745922 0.621430 0.829562
O O8 0.751062 0.620255 0.943185
O O9 0.166550 0.857122 0.500000
O O10 0.241136 0.778455 0.409030
O O11 0.000000 0.857534 0.406660
O O12 0.252584 0.926405 0.406095
O O13 0.287094 0.688704 0.500000
O O14 0.500000 0.727838 0.428547
O O15 0.166296 0.500000 0.776465
O O16 0.000000 0.620685 0.777006
O O17 0.164334 0.500000 0.000000
O O18 0.000000 0.620674 0.000000
O O19 0.500000 0.000000 0.593145
O O20 0.333659 0.000000 0.500000
#
# Coordination Sequence:
#
# PCOD8201184 Si02
#       7
#     8   8   8   8   8   4   4
#     4   9  17  28  40  52  65  83 110 144 180 216
#     4   9  15  22  32  45  61  80 101 125 155 192
#     4   9  16  25  37  53  72  91 109 129 156 193
#     4   9  17  28  40  53  69  88 110 138 174 214
#     4   9  16  25  36  48  61  78 102 133 168 204
#     4   9  15  21  29  43  63  83 101 121 149 188
#     4   9  15  23  37  55  73  91 109 127 149 184
#
# _framework density 12.832948999999999
#
# number of rings (size 3 to 8) (size 9 to 14) (size 15 to 20)
#    0.000    3.000    0.000    2.000    0.000    9.000 
#    0.000    1.667    0.000    0.000    0.000    4.667 
#    0.000    0.000    0.000    0.000    0.000    0.000 
#
# Total GULP energy -595112.884612 kJ/mol
# GULP energy per Si atom -12398.185096 kJ/mol
# Density = 1.280374 g / cm^3
# Si number density = 12.832949 Si / 1000 Ang^3
#
#
#
# Elastic Constant Matrix: (Units=GPa)
#
#
# Indices 1 2 3 4 5 6 
#
# 1 104.6371 36.6527 48.8894 0.0000 0.0000 0.0000
# 2 36.6527 53.3323 32.1255 0.0000 0.0000 0.0000
# 3 48.8894 32.1255 78.1778 0.0000 0.0000 0.0000
# 4 0.0000 0.0000 0.0000 0.5145 0.0000 0.0000
# 5 0.0000 0.0000 0.0000 0.0000 18.1095 0.0000
# 6 0.0000 0.0000 0.0000 0.0000 0.0000 12.6143
#
#
#
# Elastic Compliance Matrix: (Units=1/GPa)
#
#
# Indices 1 2 3 4 5 6 
#
# 1 0.014875 -0.006139 -0.006779 0.000000 0.000000 0.000000
# 2 -0.006139 0.027452 -0.007442 0.000000 0.000000 0.000000
# 3 -0.006779 -0.007442 0.020089 0.000000 0.000000 0.000000
# 4 0.000000 0.000000 0.000000 1.943628 0.000000 0.000000
# 5 0.000000 0.000000 0.000000 0.000000 0.055220 0.000000
# 6 0.000000 0.000000 0.000000 0.000000 0.000000 0.079275
#
#
# Mechanical properties :
#
#
# Convention : Reuss Voigt Hill
#
# Bulk Modulus (GPa) = 46.09259 52.38694 49.23976
# Shear Modulus (GPa) = 2.28468 14.14629 8.21549
#
# Velocity S-wave (km/s) = 1.33574 3.32375 2.53294
# Velocity P-wave (km/s) = 6.19470 7.45926 6.85620
#
# Compressibility (1/GPa) = 0.02169546
#
# Stress axis : x y z
#
# Youngs Moduli (GPa) = 67.22791 36.42708 49.77861
#
# Poissons Ratio (x) = 0.22363 0.33747
# Poissons Ratio (y) = 0.41272 0.37044
# Poissons Ratio (z) = 0.45576 0.27108
#
# Static dielectric constant tensor:
#      x y z
#    x 2.799600 0.000000 0.000000 
#    y 0.000000 2.275930 0.000000 
#    z 0.000000 0.000000 2.493060 
# 
# 
# High freq. dielectric constant tensor:
#      x y z
#    x 1.505710 0.000000 0.000000 
#    y 0.000000 1.432440 0.000000 
#    z 0.000000 0.000000 1.463200 
# 
# From -- ./inp_files/9752.got.cif
#   From: 2010.03.12/outbox.cif.g09.slc.cpg/sg47_5_cif.got.tgz:9752.got - 2010.04.14 03:12:58.
