data_PCOD8201450
_publ_section_title
;
Structure prediction by ZEFSAII (Michael W. Deem and Ramdas Pophale) SiO2 
 PCOD8201450
Probable space group: P N N N
;
_chemical_formula_sum "Si O2"
_cell_formula_units_Z 48
_cell_length_a 5.127435
_cell_length_b 16.294725
_cell_length_c 27.840710
_cell_angle_alpha 90.000000
_cell_angle_beta 90.000000
_cell_angle_gamma 90.000000
_cell_volume 2326.095310
_symmetry_space_group_name_H-M "P N N N"
_symmetry_group_IT_number 48
_space_group.IT_coordinate_system_code '2'
_symmetry_cell_setting 'orthorhombic'
loop_
_space_group_symop_operation_xyz
x,y,z
1/2-x,1/2-y,z
x,1/2-y,1/2-z
1/2-x,y,1/2-z
-x,-y,-z
1/2+x,1/2+y,-z
-x,1/2+y,1/2+z
1/2+x,-y,1/2+z
loop_
_atom_site_type_symbol
_atom_site_label
_atom_site_fract_x
_atom_site_fract_y
_atom_site_fract_z
Si Si1 0.212536 0.654391 0.884969
Si Si2 0.506663 0.446188 0.780892
Si Si3 0.079901 0.565274 0.431114
Si Si4 0.198423 0.552651 0.970144
Si Si5 0.225652 0.062115 0.139677
Si Si6 0.998822 0.195771 0.854443
O O1 0.250000 0.750000 0.876531
O O2 0.106386 0.631600 0.939069
O O3 0.504415 0.622852 0.878647
O O4 0.993429 0.613192 0.849859
O O5 0.750000 0.414909 0.750000
O O6 0.615222 0.522815 0.811368
O O7 0.426961 0.370671 0.814432
O O8 0.250000 0.471112 0.750000
O O9 0.119240 0.586467 0.487165
O O10 0.288472 0.508354 0.401138
O O11 0.822076 0.508889 0.430621
O O12 0.052747 0.651776 0.405046
O O13 0.000000 0.500000 0.000000
O O14 0.250000 0.250000 0.862047
O O15 0.750000 0.250000 0.839383
#
# Coordination Sequence:
#
# PCOD8201450 Si02
#       6
#     8   8   8   8   8   8
#     4  11  22  37  60  91 123 159 201 251 309 363
#     4  11  23  41  68  94 116 155 210 255 305 385
#     4   9  21  37  56  83 117 168 214 252 298 355
#     4  10  19  36  60  83 119 165 217 263 290 345
#     4  10  21  40  62  85 120 157 199 248 306 368
#     4  11  25  40  59  89 130 168 200 253 323 377
#
# _framework density 20.635439999999999
#
# number of rings (size 3 to 8) (size 9 to 14) (size 15 to 20)
#    0.000    1.667    1.667    2.500    2.333    5.333 
#    0.000    0.000    0.000    7.500    0.000    0.000 
#    0.000    0.000    0.000    0.000    0.000    0.000 
#
# Total GULP energy -594658.802847 kJ/mol
# GULP energy per Si atom -12388.725059 kJ/mol
# Density = 2.058847 g / cm^3
# Si number density = 20.635440 Si / 1000 Ang^3
#
#
#
# Elastic Constant Matrix: (Units=GPa)
#
#
# Indices 1 2 3 4 5 6 
#
# 1 98.7897 38.7853 9.9167 0.0000 0.0000 0.0000
# 2 38.7853 119.6619 39.3619 0.0000 0.0000 0.0000
# 3 9.9167 39.3619 72.9684 0.0000 0.0000 0.0000
# 4 0.0000 0.0000 0.0000 20.8446 0.0000 0.0000
# 5 0.0000 0.0000 0.0000 0.0000 25.9566 0.0000
# 6 0.0000 0.0000 0.0000 0.0000 0.0000 33.5608
#
#
#
# Elastic Compliance Matrix: (Units=1/GPa)
#
#
# Indices 1 2 3 4 5 6 
#
# 1 0.011617 -0.003946 0.000550 0.000000 0.000000 0.000000
# 2 -0.003946 0.011500 -0.005667 0.000000 0.000000 0.000000
# 3 0.000550 -0.005667 0.016687 0.000000 0.000000 0.000000
# 4 0.000000 0.000000 0.000000 0.047974 0.000000 0.000000
# 5 0.000000 0.000000 0.000000 0.000000 0.038526 0.000000
# 6 0.000000 0.000000 0.000000 0.000000 0.000000 0.029797
#
#
# Mechanical properties :
#
#
# Convention : Reuss Voigt Hill
#
# Bulk Modulus (GPa) = 46.13241 51.94975 49.04108
# Shear Modulus (GPa) = 27.55538 29.62947 28.59243
#
# Velocity S-wave (km/s) = 3.65820 3.79338 3.72640
# Velocity P-wave (km/s) = 6.34410 6.66453 6.50629
#
# Compressibility (1/GPa) = 0.02167673
#
# Stress axis : x y z
#
# Youngs Moduli (GPa) = 86.08391 86.95551 59.92696
#
# Poissons Ratio (x) = 0.34314 -0.03296
# Poissons Ratio (y) = 0.33970 0.33962
# Poissons Ratio (z) = -0.04734 0.49280
#
# Static dielectric constant tensor:
#      x y z
#    x 3.376690 0.000000 0.000000 
#    y 0.000000 3.315880 0.000000 
#    z 0.000000 0.000000 -11.315870 
# 
# 
# High freq. dielectric constant tensor:
#      x y z
#    x 1.814250 0.000000 0.000000 
#    y 0.000000 1.792280 0.000000 
#    z 0.000000 0.000000 1.805200 
# 
# From -- ./inp_files/28760.got.cif
#   From: 2010.06.25/outbox.cif.g09.slc.cpg/sg48_15_cif.got.tgz:28760.got - 2010.06.26 18:06:46.
