data_PCOD8201976
_publ_section_title
;
Structure prediction by ZEFSAII (Michael W. Deem and Ramdas Pophale) SiO2 
 PCOD8201976
Probable space group: P N N N
;
_chemical_formula_sum "Si O2"
_cell_formula_units_Z 40
_cell_length_a 27.155798
_cell_length_b 6.035120
_cell_length_c 10.558141
_cell_angle_alpha 90.000000
_cell_angle_beta 90.000000
_cell_angle_gamma 90.000000
_cell_volume 1730.357887
_symmetry_space_group_name_H-M "P N N N"
_symmetry_group_IT_number 48
_space_group.IT_coordinate_system_code '2'
_symmetry_cell_setting 'orthorhombic'
loop_
_space_group_symop_operation_xyz
x,y,z
1/2-x,1/2-y,z
x,1/2-y,1/2-z
1/2-x,y,1/2-z
-x,-y,-z
1/2+x,1/2+y,-z
-x,1/2+y,1/2+z
1/2+x,-y,1/2+z
loop_
_atom_site_type_symbol
_atom_site_label
_atom_site_fract_x
_atom_site_fract_y
_atom_site_fract_z
Si Si1 0.750000 0.250000 0.250000
Si Si2 0.325855 0.434149 0.141658
Si Si3 0.983106 0.295208 0.920417
Si Si4 0.596935 0.250000 0.750000
Si Si5 0.942137 0.441673 0.349547
Si Si6 0.750000 0.250000 0.750000
Si Si7 0.329459 0.068616 0.645007
O O1 0.786577 0.386585 0.341759
O O2 0.323441 0.250000 0.250000
O O3 0.373187 0.586161 0.160989
O O4 0.279786 0.595404 0.154637
O O5 0.326827 0.333556 0.999147
O O6 0.940659 0.400331 0.831545
O O7 0.953279 0.125889 0.007838
O O8 0.026327 0.171107 0.838913
O O9 0.000000 0.500000 0.000000
O O10 0.959674 0.250000 0.250000
O O11 0.884112 0.478586 0.327560
O O12 0.316754 0.250000 0.750000
#
# Coordination Sequence:
#
# PCOD8201976 Si02
#       7
#     2   8   8   4   8   2   8
#     4  12  28  52  80 104 150 184 266 322 386 448
#     4  11  26  46  76 105 146 188 241 309 373 459
#     4  11  25  42  72 105 148 197 245 306 367 449
#     4  11  24  43  68 106 144 193 240 299 366 434
#     4  11  25  45  69 106 150 194 248 305 375 451
#     4  10  24  48  76 104 138 180 242 304 390 432
#     4  12  28  48  75 111 145 198 247 311 384 458
#
# _framework density 23.116603999999999
#
# number of rings (size 3 to 8) (size 9 to 14) (size 15 to 20)
#    0.000    0.800    3.000    2.400    7.000    7.200 
#    0.000    0.000    0.000    0.000    0.000    0.000 
#    0.000    0.000    0.000    0.000    0.000    0.000 
#
# Total GULP energy -495565.491015 kJ/mol
# GULP energy per Si atom -12389.137275 kJ/mol
# Density = 2.306399 g / cm^3
# Si number density = 23.116604 Si / 1000 Ang^3
#
#
#
# Elastic Constant Matrix: (Units=GPa)
#
#
# Indices 1 2 3 4 5 6 
#
# 1 177.2004 61.4851 55.6909 0.0000 0.0000 0.0000
# 2 61.4851 117.3453 58.9895 0.0000 0.0000 0.0000
# 3 55.6909 58.9895 173.8539 0.0000 0.0000 0.0000
# 4 0.0000 0.0000 0.0000 45.9968 0.0000 0.0000
# 5 0.0000 0.0000 0.0000 0.0000 24.3031 0.0000
# 6 0.0000 0.0000 0.0000 0.0000 0.0000 52.1968
#
#
#
# Elastic Compliance Matrix: (Units=1/GPa)
#
#
# Indices 1 2 3 4 5 6 
#
# 1 0.007106 -0.003109 -0.001221 0.000000 0.000000 0.000000
# 2 -0.003109 0.011635 -0.002952 0.000000 0.000000 0.000000
# 3 -0.001221 -0.002952 0.007145 0.000000 0.000000 0.000000
# 4 0.000000 0.000000 0.000000 0.021741 0.000000 0.000000
# 5 0.000000 0.000000 0.000000 0.000000 0.041147 0.000000
# 6 0.000000 0.000000 0.000000 0.000000 0.000000 0.019158
#
#
# Mechanical properties :
#
#
# Convention : Reuss Voigt Hill
#
# Bulk Modulus (GPa) = 88.33253 91.19230 89.76241
# Shear Modulus (GPa) = 39.59768 43.98162 41.78965
#
# Velocity S-wave (km/s) = 4.14327 4.36661 4.25641
# Velocity P-wave (km/s) = 7.82200 8.05962 7.94170
#
# Compressibility (1/GPa) = 0.01132086
#
# Stress axis : x y z
#
# Youngs Moduli (GPa) = 140.72507 85.94809 139.96385
#
# Poissons Ratio (x) = 0.26725 0.17093
# Poissons Ratio (y) = 0.43757 0.41314
# Poissons Ratio (z) = 0.17186 0.25370
#
# Static dielectric constant tensor:
#      x y z
#    x 4.423370 0.000000 0.000000 
#    y 0.000000 4.061940 0.000000 
#    z 0.000000 0.000000 4.458720 
# 
# 
# High freq. dielectric constant tensor:
#      x y z
#    x 1.935470 0.000000 0.000000 
#    y 0.000000 1.896580 0.000000 
#    z 0.000000 0.000000 1.934890 
# 
# From -- ./inp_files/23558.got.cif
#   From: 2010.06.25/outbox.cif.g09.slc.cpg/sg48_12_cif.got.tgz:23558.got - 2010.06.26 18:06:46.
