data_PCOD8201820
_publ_section_title
;
Structure prediction by ZEFSAII (Michael W. Deem and Ramdas Pophale) SiO2 
 PCOD8201820
Probable space group: P N N N
;
_chemical_formula_sum "Si O2"
_cell_formula_units_Z 64
_cell_length_a 9.079759
_cell_length_b 20.952350
_cell_length_c 15.519167
_cell_angle_alpha 90.000000
_cell_angle_beta 90.000000
_cell_angle_gamma 90.000000
_cell_volume 2952.401845
_symmetry_space_group_name_H-M "P N N N"
_symmetry_group_IT_number 48
_space_group.IT_coordinate_system_code '2'
_symmetry_cell_setting 'orthorhombic'
loop_
_space_group_symop_operation_xyz
x,y,z
1/2-x,1/2-y,z
x,1/2-y,1/2-z
1/2-x,y,1/2-z
-x,-y,-z
1/2+x,1/2+y,-z
-x,1/2+y,1/2+z
1/2+x,-y,1/2+z
loop_
_atom_site_type_symbol
_atom_site_label
_atom_site_fract_x
_atom_site_fract_y
_atom_site_fract_z
Si Si1 0.747504 0.055014 0.014959
Si Si2 0.852778 0.455605 0.676606
Si Si3 0.417042 0.731966 0.659598
Si Si4 0.744665 0.823466 0.074647
Si Si5 0.013543 0.841027 0.954843
Si Si6 0.692481 0.593324 0.832594
Si Si7 0.038380 0.378454 0.060800
Si Si8 0.186249 0.446934 0.660348
O O1 0.836207 0.121118 0.027988
O O2 0.573977 0.070013 0.021615
O O3 0.793614 0.998017 0.081396
O O4 0.777468 0.037018 0.916606
O O5 0.750000 0.420274 0.750000
O O6 0.872172 0.528143 0.707263
O O7 0.015396 0.426238 0.670755
O O8 0.250000 0.750000 0.674447
O O9 0.498600 0.750000 0.750000
O O10 0.464979 0.768495 0.573023
O O11 0.451820 0.658724 0.636778
O O12 0.750000 0.750000 0.110397
O O13 0.725339 0.879998 0.145028
O O14 0.606898 0.829195 0.009306
O O15 0.902442 0.842117 0.034199
O O16 0.946456 0.872486 0.870713
O O17 0.750000 0.633735 0.750000
O O18 0.823369 0.582825 0.901583
O O19 0.250000 0.475935 0.750000
#
# Coordination Sequence:
#
# PCOD8201820 Si02
#       8
#     8   8   8   8   8   8   8   8
#     4  12  24  43  72  98 144 180 227 287 351 422
#     4  11  25  45  68 100 137 178 222 283 352 420
#     4  11  22  35  56  94 137 178 227 282 345 418
#     4  11  24  45  71  95 133 177 240 289 342 407
#     4  11  20  40  63  90 130 184 223 273 346 415
#     4  10  22  37  58  88 134 173 218 273 335 402
#     4  11  24  38  63 101 130 182 234 281 343 417
#     4  12  28  45  72 107 140 185 235 287 359 419
#
# _framework density 21.677268000000002
#
# number of rings (size 3 to 8) (size 9 to 14) (size 15 to 20)
#    0.000    0.875    5.000    2.625    5.250    2.250 
#    0.000    1.875    0.000    0.000    0.000    0.000 
#    0.000    0.000    0.000    0.000    0.000    0.000 
#
# Total GULP energy -792840.778299 kJ/mol
# GULP energy per Si atom -12388.137161 kJ/mol
# Density = 2.162793 g / cm^3
# Si number density = 21.677268 Si / 1000 Ang^3
#
#
#
# Elastic Constant Matrix: (Units=GPa)
#
#
# Indices 1 2 3 4 5 6 
#
# 1 92.7753 14.6623 21.8808 0.0000 0.0000 0.0000
# 2 14.6623 81.5169 14.8681 0.0000 0.0000 0.0000
# 3 21.8808 14.8681 115.5452 0.0000 0.0000 0.0000
# 4 0.0000 0.0000 0.0000 26.5411 0.0000 0.0000
# 5 0.0000 0.0000 0.0000 0.0000 90.1132 0.0000
# 6 0.0000 0.0000 0.0000 0.0000 0.0000 24.2813
#
#
#
# Elastic Compliance Matrix: (Units=1/GPa)
#
#
# Indices 1 2 3 4 5 6 
#
# 1 0.011512 -0.001713 -0.001960 0.000000 0.000000 0.000000
# 2 -0.001713 0.012817 -0.001325 0.000000 0.000000 0.000000
# 3 -0.001960 -0.001325 0.009196 0.000000 0.000000 0.000000
# 4 0.000000 0.000000 0.000000 0.037677 0.000000 0.000000
# 5 0.000000 0.000000 0.000000 0.000000 0.011097 0.000000
# 6 0.000000 0.000000 0.000000 0.000000 0.000000 0.041184
#
#
# Mechanical properties :
#
#
# Convention : Reuss Voigt Hill
#
# Bulk Modulus (GPa) = 42.49914 43.62888 43.06401
# Shear Modulus (GPa) = 35.38020 44.08219 39.73119
#
# Velocity S-wave (km/s) = 4.04435 4.51440 4.28582
# Velocity P-wave (km/s) = 6.43871 6.88065 6.66334
#
# Compressibility (1/GPa) = 0.02352989
#
# Stress axis : x y z
#
# Youngs Moduli (GPa) = 86.86873 78.02021 108.74086
#
# Poissons Ratio (x) = 0.13366 0.21308
# Poissons Ratio (y) = 0.14882 0.14407
# Poissons Ratio (z) = 0.17022 0.10337
#
# Static dielectric constant tensor:
#      x y z
#    x 3.817430 0.000000 0.000000 
#    y 0.000000 3.848980 0.000000 
#    z 0.000000 0.000000 4.070530 
# 
# 
# High freq. dielectric constant tensor:
#      x y z
#    x 1.854070 0.000000 0.000000 
#    y 0.000000 1.836900 0.000000 
#    z 0.000000 0.000000 1.848060 
# 
# From -- ./inp_files/25752.got.cif
#   From: 2010.06.25/outbox.cif.g09.slc.cpg/sg48_13_cif.got.tgz:25752.got - 2010.06.26 18:06:46.
