data_PCOD8201877
_publ_section_title
;
Structure prediction by ZEFSAII (Michael W. Deem and Ramdas Pophale) SiO2 
 PCOD8201877
Probable space group: P N N N
;
_chemical_formula_sum "Si O2"
_cell_formula_units_Z 30
_cell_length_a 29.384563
_cell_length_b 5.487480
_cell_length_c 8.414532
_cell_angle_alpha 90.000000
_cell_angle_beta 90.000000
_cell_angle_gamma 90.000000
_cell_volume 1356.819739
_symmetry_space_group_name_H-M "P N N N"
_symmetry_group_IT_number 48
_space_group.IT_coordinate_system_code '2'
_symmetry_cell_setting 'orthorhombic'
loop_
_space_group_symop_operation_xyz
x,y,z
1/2-x,1/2-y,z
x,1/2-y,1/2-z
1/2-x,y,1/2-z
-x,-y,-z
1/2+x,1/2+y,-z
-x,1/2+y,1/2+z
1/2+x,-y,1/2+z
loop_
_atom_site_type_symbol
_atom_site_label
_atom_site_fract_x
_atom_site_fract_y
_atom_site_fract_z
Si Si1 0.707067 0.416387 0.504975
Si Si2 0.122745 0.853374 0.074470
Si Si3 0.250000 0.250000 0.750000
Si Si4 0.164230 0.250000 0.250000
Si Si5 0.522287 0.247361 0.561447
O O1 0.750000 0.250000 0.539379
O O2 0.662532 0.254038 0.462457
O O3 0.716438 0.588608 0.355843
O O4 0.697951 0.559198 0.668100
O O5 0.126775 0.750000 0.250000
O O6 0.074261 0.779498 0.000104
O O7 0.131953 0.141289 0.107758
O O8 0.519562 0.250000 0.750000
O O9 0.500000 0.500000 0.500000
O O10 0.500000 0.000000 0.500000
#
# Coordination Sequence:
#
# PCOD8201877 Si02
#       5
#     8   8   2   4   8
#     4  11  24  42  62  97 127 176 221 276 337 410
#     4   9  22  40  69  95 131 171 231 277 337 409
#     4  12  26  42  60  82 148 174 214 272 356 404
#     4  10  22  41  72  94 124 170 234 282 329 412
#     4  11  25  46  74 107 144 187 238 297 361 425
#
# _framework density 22.110527999999999
#
# number of rings (size 3 to 8) (size 9 to 14) (size 15 to 20)
#    0.000    1.600    0.000    2.800   11.200   12.800 
#    2.400    5.333    0.000    0.000    0.000    0.000 
#    0.000    0.000    0.000    0.000    0.000    0.000 
#
# Total GULP energy -371729.233384 kJ/mol
# GULP energy per Si atom -12390.974446 kJ/mol
# Density = 2.206020 g / cm^3
# Si number density = 22.110528 Si / 1000 Ang^3
#
#
#
# Elastic Constant Matrix: (Units=GPa)
#
#
# Indices 1 2 3 4 5 6 
#
# 1 227.6292 104.6785 53.3534 0.0000 0.0000 0.0000
# 2 104.6785 174.2359 43.3428 0.0000 0.0000 0.0000
# 3 53.3534 43.3428 62.1089 0.0000 0.0000 0.0000
# 4 0.0000 0.0000 0.0000 32.5164 0.0000 0.0000
# 5 0.0000 0.0000 0.0000 0.0000 27.7067 0.0000
# 6 0.0000 0.0000 0.0000 0.0000 0.0000 22.5276
#
#
#
# Elastic Compliance Matrix: (Units=1/GPa)
#
#
# Indices 1 2 3 4 5 6 
#
# 1 0.006658 -0.003118 -0.003543 0.000000 0.000000 0.000000
# 2 -0.003118 0.008406 -0.003187 0.000000 0.000000 0.000000
# 3 -0.003543 -0.003187 0.021368 0.000000 0.000000 0.000000
# 4 0.000000 0.000000 0.000000 0.030754 0.000000 0.000000
# 5 0.000000 0.000000 0.000000 0.000000 0.036092 0.000000
# 6 0.000000 0.000000 0.000000 0.000000 0.000000 0.044390
#
#
# Mechanical properties :
#
#
# Convention : Reuss Voigt Hill
#
# Bulk Modulus (GPa) = 59.75581 96.30260 78.02920
# Shear Modulus (GPa) = 28.91133 34.05676 31.48405
#
# Velocity S-wave (km/s) = 3.61997 3.92892 3.77761
# Velocity P-wave (km/s) = 6.67510 8.01446 7.37524
#
# Compressibility (1/GPa) = 0.01673478
#
# Stress axis : x y z
#
# Youngs Moduli (GPa) = 150.20490 118.96706 46.79844
#
# Poissons Ratio (x) = 0.37099 0.16580
# Poissons Ratio (y) = 0.46841 0.14915
# Poissons Ratio (z) = 0.53215 0.37916
#
# Static dielectric constant tensor:
#      x y z
#    x 4.710830 0.000000 0.000000 
#    y 0.000000 7.455690 0.000000 
#    z 0.000000 0.000000 3.755510 
# 
# 
# High freq. dielectric constant tensor:
#      x y z
#    x 1.879600 0.000000 0.000000 
#    y 0.000000 1.893400 0.000000 
#    z 0.000000 0.000000 1.843390 
# 
# From -- ./inp_files/1076.got.cif
#   From: 2010.06.25/outbox.cif.g09.slc.cpg/sg48_1_cif.got.tgz:1076.got - 2010.06.26 18:06:46.
