data_PCOD8201199
_publ_section_title
;
Structure prediction by ZEFSAII (Michael W. Deem and Ramdas Pophale) SiO2 
 PCOD8201199
Probable space group: P M M M
;
_chemical_formula_sum "Si O2"
_cell_formula_units_Z 52
_cell_length_a 17.094391
_cell_length_b 18.163851
_cell_length_c 9.343237
_cell_angle_alpha 90.000000
_cell_angle_beta 90.000000
_cell_angle_gamma 90.000000
_cell_volume 2901.074818
_symmetry_space_group_name_H-M "P M M M"
_symmetry_group_IT_number 47
_symmetry_cell_setting 'orthorhombic'
loop_
_space_group_symop_operation_xyz
x,y,z
-x,-y,z
x,-y,-z
-x,y,-z
-x,-y,-z
x,y,-z
-x,y,z
x,-y,z
loop_
_atom_site_type_symbol
_atom_site_label
_atom_site_fract_x
_atom_site_fract_y
_atom_site_fract_z
Si Si1 0.589071 0.500000 0.329267
Si Si2 0.000000 0.852870 0.161314
Si Si3 0.000000 0.322405 0.161870
Si Si4 0.148136 0.853039 0.664564
Si Si5 0.411974 0.215177 0.329078
Si Si6 0.850225 0.320341 0.335371
Si Si7 0.320697 0.357002 0.670234
Si Si8 0.689610 0.918254 0.329715
O O1 0.500000 0.500000 0.271793
O O2 0.589014 0.500000 0.500000
O O3 0.634371 0.428468 0.269865
O O4 0.076342 0.882853 0.241780
O O5 0.000000 0.765133 0.166025
O O6 0.000000 0.882906 0.000000
O O7 0.077863 0.351348 0.241655
O O8 0.000000 0.352570 0.000000
O O9 0.130194 0.872076 0.500000
O O10 0.161766 0.766460 0.683907
O O11 0.224435 0.894786 0.722494
O O12 0.410831 0.216018 0.500000
O O13 0.500000 0.220027 0.270255
O O14 0.363504 0.284518 0.268249
O O15 0.373899 0.139604 0.270130
O O16 0.868482 0.339645 0.500000
O O17 0.770147 0.358991 0.281791
O O18 0.324477 0.354608 0.500000
O O19 0.688294 0.916709 0.500000
O O20 0.669622 0.000000 0.271844
#
# Coordination Sequence:
#
# PCOD8201199 Si02
#       8
#     4   4   4   8   8   8   8   8
#     4   9  16  24  36  59  93 126 150 177 219 267
#     4   9  17  27  42  64  88 111 141 185 228 265
#     4   9  17  27  41  67  95 113 142 189 230 260
#     4   9  15  26  42  60  83 115 150 181 217 263
#     4   9  15  23  36  55  82 114 145 179 221 264
#     4   9  15  25  43  63  87 119 153 182 215 264
#     4   9  15  24  38  59  87 119 151 180 214 261
#     4   9  16  25  37  55  80 111 148 185 217 256
#
# _framework density 17.924392000000001
#
# number of rings (size 3 to 8) (size 9 to 14) (size 15 to 20)
#    0.000    3.000    1.538    0.923    0.000    4.000 
#    0.000    1.923    0.000    3.231    0.000    3.769 
#    0.000    4.923    0.000    1.385    0.000    1.538 
#
# Total GULP energy -644617.201880 kJ/mol
# GULP energy per Si atom -12396.484652 kJ/mol
# Density = 1.788360 g / cm^3
# Si number density = 17.924392 Si / 1000 Ang^3
#
#
#
# Elastic Constant Matrix: (Units=GPa)
#
#
# Indices 1 2 3 4 5 6 
#
# 1 182.9338 73.6727 42.5822 0.0000 0.0000 0.0000
# 2 73.6727 97.1374 18.2259 0.0000 0.0000 0.0000
# 3 42.5822 18.2259 43.2198 0.0000 0.0000 0.0000
# 4 0.0000 0.0000 0.0000 4.4993 0.0000 0.0000
# 5 0.0000 0.0000 0.0000 0.0000 1.9531 0.0000
# 6 0.0000 0.0000 0.0000 0.0000 0.0000 22.2580
#
#
#
# Elastic Compliance Matrix: (Units=1/GPa)
#
#
# Indices 1 2 3 4 5 6 
#
# 1 0.009409 -0.005861 -0.006799 0.000000 0.000000 0.000000
# 2 -0.005861 0.014830 -0.000479 0.000000 0.000000 0.000000
# 3 -0.006799 -0.000479 0.030038 0.000000 0.000000 0.000000
# 4 0.000000 0.000000 0.000000 0.222258 0.000000 0.000000
# 5 0.000000 0.000000 0.000000 0.000000 0.511995 0.000000
# 6 0.000000 0.000000 0.000000 0.000000 0.000000 0.044928
#
#
# Mechanical properties :
#
#
# Convention : Reuss Voigt Hill
#
# Bulk Modulus (GPa) = 35.71550 65.80586 50.76068
# Shear Modulus (GPa) = 5.75328 18.32942 12.04135
#
# Velocity S-wave (km/s) = 1.79352 3.20128 2.59469
# Velocity P-wave (km/s) = 4.92523 7.10331 6.11207
#
# Compressibility (1/GPa) = 0.02799905
#
# Stress axis : x y z
#
# Youngs Moduli (GPa) = 106.27666 67.43241 33.29062
#
# Poissons Ratio (x) = 0.39520 0.22635
# Poissons Ratio (y) = 0.62286 0.01596
# Poissons Ratio (z) = 0.72259 0.03233
#
# Static dielectric constant tensor:
#      x y z
#    x 3.563490 0.000000 0.000000 
#    y 0.000000 3.249550 0.000000 
#    z 0.000000 0.000000 2.760090 
# 
# 
# High freq. dielectric constant tensor:
#      x y z
#    x 1.711730 0.000000 0.000000 
#    y 0.000000 1.672090 0.000000 
#    z 0.000000 0.000000 1.622070 
# 
# From -- ./inp_files/9630.got.cif
#   From: 2010.03.12/outbox.cif.g09.slc.cpg/sg47_5_cif.got.tgz:9630.got - 2010.04.14 03:12:58.
