data_PCOD8201277
_publ_section_title
;
Structure prediction by ZEFSAII (Michael W. Deem and Ramdas Pophale) SiO2 
 PCOD8201277
Probable space group: P N N N
;
_chemical_formula_sum "Si O2"
_cell_formula_units_Z 64
_cell_length_a 19.126246
_cell_length_b 19.973392
_cell_length_c 9.295440
_cell_angle_alpha 90.000000
_cell_angle_beta 90.000000
_cell_angle_gamma 90.000000
_cell_volume 3551.006889
_symmetry_space_group_name_H-M "P N N N"
_symmetry_group_IT_number 48
_space_group.IT_coordinate_system_code '2'
_symmetry_cell_setting 'orthorhombic'
loop_
_space_group_symop_operation_xyz
x,y,z
1/2-x,1/2-y,z
x,1/2-y,1/2-z
1/2-x,y,1/2-z
-x,-y,-z
1/2+x,1/2+y,-z
-x,1/2+y,1/2+z
1/2+x,-y,1/2+z
loop_
_atom_site_type_symbol
_atom_site_label
_atom_site_fract_x
_atom_site_fract_y
_atom_site_fract_z
Si Si1 0.018347 0.097871 0.091902
Si Si2 0.556378 0.812655 0.159333
Si Si3 0.599873 0.463667 0.912157
Si Si4 0.554457 0.424425 0.630195
Si Si5 0.111390 0.227486 0.086032
Si Si6 0.811845 0.997254 0.154400
Si Si7 0.687678 0.846069 0.347467
Si Si8 0.060294 0.536104 0.831198
O O1 0.050946 0.171350 0.083501
O O2 0.971773 0.095649 0.235649
O O3 0.079623 0.042319 0.088189
O O4 0.965923 0.082030 0.960663
O O5 0.530080 0.750000 0.250000
O O6 0.487545 0.856158 0.141644
O O7 0.617673 0.847735 0.251091
O O8 0.584137 0.792559 0.000178
O O9 0.614428 0.435027 0.752057
O O10 0.669291 0.458210 0.012397
O O11 0.501311 0.485214 0.640409
O O12 0.591466 0.430051 0.475122
O O13 0.131666 0.250000 0.250000
O O14 0.177223 0.197189 0.994581
O O15 0.750000 0.030315 0.250000
O O16 0.880469 0.994568 0.251582
O O17 0.791471 0.921790 0.108930
O O18 0.750000 0.814741 0.250000
#
# Coordination Sequence:
#
# PCOD8201277 Si02
#       8
#     8   8   8   8   8   8   8   8
#     4   9  16  29  47  72  98 126 163 193 261 297
#     4  10  20  31  49  71 101 134 167 201 239 297
#     4   9  16  28  52  70  94 128 160 204 241 319
#     4  10  17  30  46  75  99 122 163 198 263 293
#     4  11  21  32  49  73 101 129 171 221 249 284
#     4  10  18  32  51  72  95 127 169 202 244 299
#     4  10  20  36  50  63  93 137 178 207 238 292
#     4   9  18  29  51  70  99 128 153 207 250 312
#
# _framework density 18.023057999999999
#
# number of rings (size 3 to 8) (size 9 to 14) (size 15 to 20)
#    0.000    2.250    2.500    3.000    0.000    2.250 
#    0.000    1.875    0.000    3.000    0.000    0.000 
#    0.000   55.000    0.000    0.000    0.000    0.000 
#
# Total GULP energy -792950.082338 kJ/mol
# GULP energy per Si atom -12389.845037 kJ/mol
# Density = 1.798204 g / cm^3
# Si number density = 18.023058 Si / 1000 Ang^3
#
#
#
# Elastic Constant Matrix: (Units=GPa)
#
#
# Indices 1 2 3 4 5 6 
#
# 1 43.2479 16.5914 30.3523 0.0000 0.0000 0.0000
# 2 16.5914 42.8417 22.0218 0.0000 0.0000 0.0000
# 3 30.3523 22.0218 143.2899 0.0000 0.0000 0.0000
# 4 0.0000 0.0000 0.0000 14.0129 0.0000 0.0000
# 5 0.0000 0.0000 0.0000 0.0000 28.6085 0.0000
# 6 0.0000 0.0000 0.0000 0.0000 0.0000 25.2525
#
#
#
# Elastic Compliance Matrix: (Units=1/GPa)
#
#
# Indices 1 2 3 4 5 6 
#
# 1 0.030108 -0.009101 -0.004979 0.000000 0.000000 0.000000
# 2 -0.009101 0.028095 -0.002390 0.000000 0.000000 0.000000
# 3 -0.004979 -0.002390 0.008401 0.000000 0.000000 0.000000
# 4 0.000000 0.000000 0.000000 0.071363 0.000000 0.000000
# 5 0.000000 0.000000 0.000000 0.000000 0.034955 0.000000
# 6 0.000000 0.000000 0.000000 0.000000 0.000000 0.039600
#
#
# Mechanical properties :
#
#
# Convention : Reuss Voigt Hill
#
# Bulk Modulus (GPa) = 29.70509 40.81230 35.25870
# Shear Modulus (GPa) = 19.47932 24.26904 21.87418
#
# Velocity S-wave (km/s) = 3.29112 3.67352 3.48757
# Velocity P-wave (km/s) = 5.56412 6.37861 5.98524
#
# Compressibility (1/GPa) = 0.03366426
#
# Stress axis : x y z
#
# Youngs Moduli (GPa) = 33.21345 35.59380 119.03558
#
# Poissons Ratio (x) = 0.32393 0.59268
# Poissons Ratio (y) = 0.30227 0.28450
# Poissons Ratio (z) = 0.16537 0.08507
#
# Static dielectric constant tensor:
#      x y z
#    x 3.039700 0.000000 0.000000 
#    y 0.000000 3.112150 0.000000 
#    z 0.000000 0.000000 4.049260 
# 
# 
# High freq. dielectric constant tensor:
#      x y z
#    x 1.651710 0.000000 0.000000 
#    y 0.000000 1.673240 0.000000 
#    z 0.000000 0.000000 1.717670 
# 
# From -- ./inp_files/15444.got.cif
#   From: 2010.06.25/outbox.cif.g09.slc.cpg/sg48_8_cif.got.tgz:15444.got - 2010.06.26 18:06:46.
