data_PCOD8201042
_publ_section_title
;
Structure prediction by ZEFSAII (Michael W. Deem and Ramdas Pophale) SiO2 
 PCOD8201042
Probable space group: P M M M
;
_chemical_formula_sum "Si O2"
_cell_formula_units_Z 52
_cell_length_a 13.441475
_cell_length_b 26.196287
_cell_length_c 9.745183
_cell_angle_alpha 90.000000
_cell_angle_beta 90.000000
_cell_angle_gamma 90.000000
_cell_volume 3431.442038
_symmetry_space_group_name_H-M "P M M M"
_symmetry_group_IT_number 47
_symmetry_cell_setting 'orthorhombic'
loop_
_space_group_symop_operation_xyz
x,y,z
-x,-y,z
x,-y,-z
-x,y,-z
-x,-y,-z
x,y,-z
-x,y,z
x,-y,z
loop_
_atom_site_type_symbol
_atom_site_label
_atom_site_fract_x
_atom_site_fract_y
_atom_site_fract_z
Si Si1 0.114793 0.853009 0.158342
Si Si2 0.884450 0.646901 0.158815
Si Si3 0.881805 0.556410 0.654188
Si Si4 0.611433 0.000000 0.662876
Si Si5 0.724207 0.100566 0.659263
Si Si6 0.614404 0.795314 0.657761
Si Si7 0.774579 0.250326 0.158625
O O1 0.175912 0.892086 0.252744
O O2 0.147974 0.795089 0.187923
O O3 0.000000 0.858111 0.198711
O O4 0.133247 0.867376 0.000000
O O5 0.839326 0.599262 0.243395
O O6 0.826673 0.697484 0.204176
O O7 0.000000 0.655956 0.192296
O O8 0.868138 0.634343 0.000000
O O9 0.846324 0.569283 0.500000
O O10 0.842509 0.500000 0.697237
O O11 0.000000 0.556265 0.661694
O O12 0.670020 0.950114 0.713842
O O13 0.500000 0.000000 0.725478
O O14 0.603901 0.000000 0.500000
O O15 0.754508 0.096012 0.500000
O O16 0.648409 0.146846 0.684541
O O17 0.631533 0.780064 0.500000
O O18 0.500000 0.790878 0.700283
O O19 0.675716 0.756228 0.751428
O O20 0.742978 0.251510 0.000000
#
# Coordination Sequence:
#
# PCOD8201042 Si02
#       7
#     8   8   8   4   8   8   8
#     4   9  17  30  46  61  82 114 144 168 200 242
#     4   9  16  25  38  57  81 108 138 172 205 235
#     4   8  14  24  36  51  75 108 142 172 202 237
#     4   9  16  28  48  69  86 106 133 167 210 255
#     4   9  17  29  46  67  86 105 134 170 204 242
#     4   9  17  29  44  62  84 107 131 163 204 247
#     4   9  17  28  42  61  83 107 138 172 203 240
#
# _framework density 15.153979
#
# number of rings (size 3 to 8) (size 9 to 14) (size 15 to 20)
#    0.000    3.154    0.000    1.385    0.000    5.231 
#    0.000    2.308    0.000    6.923    0.000    0.000 
#    0.000    0.615    0.000    6.769    0.000    5.231 
#
# Total GULP energy -644731.235528 kJ/mol
# GULP energy per Si atom -12398.677606 kJ/mol
# Density = 1.511949 g / cm^3
# Si number density = 15.153979 Si / 1000 Ang^3
#
#
#
# Elastic Constant Matrix: (Units=GPa)
#
#
# Indices 1 2 3 4 5 6 
#
# 1 103.6705 56.6360 54.4129 0.0000 0.0000 0.0000
# 2 56.6360 120.4741 58.5523 0.0000 0.0000 0.0000
# 3 54.4129 58.5523 64.6873 0.0000 0.0000 0.0000
# 4 0.0000 0.0000 0.0000 25.4513 0.0000 0.0000
# 5 0.0000 0.0000 0.0000 0.0000 23.8189 0.0000
# 6 0.0000 0.0000 0.0000 0.0000 0.0000 17.0542
#
#
#
# Elastic Compliance Matrix: (Units=1/GPa)
#
#
# Indices 1 2 3 4 5 6 
#
# 1 0.017516 -0.001917 -0.012999 0.000000 0.000000 0.000000
# 2 -0.001917 0.015030 -0.011992 0.000000 0.000000 0.000000
# 3 -0.012999 -0.011992 0.037248 0.000000 0.000000 0.000000
# 4 0.000000 0.000000 0.000000 0.039291 0.000000 0.000000
# 5 0.000000 0.000000 0.000000 0.000000 0.041983 0.000000
# 6 0.000000 0.000000 0.000000 0.000000 0.000000 0.058637
#
#
# Mechanical properties :
#
#
# Convention : Reuss Voigt Hill
#
# Bulk Modulus (GPa) = 62.58486 69.78159 66.18323
# Shear Modulus (GPa) = 18.59804 21.21361 19.90582
#
# Velocity S-wave (km/s) = 3.50704 3.74554 3.62825
# Velocity P-wave (km/s) = 7.60185 8.05318 7.83077
#
# Compressibility (1/GPa) = 0.01597830
#
# Stress axis : x y z
#
# Youngs Moduli (GPa) = 57.09220 66.53335 26.84714
#
# Poissons Ratio (x) = 0.12752 0.34897
# Poissons Ratio (y) = 0.10943 0.32196
# Poissons Ratio (z) = 0.74212 0.79789
#
# Static dielectric constant tensor:
#      x y z
#    x 2.742370 0.000000 0.000000 
#    y 0.000000 3.023380 0.000000 
#    z 0.000000 0.000000 2.913940 
# 
# 
# High freq. dielectric constant tensor:
#      x y z
#    x 1.553580 0.000000 0.000000 
#    y 0.000000 1.576560 0.000000 
#    z 0.000000 0.000000 1.575750 
# 
# From -- ./inp_files/7701.got.cif
#   From: 2010.03.12/outbox.cif.g09.slc.cpg/sg47_4_cif.got.tgz:7701.got - 2010.04.14 03:12:58.
