data_PCOD8201097
_publ_section_title
;
Structure prediction by ZEFSAII (Michael W. Deem and Ramdas Pophale) SiO2 
 PCOD8201097
Probable space group: P M M M
;
_chemical_formula_sum "Si O2"
_cell_formula_units_Z 56
_cell_length_a 21.362290
_cell_length_b 9.277225
_cell_length_c 18.402885
_cell_angle_alpha 90.000000
_cell_angle_beta 90.000000
_cell_angle_gamma 90.000000
_cell_volume 3647.134741
_symmetry_space_group_name_H-M "P M M M"
_symmetry_group_IT_number 47
_symmetry_cell_setting 'orthorhombic'
loop_
_space_group_symop_operation_xyz
x,y,z
-x,-y,z
x,-y,-z
-x,y,-z
-x,-y,-z
x,y,-z
-x,y,z
x,-y,z
loop_
_atom_site_type_symbol
_atom_site_label
_atom_site_fract_x
_atom_site_fract_y
_atom_site_fract_z
Si Si1 0.247934 0.832440 0.204489
Si Si2 0.802676 0.831805 0.583793
Si Si3 0.675002 0.835370 0.662220
Si Si4 0.808363 0.669644 0.915773
Si Si5 0.144959 0.333065 0.295645
Si Si6 0.571071 0.330431 0.581835
Si Si7 0.932045 0.333428 0.837392
O O1 0.312155 0.816207 0.250922
O O2 0.248145 0.753562 0.125841
O O3 0.196098 0.752899 0.250904
O O4 0.230939 0.000000 0.194556
O O5 0.805715 0.789379 0.500000
O O6 0.735053 0.786187 0.615078
O O7 0.857401 0.741233 0.624876
O O8 0.815065 0.000000 0.597166
O O9 0.615487 0.741656 0.641042
O O10 0.659351 0.000000 0.643679
O O11 0.801896 0.500000 0.899523
O O12 0.875635 0.730146 0.886776
O O13 0.802066 0.705842 0.000000
O O14 0.163903 0.500000 0.303556
O O15 0.081144 0.316099 0.249289
O O16 0.588767 0.280538 0.500000
O O17 0.500000 0.284567 0.599328
O O18 0.578940 0.500000 0.588618
O O19 0.936686 0.500000 0.857977
O O20 0.000000 0.260294 0.854124
#
# Coordination Sequence:
#
# PCOD8201097 Si02
#       7
#     8   8   8   8   8   8   8
#     4   9  17  29  43  59  82 111 139 167 204 248
#     4   9  17  28  41  58  81 106 132 168 214 257
#     4   9  17  28  42  60  80 105 141 177 203 235
#     4   9  17  28  43  65  89 109 133 167 203 241
#     4   9  16  26  41  60  79 100 132 172 209 246
#     4   9  18  30  41  57  85 118 147 174 206 242
#     4   8  14  25  41  60  81 106 135 166 201 240
#
# _framework density 15.354519
#
# number of rings (size 3 to 8) (size 9 to 14) (size 15 to 20)
#    0.000    3.143    0.000    3.429    0.000    4.857 
#    0.000    2.143    0.000   11.143    0.000    7.000 
#    0.000    0.571    0.000    6.286    0.000    4.571 
#
# Total GULP energy -693797.800684 kJ/mol
# GULP energy per Si atom -12389.246441 kJ/mol
# Density = 1.531957 g / cm^3
# Si number density = 15.354519 Si / 1000 Ang^3
#
#
#
# Elastic Constant Matrix: (Units=GPa)
#
#
# Indices 1 2 3 4 5 6 
#
# 1 49.9066 28.2383 38.6462 0.0000 0.0000 0.0000
# 2 28.2383 57.7946 46.0830 0.0000 0.0000 0.0000
# 3 38.6462 46.0830 116.0445 0.0000 0.0000 0.0000
# 4 0.0000 0.0000 0.0000 26.8380 0.0000 0.0000
# 5 0.0000 0.0000 0.0000 0.0000 18.0925 0.0000
# 6 0.0000 0.0000 0.0000 0.0000 0.0000 7.1144
#
#
#
# Elastic Compliance Matrix: (Units=1/GPa)
#
#
# Indices 1 2 3 4 5 6 
#
# 1 0.030461 -0.009943 -0.006196 0.000000 0.000000 0.000000
# 2 -0.009943 0.028565 -0.008033 0.000000 0.000000 0.000000
# 3 -0.006196 -0.008033 0.013871 0.000000 0.000000 0.000000
# 4 0.000000 0.000000 0.000000 0.037261 0.000000 0.000000
# 5 0.000000 0.000000 0.000000 0.000000 0.055271 0.000000
# 6 0.000000 0.000000 0.000000 0.000000 0.000000 0.140559
#
#
# Mechanical properties :
#
#
# Convention : Reuss Voigt Hill
#
# Bulk Modulus (GPa) = 40.72546 49.96453 45.34500
# Shear Modulus (GPa) = 13.79248 17.79422 15.79335
#
# Velocity S-wave (km/s) = 3.00036 3.40794 3.21063
# Velocity P-wave (km/s) = 6.21160 6.93518 6.58334
#
# Compressibility (1/GPa) = 0.02455466
#
# Stress axis : x y z
#
# Youngs Moduli (GPa) = 32.82847 35.00729 72.09450
#
# Poissons Ratio (x) = 0.34807 0.44670
# Poissons Ratio (y) = 0.32641 0.57910
# Poissons Ratio (z) = 0.20341 0.28120
#
# Static dielectric constant tensor:
#      x y z
#    x 2.881470 0.000000 0.000000 
#    y 0.000000 2.967750 0.000000 
#    z 0.000000 0.000000 3.388720 
# 
# 
# High freq. dielectric constant tensor:
#      x y z
#    x 1.551280 0.000000 0.000000 
#    y 0.000000 1.583020 0.000000 
#    z 0.000000 0.000000 1.583870 
# 
# From -- ./inp_files/11520.got.cif
#   From: 2010.03.12/outbox.cif.g09.slc.cpg/sg47_6_cif.got.tgz:11520.got - 2010.04.14 03:12:58.
