data_PCOD8201102
_publ_section_title
;
Structure prediction by ZEFSAII (Michael W. Deem and Ramdas Pophale) SiO2 
 PCOD8201102
Probable space group: P M M M
;
_chemical_formula_sum "Si O2"
_cell_formula_units_Z 52
_cell_length_a 33.943938
_cell_length_b 9.433384
_cell_length_c 9.187054
_cell_angle_alpha 90.000000
_cell_angle_beta 90.000000
_cell_angle_gamma 90.000000
_cell_volume 2941.751665
_symmetry_space_group_name_H-M "P M M M"
_symmetry_group_IT_number 47
_symmetry_cell_setting 'orthorhombic'
loop_
_space_group_symop_operation_xyz
x,y,z
-x,-y,z
x,-y,-z
-x,y,-z
-x,-y,-z
x,y,-z
-x,y,z
x,-y,z
loop_
_atom_site_type_symbol
_atom_site_label
_atom_site_fract_x
_atom_site_fract_y
_atom_site_fract_z
Si Si1 0.347016 0.669064 0.664980
Si Si2 0.193825 0.334982 0.330744
Si Si3 0.576486 0.668949 0.834933
Si Si4 0.728987 0.331253 0.835489
Si Si5 0.043033 0.831544 0.164272
Si Si6 0.500000 0.331028 0.665115
Si Si7 0.881539 0.837255 0.670662
O O1 0.347886 0.727327 0.500000
O O2 0.346825 0.500000 0.663804
O O3 0.385009 0.726320 0.751588
O O4 0.308278 0.728272 0.745991
O O5 0.202006 0.304526 0.500000
O O6 0.186272 0.500000 0.301827
O O7 0.231234 0.277651 0.241461
O O8 0.155811 0.251020 0.272852
O O9 0.576415 0.500000 0.836821
O O10 0.538320 0.726556 0.749561
O O11 0.576236 0.727499 0.000000
O O12 0.727811 0.500000 0.835018
O O13 0.727381 0.272486 0.000000
O O14 0.078690 0.770918 0.260852
O O15 0.000000 0.777865 0.220656
O O16 0.043569 0.000000 0.171858
O O17 0.049544 0.778935 0.000000
O O18 0.500000 0.500000 0.663226
O O19 0.500000 0.272551 0.500000
O O20 0.886337 0.821249 0.500000
O O21 0.875276 0.000000 0.717794
#
# Coordination Sequence:
#
# PCOD8201102 Si02
#       7
#     8   8   8   8   8   4   8
#     4   9  15  22  32  45  61  82 109 143 185 230
#     4   9  17  29  43  58  79 107 134 160 196 241
#     4   9  15  21  28  38  53  74 102 139 183 228
#     4   9  16  25  37  53  71  91 119 155 191 227
#     4   8  14  25  41  61  84 108 133 162 197 235
#     4   9  15  21  27  35  49  71 101 137 180 231
#     4   9  17  28  43  64  86 106 132 167 201 232
#
# _framework density 17.676542999999999
#
# number of rings (size 3 to 8) (size 9 to 14) (size 15 to 20)
#    0.000    3.154    0.000    2.077    0.000    7.385 
#    0.000    1.538    0.000    0.462    0.000    3.231 
#    0.000    0.000    0.000    0.000    0.000    0.000 
#
# Total GULP energy -644601.353742 kJ/mol
# GULP energy per Si atom -12396.179880 kJ/mol
# Density = 1.763631 g / cm^3
# Si number density = 17.676543 Si / 1000 Ang^3
#
#
#
# Elastic Constant Matrix: (Units=GPa)
#
#
# Indices 1 2 3 4 5 6 
#
# 1 210.7523 24.5741 99.5678 0.0000 0.0000 0.0000
# 2 24.5741 11.8590 15.1611 0.0000 0.0000 0.0000
# 3 99.5678 15.1611 131.9775 0.0000 0.0000 0.0000
# 4 0.0000 0.0000 0.0000 6.5092 0.0000 0.0000
# 5 0.0000 0.0000 0.0000 0.0000 39.9086 0.0000
# 6 0.0000 0.0000 0.0000 0.0000 0.0000 0.7613
#
#
#
# Elastic Compliance Matrix: (Units=1/GPa)
#
#
# Indices 1 2 3 4 5 6 
#
# 1 0.008433 -0.010949 -0.005104 0.000000 0.000000 0.000000
# 2 -0.010949 0.113057 -0.004727 0.000000 0.000000 0.000000
# 3 -0.005104 -0.004727 0.011971 0.000000 0.000000 0.000000
# 4 0.000000 0.000000 0.000000 0.153628 0.000000 0.000000
# 5 0.000000 0.000000 0.000000 0.000000 0.025057 0.000000
# 6 0.000000 0.000000 0.000000 0.000000 0.000000 1.313494
#
#
# Mechanical properties :
#
#
# Convention : Reuss Voigt Hill
#
# Bulk Modulus (GPa) = 10.88144 70.35500 40.61822
# Shear Modulus (GPa) = 2.94493 23.78822 13.36657
#
# Velocity S-wave (km/s) = 1.29214 3.67243 2.75285
# Velocity P-wave (km/s) = 2.89748 7.60724 5.75610
#
# Compressibility (1/GPa) = 0.09189961
#
# Stress axis : x y z
#
# Youngs Moduli (GPa) = 118.57963 8.84508 83.53532
#
# Poissons Ratio (x) = 0.09685 0.42640
# Poissons Ratio (y) = 1.29838 0.39488
# Poissons Ratio (z) = 0.60528 0.04181
#
# Static dielectric constant tensor:
#      x y z
#    x 3.674650 0.000000 0.000000 
#    y 0.000000 2.517680 0.000000 
#    z 0.000000 0.000000 3.422780 
# 
# 
# High freq. dielectric constant tensor:
#      x y z
#    x 1.705490 0.000000 0.000000 
#    y 0.000000 1.590740 0.000000 
#    z 0.000000 0.000000 1.691540 
# 
# From -- ./inp_files/14097.got.cif
#   From: 2010.03.12/outbox.cif.g09.slc.cpg/sg47_8_cif.got.tgz:14097.got - 2010.04.14 03:12:58.
