data_PCOD8201961
_publ_section_title
;
Structure prediction by ZEFSAII (Michael W. Deem and Ramdas Pophale) SiO2 
 PCOD8201961
Probable space group: P N N N
;
_chemical_formula_sum "Si O2"
_cell_formula_units_Z 40
_cell_length_a 14.158070
_cell_length_b 8.848324
_cell_length_c 14.283314
_cell_angle_alpha 90.000000
_cell_angle_beta 90.000000
_cell_angle_gamma 90.000000
_cell_volume 1789.344883
_symmetry_space_group_name_H-M "P N N N"
_symmetry_group_IT_number 48
_space_group.IT_coordinate_system_code '2'
_symmetry_cell_setting 'orthorhombic'
loop_
_space_group_symop_operation_xyz
x,y,z
1/2-x,1/2-y,z
x,1/2-y,1/2-z
1/2-x,y,1/2-z
-x,-y,-z
1/2+x,1/2+y,-z
-x,1/2+y,1/2+z
1/2+x,-y,1/2+z
loop_
_atom_site_type_symbol
_atom_site_label
_atom_site_fract_x
_atom_site_fract_y
_atom_site_fract_z
Si Si1 0.286228 0.080366 0.844718
Si Si2 0.642969 0.525242 0.003665
Si Si3 0.012942 0.747796 0.998945
Si Si4 0.847596 0.921543 0.784349
Si Si5 0.004290 0.505470 0.142934
O O1 0.250000 0.250000 0.839095
O O2 0.250000 0.996393 0.750000
O O3 0.397612 0.058777 0.844138
O O4 0.241794 0.014439 0.940833
O O5 0.594331 0.366124 0.024093
O O6 0.654251 0.558397 0.894750
O O7 0.578539 0.664518 0.040856
O O8 0.052206 0.627002 0.073494
O O9 0.987945 0.661671 0.902143
O O10 0.850486 0.750000 0.750000
O O11 0.750000 0.997220 0.750000
O O12 0.938378 0.007766 0.740456
#
# Coordination Sequence:
#
# PCOD8201961 Si02
#       5
#     8   8   8   8   8
#     4  11  26  43  71 104 142 188 240 293 361 437
#     4  11  24  46  68 104 139 187 239 297 362 424
#     4  10  24  42  72  95 142 189 233 299 359 427
#     4  11  26  43  72 104 142 189 244 299 364 438
#     4  11  24  46  69 103 140 189 242 297 361 426
#
# _framework density 22.354548999999999
#
# number of rings (size 3 to 8) (size 9 to 14) (size 15 to 20)
#    0.000    1.200    4.000    0.000   14.000    1.600 
#    0.000    2.000    0.000    0.000    0.000    0.000 
#    0.000    0.000    0.000    0.000    0.000    0.000 
#
# Total GULP energy -495867.794825 kJ/mol
# GULP energy per Si atom -12396.694871 kJ/mol
# Density = 2.230367 g / cm^3
# Si number density = 22.354549 Si / 1000 Ang^3
#
#
#
# Elastic Constant Matrix: (Units=GPa)
#
#
# Indices 1 2 3 4 5 6 
#
# 1 166.1607 42.9319 62.2284 0.0000 0.0000 0.0000
# 2 42.9319 98.4789 37.9775 0.0000 0.0000 0.0000
# 3 62.2284 37.9775 172.4606 0.0000 0.0000 0.0000
# 4 0.0000 0.0000 0.0000 15.1944 0.0000 0.0000
# 5 0.0000 0.0000 0.0000 0.0000 41.4110 0.0000
# 6 0.0000 0.0000 0.0000 0.0000 0.0000 16.8693
#
#
#
# Elastic Compliance Matrix: (Units=1/GPa)
#
#
# Indices 1 2 3 4 5 6 
#
# 1 0.007450 -0.002416 -0.002156 0.000000 0.000000 0.000000
# 2 -0.002416 0.011881 -0.001744 0.000000 0.000000 0.000000
# 3 -0.002156 -0.001744 0.006961 0.000000 0.000000 0.000000
# 4 0.000000 0.000000 0.000000 0.065814 0.000000 0.000000
# 5 0.000000 0.000000 0.000000 0.000000 0.024148 0.000000
# 6 0.000000 0.000000 0.000000 0.000000 0.000000 0.059279
#
#
# Mechanical properties :
#
#
# Convention : Reuss Voigt Hill
#
# Bulk Modulus (GPa) = 73.21936 80.37508 76.79722
# Shear Modulus (GPa) = 25.94462 34.29244 30.11853
#
# Velocity S-wave (km/s) = 3.41045 3.92091 3.67456
# Velocity P-wave (km/s) = 6.95219 7.51870 7.24099
#
# Compressibility (1/GPa) = 0.01365759
#
# Stress axis : x y z
#
# Youngs Moduli (GPa) = 134.22687 84.17103 143.66756
#
# Poissons Ratio (x) = 0.20339 0.30976
# Poissons Ratio (y) = 0.32434 0.25060
# Poissons Ratio (z) = 0.28940 0.14682
#
# Static dielectric constant tensor:
#      x y z
#    x 4.354420 0.000000 0.000000 
#    y 0.000000 3.972200 0.000000 
#    z 0.000000 0.000000 4.403540 
# 
# 
# High freq. dielectric constant tensor:
#      x y z
#    x 1.882140 0.000000 0.000000 
#    y 0.000000 1.871400 0.000000 
#    z 0.000000 0.000000 1.889280 
# 
# From -- ./inp_files/25099.got.cif
#   From: 2010.06.25/outbox.cif.g09.slc.cpg/sg48_13_cif.got.tgz:25099.got - 2010.06.26 18:06:46.
