data_PCOD8201700
_publ_section_title
;
Structure prediction by ZEFSAII (Michael W. Deem and Ramdas Pophale) SiO2 
 PCOD8201700
Probable space group: P N N N
;
_chemical_formula_sum "Si O2"
_cell_formula_units_Z 32
_cell_length_a 4.845393
_cell_length_b 17.407717
_cell_length_c 18.155622
_cell_angle_alpha 90.000000
_cell_angle_beta 90.000000
_cell_angle_gamma 90.000000
_cell_volume 1531.376426
_symmetry_space_group_name_H-M "P N N N"
_symmetry_group_IT_number 48
_space_group.IT_coordinate_system_code '2'
_symmetry_cell_setting 'orthorhombic'
loop_
_space_group_symop_operation_xyz
x,y,z
1/2-x,1/2-y,z
x,1/2-y,1/2-z
1/2-x,y,1/2-z
-x,-y,-z
1/2+x,1/2+y,-z
-x,1/2+y,1/2+z
1/2+x,-y,1/2+z
loop_
_atom_site_type_symbol
_atom_site_label
_atom_site_fract_x
_atom_site_fract_y
_atom_site_fract_z
Si Si1 0.761323 0.414192 0.553266
Si Si2 0.995548 0.121906 0.201865
Si Si3 0.776323 0.493387 0.093642
Si Si4 0.750000 0.750000 0.595940
Si Si5 0.250000 0.750000 0.008501
O O1 0.659519 0.431035 0.469747
O O2 0.555572 0.457731 0.610557
O O3 0.788519 0.322483 0.562798
O O4 0.067427 0.443707 0.563797
O O5 0.250000 0.089992 0.250000
O O6 0.136002 0.180730 0.145535
O O7 0.750000 0.162307 0.250000
O O8 0.843098 0.049801 0.164425
O O9 0.503195 0.725238 0.543260
#
# Coordination Sequence:
#
# PCOD8201700 Si02
#       5
#     8   8   8   4   4
#     4  10  21  36  62  82 119 149 199 247 304 350
#     4  12  25  41  58  83 123 171 209 240 289 359
#     4  10  21  39  57  85 112 160 200 247 290 349
#     4  12  25  38  56  86 130 162 203 230 284 370
#     4  12  22  38  61  94 119 160 188 250 312 368
#
# _framework density 20.896232000000001
#
# number of rings (size 3 to 8) (size 9 to 14) (size 15 to 20)
#    0.000    1.000    2.500    4.875    7.000    1.000 
#    0.000    0.000    0.000    0.000    0.000   13.125 
#    0.000    0.000    0.000    0.000    0.000    0.000 
#
# Total GULP energy -396640.721299 kJ/mol
# GULP energy per Si atom -12395.022541 kJ/mol
# Density = 2.084867 g / cm^3
# Si number density = 20.896232 Si / 1000 Ang^3
#
#
#
# Elastic Constant Matrix: (Units=GPa)
#
#
# Indices 1 2 3 4 5 6 
#
# 1 121.8562 29.2287 17.7874 0.0000 0.0000 0.0000
# 2 29.2287 138.1073 21.7567 0.0000 0.0000 0.0000
# 3 17.7874 21.7567 41.9982 0.0000 0.0000 0.0000
# 4 0.0000 0.0000 0.0000 12.2678 0.0000 0.0000
# 5 0.0000 0.0000 0.0000 0.0000 40.2160 0.0000
# 6 0.0000 0.0000 0.0000 0.0000 0.0000 29.1110
#
#
#
# Elastic Compliance Matrix: (Units=1/GPa)
#
#
# Indices 1 2 3 4 5 6 
#
# 1 0.008996 -0.001419 -0.003075 0.000000 0.000000 0.000000
# 2 -0.001419 0.008108 -0.003599 0.000000 0.000000 0.000000
# 3 -0.003075 -0.003599 0.026977 0.000000 0.000000 0.000000
# 4 0.000000 0.000000 0.000000 0.081514 0.000000 0.000000
# 5 0.000000 0.000000 0.000000 0.000000 0.024866 0.000000
# 6 0.000000 0.000000 0.000000 0.000000 0.000000 0.034351
#
#
# Mechanical properties :
#
#
# Convention : Reuss Voigt Hill
#
# Bulk Modulus (GPa) = 35.84916 48.83413 42.34164
# Shear Modulus (GPa) = 23.77590 31.86488 27.82039
#
# Velocity S-wave (km/s) = 3.37680 3.90925 3.65274
# Velocity P-wave (km/s) = 5.69181 6.61792 6.17226
#
# Compressibility (1/GPa) = 0.02789466
#
# Stress axis : x y z
#
# Youngs Moduli (GPa) = 111.16462 123.33266 37.06830
#
# Poissons Ratio (x) = 0.17507 0.11397
# Poissons Ratio (y) = 0.15779 0.13341
# Poissons Ratio (z) = 0.34178 0.44389
#
# Static dielectric constant tensor:
#      x y z
#    x 4.251200 0.000000 0.000000 
#    y 0.000000 3.708870 0.000000 
#    z 0.000000 0.000000 3.537430 
# 
# 
# High freq. dielectric constant tensor:
#      x y z
#    x 1.850680 0.000000 0.000000 
#    y 0.000000 1.812330 0.000000 
#    z 0.000000 0.000000 1.769290 
# 
# From -- ./inp_files/24108.got.cif
#   From: 2010.06.25/outbox.cif.g09.slc.cpg/sg48_13_cif.got.tgz:24108.got - 2010.06.26 18:06:46.
