data_PCOD8201301
_publ_section_title
;
Structure prediction by ZEFSAII (Michael W. Deem and Ramdas Pophale) SiO2 
 PCOD8201301
Probable space group: P N N N
;
_chemical_formula_sum "Si O2"
_cell_formula_units_Z 60
_cell_length_a 21.042570
_cell_length_b 15.987944
_cell_length_c 9.516308
_cell_angle_alpha 90.000000
_cell_angle_beta 90.000000
_cell_angle_gamma 90.000000
_cell_volume 3201.547051
_symmetry_space_group_name_H-M "P N N N"
_symmetry_group_IT_number 48
_space_group.IT_coordinate_system_code '2'
_symmetry_cell_setting 'orthorhombic'
loop_
_space_group_symop_operation_xyz
x,y,z
1/2-x,1/2-y,z
x,1/2-y,1/2-z
1/2-x,y,1/2-z
-x,-y,-z
1/2+x,1/2+y,-z
-x,1/2+y,1/2+z
1/2+x,-y,1/2+z
loop_
_atom_site_type_symbol
_atom_site_label
_atom_site_fract_x
_atom_site_fract_y
_atom_site_fract_z
Si Si1 0.026491 0.750000 0.250000
Si Si2 0.548908 0.169582 0.332299
Si Si3 0.059714 0.251160 0.021506
Si Si4 0.926623 0.095269 0.873073
Si Si5 0.085684 0.063816 0.457556
Si Si6 0.812899 0.796675 0.891290
Si Si7 0.023725 0.496886 0.787840
Si Si8 0.818387 0.976220 0.765628
O O1 0.980544 0.753315 0.381581
O O2 0.071902 0.831226 0.244021
O O3 0.580846 0.250000 0.250000
O O4 0.476086 0.193511 0.365353
O O5 0.583008 0.141117 0.476905
O O6 0.551197 0.089053 0.233802
O O7 0.064792 0.343617 0.084842
O O8 0.130192 0.213500 0.995865
O O9 0.867222 0.034088 0.851397
O O10 0.996392 0.047647 0.855103
O O11 0.155057 0.046176 0.390569
O O12 0.038680 0.997247 0.385831
O O13 0.080076 0.052446 0.628116
O O14 0.750000 0.750000 0.950533
O O15 0.834864 0.750000 0.750000
O O16 0.802661 0.894022 0.858529
O O17 0.750000 0.022295 0.750000
#
# Coordination Sequence:
#
# PCOD8201301 Si02
#       8
#     4   8   8   8   8   8   8   8
#     4  10  22  36  52  82 118 150 190 236 296 352
#     4  11  21  33  55  81 115 151 190 232 298 355
#     4  11  18  33  52  80 113 153 182 228 285 344
#     4  10  22  35  56  82 118 147 192 248 294 347
#     4  10  18  29  53  77 114 144 183 227 283 343
#     4  11  19  32  56  86 115 149 193 233 273 345
#     4  10  19  32  49  84 112 147 181 231 293 351
#     4  11  21  37  58  86 115 153 201 247 290 342
#
# _framework density 18.740939999999998
#
# number of rings (size 3 to 8) (size 9 to 14) (size 15 to 20)
#    0.000    1.467    5.333    2.400    0.000    1.067 
#    0.000    0.667    0.000    0.800    0.000    2.800 
#    0.000    0.000    0.000    0.000    0.000    0.000 
#
# Total GULP energy -743283.426588 kJ/mol
# GULP energy per Si atom -12388.057110 kJ/mol
# Density = 1.869828 g / cm^3
# Si number density = 18.740940 Si / 1000 Ang^3
#
#
#
# Elastic Constant Matrix: (Units=GPa)
#
#
# Indices 1 2 3 4 5 6 
#
# 1 97.6008 37.8425 31.4235 0.0000 0.0000 0.0000
# 2 37.8425 113.1364 28.1560 0.0000 0.0000 0.0000
# 3 31.4235 28.1560 69.6010 0.0000 0.0000 0.0000
# 4 0.0000 0.0000 0.0000 31.2413 0.0000 0.0000
# 5 0.0000 0.0000 0.0000 0.0000 17.3605 0.0000
# 6 0.0000 0.0000 0.0000 0.0000 0.0000 22.9523
#
#
#
# Elastic Compliance Matrix: (Units=1/GPa)
#
#
# Indices 1 2 3 4 5 6 
#
# 1 0.012952 -0.003199 -0.004554 0.000000 0.000000 0.000000
# 2 -0.003199 0.010619 -0.002851 0.000000 0.000000 0.000000
# 3 -0.004554 -0.002851 0.017577 0.000000 0.000000 0.000000
# 4 0.000000 0.000000 0.000000 0.032009 0.000000 0.000000
# 5 0.000000 0.000000 0.000000 0.000000 0.057602 0.000000
# 6 0.000000 0.000000 0.000000 0.000000 0.000000 0.043569
#
#
# Mechanical properties :
#
#
# Convention : Reuss Voigt Hill
#
# Bulk Modulus (GPa) = 50.15072 52.79802 51.47437
# Shear Modulus (GPa) = 24.73025 26.50523 25.61774
#
# Velocity S-wave (km/s) = 3.63655 3.76479 3.70123
# Velocity P-wave (km/s) = 6.66714 6.86527 6.76693
#
# Compressibility (1/GPa) = 0.01993989
#
# Stress axis : x y z
#
# Youngs Moduli (GPa) = 77.20657 94.17513 56.89294
#
# Poissons Ratio (x) = 0.30128 0.25907
# Poissons Ratio (y) = 0.24699 0.16221
# Poissons Ratio (z) = 0.35156 0.26851
#
# Static dielectric constant tensor:
#      x y z
#    x 3.268810 0.000000 0.000000 
#    y 0.000000 3.707310 0.000000 
#    z 0.000000 0.000000 3.471590 
# 
# 
# High freq. dielectric constant tensor:
#      x y z
#    x 1.684630 0.000000 0.000000 
#    y 0.000000 1.742820 0.000000 
#    z 0.000000 0.000000 1.712060 
# 
# From -- ./inp_files/23007.got.cif
#   From: 2010.06.25/outbox.cif.g09.slc.cpg/sg48_12_cif.got.tgz:23007.got - 2010.06.26 18:06:46.
