data_PCOD8201975
_publ_section_title
;
Structure prediction by ZEFSAII (Michael W. Deem and Ramdas Pophale) SiO2 
 PCOD8201975
Probable space group: P N N N
;
_chemical_formula_sum "Si O2"
_cell_formula_units_Z 40
_cell_length_a 16.864008
_cell_length_b 8.320757
_cell_length_c 11.516245
_cell_angle_alpha 90.000000
_cell_angle_beta 90.000000
_cell_angle_gamma 90.000000
_cell_volume 1615.974615
_symmetry_space_group_name_H-M "P N N N"
_symmetry_group_IT_number 48
_space_group.IT_coordinate_system_code '2'
_symmetry_cell_setting 'orthorhombic'
loop_
_space_group_symop_operation_xyz
x,y,z
1/2-x,1/2-y,z
x,1/2-y,1/2-z
1/2-x,y,1/2-z
-x,-y,-z
1/2+x,1/2+y,-z
-x,1/2+y,1/2+z
1/2+x,-y,1/2+z
loop_
_atom_site_type_symbol
_atom_site_label
_atom_site_fract_x
_atom_site_fract_y
_atom_site_fract_z
Si Si1 0.179774 0.650009 0.931772
Si Si2 0.782553 0.572369 0.870182
Si Si3 0.600978 0.931449 0.262041
Si Si4 0.435053 0.072213 0.255683
Si Si5 0.091834 0.949490 0.005615
O O1 0.250000 0.750000 0.870442
O O2 0.139401 0.540163 0.836353
O O3 0.112528 0.758408 0.998699
O O4 0.232709 0.545966 0.023107
O O5 0.750000 0.750000 0.895640
O O6 0.750000 0.501135 0.750000
O O7 0.878345 0.572878 0.855829
O O8 0.628460 0.750000 0.250000
O O9 0.505510 0.943637 0.248677
O O10 0.632056 0.980619 0.389176
O O11 0.474403 0.250000 0.250000
O O12 0.380560 0.031984 0.372451
O O13 0.000000 0.000000 0.000000
#
# Coordination Sequence:
#
# PCOD8201975 Si02
#       5
#     8   8   8   8   8
#     4  12  28  48  75 106 155 201 258 311 387 458
#     4  11  25  46  73 114 150 195 246 309 384 446
#     4  11  27  46  74 112 144 195 257 310 379 449
#     4  11  23  44  77 106 157 191 245 310 376 455
#     4  10  24  47  72 107 150 196 250 312 376 452
#
# _framework density 24.752863999999999
#
# number of rings (size 3 to 8) (size 9 to 14) (size 15 to 20)
#    0.000    1.000    2.000    4.200    8.400    4.400 
#    0.000    1.000    0.000    0.000    0.000    0.000 
#    0.000    0.000    0.000    0.000    0.000    0.000 
#
# Total GULP energy -495694.654105 kJ/mol
# GULP energy per Si atom -12392.366353 kJ/mol
# Density = 2.469653 g / cm^3
# Si number density = 24.752864 Si / 1000 Ang^3
#
#
#
# Elastic Constant Matrix: (Units=GPa)
#
#
# Indices 1 2 3 4 5 6 
#
# 1 76.0469 47.5322 36.4513 0.0000 0.0000 0.0000
# 2 47.5322 162.8439 90.4716 0.0000 0.0000 0.0000
# 3 36.4513 90.4716 150.6574 0.0000 0.0000 0.0000
# 4 0.0000 0.0000 0.0000 45.5085 0.0000 0.0000
# 5 0.0000 0.0000 0.0000 0.0000 45.5035 0.0000
# 6 0.0000 0.0000 0.0000 0.0000 0.0000 40.6871
#
#
#
# Elastic Compliance Matrix: (Units=1/GPa)
#
#
# Indices 1 2 3 4 5 6 
#
# 1 0.016348 -0.003863 -0.001636 0.000000 0.000000 0.000000
# 2 -0.003863 0.010128 -0.005147 0.000000 0.000000 0.000000
# 3 -0.001636 -0.005147 0.010124 0.000000 0.000000 0.000000
# 4 0.000000 0.000000 0.000000 0.021974 0.000000 0.000000
# 5 0.000000 0.000000 0.000000 0.000000 0.021976 0.000000
# 6 0.000000 0.000000 0.000000 0.000000 0.000000 0.024578
#
#
# Mechanical properties :
#
#
# Convention : Reuss Voigt Hill
#
# Bulk Modulus (GPa) = 65.32268 82.05093 73.68680
# Shear Modulus (GPa) = 38.01573 40.67936 39.34754
#
# Velocity S-wave (km/s) = 3.92319 4.05831 3.99132
# Velocity P-wave (km/s) = 6.85341 7.42831 7.14664
#
# Compressibility (1/GPa) = 0.01530862
#
# Stress axis : x y z
#
# Youngs Moduli (GPa) = 61.16796 98.73351 98.77128
#
# Poissons Ratio (x) = 0.38143 0.16154
# Poissons Ratio (y) = 0.23631 0.50842
# Poissons Ratio (z) = 0.10004 0.50823
#
# Static dielectric constant tensor:
#      x y z
#    x 4.570910 0.000000 0.000000 
#    y 0.000000 4.449550 0.000000 
#    z 0.000000 0.000000 5.037300 
# 
# 
# High freq. dielectric constant tensor:
#      x y z
#    x 2.003260 0.000000 0.000000 
#    y 0.000000 1.978460 0.000000 
#    z 0.000000 0.000000 1.989090 
# 
# From -- ./inp_files/21908.got.cif
#   From: 2010.06.25/outbox.cif.g09.slc.cpg/sg48_11_cif.got.tgz:21908.got - 2010.06.26 18:06:46.
