data_PCOD8201500
_publ_section_title
;
Structure prediction by ZEFSAII (Michael W. Deem and Ramdas Pophale) SiO2 
 PCOD8201500
Probable space group: P N N N
;
_chemical_formula_sum "Si O2"
_cell_formula_units_Z 48
_cell_length_a 24.575886
_cell_length_b 4.983567
_cell_length_c 24.120901
_cell_angle_alpha 90.000000
_cell_angle_beta 90.000000
_cell_angle_gamma 90.000000
_cell_volume 2954.221207
_symmetry_space_group_name_H-M "P N N N"
_symmetry_group_IT_number 48
_space_group.IT_coordinate_system_code '2'
_symmetry_cell_setting 'orthorhombic'
loop_
_space_group_symop_operation_xyz
x,y,z
1/2-x,1/2-y,z
x,1/2-y,1/2-z
1/2-x,y,1/2-z
-x,-y,-z
1/2+x,1/2+y,-z
-x,1/2+y,1/2+z
1/2+x,-y,1/2+z
loop_
_atom_site_type_symbol
_atom_site_label
_atom_site_fract_x
_atom_site_fract_y
_atom_site_fract_z
Si Si1 0.558270 0.397517 0.020149
Si Si2 0.151372 0.805482 0.187109
Si Si3 0.311355 0.317191 0.376907
Si Si4 0.000583 0.289998 0.120094
Si Si5 0.097902 0.132769 0.462372
Si Si6 0.975828 0.212614 0.813149
O O1 0.552265 0.285414 0.082729
O O2 0.500000 0.500000 0.000000
O O3 0.596930 0.658989 0.014479
O O4 0.583204 0.166463 0.981231
O O5 0.169077 0.750000 0.250000
O O6 0.187554 0.609170 0.150301
O O7 0.088153 0.734796 0.178979
O O8 0.163123 0.108132 0.167351
O O9 0.250000 0.250000 0.392599
O O10 0.343196 0.339162 0.434913
O O11 0.054335 0.273492 0.082999
O O12 0.992213 0.582660 0.146629
O O13 0.007228 0.085842 0.170683
O O14 0.993893 0.250000 0.750000
#
# Coordination Sequence:
#
# PCOD8201500 Si02
#       6
#     8   8   8   8   8   8
#     4  10  20  30  51  72  88 115 148 191 247 277
#     4  11  22  37  50  64  88 124 166 212 250 278
#     4  12  24  36  51  67  89 125 161 207 257 285
#     4  11  18  32  49  68  92 116 153 191 231 282
#     4  11  19  34  47  68  94 114 152 203 235 287
#     4  11  20  31  48  68  93 125 153 189 238 277
#
# _framework density 16.247938000000001
#
# number of rings (size 3 to 8) (size 9 to 14) (size 15 to 20)
#    0.000    1.000    3.333    7.500    0.000    4.667 
#    0.000    0.000    0.000    0.000    0.000    0.000 
#    0.000    0.000    0.000    0.000    0.000   58.333 
#
# Total GULP energy -595175.517532 kJ/mol
# GULP energy per Si atom -12399.489949 kJ/mol
# Density = 1.621096 g / cm^3
# Si number density = 16.247938 Si / 1000 Ang^3
#
#
#
# Elastic Constant Matrix: (Units=GPa)
#
#
# Indices 1 2 3 4 5 6 
#
# 1 49.4135 11.3195 32.2942 0.0000 0.0000 0.0000
# 2 11.3195 75.0365 9.4167 0.0000 0.0000 0.0000
# 3 32.2942 9.4167 59.7939 0.0000 0.0000 0.0000
# 4 0.0000 0.0000 0.0000 36.9562 0.0000 0.0000
# 5 0.0000 0.0000 0.0000 0.0000 15.6191 0.0000
# 6 0.0000 0.0000 0.0000 0.0000 0.0000 15.2752
#
#
#
# Elastic Compliance Matrix: (Units=1/GPa)
#
#
# Indices 1 2 3 4 5 6 
#
# 1 0.031803 -0.002695 -0.016752 0.000000 0.000000 0.000000
# 2 -0.002695 0.013824 -0.000721 0.000000 0.000000 0.000000
# 3 -0.016752 -0.000721 0.025885 0.000000 0.000000 0.000000
# 4 0.000000 0.000000 0.000000 0.027059 0.000000 0.000000
# 5 0.000000 0.000000 0.000000 0.000000 0.064024 0.000000
# 6 0.000000 0.000000 0.000000 0.000000 0.000000 0.065466
#
#
# Mechanical properties :
#
#
# Convention : Reuss Voigt Hill
#
# Bulk Modulus (GPa) = 32.07709 32.25609 32.16659
# Shear Modulus (GPa) = 17.93457 22.31765 20.12611
#
# Velocity S-wave (km/s) = 3.32596 3.71019 3.52332
# Velocity P-wave (km/s) = 5.87660 6.18462 6.03258
#
# Compressibility (1/GPa) = 0.03117489
#
# Stress axis : x y z
#
# Youngs Moduli (GPa) = 31.44329 72.33810 38.63168
#
# Poissons Ratio (x) = 0.19497 0.64717
# Poissons Ratio (y) = 0.08475 0.02787
# Poissons Ratio (z) = 0.52675 0.05218
#
# Static dielectric constant tensor:
#      x y z
#    x 2.821210 0.000000 0.000000 
#    y 0.000000 3.404070 0.000000 
#    z 0.000000 0.000000 3.370180 
# 
# 
# High freq. dielectric constant tensor:
#      x y z
#    x 1.566950 0.000000 0.000000 
#    y 0.000000 1.654090 0.000000 
#    z 0.000000 0.000000 1.615390 
# 
# From -- ./inp_files/34783.got.cif
#   From: 2010.06.25/outbox.cif.g09.slc.cpg/sg48_18_cif.got.tgz:34783.got - 2010.06.26 18:06:46.
