data_PCOD8201540
_publ_section_title
;
Structure prediction by ZEFSAII (Michael W. Deem and Ramdas Pophale) SiO2 
 PCOD8201540
Probable space group: P N N N
;
_chemical_formula_sum "Si O2"
_cell_formula_units_Z 64
_cell_length_a 18.408365
_cell_length_b 14.440507
_cell_length_c 12.774881
_cell_angle_alpha 90.000000
_cell_angle_beta 90.000000
_cell_angle_gamma 90.000000
_cell_volume 3395.897096
_symmetry_space_group_name_H-M "P N N N"
_symmetry_group_IT_number 48
_space_group.IT_coordinate_system_code '2'
_symmetry_cell_setting 'orthorhombic'
loop_
_space_group_symop_operation_xyz
x,y,z
1/2-x,1/2-y,z
x,1/2-y,1/2-z
1/2-x,y,1/2-z
-x,-y,-z
1/2+x,1/2+y,-z
-x,1/2+y,1/2+z
1/2+x,-y,1/2+z
loop_
_atom_site_type_symbol
_atom_site_label
_atom_site_fract_x
_atom_site_fract_y
_atom_site_fract_z
Si Si1 0.426598 0.238545 0.369795
Si Si2 0.249723 0.994976 0.364412
Si Si3 0.694175 0.664607 0.511288
Si Si4 0.525054 0.247574 0.942895
Si Si5 0.179563 0.703099 0.136138
Si Si6 0.099742 0.462335 0.418374
Si Si7 0.596438 0.660150 0.318023
Si Si8 0.465446 0.061417 0.636693
O O1 0.448141 0.250000 0.250000
O O2 0.371229 0.317058 0.407974
O O3 0.501546 0.244168 0.435678
O O4 0.382710 0.143625 0.390540
O O5 0.250000 0.042562 0.250000
O O6 0.196486 0.906516 0.358431
O O7 0.228802 0.068619 0.452635
O O8 0.333540 0.969218 0.391141
O O9 0.750000 0.750000 0.508135
O O10 0.664333 0.645206 0.394619
O O11 0.609412 0.220218 0.935706
O O12 0.477501 0.169895 0.884602
O O13 0.508171 0.343850 0.886492
O O14 0.250000 0.750000 0.082414
O O15 0.167369 0.750000 0.250000
O O16 0.085376 0.471809 0.542130
O O17 0.029155 0.486744 0.348146
O O18 0.614726 0.750000 0.250000
O O19 0.584090 0.572547 0.240409
#
# Coordination Sequence:
#
# PCOD8201540 Si02
#       8
#     8   8   8   8   8   8   8   8
#     4  10  20  39  57  80 114 161 197 237 298 360
#     4  12  24  36  57  85 121 158 191 241 308 358
#     4  11  23  38  56  88 125 158 201 244 299 368
#     4   9  19  35  59  85 114 145 196 253 293 345
#     4  11  21  38  60  90 116 148 196 247 307 358
#     4  10  20  35  56  85 114 152 202 239 287 356
#     4   9  19  36  59  86 117 159 196 244 305 341
#     4   9  18  35  61  84 112 150 202 251 285 349
#
# _framework density 18.846271999999999
#
# number of rings (size 3 to 8) (size 9 to 14) (size 15 to 20)
#    0.000    1.875    2.500    3.375    1.750    0.250 
#    2.250    1.250    0.000    0.375    3.250    0.000 
#    0.000    0.000    0.000    0.000    0.000    0.000 
#
# Total GULP energy -793340.148981 kJ/mol
# GULP energy per Si atom -12395.939828 kJ/mol
# Density = 1.880338 g / cm^3
# Si number density = 18.846272 Si / 1000 Ang^3
#
#
#
# Elastic Constant Matrix: (Units=GPa)
#
#
# Indices 1 2 3 4 5 6 
#
# 1 116.1922 32.5620 59.3125 0.0000 0.0000 0.0000
# 2 32.5620 61.9631 32.2158 0.0000 0.0000 0.0000
# 3 59.3125 32.2158 126.3718 0.0000 0.0000 0.0000
# 4 0.0000 0.0000 0.0000 21.8387 0.0000 0.0000
# 5 0.0000 0.0000 0.0000 0.0000 19.3640 0.0000
# 6 0.0000 0.0000 0.0000 0.0000 0.0000 22.5361
#
#
#
# Elastic Compliance Matrix: (Units=1/GPa)
#
#
# Indices 1 2 3 4 5 6 
#
# 1 0.012093 -0.003924 -0.004675 0.000000 0.000000 0.000000
# 2 -0.003924 0.019878 -0.003226 0.000000 0.000000 0.000000
# 3 -0.004675 -0.003226 0.010930 0.000000 0.000000 0.000000
# 4 0.000000 0.000000 0.000000 0.045790 0.000000 0.000000
# 5 0.000000 0.000000 0.000000 0.000000 0.051642 0.000000
# 6 0.000000 0.000000 0.000000 0.000000 0.000000 0.044373
#
#
# Mechanical properties :
#
#
# Convention : Reuss Voigt Hill
#
# Bulk Modulus (GPa) = 51.94731 61.41198 56.67964
# Shear Modulus (GPa) = 23.28039 24.77689 24.02864
#
# Velocity S-wave (km/s) = 3.51847 3.62979 3.57456
# Velocity P-wave (km/s) = 6.64302 7.08687 6.86853
#
# Compressibility (1/GPa) = 0.01925028
#
# Stress axis : x y z
#
# Youngs Moduli (GPa) = 82.69431 50.30731 91.49240
#
# Poissons Ratio (x) = 0.19741 0.42776
# Poissons Ratio (y) = 0.32449 0.29513
# Poissons Ratio (z) = 0.38663 0.16228
#
# Static dielectric constant tensor:
#      x y z
#    x 3.481320 0.000000 0.000000 
#    y 0.000000 3.362870 0.000000 
#    z 0.000000 0.000000 3.469050 
# 
# 
# High freq. dielectric constant tensor:
#      x y z
#    x 1.732660 0.000000 0.000000 
#    y 0.000000 1.715400 0.000000 
#    z 0.000000 0.000000 1.720100 
# 
# From -- ./inp_files/22353.got.cif
#   From: 2010.06.25/outbox.cif.g09.slc.cpg/sg48_12_cif.got.tgz:22353.got - 2010.06.26 18:06:46.
