data_PCOD8201298
_publ_section_title
;
Structure prediction by ZEFSAII (Michael W. Deem and Ramdas Pophale) SiO2 
 PCOD8201298
Probable space group: P N N N
;
_chemical_formula_sum "Si O2"
_cell_formula_units_Z 64
_cell_length_a 20.172460
_cell_length_b 8.422334
_cell_length_c 21.379554
_cell_angle_alpha 90.000000
_cell_angle_beta 90.000000
_cell_angle_gamma 90.000000
_cell_volume 3632.369029
_symmetry_space_group_name_H-M "P N N N"
_symmetry_group_IT_number 48
_space_group.IT_coordinate_system_code '2'
_symmetry_cell_setting 'orthorhombic'
loop_
_space_group_symop_operation_xyz
x,y,z
1/2-x,1/2-y,z
x,1/2-y,1/2-z
1/2-x,y,1/2-z
-x,-y,-z
1/2+x,1/2+y,-z
-x,1/2+y,1/2+z
1/2+x,-y,1/2+z
loop_
_atom_site_type_symbol
_atom_site_label
_atom_site_fract_x
_atom_site_fract_y
_atom_site_fract_z
Si Si1 0.562762 0.604978 0.879944
Si Si2 0.679475 0.789560 0.468067
Si Si3 0.953182 0.658265 0.073359
Si Si4 0.364115 0.897626 0.478093
Si Si5 0.044339 0.796931 0.182439
Si Si6 0.537465 0.301514 0.449278
Si Si7 0.681042 0.307284 0.633562
Si Si8 0.680897 0.824632 0.895263
O O1 0.545307 0.488518 0.822495
O O2 0.497415 0.705379 0.893937
O O3 0.622912 0.722823 0.862122
O O4 0.580082 0.493470 0.939403
O O5 0.750000 0.750000 0.434967
O O6 0.617609 0.748748 0.423079
O O7 0.671991 0.682074 0.530121
O O8 0.682411 0.975087 0.487154
O O9 0.942321 0.470514 0.079262
O O10 0.999141 0.718858 0.129112
O O11 0.987093 0.690762 0.007082
O O12 0.396202 0.787755 0.530782
O O13 0.321751 0.786808 0.432245
O O14 0.015572 0.750000 0.250000
O O15 0.119702 0.736457 0.177350
O O16 0.750000 0.250000 0.665483
O O17 0.677938 0.494657 0.624906
O O18 0.750000 0.750000 0.873138
#
# Coordination Sequence:
#
# PCOD8201298 Si02
#       8
#     8   8   8   8   8   8   8   8
#     4  10  18  31  51  75 104 136 176 219 265 318
#     4  10  19  31  50  81 115 141 169 211 269 334
#     4  11  20  33  55  78 111 138 175 223 269 325
#     4  10  18  28  48  76 109 139 170 209 264 324
#     4  11  24  39  54  74 102 143 188 226 265 314
#     4  11  18  30  54  85 107 135 173 215 278 324
#     4  11  20  33  51  73 105 145 187 224 263 303
#     4  10  18  30  48  76 109 140 172 214 271 323
#
# _framework density 17.619356
#
# number of rings (size 3 to 8) (size 9 to 14) (size 15 to 20)
#    0.000    1.500    5.000    5.625    0.000    0.250 
#    0.000    2.500    0.000    1.125    0.000    0.000 
#    0.000    2.000    0.000    0.000    0.000    0.000 
#
# Total GULP energy -793590.295079 kJ/mol
# GULP energy per Si atom -12399.848361 kJ/mol
# Density = 1.757925 g / cm^3
# Si number density = 17.619356 Si / 1000 Ang^3
#
#
#
# Elastic Constant Matrix: (Units=GPa)
#
#
# Indices 1 2 3 4 5 6 
#
# 1 74.3786 22.9012 26.1469 0.0000 0.0000 0.0000
# 2 22.9012 131.3479 30.9201 0.0000 0.0000 0.0000
# 3 26.1469 30.9201 41.7330 0.0000 0.0000 0.0000
# 4 0.0000 0.0000 0.0000 14.9421 0.0000 0.0000
# 5 0.0000 0.0000 0.0000 0.0000 6.3673 0.0000
# 6 0.0000 0.0000 0.0000 0.0000 0.0000 30.5510
#
#
#
# Elastic Compliance Matrix: (Units=1/GPa)
#
#
# Indices 1 2 3 4 5 6 
#
# 1 0.017277 -0.000562 -0.010408 0.000000 0.000000 0.000000
# 2 -0.000562 0.009240 -0.006494 0.000000 0.000000 0.000000
# 3 -0.010408 -0.006494 0.035294 0.000000 0.000000 0.000000
# 4 0.000000 0.000000 0.000000 0.066925 0.000000 0.000000
# 5 0.000000 0.000000 0.000000 0.000000 0.157053 0.000000
# 6 0.000000 0.000000 0.000000 0.000000 0.000000 0.032732
#
#
# Mechanical properties :
#
#
# Convention : Reuss Voigt Hill
#
# Bulk Modulus (GPa) = 37.19810 45.26622 41.23216
# Shear Modulus (GPa) = 13.79657 21.53816 17.66736
#
# Velocity S-wave (km/s) = 2.80131 3.50010 3.17002
# Velocity P-wave (km/s) = 5.62326 6.48700 6.07051
#
# Compressibility (1/GPa) = 0.02688309
#
# Stress axis : x y z
#
# Youngs Moduli (GPa) = 57.88202 108.22437 28.33360
#
# Poissons Ratio (x) = 0.06085 0.29489
# Poissons Ratio (y) = 0.03254 0.18399
# Poissons Ratio (z) = 0.60242 0.70278
#
# Static dielectric constant tensor:
#      x y z
#    x 3.350780 0.000000 0.000000 
#    y 0.000000 3.628080 0.000000 
#    z 0.000000 0.000000 2.747410 
# 
# 
# High freq. dielectric constant tensor:
#      x y z
#    x 1.678390 0.000000 0.000000 
#    y 0.000000 1.706480 0.000000 
#    z 0.000000 0.000000 1.610920 
# 
# From -- ./inp_files/34894.got.cif
#   From: 2010.06.25/outbox.cif.g09.slc.cpg/sg48_18_cif.got.tgz:34894.got - 2010.06.26 18:06:46.
