data_PCOD8201307
_publ_section_title
;
Structure prediction by ZEFSAII (Michael W. Deem and Ramdas Pophale) SiO2 
 PCOD8201307
Probable space group: P N N N
;
_chemical_formula_sum "Si O2"
_cell_formula_units_Z 52
_cell_length_a 22.854314
_cell_length_b 15.208668
_cell_length_c 8.981912
_cell_angle_alpha 90.000000
_cell_angle_beta 90.000000
_cell_angle_gamma 90.000000
_cell_volume 3121.965972
_symmetry_space_group_name_H-M "P N N N"
_symmetry_group_IT_number 48
_space_group.IT_coordinate_system_code '2'
_symmetry_cell_setting 'orthorhombic'
loop_
_space_group_symop_operation_xyz
x,y,z
1/2-x,1/2-y,z
x,1/2-y,1/2-z
1/2-x,y,1/2-z
-x,-y,-z
1/2+x,1/2+y,-z
-x,1/2+y,1/2+z
1/2+x,-y,1/2+z
loop_
_atom_site_type_symbol
_atom_site_label
_atom_site_fract_x
_atom_site_fract_y
_atom_site_fract_z
Si Si1 0.962765 0.507866 0.351778
Si Si2 0.652791 0.595938 0.037594
Si Si3 0.750000 0.867593 0.250000
Si Si4 0.646137 0.800897 0.070314
Si Si5 0.368068 0.349925 0.263209
Si Si6 0.497329 0.658687 0.686791
Si Si7 0.979391 0.833922 0.339467
O O1 0.897070 0.534784 0.395131
O O2 0.957723 0.418901 0.254707
O O3 0.996879 0.578706 0.249625
O O4 0.000000 0.500000 0.500000
O O5 0.712284 0.575560 0.130438
O O6 0.633855 0.698966 0.033146
O O7 0.660714 0.582475 0.857539
O O8 0.705112 0.805327 0.163396
O O9 0.591311 0.832658 0.167138
O O10 0.651171 0.870040 0.932736
O O11 0.345466 0.250000 0.250000
O O12 0.437993 0.356082 0.248151
O O13 0.471885 0.750000 0.750000
O O14 0.495795 0.661869 0.507100
O O15 0.005172 0.750000 0.250000
#
# Coordination Sequence:
#
# PCOD8201307 Si02
#       7
#     8   8   4   8   8   8   8
#     4  12  21  32  51  76 103 141 175 215 261 318
#     4  11  19  32  47  73  99 134 175 211 253 306
#     4  12  21  30  50  70  99 138 177 212 254 312
#     4  10  18  31  49  69  99 137 172 208 251 304
#     4   8  17  30  46  65  97 131 167 206 251 299
#     4  10  20  34  51  73 100 138 173 217 261 311
#     4  11  19  33  51  73 105 137 173 211 260 315
#
# _framework density 16.656172999999999
#
# number of rings (size 3 to 8) (size 9 to 14) (size 15 to 20)
#    0.000    1.538    4.615    3.692    0.000    0.615 
#    0.000    2.308    0.000    0.000    0.000    0.538 
#    0.000    0.000    0.000    0.462    0.000    0.000 
#
# Total GULP energy -644223.384710 kJ/mol
# GULP energy per Si atom -12388.911244 kJ/mol
# Density = 1.661826 g / cm^3
# Si number density = 16.656173 Si / 1000 Ang^3
#
#
#
# Elastic Constant Matrix: (Units=GPa)
#
#
# Indices 1 2 3 4 5 6 
#
# 1 54.6348 24.0167 34.2617 0.0000 0.0000 0.0000
# 2 24.0167 90.4131 55.2599 0.0000 0.0000 0.0000
# 3 34.2617 55.2599 149.3506 0.0000 0.0000 0.0000
# 4 0.0000 0.0000 0.0000 27.9868 0.0000 0.0000
# 5 0.0000 0.0000 0.0000 0.0000 25.1718 0.0000
# 6 0.0000 0.0000 0.0000 0.0000 0.0000 16.8122
#
#
#
# Elastic Compliance Matrix: (Units=1/GPa)
#
#
# Indices 1 2 3 4 5 6 
#
# 1 0.022253 -0.003607 -0.003771 0.000000 0.000000 0.000000
# 2 -0.003607 0.014877 -0.004677 0.000000 0.000000 0.000000
# 3 -0.003771 -0.004677 0.009291 0.000000 0.000000 0.000000
# 4 0.000000 0.000000 0.000000 0.035731 0.000000 0.000000
# 5 0.000000 0.000000 0.000000 0.000000 0.039727 0.000000
# 6 0.000000 0.000000 0.000000 0.000000 0.000000 0.059481
#
#
# Mechanical properties :
#
#
# Convention : Reuss Voigt Hill
#
# Bulk Modulus (GPa) = 44.81727 57.94167 51.37947
# Shear Modulus (GPa) = 23.48447 26.05150 24.76799
#
# Velocity S-wave (km/s) = 3.75901 3.95913 3.86037
# Velocity P-wave (km/s) = 6.76801 7.46740 7.12629
#
# Compressibility (1/GPa) = 0.02231282
#
# Stress axis : x y z
#
# Youngs Moduli (GPa) = 44.93712 67.21774 107.62902
#
# Poissons Ratio (x) = 0.24243 0.40582
# Poissons Ratio (y) = 0.16207 0.50339
# Poissons Ratio (z) = 0.16944 0.31439
#
# Static dielectric constant tensor:
#      x y z
#    x 2.840020 0.000000 0.000000 
#    y 0.000000 2.891900 0.000000 
#    z 0.000000 0.000000 3.782810 
# 
# 
# High freq. dielectric constant tensor:
#      x y z
#    x 1.598140 0.000000 0.000000 
#    y 0.000000 1.593690 0.000000 
#    z 0.000000 0.000000 1.684310 
# 
# From -- ./inp_files/15989.got.cif
#   From: 2010.06.25/outbox.cif.g09.slc.cpg/sg48_8_cif.got.tgz:15989.got - 2010.06.26 18:06:46.
