data_PCOD8201498
_publ_section_title
;
Structure prediction by ZEFSAII (Michael W. Deem and Ramdas Pophale) SiO2 
 PCOD8201498
Probable space group: P N N N
;
_chemical_formula_sum "Si O2"
_cell_formula_units_Z 64
_cell_length_a 8.555581
_cell_length_b 15.973458
_cell_length_c 29.695193
_cell_angle_alpha 90.000000
_cell_angle_beta 90.000000
_cell_angle_gamma 90.000000
_cell_volume 4058.210814
_symmetry_space_group_name_H-M "P N N N"
_symmetry_group_IT_number 48
_space_group.IT_coordinate_system_code '2'
_symmetry_cell_setting 'orthorhombic'
loop_
_space_group_symop_operation_xyz
x,y,z
1/2-x,1/2-y,z
x,1/2-y,1/2-z
1/2-x,y,1/2-z
-x,-y,-z
1/2+x,1/2+y,-z
-x,1/2+y,1/2+z
1/2+x,-y,1/2+z
loop_
_atom_site_type_symbol
_atom_site_label
_atom_site_fract_x
_atom_site_fract_y
_atom_site_fract_z
Si Si1 0.950244 0.543208 0.545887
Si Si2 0.443671 0.087102 0.888012
Si Si3 0.562027 0.152652 0.699618
Si Si4 0.340113 0.672348 0.990940
Si Si5 0.863863 0.476316 0.965721
Si Si6 0.921101 0.759476 0.062236
Si Si7 0.591753 0.923440 0.382349
Si Si8 0.572489 0.343074 0.698487
O O1 0.762222 0.551870 0.540613
O O2 0.000000 0.500000 0.500000
O O3 0.048233 0.629712 0.547004
O O4 0.986006 0.488187 0.589875
O O5 0.560605 0.029107 0.916211
O O6 0.462870 0.175180 0.912530
O O7 0.270747 0.047050 0.887579
O O8 0.489544 0.094288 0.835931
O O9 0.468766 0.085272 0.668999
O O10 0.507779 0.248596 0.691919
O O11 0.744542 0.150483 0.688552
O O12 0.531834 0.126175 0.751221
O O13 0.250000 0.750000 0.967279
O O14 0.224508 0.607011 0.016130
O O15 0.448628 0.718456 0.026669
O O16 0.000000 0.500000 0.000000
O O17 0.750000 0.750000 0.039126
O O18 0.920761 0.830401 0.099519
#
# Coordination Sequence:
#
# PCOD8201498 Si02
#       8
#     8   8   8   8   8   8   8   8
#     4  10  20  33  48  63  91 119 159 200 244 285
#     4  11  20  29  46  67  92 122 168 199 238 281
#     4   9  18  30  43  60  91 120 163 199 246 268
#     4  11  21  34  50  68  91 126 160 204 245 288
#     4  11  22  33  48  69  94 124 160 202 239 288
#     4  10  20  29  44  69  91 124 166 204 239 282
#     4  11  19  32  45  64  93 127 156 209 243 287
#     4   9  18  29  43  64  85 123 161 207 230 282
#
# _framework density 15.770497000000001
#
# number of rings (size 3 to 8) (size 9 to 14) (size 15 to 20)
#    0.000    1.750    5.000    3.000    1.750    0.500 
#    0.000    1.250    0.000    0.000    0.000    0.000 
#    0.000    0.000    0.000    9.000    0.000   38.750 
#
# Total GULP energy -793025.732577 kJ/mol
# GULP energy per Si atom -12391.027072 kJ/mol
# Density = 1.573460 g / cm^3
# Si number density = 15.770497 Si / 1000 Ang^3
#
#
#
# Elastic Constant Matrix: (Units=GPa)
#
#
# Indices 1 2 3 4 5 6 
#
# 1 105.9883 35.4245 44.7657 0.0000 0.0000 0.0000
# 2 35.4245 41.9317 25.7262 0.0000 0.0000 0.0000
# 3 44.7657 25.7262 89.7927 0.0000 0.0000 0.0000
# 4 0.0000 0.0000 0.0000 24.1037 0.0000 0.0000
# 5 0.0000 0.0000 0.0000 0.0000 28.1694 0.0000
# 6 0.0000 0.0000 0.0000 0.0000 0.0000 24.2677
#
#
#
# Elastic Compliance Matrix: (Units=1/GPa)
#
#
# Indices 1 2 3 4 5 6 
#
# 1 0.014515 -0.009491 -0.004517 0.000000 0.000000 0.000000
# 2 -0.009491 0.035140 -0.005336 0.000000 0.000000 0.000000
# 3 -0.004517 -0.005336 0.014918 0.000000 0.000000 0.000000
# 4 0.000000 0.000000 0.000000 0.041487 0.000000 0.000000
# 5 0.000000 0.000000 0.000000 0.000000 0.035500 0.000000
# 6 0.000000 0.000000 0.000000 0.000000 0.000000 0.041207
#
#
# Mechanical properties :
#
#
# Convention : Reuss Voigt Hill
#
# Bulk Modulus (GPa) = 38.63369 49.94950 44.29159
# Shear Modulus (GPa) = 21.73116 24.09458 22.91287
#
# Velocity S-wave (km/s) = 3.71612 3.91298 3.81582
# Velocity P-wave (km/s) = 6.55464 7.22196 6.89638
#
# Compressibility (1/GPa) = 0.02588415
#
# Stress axis : x y z
#
# Youngs Moduli (GPa) = 68.89366 28.45720 67.03481
#
# Poissons Ratio (x) = 0.27009 0.30281
# Poissons Ratio (y) = 0.65388 0.35771
# Poissons Ratio (z) = 0.31120 0.15185
#
# Static dielectric constant tensor:
#      x y z
#    x 3.425890 0.000000 0.000000 
#    y 0.000000 2.859970 0.000000 
#    z 0.000000 0.000000 2.891310 
# 
# 
# High freq. dielectric constant tensor:
#      x y z
#    x 1.627310 0.000000 0.000000 
#    y 0.000000 1.556420 0.000000 
#    z 0.000000 0.000000 1.586480 
# 
# From -- ./inp_files/16510.got.cif
#   From: 2010.06.25/outbox.cif.g09.slc.cpg/sg48_9_cif.got.tgz:16510.got - 2010.06.26 18:06:46.
