data_PCOD8201217
_publ_section_title
;
Structure prediction by ZEFSAII (Michael W. Deem and Ramdas Pophale) SiO2 
 PCOD8201217
Probable space group: P M M M
;
_chemical_formula_sum "Si O2"
_cell_formula_units_Z 52
_cell_length_a 21.179325
_cell_length_b 9.485061
_cell_length_c 14.379805
_cell_angle_alpha 90.000000
_cell_angle_beta 90.000000
_cell_angle_gamma 90.000000
_cell_volume 2888.718613
_symmetry_space_group_name_H-M "P M M M"
_symmetry_group_IT_number 47
_symmetry_cell_setting 'orthorhombic'
loop_
_space_group_symop_operation_xyz
x,y,z
-x,-y,z
x,-y,-z
-x,y,-z
-x,-y,-z
x,y,-z
-x,y,z
x,-y,z
loop_
_atom_site_type_symbol
_atom_site_label
_atom_site_fract_x
_atom_site_fract_y
_atom_site_fract_z
Si Si1 0.377565 0.665673 0.212479
Si Si2 0.931422 0.164686 0.715285
Si Si3 0.500000 0.331438 0.892486
Si Si4 0.810515 0.161873 0.608488
Si Si5 0.864530 0.837502 0.896346
Si Si6 0.744446 0.661349 0.108400
Si Si7 0.313029 0.664674 0.605017
O O1 0.381086 0.500000 0.196290
O O2 0.439963 0.730853 0.164573
O O3 0.315977 0.725353 0.160792
O O4 0.370144 0.701004 0.323065
O O5 0.872696 0.228587 0.657677
O O6 0.921621 0.191281 0.825506
O O7 0.000000 0.231422 0.688385
O O8 0.933689 0.000000 0.692658
O O9 0.500000 0.500000 0.891754
O O10 0.500000 0.278111 0.000000
O O11 0.823442 0.172864 0.500000
O O12 0.749267 0.251566 0.636689
O O13 0.799057 0.000000 0.639666
O O14 0.804669 0.750421 0.860548
O O15 0.844144 0.000000 0.895067
O O16 0.885775 0.790561 0.000000
O O17 0.756976 0.500000 0.137108
O O18 0.730762 0.676540 0.000000
O O19 0.334132 0.706720 0.500000
O O20 0.296073 0.500000 0.610760
#
# Coordination Sequence:
#
# PCOD8201217 Si02
#       7
#     8   8   4   8   8   8   8
#     4   9  16  26  41  62  88 116 144 174 209 249
#     4   9  17  28  42  61  84 109 138 173 212 253
#     4   9  16  26  41  63  92 121 147 177 212 248
#     4   9  17  29  46  67  87 108 139 178 215 251
#     4   9  17  28  42  61  83 107 138 174 210 250
#     4   9  16  26  42  63  84 106 135 173 215 253
#     4   9  17  29  45  65  89 115 141 171 211 255
#
# _framework density 18.001061
#
# number of rings (size 3 to 8) (size 9 to 14) (size 15 to 20)
#    0.000    3.000    0.000    1.385    0.000    2.462 
#    0.000    3.462    0.000    4.154    0.000    6.462 
#    0.000    7.385    0.000    0.000    0.000    0.000 
#
# Total GULP energy -644419.461746 kJ/mol
# GULP energy per Si atom -12392.681957 kJ/mol
# Density = 1.796009 g / cm^3
# Si number density = 18.001061 Si / 1000 Ang^3
#
#
#
# Elastic Constant Matrix: (Units=GPa)
#
#
# Indices 1 2 3 4 5 6 
#
# 1 111.1941 22.7169 63.7921 0.0000 0.0000 0.0000
# 2 22.7169 25.0203 14.3712 0.0000 0.0000 0.0000
# 3 63.7921 14.3712 90.6157 0.0000 0.0000 0.0000
# 4 0.0000 0.0000 0.0000 14.3574 0.0000 0.0000
# 5 0.0000 0.0000 0.0000 0.0000 26.2539 0.0000
# 6 0.0000 0.0000 0.0000 0.0000 0.0000 8.8825
#
#
#
# Elastic Compliance Matrix: (Units=1/GPa)
#
#
# Indices 1 2 3 4 5 6 
#
# 1 0.016862 -0.009342 -0.010389 0.000000 0.000000 0.000000
# 2 -0.009342 0.049149 -0.001218 0.000000 0.000000 0.000000
# 3 -0.010389 -0.001218 0.018542 0.000000 0.000000 0.000000
# 4 0.000000 0.000000 0.000000 0.069651 0.000000 0.000000
# 5 0.000000 0.000000 0.000000 0.000000 0.038090 0.000000
# 6 0.000000 0.000000 0.000000 0.000000 0.000000 0.112581
#
#
# Mechanical properties :
#
#
# Convention : Reuss Voigt Hill
#
# Bulk Modulus (GPa) = 23.44378 47.62116 35.53247
# Shear Modulus (GPa) = 13.85069 18.29541 16.07305
#
# Velocity S-wave (km/s) = 2.77688 3.19149 2.99138
# Velocity P-wave (km/s) = 4.83045 6.33189 5.63143
#
# Compressibility (1/GPa) = 0.04265524
#
# Stress axis : x y z
#
# Youngs Moduli (GPa) = 59.30451 20.34611 53.93026
#
# Poissons Ratio (x) = 0.19008 0.56028
# Poissons Ratio (y) = 0.55405 0.06568
# Poissons Ratio (z) = 0.61611 0.02478
#
# Static dielectric constant tensor:
#      x y z
#    x 3.447390 0.000000 0.000000 
#    y 0.000000 2.988800 0.000000 
#    z 0.000000 0.000000 3.560410 
# 
# 
# High freq. dielectric constant tensor:
#      x y z
#    x 1.685950 0.000000 0.000000 
#    y 0.000000 1.643570 0.000000 
#    z 0.000000 0.000000 1.713730 
# 
# From -- ./inp_files/18596.got.cif
#   From: 2010.03.12/outbox.cif.g09.slc.cpg/sg47_10_cif.got.tgz:18596.got - 2010.04.14 03:12:58.
