data_PCOD8201166
_publ_section_title
;
Structure prediction by ZEFSAII (Michael W. Deem and Ramdas Pophale) SiO2 
 PCOD8201166
Probable space group: P M M M
;
_chemical_formula_sum "Si O2"
_cell_formula_units_Z 36
_cell_length_a 9.837858
_cell_length_b 22.864754
_cell_length_c 9.378913
_cell_angle_alpha 90.000000
_cell_angle_beta 90.000000
_cell_angle_gamma 90.000000
_cell_volume 2109.694595
_symmetry_space_group_name_H-M "P M M M"
_symmetry_group_IT_number 47
_symmetry_cell_setting 'orthorhombic'
loop_
_space_group_symop_operation_xyz
x,y,z
-x,-y,z
x,-y,-z
-x,y,-z
-x,-y,-z
x,y,-z
-x,y,z
x,-y,z
loop_
_atom_site_type_symbol
_atom_site_label
_atom_site_fract_x
_atom_site_fract_y
_atom_site_fract_z
Si Si1 0.661411 0.500000 0.161293
Si Si2 0.849465 0.284355 0.669362
Si Si3 0.345729 0.066613 0.166748
Si Si4 0.841533 0.845984 0.664074
Si Si5 0.658034 0.612489 0.666653
O O1 0.500000 0.500000 0.160560
O O2 0.713202 0.442908 0.245134
O O3 0.719065 0.500000 0.000000
O O4 0.852917 0.283390 0.500000
O O5 0.808637 0.219426 0.721828
O O6 0.740207 0.331375 0.724254
O O7 0.000000 0.301018 0.726800
O O8 0.500000 0.083568 0.206899
O O9 0.243156 0.108116 0.247314
O O10 0.316312 0.000000 0.212706
O O11 0.321356 0.074357 0.000000
O O12 0.798545 0.851790 0.500000
O O13 0.000000 0.859791 0.683977
O O14 0.684718 0.600240 0.500000
O O15 0.500000 0.624648 0.696146
#
# Coordination Sequence:
#
# PCOD8201166 Si02
#       5
#     4   8   8   8   8
#     4   9  17  29  44  63  90 120 146 179 226 270
#     4   8  15  29  47  67  93 121 147 181 226 271
#     4   9  19  35  51  68  94 127 161 197 236 278
#     4   9  18  32  50  73  99 125 155 193 236 282
#     4   9  16  27  46  69  88 111 149 189 219 257
#
# _framework density 17.064083
#
# number of rings (size 3 to 8) (size 9 to 14) (size 15 to 20)
#    0.000    3.222    0.000    2.333    0.000    4.000 
#    0.000    7.222    0.000    8.000    0.000    0.000 
#    0.000    0.000    0.000    0.000    0.000    0.000 
#
# Total GULP energy -446271.413596 kJ/mol
# GULP energy per Si atom -12396.428155 kJ/mol
# Density = 1.702524 g / cm^3
# Si number density = 17.064083 Si / 1000 Ang^3
#
#
#
# Elastic Constant Matrix: (Units=GPa)
#
#
# Indices 1 2 3 4 5 6 
#
# 1 73.1735 76.8693 36.6831 0.0000 0.0000 0.0000
# 2 76.8693 147.0354 54.9124 0.0000 0.0000 0.0000
# 3 36.6831 54.9124 51.6990 0.0000 0.0000 0.0000
# 4 0.0000 0.0000 0.0000 -8.3796 0.0000 0.0000
# 5 0.0000 0.0000 0.0000 0.0000 22.1620 0.0000
# 6 0.0000 0.0000 0.0000 0.0000 0.0000 -2.6281
#
#
#
# Elastic Compliance Matrix: (Units=1/GPa)
#
#
# Indices 1 2 3 4 5 6 
#
# 1 0.032313 -0.013807 -0.008262 0.000000 0.000000 0.000000
# 2 -0.013807 0.017173 -0.008443 0.000000 0.000000 0.000000
# 3 -0.008262 -0.008443 0.034173 0.000000 0.000000 0.000000
# 4 0.000000 0.000000 0.000000 -0.119338 0.000000 0.000000
# 5 0.000000 0.000000 0.000000 0.000000 0.045122 0.000000
# 6 0.000000 0.000000 0.000000 0.000000 0.000000 -0.380497
#
#
# Mechanical properties :
#
#
# Convention : Reuss Voigt Hill
#
# Bulk Modulus (GPa) = 44.18227 67.64863 55.91545
# Shear Modulus (GPa) = -16.52976 9.12706 -3.70135
#
# Velocity S-wave (km/s) = -3.11575 2.31523 -1.47438
# Velocity P-wave (km/s) = 3.60615 6.84668 5.47181
#
# Compressibility (1/GPa) = 0.02263351
#
# Stress axis : x y z
#
# Youngs Moduli (GPa) = 30.94752 58.23213 29.26304
#
# Poissons Ratio (x) = 0.80403 0.24177
# Poissons Ratio (y) = 0.42730 0.24707
# Poissons Ratio (z) = 0.25569 0.49165
#
# Static dielectric constant tensor:
#      x y z
#    x 3.157780 0.000000 0.000000 
#    y 0.000000 3.390280 0.000000 
#    z 0.000000 0.000000 2.964380 
# 
# 
# High freq. dielectric constant tensor:
#      x y z
#    x 1.647310 0.000000 0.000000 
#    y 0.000000 1.668240 0.000000 
#    z 0.000000 0.000000 1.632170 
# 
# From -- ./inp_files/1399.got.cif
#   From: 2010.03.12/outbox.cif.g09.slc.cpg/sg47_1_cif.got.tgz:1399.got - 2010.04.14 03:12:58.
