data_PCOD8201927
_publ_section_title
;
Structure prediction by ZEFSAII (Michael W. Deem and Ramdas Pophale) SiO2 
 PCOD8201927
Probable space group: P N N N
;
_chemical_formula_sum "Si O2"
_cell_formula_units_Z 24
_cell_length_a 16.501206
_cell_length_b 4.907538
_cell_length_c 12.363699
_cell_angle_alpha 90.000000
_cell_angle_beta 90.000000
_cell_angle_gamma 90.000000
_cell_volume 1001.215998
_symmetry_space_group_name_H-M "P N N N"
_symmetry_group_IT_number 48
_space_group.IT_coordinate_system_code '2'
_symmetry_cell_setting 'orthorhombic'
loop_
_space_group_symop_operation_xyz
x,y,z
1/2-x,1/2-y,z
x,1/2-y,1/2-z
1/2-x,y,1/2-z
-x,-y,-z
1/2+x,1/2+y,-z
-x,1/2+y,1/2+z
1/2+x,-y,1/2+z
loop_
_atom_site_type_symbol
_atom_site_label
_atom_site_fract_x
_atom_site_fract_y
_atom_site_fract_z
Si Si1 0.592864 0.037928 0.072033
Si Si2 0.492239 0.750000 0.250000
Si Si3 0.402525 0.476642 0.063138
Si Si4 0.750000 0.250000 0.486304
O O1 0.551090 0.940749 0.180227
O O2 0.689712 0.074129 0.091222
O O3 0.582729 0.837083 0.968388
O O4 0.554862 0.327602 0.029693
O O5 0.436611 0.545512 0.181338
O O6 0.306203 0.553026 0.061081
#
# Coordination Sequence:
#
# PCOD8201927 Si02
#       4
#     8   4   8   4
#     4  10  23  43  68  95 144 174 232 282 345 404
#     4  12  24  41  73 108 134 184 236 286 348 409
#     4  10  23  42  69  96 141 180 227 288 339 405
#     4   8  22  45  63  90 144 182 220 296 328 414
#
# _framework density 23.970849999999999
#
# number of rings (size 3 to 8) (size 9 to 14) (size 15 to 20)
#    2.000    0.000    0.000    3.000    0.000    6.000 
#    0.000    5.000    7.333    0.000    0.000    0.000 
#    0.000    0.000    0.000    0.000    0.000    0.000 
#
# Total GULP energy -297370.736968 kJ/mol
# GULP energy per Si atom -12390.447374 kJ/mol
# Density = 2.391629 g / cm^3
# Si number density = 23.970850 Si / 1000 Ang^3
#
#
#
# Elastic Constant Matrix: (Units=GPa)
#
#
# Indices 1 2 3 4 5 6 
#
# 1 102.7577 -12.1858 29.5437 0.0000 0.0000 0.0000
# 2 -12.1858 113.2057 22.9633 0.0000 0.0000 0.0000
# 3 29.5437 22.9633 108.6161 0.0000 0.0000 0.0000
# 4 0.0000 0.0000 0.0000 16.2860 0.0000 0.0000
# 5 0.0000 0.0000 0.0000 0.0000 43.2617 0.0000
# 6 0.0000 0.0000 0.0000 0.0000 0.0000 25.2589
#
#
#
# Elastic Compliance Matrix: (Units=1/GPa)
#
#
# Indices 1 2 3 4 5 6 
#
# 1 0.010919 0.001857 -0.003363 0.000000 0.000000 0.000000
# 2 0.001857 0.009545 -0.002523 0.000000 0.000000 0.000000
# 3 -0.003363 -0.002523 0.010655 0.000000 0.000000 0.000000
# 4 0.000000 0.000000 0.000000 0.061402 0.000000 0.000000
# 5 0.000000 0.000000 0.000000 0.000000 0.023115 0.000000
# 6 0.000000 0.000000 0.000000 0.000000 0.000000 0.039590
#
#
# Mechanical properties :
#
#
# Convention : Reuss Voigt Hill
#
# Bulk Modulus (GPa) = 43.36155 45.02464 44.19309
# Shear Modulus (GPa) = 29.24482 35.91187 32.57834
#
# Velocity S-wave (km/s) = 3.49666 3.87479 3.69057
# Velocity P-wave (km/s) = 5.86777 6.23238 6.05282
#
# Compressibility (1/GPa) = 0.02306191
#
# Stress axis : x y z
#
# Youngs Moduli (GPa) = 91.58628 104.76418 93.85424
#
# Poissons Ratio (x) = -0.19459 0.31559
# Poissons Ratio (y) = -0.17011 0.23682
# Poissons Ratio (z) = 0.30797 0.26435
#
# Static dielectric constant tensor:
#      x y z
#    x 4.737470 0.000000 0.000000 
#    y 0.000000 4.332140 0.000000 
#    z 0.000000 0.000000 3.695110 
# 
# 
# High freq. dielectric constant tensor:
#      x y z
#    x 1.987950 0.000000 0.000000 
#    y 0.000000 1.962260 0.000000 
#    z 0.000000 0.000000 1.903480 
# 
# From -- ./inp_files/21724.got.cif
#   From: 2010.06.25/outbox.cif.g09.slc.cpg/sg48_11_cif.got.tgz:21724.got - 2010.06.26 18:06:46.
