data_PCOD8201317
_publ_section_title
;
Structure prediction by ZEFSAII (Michael W. Deem and Ramdas Pophale) SiO2 
 PCOD8201317
Probable space group: P N N N
;
_chemical_formula_sum "Si O2"
_cell_formula_units_Z 64
_cell_length_a 29.769253
_cell_length_b 20.777654
_cell_length_c 5.190370
_cell_angle_alpha 90.000000
_cell_angle_beta 90.000000
_cell_angle_gamma 90.000000
_cell_volume 3210.426747
_symmetry_space_group_name_H-M "P N N N"
_symmetry_group_IT_number 48
_space_group.IT_coordinate_system_code '2'
_symmetry_cell_setting 'orthorhombic'
loop_
_space_group_symop_operation_xyz
x,y,z
1/2-x,1/2-y,z
x,1/2-y,1/2-z
1/2-x,y,1/2-z
-x,-y,-z
1/2+x,1/2+y,-z
-x,1/2+y,1/2+z
1/2+x,-y,1/2+z
loop_
_atom_site_type_symbol
_atom_site_label
_atom_site_fract_x
_atom_site_fract_y
_atom_site_fract_z
Si Si1 0.604496 0.387426 0.490509
Si Si2 0.203576 0.388238 0.842188
Si Si3 0.924711 0.323113 0.507869
Si Si4 0.386591 0.465283 0.628940
Si Si5 0.086015 0.398959 0.374404
Si Si6 0.176557 0.322512 0.342794
Si Si7 0.338467 0.728126 0.499379
Si Si8 0.524671 0.712809 0.001076
O O1 0.579519 0.374404 0.759650
O O2 0.616631 0.460993 0.450716
O O3 0.651507 0.347607 0.493873
O O4 0.573993 0.363488 0.255318
O O5 0.250000 0.422478 0.750000
O O6 0.164257 0.440495 0.848232
O O7 0.196592 0.331462 0.629306
O O8 0.206616 0.359308 0.129262
O O9 0.885487 0.269480 0.508309
O O10 0.971164 0.285617 0.530384
O O11 0.416949 0.430338 0.409939
O O12 0.408218 0.454652 0.909955
O O13 0.126327 0.348622 0.361702
O O14 0.041907 0.360280 0.465684
O O15 0.174810 0.250000 0.250000
O O16 0.309985 0.750000 0.250000
O O17 0.310604 0.750000 0.750000
O O18 0.545376 0.750000 0.250000
O O19 0.541147 0.750000 0.750000
#
# Coordination Sequence:
#
# PCOD8201317 Si02
#       8
#     8   8   8   8   8   8   8   8
#     4  10  18  32  52  70  97 134 164 201 256 304
#     4  10  21  35  53  76 102 130 163 208 252 300
#     4  10  19  32  50  76  99 122 164 218 259 292
#     4  10  21  38  53  70 101 138 170 203 248 307
#     4  10  22  37  50  71 101 136 177 212 247 302
#     4  10  20  34  53  75 101 130 165 211 262 304
#     4   8  14  25  43  67  92 114 148 199 249 287
#     4  12  22  35  55  75  98 133 176 222 270 306
#
# _framework density 19.935044999999999
#
# number of rings (size 3 to 8) (size 9 to 14) (size 15 to 20)
#    0.000    2.000    0.000    5.625    0.000    3.500 
#    0.000    3.750    0.000    0.000    0.000    0.000 
#    0.000    4.500    0.000   22.625    0.000    0.000 
#
# Total GULP energy -793076.136914 kJ/mol
# GULP energy per Si atom -12391.814639 kJ/mol
# Density = 1.988967 g / cm^3
# Si number density = 19.935045 Si / 1000 Ang^3
#
#
#
# Elastic Constant Matrix: (Units=GPa)
#
#
# Indices 1 2 3 4 5 6 
#
# 1 16.2503 8.4912 12.4996 0.0000 0.0000 0.0000
# 2 8.4912 112.7403 37.1216 0.0000 0.0000 0.0000
# 3 12.4996 37.1216 161.0838 0.0000 0.0000 0.0000
# 4 0.0000 0.0000 0.0000 31.0655 0.0000 0.0000
# 5 0.0000 0.0000 0.0000 0.0000 14.7086 0.0000
# 6 0.0000 0.0000 0.0000 0.0000 0.0000 5.4116
#
#
#
# Elastic Compliance Matrix: (Units=1/GPa)
#
#
# Indices 1 2 3 4 5 6 
#
# 1 0.066764 -0.003595 -0.004352 0.000000 0.000000 0.000000
# 2 -0.003595 0.009792 -0.001978 0.000000 0.000000 0.000000
# 3 -0.004352 -0.001978 0.007001 0.000000 0.000000 0.000000
# 4 0.000000 0.000000 0.000000 0.032190 0.000000 0.000000
# 5 0.000000 0.000000 0.000000 0.000000 0.067987 0.000000
# 6 0.000000 0.000000 0.000000 0.000000 0.000000 0.184788
#
#
# Mechanical properties :
#
#
# Convention : Reuss Voigt Hill
#
# Bulk Modulus (GPa) = 15.69690 45.14436 30.42063
# Shear Modulus (GPa) = 12.20679 25.70129 18.95404
#
# Velocity S-wave (km/s) = 2.47721 3.59451 3.08683
# Velocity P-wave (km/s) = 4.00914 6.31840 5.29129
#
# Compressibility (1/GPa) = 0.06370685
#
# Stress axis : x y z
#
# Youngs Moduli (GPa) = 14.97820 102.12555 142.82907
#
# Poissons Ratio (x) = 0.36718 0.62161
# Poissons Ratio (y) = 0.05385 0.28245
# Poissons Ratio (z) = 0.06519 0.20196
#
# Static dielectric constant tensor:
#      x y z
#    x 3.190970 0.000000 0.000000 
#    y 0.000000 3.404260 0.000000 
#    z 0.000000 0.000000 5.261560 
# 
# 
# High freq. dielectric constant tensor:
#      x y z
#    x 1.731990 0.000000 0.000000 
#    y 0.000000 1.759790 0.000000 
#    z 0.000000 0.000000 1.817290 
# 
# From -- ./inp_files/7145.got.cif
#   From: 2010.06.25/outbox.cif.g09.slc.cpg/sg48_4_cif.got.tgz:7145.got - 2010.06.26 18:06:46.
