data_PCOD8201220
_publ_section_title
;
Structure prediction by ZEFSAII (Michael W. Deem and Ramdas Pophale) SiO2 
 PCOD8201220
Probable space group: P M M M
;
_chemical_formula_sum "Si O2"
_cell_formula_units_Z 36
_cell_length_a 9.597840
_cell_length_b 13.508609
_cell_length_c 16.214916
_cell_angle_alpha 90.000000
_cell_angle_beta 90.000000
_cell_angle_gamma 90.000000
_cell_volume 2102.320090
_symmetry_space_group_name_H-M "P M M M"
_symmetry_group_IT_number 47
_symmetry_cell_setting 'orthorhombic'
loop_
_space_group_symop_operation_xyz
x,y,z
-x,-y,z
x,-y,-z
-x,y,-z
-x,-y,-z
x,y,-z
-x,y,z
x,-y,z
loop_
_atom_site_type_symbol
_atom_site_label
_atom_site_fract_x
_atom_site_fract_y
_atom_site_fract_z
Si Si1 0.162103 0.802153 0.906536
Si Si2 0.334801 0.612126 0.500000
Si Si3 0.340137 0.889410 0.233814
Si Si4 0.336669 0.302864 0.328362
Si Si5 0.841703 0.610096 0.811191
O O1 0.247660 0.874507 0.847423
O O2 0.193038 0.687945 0.883282
O O3 0.000000 0.827895 0.896375
O O4 0.211769 0.819257 0.000000
O O5 0.274359 0.500000 0.500000
O O6 0.500000 0.607154 0.500000
O O7 0.282295 0.672776 0.579870
O O8 0.500000 0.874513 0.207086
O O9 0.300651 0.811378 0.305813
O O10 0.314013 0.000000 0.268484
O O11 0.500000 0.324653 0.320261
O O12 0.258841 0.375787 0.266316
O O13 0.818985 0.500000 0.847321
O O14 0.000000 0.624935 0.780228
#
# Coordination Sequence:
#
# PCOD8201220 Si02
#       5
#     8   4   8   8   8
#     4   9  18  31  46  66  90 115 147 185 221 261
#     4   9  16  26  44  70  94 115 143 179 216 255
#     4   9  18  32  48  65  87 116 148 183 224 264
#     4   9  17  30  47  66  89 117 149 182 216 259
#     4   9  17  29  45  65  90 119 148 179 218 262
#
# _framework density 17.123940000000001
#
# number of rings (size 3 to 8) (size 9 to 14) (size 15 to 20)
#    0.000    3.000    0.000    0.667    0.000    3.111 
#    0.000    5.556    0.000    5.333    0.000    6.222 
#    0.000    7.111    0.000    0.000    0.000    0.000 
#
# Total GULP energy -446302.005615 kJ/mol
# GULP energy per Si atom -12397.277934 kJ/mol
# Density = 1.708496 g / cm^3
# Si number density = 17.123940 Si / 1000 Ang^3
#
#
#
# Elastic Constant Matrix: (Units=GPa)
#
#
# Indices 1 2 3 4 5 6 
#
# 1 34.6837 24.6851 29.6621 0.0000 0.0000 0.0000
# 2 24.6851 111.9070 46.2488 0.0000 0.0000 0.0000
# 3 29.6621 46.2488 114.9374 0.0000 0.0000 0.0000
# 4 0.0000 0.0000 0.0000 16.2480 0.0000 0.0000
# 5 0.0000 0.0000 0.0000 0.0000 18.7886 0.0000
# 6 0.0000 0.0000 0.0000 0.0000 0.0000 21.1158
#
#
#
# Elastic Compliance Matrix: (Units=1/GPa)
#
#
# Indices 1 2 3 4 5 6 
#
# 1 0.039547 -0.005404 -0.008031 0.000000 0.000000 0.000000
# 2 -0.005404 0.011457 -0.003215 0.000000 0.000000 0.000000
# 3 -0.008031 -0.003215 0.012067 0.000000 0.000000 0.000000
# 4 0.000000 0.000000 0.000000 0.061546 0.000000 0.000000
# 5 0.000000 0.000000 0.000000 0.000000 0.053224 0.000000
# 6 0.000000 0.000000 0.000000 0.000000 0.000000 0.047358
#
#
# Mechanical properties :
#
#
# Convention : Reuss Voigt Hill
#
# Bulk Modulus (GPa) = 33.59239 51.41335 42.50287
# Shear Modulus (GPa) = 18.62731 21.95930 20.29330
#
# Velocity S-wave (km/s) = 3.30175 3.58491 3.44624
# Velocity P-wave (km/s) = 5.84767 6.87204 6.38044
#
# Compressibility (1/GPa) = 0.02976865
#
# Stress axis : x y z
#
# Youngs Moduli (GPa) = 25.28645 87.28321 82.87158
#
# Poissons Ratio (x) = 0.47171 0.66557
# Poissons Ratio (y) = 0.13666 0.26646
# Poissons Ratio (z) = 0.20308 0.28065
#
# Static dielectric constant tensor:
#      x y z
#    x 3.113140 0.000000 0.000000 
#    y 0.000000 3.316670 0.000000 
#    z 0.000000 0.000000 3.192850 
# 
# 
# High freq. dielectric constant tensor:
#      x y z
#    x 1.647370 0.000000 0.000000 
#    y 0.000000 1.667630 0.000000 
#    z 0.000000 0.000000 1.644090 
# 
# From -- ./inp_files/5483.got.cif
#   From: 2010.03.12/outbox.cif.g09.slc.cpg/sg47_3_cif.got.tgz:5483.got - 2010.04.14 03:12:58.
