data_PCOD8201884
_publ_section_title
;
Structure prediction by ZEFSAII (Michael W. Deem and Ramdas Pophale) SiO2 
 PCOD8201884
Probable space group: P N N N
;
_chemical_formula_sum "Si O2"
_cell_formula_units_Z 48
_cell_length_a 17.060526
_cell_length_b 14.382940
_cell_length_c 9.100790
_cell_angle_alpha 90.000000
_cell_angle_beta 90.000000
_cell_angle_gamma 90.000000
_cell_volume 2233.156599
_symmetry_space_group_name_H-M "P N N N"
_symmetry_group_IT_number 48
_space_group.IT_coordinate_system_code '2'
_symmetry_cell_setting 'orthorhombic'
loop_
_space_group_symop_operation_xyz
x,y,z
1/2-x,1/2-y,z
x,1/2-y,1/2-z
1/2-x,y,1/2-z
-x,-y,-z
1/2+x,1/2+y,-z
-x,1/2+y,1/2+z
1/2+x,-y,1/2+z
loop_
_atom_site_type_symbol
_atom_site_label
_atom_site_fract_x
_atom_site_fract_y
_atom_site_fract_z
Si Si1 0.323298 0.629831 0.495135
Si Si2 0.733435 0.546740 0.089091
Si Si3 0.420547 0.249530 0.412015
Si Si4 0.250000 0.750000 0.250000
Si Si5 0.250000 0.250000 0.014558
Si Si6 0.551381 0.927831 0.413375
Si Si7 0.750000 0.250000 0.250000
Si Si8 0.000911 0.595957 0.077076
O O1 0.283553 0.526084 0.489190
O O2 0.299210 0.683085 0.351011
O O3 0.303401 0.684452 0.646081
O O4 0.415408 0.635334 0.467491
O O5 0.750000 0.510606 0.250000
O O6 0.761462 0.654456 0.077757
O O7 0.640353 0.537332 0.066896
O O8 0.458879 0.250000 0.250000
O O9 0.327409 0.234278 0.388950
O O10 0.460644 0.170310 0.508417
O O11 0.433378 0.343607 0.501273
O O12 0.520296 0.915673 0.248119
O O13 0.500000 0.000000 0.500000
O O14 0.000000 0.500000 0.000000
#
# Coordination Sequence:
#
# PCOD8201884 Si02
#       8
#     8   8   8   2   4   8   2   8
#     4  11  25  44  74  97 144 183 246 292 355 426
#     4  11  22  42  72 100 136 184 229 286 347 432
#     4  11  24  43  68  99 137 183 225 286 351 419
#     4  10  28  46  64 104 128 200 232 302 348 408
#     4  10  22  42  68 104 141 175 232 278 357 429
#     4  11  26  43  69 100 139 181 229 291 353 422
#     4  10  24  46  72 100 132 196 240 294 348 432
#     4  12  26  43  69 106 141 181 233 294 358 424
#
# _framework density 21.494236999999998
#
# number of rings (size 3 to 8) (size 9 to 14) (size 15 to 20)
#    0.000    1.000    0.833    5.000    5.833    4.000 
#    3.000    0.000    0.000    0.000    0.000    0.000 
#    0.000    0.000    0.000    0.000    0.000    0.000 
#
# Total GULP energy -594789.773628 kJ/mol
# GULP energy per Si atom -12391.453617 kJ/mol
# Density = 2.144532 g / cm^3
# Si number density = 21.494237 Si / 1000 Ang^3
#
#
#
# Elastic Constant Matrix: (Units=GPa)
#
#
# Indices 1 2 3 4 5 6 
#
# 1 98.9394 33.8626 33.9459 0.0000 0.0000 0.0000
# 2 33.8626 153.9432 64.4409 0.0000 0.0000 0.0000
# 3 33.9459 64.4409 173.6218 0.0000 0.0000 0.0000
# 4 0.0000 0.0000 0.0000 53.2062 0.0000 0.0000
# 5 0.0000 0.0000 0.0000 0.0000 -76.8034 0.0000
# 6 0.0000 0.0000 0.0000 0.0000 0.0000 60.6055
#
#
#
# Elastic Compliance Matrix: (Units=1/GPa)
#
#
# Indices 1 2 3 4 5 6 
#
# 1 0.011258 -0.001841 -0.001518 0.000000 0.000000 0.000000
# 2 -0.001841 0.007992 -0.002606 0.000000 0.000000 0.000000
# 3 -0.001518 -0.002606 0.007024 0.000000 0.000000 0.000000
# 4 0.000000 0.000000 0.000000 0.018795 0.000000 0.000000
# 5 0.000000 0.000000 0.000000 0.000000 -0.013020 0.000000
# 6 0.000000 0.000000 0.000000 0.000000 0.000000 0.016500
#
#
# Mechanical properties :
#
#
# Convention : Reuss Voigt Hill
#
# Bulk Modulus (GPa) = 69.71858 76.77812 73.24835
# Shear Modulus (GPa) = 76.61683 27.01866 51.81774
#
# Velocity S-wave (km/s) = 5.97684 3.54929 4.91529
# Velocity P-wave (km/s) = 8.95190 7.25221 8.14651
#
# Compressibility (1/GPa) = 0.01434338
#
# Stress axis : x y z
#
# Youngs Moduli (GPa) = 88.82515 125.12713 142.37429
#
# Poissons Ratio (x) = 0.23037 0.21610
# Poissons Ratio (y) = 0.16353 0.37107
# Poissons Ratio (z) = 0.13482 0.32612
#
# Static dielectric constant tensor:
#      x y z
#    x 4.100410 0.000000 0.000000 
#    y 0.000000 4.239020 0.000000 
#    z 0.000000 0.000000 3.963720 
# 
# 
# High freq. dielectric constant tensor:
#      x y z
#    x 1.853210 0.000000 0.000000 
#    y 0.000000 1.861670 0.000000 
#    z 0.000000 0.000000 1.849150 
# 
# From -- ./inp_files/12876.got.cif
#   From: 2010.06.25/outbox.cif.g09.slc.cpg/sg48_7_cif.got.tgz:12876.got - 2010.06.26 18:06:46.
