data_PCOD8201950
_publ_section_title
;
Structure prediction by ZEFSAII (Michael W. Deem and Ramdas Pophale) SiO2 
 PCOD8201950
Probable space group: P N N N
;
_chemical_formula_sum "Si O2"
_cell_formula_units_Z 64
_cell_length_a 18.625617
_cell_length_b 13.712264
_cell_length_c 12.277417
_cell_angle_alpha 90.000000
_cell_angle_beta 90.000000
_cell_angle_gamma 90.000000
_cell_volume 3135.644659
_symmetry_space_group_name_H-M "P N N N"
_symmetry_group_IT_number 48
_space_group.IT_coordinate_system_code '2'
_symmetry_cell_setting 'orthorhombic'
loop_
_space_group_symop_operation_xyz
x,y,z
1/2-x,1/2-y,z
x,1/2-y,1/2-z
1/2-x,y,1/2-z
-x,-y,-z
1/2+x,1/2+y,-z
-x,1/2+y,1/2+z
1/2+x,-y,1/2+z
loop_
_atom_site_type_symbol
_atom_site_label
_atom_site_fract_x
_atom_site_fract_y
_atom_site_fract_z
Si Si1 0.457888 0.356009 0.202981
Si Si2 0.206685 0.966690 0.944412
Si Si3 0.564574 0.571534 0.020252
Si Si4 0.545665 0.637996 0.264391
Si Si5 0.140128 0.475639 0.912450
Si Si6 0.123217 0.864035 0.755727
Si Si7 0.085676 0.523480 0.140671
Si Si8 0.227490 0.860807 0.360430
O O1 0.442055 0.250000 0.250000
O O2 0.542080 0.384011 0.206165
O O3 0.410536 0.437745 0.267494
O O4 0.437550 0.347800 0.075377
O O5 0.181715 0.912259 0.835104
O O6 0.141892 0.025214 0.995896
O O7 0.274480 0.039217 0.928631
O O8 0.229048 0.888080 0.033008
O O9 0.554426 0.607533 0.141052
O O10 0.500000 0.500000 0.000000
O O11 0.527162 0.750000 0.250000
O O12 0.618277 0.611811 0.330025
O O13 0.487167 0.581003 0.335794
O O14 0.130017 0.584162 0.861348
O O15 0.092229 0.470433 0.022879
O O16 0.140674 0.750000 0.750000
O O17 0.144095 0.610175 0.135158
O O18 0.250000 0.750000 0.344768
O O19 0.250000 0.917604 0.250000
#
# Coordination Sequence:
#
# PCOD8201950 Si02
#       8
#     8   8   8   8   8   8   8   8
#     4  11  24  42  70 101 130 172 229 278 329 392
#     4  11  23  40  67  88 136 176 218 277 334 397
#     4  12  22  44  68  94 128 172 227 276 332 391
#     4  12  27  41  68 100 129 180 225 282 337 397
#     4  11  24  44  62  97 138 176 221 271 344 400
#     4  11  23  38  67 101 131 174 217 276 333 399
#     4  11  23  43  67  94 138 178 213 277 333 401
#     4  10  24  39  62  98 136 171 213 268 341 406
#
# _framework density 20.410475999999999
#
# number of rings (size 3 to 8) (size 9 to 14) (size 15 to 20)
#    0.000    0.875    5.000    1.500    7.000    1.500 
#    0.000    1.250    0.000    4.875    0.000    0.000 
#    0.000    0.000    0.000    0.000    0.000    0.000 
#
# Total GULP energy -792898.835290 kJ/mol
# GULP energy per Si atom -12389.044301 kJ/mol
# Density = 2.036402 g / cm^3
# Si number density = 20.410476 Si / 1000 Ang^3
#
#
#
# Elastic Constant Matrix: (Units=GPa)
#
#
# Indices 1 2 3 4 5 6 
#
# 1 117.5894 39.4155 50.6045 0.0000 0.0000 0.0000
# 2 39.4155 74.6664 23.5221 0.0000 0.0000 0.0000
# 3 50.6045 23.5221 145.6143 0.0000 0.0000 0.0000
# 4 0.0000 0.0000 0.0000 -13.3713 0.0000 0.0000
# 5 0.0000 0.0000 0.0000 0.0000 37.5643 0.0000
# 6 0.0000 0.0000 0.0000 0.0000 0.0000 17.7393
#
#
#
# Elastic Compliance Matrix: (Units=1/GPa)
#
#
# Indices 1 2 3 4 5 6 
#
# 1 0.011597 -0.005112 -0.003204 0.000000 0.000000 0.000000
# 2 -0.005112 0.016365 -0.000867 0.000000 0.000000 0.000000
# 3 -0.003204 -0.000867 0.008121 0.000000 0.000000 0.000000
# 4 0.000000 0.000000 0.000000 -0.074787 0.000000 0.000000
# 5 0.000000 0.000000 0.000000 0.000000 0.026621 0.000000
# 6 0.000000 0.000000 0.000000 0.000000 0.000000 0.056372
#
#
# Mechanical properties :
#
#
# Convention : Reuss Voigt Hill
#
# Bulk Modulus (GPa) = 56.44764 62.77272 59.61018
# Shear Modulus (GPa) = 72.92776 23.34165 48.13470
#
# Velocity S-wave (km/s) = 5.98399 3.38540 4.86154
# Velocity P-wave (km/s) = 8.68680 6.78993 7.79627
#
# Compressibility (1/GPa) = 0.01771553
#
# Stress axis : x y z
#
# Youngs Moduli (GPa) = 86.23074 61.10701 123.13652
#
# Poissons Ratio (x) = 0.31240 0.39457
# Poissons Ratio (y) = 0.44084 0.10674
# Poissons Ratio (z) = 0.27631 0.05297
#
# Static dielectric constant tensor:
#      x y z
#    x 3.840210 0.000000 0.000000 
#    y 0.000000 3.497490 0.000000 
#    z 0.000000 0.000000 4.134120 
# 
# 
# High freq. dielectric constant tensor:
#      x y z
#    x 1.801450 0.000000 0.000000 
#    y 0.000000 1.775960 0.000000 
#    z 0.000000 0.000000 1.826360 
# 
# From -- ./inp_files/22354.got.cif
#   From: 2010.06.25/outbox.cif.g09.slc.cpg/sg48_12_cif.got.tgz:22354.got - 2010.06.26 18:06:46.
