data_PCOD8201218
_publ_section_title
;
Structure prediction by ZEFSAII (Michael W. Deem and Ramdas Pophale) SiO2 
 PCOD8201218
Probable space group: P M M M
;
_chemical_formula_sum "Si O2"
_cell_formula_units_Z 52
_cell_length_a 9.305691
_cell_length_b 18.645378
_cell_length_c 18.126278
_cell_angle_alpha 90.000000
_cell_angle_beta 90.000000
_cell_angle_gamma 90.000000
_cell_volume 3145.056532
_symmetry_space_group_name_H-M "P M M M"
_symmetry_group_IT_number 47
_symmetry_cell_setting 'orthorhombic'
loop_
_space_group_symop_operation_xyz
x,y,z
-x,-y,z
x,-y,-z
-x,y,-z
-x,-y,-z
x,y,-z
-x,y,z
x,-y,z
loop_
_atom_site_type_symbol
_atom_site_label
_atom_site_fract_x
_atom_site_fract_y
_atom_site_fract_z
Si Si1 0.338440 0.145010 0.295321
Si Si2 0.835406 0.079746 0.172005
Si Si3 0.168275 0.218939 0.915383
Si Si4 0.829267 0.500000 0.416960
Si Si5 0.832627 0.360181 0.669280
Si Si6 0.166140 0.785162 0.415656
Si Si7 0.662635 0.292247 0.206868
O O1 0.500000 0.118906 0.310646
O O2 0.258681 0.085994 0.245928
O O3 0.257579 0.154806 0.372908
O O4 0.334896 0.219432 0.252370
O O5 0.790424 0.138481 0.111031
O O6 0.000000 0.092171 0.195445
O O7 0.812349 0.000000 0.138529
O O8 0.255145 0.279100 0.870132
O O9 0.000000 0.233530 0.904053
O O10 0.214613 0.225742 0.000000
O O11 0.764977 0.500000 0.500000
O O12 0.775184 0.569836 0.373154
O O13 0.000000 0.500000 0.422049
O O14 0.803469 0.293808 0.615354
O O15 0.744615 0.352677 0.745556
O O16 0.000000 0.366507 0.689920
O O17 0.215810 0.786166 0.500000
O O18 0.000000 0.805391 0.406653
O O19 0.500000 0.317599 0.190775
#
# Coordination Sequence:
#
# PCOD8201218 Si02
#       7
#     8   8   8   4   8   8   8
#     4   9  17  28  42  60  82 110 145 183 218 253
#     4   9  17  29  45  64  87 116 145 171 206 257
#     4   9  17  29  46  69  94 116 141 177 218 258
#     4   9  16  26  43  69  98 125 154 187 221 258
#     4   9  16  27  44  65  90 120 152 183 215 256
#     4   9  16  26  42  63  85 110 142 181 223 262
#     4   9  17  29  44  62  86 117 152 185 216 254
#
# _framework density 16.533885000000001
#
# number of rings (size 3 to 8) (size 9 to 14) (size 15 to 20)
#    0.000    3.000    0.000    1.385    0.000    6.769 
#    0.000    1.923    0.000    2.308    0.000    8.077 
#    0.000    4.308    0.000    0.000    0.000    0.000 
#
# Total GULP energy -644717.396351 kJ/mol
# GULP energy per Si atom -12398.411468 kJ/mol
# Density = 1.649625 g / cm^3
# Si number density = 16.533885 Si / 1000 Ang^3
#
#
#
# Elastic Constant Matrix: (Units=GPa)
#
#
# Indices 1 2 3 4 5 6 
#
# 1 76.4825 27.1364 62.1556 0.0000 0.0000 0.0000
# 2 27.1364 53.5700 47.2838 0.0000 0.0000 0.0000
# 3 62.1556 47.2838 142.3422 0.0000 0.0000 0.0000
# 4 0.0000 0.0000 0.0000 21.7542 0.0000 0.0000
# 5 0.0000 0.0000 0.0000 0.0000 15.3903 0.0000
# 6 0.0000 0.0000 0.0000 0.0000 0.0000 12.9880
#
#
#
# Elastic Compliance Matrix: (Units=1/GPa)
#
#
# Indices 1 2 3 4 5 6 
#
# 1 0.020734 -0.003554 -0.007873 0.000000 0.000000 0.000000
# 2 -0.003554 0.027020 -0.007424 0.000000 0.000000 0.000000
# 3 -0.007873 -0.007424 0.012929 0.000000 0.000000 0.000000
# 4 0.000000 0.000000 0.000000 0.045968 0.000000 0.000000
# 5 0.000000 0.000000 0.000000 0.000000 0.064976 0.000000
# 6 0.000000 0.000000 0.000000 0.000000 0.000000 0.076994
#
#
# Mechanical properties :
#
#
# Convention : Reuss Voigt Hill
#
# Bulk Modulus (GPa) = 43.51261 60.61627 52.06444
# Shear Modulus (GPa) = 17.00769 19.08109 18.04439
#
# Velocity S-wave (km/s) = 3.21075 3.40083 3.30716
# Velocity P-wave (km/s) = 6.33400 7.22235 6.79271
#
# Compressibility (1/GPa) = 0.02298184
#
# Stress axis : x y z
#
# Youngs Moduli (GPa) = 48.22920 37.00966 77.34281
#
# Poissons Ratio (x) = 0.13152 0.60895
# Poissons Ratio (y) = 0.17139 0.57418
# Poissons Ratio (z) = 0.37973 0.27475
#
# Static dielectric constant tensor:
#      x y z
#    x 3.130490 0.000000 0.000000 
#    y 0.000000 2.901880 0.000000 
#    z 0.000000 0.000000 3.111990 
# 
# 
# High freq. dielectric constant tensor:
#      x y z
#    x 1.630090 0.000000 0.000000 
#    y 0.000000 1.604160 0.000000 
#    z 0.000000 0.000000 1.629250 
# 
# From -- ./inp_files/9513.got.cif
#   From: 2010.03.12/outbox.cif.g09.slc.cpg/sg47_5_cif.got.tgz:9513.got - 2010.04.14 03:12:58.
