data_PCOD8201120
_publ_section_title
;
Structure prediction by ZEFSAII (Michael W. Deem and Ramdas Pophale) SiO2 
 PCOD8201120
Probable space group: P M M M
;
_chemical_formula_sum "Si O2"
_cell_formula_units_Z 44
_cell_length_a 9.772759
_cell_length_b 15.055562
_cell_length_c 17.489664
_cell_angle_alpha 90.000000
_cell_angle_beta 90.000000
_cell_angle_gamma 90.000000
_cell_volume 2573.330852
_symmetry_space_group_name_H-M "P M M M"
_symmetry_group_IT_number 47
_symmetry_cell_setting 'orthorhombic'
loop_
_space_group_symop_operation_xyz
x,y,z
-x,-y,z
x,-y,-z
-x,y,-z
-x,-y,-z
x,y,-z
-x,y,z
x,-y,z
loop_
_atom_site_type_symbol
_atom_site_label
_atom_site_fract_x
_atom_site_fract_y
_atom_site_fract_z
Si Si1 0.661300 0.400547 0.500000
Si Si2 0.659972 0.255130 0.200468
Si Si3 0.152438 0.902000 0.801163
Si Si4 0.659756 0.741413 0.377505
Si Si5 0.153466 0.098336 0.380145
Si Si6 0.662411 0.598428 0.084824
O O1 0.727666 0.500000 0.500000
O O2 0.500000 0.411515 0.500000
O O3 0.706497 0.345901 0.575586
O O4 0.500000 0.238565 0.187768
O O5 0.736913 0.168113 0.168964
O O6 0.693174 0.276726 0.288719
O O7 0.718196 0.335982 0.149912
O O8 0.156771 0.903709 0.710456
O O9 0.000000 0.875134 0.828846
O O10 0.190285 0.000000 0.832811
O O11 0.500000 0.761768 0.390365
O O12 0.741891 0.826711 0.410000
O O13 0.000000 0.121361 0.408766
O O14 0.195984 0.000000 0.410822
O O15 0.500000 0.595782 0.088559
O O16 0.720746 0.500000 0.101635
O O17 0.709170 0.629753 0.000000
#
# Coordination Sequence:
#
# PCOD8201120 Si02
#       6
#     4   8   8   8   8   8
#     4   9  18  32  46  59  82 116 145 171 210 253
#     4   9  16  25  42  68  88 104 137 180 209 236
#     4   8  14  25  41  61  86 116 144 167 200 249
#     4   9  17  28  43  64  86 109 141 177 208 240
#     4   8  14  26  44  64  86 112 139 168 207 253
#     4   8  14  25  41  62  88 113 134 164 212 260
#
# _framework density 17.098462000000001
#
# number of rings (size 3 to 8) (size 9 to 14) (size 15 to 20)
#    0.000    3.545    0.000    1.636    0.000    1.455 
#    0.000    8.182    0.000    5.455    0.000   10.182 
#    0.000    0.000    0.000    0.000    0.000    0.000 
#
# Total GULP energy -545205.114728 kJ/mol
# GULP energy per Si atom -12391.025335 kJ/mol
# Density = 1.705955 g / cm^3
# Si number density = 17.098462 Si / 1000 Ang^3
#
#
#
# Elastic Constant Matrix: (Units=GPa)
#
#
# Indices 1 2 3 4 5 6 
#
# 1 50.9280 60.3564 27.8142 0.0000 0.0000 0.0000
# 2 60.3564 166.6954 63.4775 0.0000 0.0000 0.0000
# 3 27.8142 63.4775 69.7600 0.0000 0.0000 0.0000
# 4 0.0000 0.0000 0.0000 -0.9228 0.0000 0.0000
# 5 0.0000 0.0000 0.0000 0.0000 5.4160 0.0000
# 6 0.0000 0.0000 0.0000 0.0000 0.0000 7.9075
#
#
#
# Elastic Compliance Matrix: (Units=1/GPa)
#
#
# Indices 1 2 3 4 5 6 
#
# 1 0.035011 -0.011264 -0.003710 0.000000 0.000000 0.000000
# 2 -0.011264 0.012804 -0.007160 0.000000 0.000000 0.000000
# 3 -0.003710 -0.007160 0.022329 0.000000 0.000000 0.000000
# 4 0.000000 0.000000 0.000000 -1.083634 0.000000 0.000000
# 5 0.000000 0.000000 0.000000 0.000000 0.184639 0.000000
# 6 0.000000 0.000000 0.000000 0.000000 0.000000 0.126462
#
#
# Mechanical properties :
#
#
# Convention : Reuss Voigt Hill
#
# Bulk Modulus (GPa) = 38.64458 65.63109 52.13783
# Shear Modulus (GPa) = -7.69827 11.52915 1.91544
#
# Velocity S-wave (km/s) = -2.12417 2.59951 1.05956
# Velocity P-wave (km/s) = 4.07850 6.89039 5.66178
#
# Compressibility (1/GPa) = 0.02587685
#
# Stress axis : x y z
#
# Youngs Moduli (GPa) = 28.56251 78.10230 44.78525
#
# Poissons Ratio (x) = 0.87974 0.16614
# Poissons Ratio (y) = 0.32173 0.32064
# Poissons Ratio (z) = 0.10596 0.55918
#
# Static dielectric constant tensor:
#      x y z
#    x 3.037500 0.000000 0.000000 
#    y 0.000000 3.682190 0.000000 
#    z 0.000000 0.000000 3.047090 
# 
# 
# High freq. dielectric constant tensor:
#      x y z
#    x 1.626260 0.000000 0.000000 
#    y 0.000000 1.664280 0.000000 
#    z 0.000000 0.000000 1.636900 
# 
# From -- ./inp_files/26356.got.cif
#   From: 2010.03.12/outbox.cif.g09.slc.cpg/sg47_14_cif.got.tgz:26356.got - 2010.04.14 03:12:58.
