data_PCOD8201875
_publ_section_title
;
Structure prediction by ZEFSAII (Michael W. Deem and Ramdas Pophale) SiO2 
 PCOD8201875
Probable space group: P N N N
;
_chemical_formula_sum "Si O2"
_cell_formula_units_Z 48
_cell_length_a 15.008048
_cell_length_b 26.353419
_cell_length_c 5.937105
_cell_angle_alpha 90.000000
_cell_angle_beta 90.000000
_cell_angle_gamma 90.000000
_cell_volume 2348.204450
_symmetry_space_group_name_H-M "P N N N"
_symmetry_group_IT_number 48
_space_group.IT_coordinate_system_code '2'
_symmetry_cell_setting 'orthorhombic'
loop_
_space_group_symop_operation_xyz
x,y,z
1/2-x,1/2-y,z
x,1/2-y,1/2-z
1/2-x,y,1/2-z
-x,-y,-z
1/2+x,1/2+y,-z
-x,1/2+y,1/2+z
1/2+x,-y,1/2+z
loop_
_atom_site_type_symbol
_atom_site_label
_atom_site_fract_x
_atom_site_fract_y
_atom_site_fract_z
Si Si1 0.492904 0.642388 0.261350
Si Si2 0.160320 0.301550 0.637276
Si Si3 0.250000 0.560636 0.250000
Si Si4 0.136734 0.888520 0.885529
Si Si5 0.118549 0.702768 0.912776
Si Si6 0.750000 0.750000 0.750000
Si Si7 0.250000 0.750000 0.250000
Si Si8 0.428308 0.955375 0.004486
O O1 0.590598 0.653198 0.164384
O O2 0.468034 0.685887 0.443955
O O3 0.485706 0.588265 0.377922
O O4 0.433233 0.641027 0.039901
O O5 0.124250 0.250000 0.750000
O O6 0.250000 0.321801 0.750000
O O7 0.184007 0.287627 0.382131
O O8 0.220821 0.594195 0.464830
O O9 0.338387 0.530698 0.345300
O O10 0.163820 0.844748 0.712079
O O11 0.098403 0.937539 0.748472
O O12 0.094477 0.750000 0.750000
O O13 0.192599 0.714458 0.093841
O O14 0.500000 0.000000 0.000000
#
# Coordination Sequence:
#
# PCOD8201875 Si02
#       8
#     8   8   4   8   8   2   2   8
#     4  10  23  40  61  92 122 158 209 257 304 376
#     4   9  20  38  58  85 121 160 205 254 306 372
#     4  10  22  41  68  92 122 158 209 255 321 380
#     4  10  23  40  63  90 121 167 203 257 311 372
#     4  11  25  38  55  86 125 169 203 249 299 360
#     4   8  18  36  60  84 112 172 202 250 316 366
#     4  12  26  38  48  86 126 166 210 248 286 354
#     4  10  23  44  66  92 122 161 208 260 322 384
#
# _framework density 20.44115
#
# number of rings (size 3 to 8) (size 9 to 14) (size 15 to 20)
#    0.000    2.167    0.000    1.750    3.500   24.000 
#    1.500    3.333    0.000    1.000    0.000    0.000 
#    0.000    0.000    0.000    0.000    0.000    0.000 
#
# Total GULP energy -594692.557404 kJ/mol
# GULP energy per Si atom -12389.428279 kJ/mol
# Density = 2.039463 g / cm^3
# Si number density = 20.441150 Si / 1000 Ang^3
#
#
#
# Elastic Constant Matrix: (Units=GPa)
#
#
# Indices 1 2 3 4 5 6 
#
# 1 148.4909 69.9489 60.3783 0.0000 0.0000 0.0000
# 2 69.9489 101.5115 58.3969 0.0000 0.0000 0.0000
# 3 60.3783 58.3969 144.2388 0.0000 0.0000 0.0000
# 4 0.0000 0.0000 0.0000 8.9975 0.0000 0.0000
# 5 0.0000 0.0000 0.0000 0.0000 19.7394 0.0000
# 6 0.0000 0.0000 0.0000 0.0000 0.0000 20.3096
#
#
#
# Elastic Compliance Matrix: (Units=1/GPa)
#
#
# Indices 1 2 3 4 5 6 
#
# 1 0.010349 -0.006048 -0.001884 0.000000 0.000000 0.000000
# 2 -0.006048 0.016376 -0.004099 0.000000 0.000000 0.000000
# 3 -0.001884 -0.004099 0.009381 0.000000 0.000000 0.000000
# 4 0.000000 0.000000 0.000000 0.111142 0.000000 0.000000
# 5 0.000000 0.000000 0.000000 0.000000 0.050660 0.000000
# 6 0.000000 0.000000 0.000000 0.000000 0.000000 0.049238
#
#
# Mechanical properties :
#
#
# Convention : Reuss Voigt Hill
#
# Bulk Modulus (GPa) = 83.01282 85.74325 84.37803
# Shear Modulus (GPa) = 18.16718 23.51045 20.83881
#
# Velocity S-wave (km/s) = 2.98443 3.39507 3.19635
# Velocity P-wave (km/s) = 7.25083 7.57668 7.41555
#
# Compressibility (1/GPa) = 0.01204633
#
# Stress axis : x y z
#
# Youngs Moduli (GPa) = 96.62558 61.06414 106.60080
#
# Poissons Ratio (x) = 0.36930 0.20080
# Poissons Ratio (y) = 0.58437 0.43691
# Poissons Ratio (z) = 0.18201 0.25027
#
# Static dielectric constant tensor:
#      x y z
#    x 1.385000 0.000000 0.000000 
#    y 0.000000 3.343980 0.000000 
#    z 0.000000 0.000000 4.209030 
# 
# 
# High freq. dielectric constant tensor:
#      x y z
#    x 1.798540 0.000000 0.000000 
#    y 0.000000 1.763310 0.000000 
#    z 0.000000 0.000000 1.826850 
# 
# From -- ./inp_files/3601.got.cif
#   From: 2010.06.25/outbox.cif.g09.slc.cpg/sg48_2_cif.got.tgz:3601.got - 2010.06.26 18:06:46.
