data_PCOD8201355
_publ_section_title
;
Structure prediction by ZEFSAII (Michael W. Deem and Ramdas Pophale) SiO2 
 PCOD8201355
Probable space group: P N N N
;
_chemical_formula_sum "Si O2"
_cell_formula_units_Z 50
_cell_length_a 24.296484
_cell_length_b 5.121767
_cell_length_c 25.289417
_cell_angle_alpha 90.000000
_cell_angle_beta 90.000000
_cell_angle_gamma 90.000000
_cell_volume 3147.038570
_symmetry_space_group_name_H-M "P N N N"
_symmetry_group_IT_number 48
_space_group.IT_coordinate_system_code '2'
_symmetry_cell_setting 'orthorhombic'
loop_
_space_group_symop_operation_xyz
x,y,z
1/2-x,1/2-y,z
x,1/2-y,1/2-z
1/2-x,y,1/2-z
-x,-y,-z
1/2+x,1/2+y,-z
-x,1/2+y,1/2+z
1/2+x,-y,1/2+z
loop_
_atom_site_type_symbol
_atom_site_label
_atom_site_fract_x
_atom_site_fract_y
_atom_site_fract_z
Si Si1 0.019955 0.446503 0.916455
Si Si2 0.250000 0.250000 0.617797
Si Si3 0.861351 0.045028 0.009133
Si Si4 0.250000 0.750000 0.750000
Si Si5 0.580919 0.554059 0.523536
Si Si6 0.836073 0.897379 0.196953
Si Si7 0.577737 0.040390 0.383150
Si Si8 0.750000 0.250000 0.454656
O O1 0.052724 0.672934 0.886764
O O2 0.956623 0.543302 0.923173
O O3 0.029391 0.179469 0.883344
O O4 0.042550 0.372818 0.974215
O O5 0.194103 0.225138 0.652447
O O6 0.260883 0.500611 0.581578
O O7 0.878022 0.994598 0.070056
O O8 0.799885 0.161315 0.007118
O O9 0.898429 0.261223 0.981775
O O10 0.870751 0.775706 0.975439
O O11 0.288225 0.596803 0.789724
O O12 0.854555 0.750000 0.250000
O O13 0.890311 0.029669 0.172640
#
# Coordination Sequence:
#
# PCOD8201355 Si02
#       8
#     8   4   8   2   8   8   8   4
#     4   9  18  32  48  66  84 105 139 187 235 279
#     4  12  23  36  48  60  84 126 160 198 234 280
#     4  10  19  29  46  67  89 116 142 180 227 274
#     4  12  24  40  48  62  88 126 156 206 248 292
#     4   9  17  31  47  65  87 110 137 176 233 282
#     4  12  25  35  49  64  85 121 163 202 247 288
#     4  10  21  31  48  66  83 110 148 195 236 276
#     4  12  23  32  49  68  94 118 154 194 225 280
#
# _framework density 15.887952
#
# number of rings (size 3 to 8) (size 9 to 14) (size 15 to 20)
#    0.000    1.600    3.200    2.400    6.720    3.840 
#    0.000    0.000    0.000    0.000    0.000    0.000 
#    0.000    0.000    0.000    0.000    0.000    0.000 
#
# Total GULP energy -619555.464837 kJ/mol
# GULP energy per Si atom -12391.109297 kJ/mol
# Density = 1.585179 g / cm^3
# Si number density = 15.887952 Si / 1000 Ang^3
#
#
#
# Elastic Constant Matrix: (Units=GPa)
#
#
# Indices 1 2 3 4 5 6 
#
# 1 73.8573 22.5289 39.4193 0.0000 0.0000 0.0000
# 2 22.5289 90.2572 21.9882 0.0000 0.0000 0.0000
# 3 39.4193 21.9882 42.0102 0.0000 0.0000 0.0000
# 4 0.0000 0.0000 0.0000 -639.4776 0.0000 0.0000
# 5 0.0000 0.0000 0.0000 0.0000 33.3035 0.0000
# 6 0.0000 0.0000 0.0000 0.0000 0.0000 30.9147
#
#
#
# Elastic Compliance Matrix: (Units=1/GPa)
#
#
# Indices 1 2 3 4 5 6 
#
# 1 0.027157 -0.000654 -0.025139 0.000000 0.000000 0.000000
# 2 -0.000654 0.012714 -0.006041 0.000000 0.000000 0.000000
# 3 -0.025139 -0.006041 0.050555 0.000000 0.000000 0.000000
# 4 0.000000 0.000000 0.000000 -0.001564 0.000000 0.000000
# 5 0.000000 0.000000 0.000000 0.000000 0.030027 0.000000
# 6 0.000000 0.000000 0.000000 0.000000 0.000000 0.032347
#
#
# Mechanical properties :
#
#
# Convention : Reuss Voigt Hill
#
# Bulk Modulus (GPa) = 37.37395 41.55528 39.46462
# Shear Modulus (GPa) = 22.33903 -106.90599 -42.28348
#
# Velocity S-wave (km/s) = 3.75378 -8.21179 -5.16443
# Velocity P-wave (km/s) = 6.50864 7.98119 3.26627
#
# Compressibility (1/GPa) = 0.02675660
#
# Stress axis : x y z
#
# Youngs Moduli (GPa) = 36.82347 78.65095 19.78062
#
# Poissons Ratio (x) = 0.05145 0.49727
# Poissons Ratio (y) = 0.02409 0.11949
# Poissons Ratio (z) = 0.92572 0.47513
#
# Static dielectric constant tensor:
#      x y z
#    x 2.985360 0.000000 0.000000 
#    y 0.000000 3.211880 0.000000 
#    z 0.000000 0.000000 2.623740 
# 
# 
# High freq. dielectric constant tensor:
#      x y z
#    x 1.591300 0.000000 0.000000 
#    y 0.000000 1.635200 0.000000 
#    z 0.000000 0.000000 1.547630 
# 
# From -- ./inp_files/36739.got.cif
#   From: 2010.06.25/outbox.cif.g09.slc.cpg/sg48_19_cif.got.tgz:36739.got - 2010.06.26 18:06:46.
