data_PCOD8201770
_publ_section_title
;
Structure prediction by ZEFSAII (Michael W. Deem and Ramdas Pophale) SiO2 
 PCOD8201770
Probable space group: P N N N
;
_chemical_formula_sum "Si O2"
_cell_formula_units_Z 40
_cell_length_a 12.444532
_cell_length_b 15.198638
_cell_length_c 10.882027
_cell_angle_alpha 90.000000
_cell_angle_beta 90.000000
_cell_angle_gamma 90.000000
_cell_volume 2058.225901
_symmetry_space_group_name_H-M "P N N N"
_symmetry_group_IT_number 48
_space_group.IT_coordinate_system_code '2'
_symmetry_cell_setting 'orthorhombic'
loop_
_space_group_symop_operation_xyz
x,y,z
1/2-x,1/2-y,z
x,1/2-y,1/2-z
1/2-x,y,1/2-z
-x,-y,-z
1/2+x,1/2+y,-z
-x,1/2+y,1/2+z
1/2+x,-y,1/2+z
loop_
_atom_site_type_symbol
_atom_site_label
_atom_site_fract_x
_atom_site_fract_y
_atom_site_fract_z
Si Si1 0.750000 0.250000 0.250000
Si Si2 0.750000 0.536536 0.250000
Si Si3 0.750000 0.750000 0.750000
Si Si4 0.109803 0.379397 0.083122
Si Si5 0.863037 0.109573 0.399521
Si Si6 0.654273 0.070167 0.839016
Si Si7 0.065970 0.150772 0.702826
O O1 0.830419 0.195412 0.330090
O O2 0.705544 0.475968 0.359951
O O3 0.652962 0.601564 0.210096
O O4 0.829078 0.694015 0.837271
O O5 0.168779 0.470875 0.111747
O O6 0.989056 0.401160 0.127249
O O7 0.108081 0.352362 0.939102
O O8 0.838864 0.131005 0.540890
O O9 0.750000 0.095982 0.750000
O O10 0.541965 0.094685 0.774695
O O11 0.050916 0.250000 0.750000
#
# Coordination Sequence:
#
# PCOD8201770 Si02
#       7
#     2   4   2   8   8   8   8
#     4  10  22  36  64  94 114 160 216 258 296 396
#     4  11  19  37  65  88 120 168 211 251 317 383
#     4  12  26  36  70  94 122 172 214 274 298 392
#     4  11  22  43  60  92 130 166 208 257 328 371
#     4  10  21  40  65  86 127 168 204 258 322 369
#     4  11  22  43  65  88 128 172 207 254 322 388
#     4  11  24  39  66  94 124 165 214 267 315 372
#
# _framework density 19.434211000000001
#
# number of rings (size 3 to 8) (size 9 to 14) (size 15 to 20)
#    0.000    1.200    5.000    2.100    2.800    3.600 
#    0.000    1.000    0.000    0.000    0.000    0.000 
#    0.000    0.000    0.000    0.000    0.000    0.000 
#
# Total GULP energy -495676.848548 kJ/mol
# GULP energy per Si atom -12391.921214 kJ/mol
# Density = 1.938998 g / cm^3
# Si number density = 19.434211 Si / 1000 Ang^3
#
#
#
# Elastic Constant Matrix: (Units=GPa)
#
#
# Indices 1 2 3 4 5 6 
#
# 1 137.5768 43.4108 66.5504 0.0000 0.0000 0.0000
# 2 43.4108 117.8901 41.9766 0.0000 0.0000 0.0000
# 3 66.5504 41.9766 77.5180 0.0000 0.0000 0.0000
# 4 0.0000 0.0000 0.0000 45.0633 0.0000 0.0000
# 5 0.0000 0.0000 0.0000 0.0000 37.4812 0.0000
# 6 0.0000 0.0000 0.0000 0.0000 0.0000 33.1519
#
#
#
# Elastic Compliance Matrix: (Units=1/GPa)
#
#
# Indices 1 2 3 4 5 6 
#
# 1 0.012520 -0.000970 -0.010223 0.000000 0.000000 0.000000
# 2 -0.000970 0.010584 -0.004898 0.000000 0.000000 0.000000
# 3 -0.010223 -0.004898 0.024330 0.000000 0.000000 0.000000
# 4 0.000000 0.000000 0.000000 0.022191 0.000000 0.000000
# 5 0.000000 0.000000 0.000000 0.000000 0.026680 0.000000
# 6 0.000000 0.000000 0.000000 0.000000 0.000000 0.030164
#
#
# Mechanical properties :
#
#
# Convention : Reuss Voigt Hill
#
# Bulk Modulus (GPa) = 65.57429 70.76229 68.16829
# Shear Modulus (GPa) = 30.53691 35.20908 32.87299
#
# Velocity S-wave (km/s) = 3.96826 4.26103 4.11725
# Velocity P-wave (km/s) = 7.40345 7.79094 7.59966
#
# Compressibility (1/GPa) = 0.01524988
#
# Stress axis : x y z
#
# Youngs Moduli (GPa) = 79.87090 94.48360 41.10191
#
# Poissons Ratio (x) = 0.09166 0.42020
# Poissons Ratio (y) = 0.07748 0.20133
# Poissons Ratio (z) = 0.81656 0.46282
#
# Static dielectric constant tensor:
#      x y z
#    x 3.487490 0.000000 0.000000 
#    y 0.000000 3.057690 0.000000 
#    z 0.000000 0.000000 3.638190 
# 
# 
# High freq. dielectric constant tensor:
#      x y z
#    x 1.766910 0.000000 0.000000 
#    y 0.000000 1.767690 0.000000 
#    z 0.000000 0.000000 1.745880 
# 
# From -- ./inp_files/19864.got.cif
#   From: 2010.06.25/outbox.cif.g09.slc.cpg/sg48_10_cif.got.tgz:19864.got - 2010.06.26 18:06:46.
