data_PCOD8201394
_publ_section_title
;
Structure prediction by ZEFSAII (Michael W. Deem and Ramdas Pophale) SiO2 
 PCOD8201394
Probable space group: P N N N
;
_chemical_formula_sum "Si O2"
_cell_formula_units_Z 64
_cell_length_a 14.830464
_cell_length_b 23.543537
_cell_length_c 9.595421
_cell_angle_alpha 90.000000
_cell_angle_beta 90.000000
_cell_angle_gamma 90.000000
_cell_volume 3350.352337
_symmetry_space_group_name_H-M "P N N N"
_symmetry_group_IT_number 48
_space_group.IT_coordinate_system_code '2'
_symmetry_cell_setting 'orthorhombic'
loop_
_space_group_symop_operation_xyz
x,y,z
1/2-x,1/2-y,z
x,1/2-y,1/2-z
1/2-x,y,1/2-z
-x,-y,-z
1/2+x,1/2+y,-z
-x,1/2+y,1/2+z
1/2+x,-y,1/2+z
loop_
_atom_site_type_symbol
_atom_site_label
_atom_site_fract_x
_atom_site_fract_y
_atom_site_fract_z
Si Si1 0.913756 0.855879 0.590439
Si Si2 0.413756 0.144121 0.409561
Si Si3 0.384216 0.626736 0.597599
Si Si4 0.615785 0.373263 0.097599
Si Si5 0.750000 0.932678 0.585670
Si Si6 0.250000 0.560741 0.416104
Si Si7 0.453812 0.250000 0.906333
Si Si8 0.148777 0.750000 0.499393
O O1 0.893531 0.836303 0.750000
O O2 0.839148 0.899908 0.534850
O O3 0.913000 0.803097 0.487357
O O4 0.010233 0.886260 0.582228
O O5 0.510233 0.113740 0.417772
O O6 0.339148 0.100092 0.465150
O O7 0.413000 0.196903 0.512643
O O8 0.350963 0.605831 0.750000
O O9 0.337629 0.592558 0.473820
O O10 0.361976 0.693807 0.592633
O O11 0.662372 0.407442 0.973820
O O12 0.638024 0.306193 0.092634
O O13 0.750000 0.937490 0.750000
O O14 0.750000 0.996527 0.526195
O O15 0.250000 0.565268 0.250000
O O16 0.415734 0.250000 0.750000
O O17 0.563644 0.250000 0.893854
O O18 0.250000 0.750000 0.429232
#
# Coordination Sequence:
#
# PCOD8201394 Si02
#       8
#     8   8   8   8   8   8   8   8
#     4   9  19  38  61  81 105 145 189 225 264 322
#     4   9  19  38  61  81 105 145 189 225 264 322
#     4  10  20  35  56  83 111 142 182 227 271 321
#     4  10  20  35  56  83 111 142 182 227 271 321
#     4   9  20  40  61  78 102 143 196 235 264 317
#     4  11  23  36  53  80 112 147 184 227 278 325
#     4  10  21  35  53  85 121 141 168 222 281 331
#     4  10  19  33  54  81 108 150 180 212 255 330
#
# _framework density 19.102468999999999
#
# number of rings (size 3 to 8) (size 9 to 14) (size 15 to 20)
#    0.000    2.250    1.250    1.125    0.000    9.250 
#    0.000    5.625    0.000    0.000    0.000    0.000 
#    0.000    0.000    0.000    0.000    0.000    0.000 
#
# Total GULP energy -793241.141405 kJ/mol
# GULP energy per Si atom -12394.392834 kJ/mol
# Density = 1.905899 g / cm^3
# Si number density = 19.102469 Si / 1000 Ang^3
#
#
#
# Elastic Constant Matrix: (Units=GPa)
#
#
# Indices 1 2 3 4 5 6 
#
# 1 130.5994 72.9780 36.1284 0.0000 0.0000 0.0000
# 2 72.9780 131.5387 60.8067 0.0000 0.0000 0.0000
# 3 36.1284 60.8067 117.9461 0.0000 0.0000 0.0000
# 4 0.0000 0.0000 0.0000 12.7526 0.0000 0.0000
# 5 0.0000 0.0000 0.0000 0.0000 20.1244 0.0000
# 6 0.0000 0.0000 0.0000 0.0000 0.0000 -14.9722
#
#
#
# Elastic Compliance Matrix: (Units=1/GPa)
#
#
# Indices 1 2 3 4 5 6 
#
# 1 0.011105 -0.006025 -0.000296 0.000000 0.000000 0.000000
# 2 -0.006025 0.013249 -0.004985 0.000000 0.000000 0.000000
# 3 -0.000296 -0.004985 0.011139 0.000000 0.000000 0.000000
# 4 0.000000 0.000000 0.000000 0.078415 0.000000 0.000000
# 5 0.000000 0.000000 0.000000 0.000000 0.049691 0.000000
# 6 0.000000 0.000000 0.000000 0.000000 0.000000 -0.066791
#
#
# Mechanical properties :
#
#
# Convention : Reuss Voigt Hill
#
# Bulk Modulus (GPa) = 77.62354 79.99004 78.80679
# Shear Modulus (GPa) = 40.41564 17.59237 29.00401
#
# Velocity S-wave (km/s) = 4.60470 3.03800 3.90081
# Velocity P-wave (km/s) = 8.30629 7.36689 7.85066
#
# Compressibility (1/GPa) = 0.01288269
#
# Stress axis : x y z
#
# Youngs Moduli (GPa) = 90.04722 75.47578 89.77327
#
# Poissons Ratio (x) = 0.45471 0.02655
# Poissons Ratio (y) = 0.54249 0.44754
# Poissons Ratio (z) = 0.02663 0.37626
#
# Static dielectric constant tensor:
#      x y z
#    x 3.682280 0.000000 0.000000 
#    y 0.000000 3.488350 0.000000 
#    z 0.000000 0.000000 3.227980 
# 
# 
# High freq. dielectric constant tensor:
#      x y z
#    x 1.751590 0.000000 0.000000 
#    y 0.000000 1.730870 0.000000 
#    z 0.000000 0.000000 1.723290 
# 
# From -- ./inp_files/13285.got.cif
#   From: 2010.06.25/outbox.cif.g09.slc.cpg/sg48_7_cif.got.tgz:13285.got - 2010.06.26 18:06:46.
