data_PCOD8201113
_publ_section_title
;
Structure prediction by ZEFSAII (Michael W. Deem and Ramdas Pophale) SiO2 
 PCOD8201113
Probable space group: P M M M
;
_chemical_formula_sum "Si O2"
_cell_formula_units_Z 44
_cell_length_a 9.891239
_cell_length_b 30.118187
_cell_length_c 7.897099
_cell_angle_alpha 90.000000
_cell_angle_beta 90.000000
_cell_angle_gamma 90.000000
_cell_volume 2352.594642
_symmetry_space_group_name_H-M "P M M M"
_symmetry_group_IT_number 47
_symmetry_cell_setting 'orthorhombic'
loop_
_space_group_symop_operation_xyz
x,y,z
-x,-y,z
x,-y,-z
-x,y,-z
-x,-y,-z
x,y,-z
-x,y,z
x,-y,z
loop_
_atom_site_type_symbol
_atom_site_label
_atom_site_fract_x
_atom_site_fract_y
_atom_site_fract_z
Si Si1 0.349255 0.876438 0.699412
Si Si2 0.160505 0.607510 0.312024
Si Si3 0.161522 0.449816 0.000000
Si Si4 0.153624 0.703375 0.798924
Si Si5 0.848897 0.049381 0.701470
Si Si6 0.651803 0.219862 0.800014
O O1 0.354555 0.882444 0.500000
O O2 0.500000 0.881703 0.776939
O O3 0.252994 0.914222 0.780067
O O4 0.290792 0.828018 0.744818
O O5 0.208659 0.592370 0.500000
O O6 0.218922 0.574405 0.168715
O O7 0.210313 0.657562 0.278018
O O8 0.000000 0.606879 0.299700
O O9 0.216269 0.500000 0.000000
O O10 0.000000 0.448829 0.000000
O O11 0.248321 0.742604 0.726803
O O12 0.000000 0.712745 0.739435
O O13 0.160359 0.699602 0.000000
O O14 0.848325 0.052083 0.500000
O O15 0.000000 0.059366 0.768826
O O16 0.803413 0.000000 0.759498
O O17 0.500000 0.226775 0.726461
O O18 0.649189 0.223030 0.000000
#
# Coordination Sequence:
#
# PCOD8201113 Si02
#       6
#     8   8   4   8   8   8
#     4   9  17  28  42  61  84 108 136 175 220 262
#     4   9  16  26  41  62  89 121 157 197 239 282
#     4   9  16  26  40  60  91 129 163 197 238 283
#     4   9  16  28  45  62  84 116 151 186 226 272
#     4   8  14  25  41  61  84 109 138 175 219 263
#     4   9  18  31  45  62  87 118 148 180 221 270
#
# _framework density 18.702755
#
# number of rings (size 3 to 8) (size 9 to 14) (size 15 to 20)
#    0.000    3.182    0.909    0.545    0.000    2.182 
#    0.000    3.636    0.000    0.545    0.000    3.818 
#    0.000    1.455    0.000    1.636    0.000    1.818 
#
# Total GULP energy -545357.982947 kJ/mol
# GULP energy per Si atom -12394.499612 kJ/mol
# Density = 1.866019 g / cm^3
# Si number density = 18.702755 Si / 1000 Ang^3
#
#
#
# Elastic Constant Matrix: (Units=GPa)
#
#
# Indices 1 2 3 4 5 6 
#
# 1 63.7309 71.5353 19.7004 0.0000 0.0000 0.0000
# 2 71.5353 184.8440 47.9206 0.0000 0.0000 0.0000
# 3 19.7004 47.9206 53.0532 0.0000 0.0000 0.0000
# 4 0.0000 0.0000 0.0000 23.5671 0.0000 0.0000
# 5 0.0000 0.0000 0.0000 0.0000 7.1631 0.0000
# 6 0.0000 0.0000 0.0000 0.0000 0.0000 10.4490
#
#
#
# Elastic Compliance Matrix: (Units=1/GPa)
#
#
# Indices 1 2 3 4 5 6 
#
# 1 0.027767 -0.010541 -0.000789 0.000000 0.000000 0.000000
# 2 -0.010541 0.011066 -0.006081 0.000000 0.000000 0.000000
# 3 -0.000789 -0.006081 0.024635 0.000000 0.000000 0.000000
# 4 0.000000 0.000000 0.000000 0.042432 0.000000 0.000000
# 5 0.000000 0.000000 0.000000 0.000000 0.139604 0.000000
# 6 0.000000 0.000000 0.000000 0.000000 0.000000 0.095703
#
#
# Mechanical properties :
#
#
# Convention : Reuss Voigt Hill
#
# Bulk Modulus (GPa) = 34.91066 64.43785 49.67425
# Shear Modulus (GPa) = 12.96752 19.06731 16.01742
#
# Velocity S-wave (km/s) = 2.63601 3.19641 2.92964
# Velocity P-wave (km/s) = 5.28879 6.93911 6.16938
#
# Compressibility (1/GPa) = 0.02864454
#
# Stress axis : x y z
#
# Youngs Moduli (GPa) = 36.01371 90.36660 40.59288
#
# Poissons Ratio (x) = 0.95259 0.03204
# Poissons Ratio (y) = 0.37963 0.24685
# Poissons Ratio (z) = 0.02843 0.54953
#
# Static dielectric constant tensor:
#      x y z
#    x 3.406850 0.000000 0.000000 
#    y 0.000000 3.640820 0.000000 
#    z 0.000000 0.000000 3.242990 
# 
# 
# High freq. dielectric constant tensor:
#      x y z
#    x 1.682610 0.000000 0.000000 
#    y 0.000000 1.730290 0.000000 
#    z 0.000000 0.000000 1.710010 
# 
# From -- ./inp_files/2219.got.cif
#   From: 2010.03.12/outbox.cif.g09.slc.cpg/sg47_2_cif.got.tgz:2219.got - 2010.04.14 03:12:58.
