data_PCOD8201341
_publ_section_title
;
Structure prediction by ZEFSAII (Michael W. Deem and Ramdas Pophale) SiO2 
 PCOD8201341
Probable space group: P N N N
;
_chemical_formula_sum "Si O2"
_cell_formula_units_Z 48
_cell_length_a 16.833080
_cell_length_b 8.849727
_cell_length_c 16.884775
_cell_angle_alpha 90.000000
_cell_angle_beta 90.000000
_cell_angle_gamma 90.000000
_cell_volume 2515.293907
_symmetry_space_group_name_H-M "P N N N"
_symmetry_group_IT_number 48
_space_group.IT_coordinate_system_code '2'
_symmetry_cell_setting 'orthorhombic'
loop_
_space_group_symop_operation_xyz
x,y,z
1/2-x,1/2-y,z
x,1/2-y,1/2-z
1/2-x,y,1/2-z
-x,-y,-z
1/2+x,1/2+y,-z
-x,1/2+y,1/2+z
1/2+x,-y,1/2+z
loop_
_atom_site_type_symbol
_atom_site_label
_atom_site_fract_x
_atom_site_fract_y
_atom_site_fract_z
Si Si1 0.166920 0.662214 0.123815
Si Si2 0.422143 0.952435 0.399593
Si Si3 0.158444 0.413696 0.254956
Si Si4 0.592447 0.438588 0.079409
Si Si5 0.326299 0.646767 0.553767
Si Si6 0.254987 0.426509 0.841314
O O1 0.250000 0.750000 0.147359
O O2 0.091829 0.775104 0.116842
O O3 0.138092 0.537188 0.187156
O O4 0.174471 0.586738 0.036856
O O5 0.401228 0.998257 0.489322
O O6 0.360009 0.032067 0.342651
O O7 0.511207 0.006215 0.379755
O O8 0.114496 0.250000 0.250000
O O9 0.250000 0.383402 0.250000
O O10 0.598763 0.254162 0.077322
O O11 0.661116 0.515042 0.128910
O O12 0.250000 0.750000 0.566614
O O13 0.318982 0.503765 0.612152
O O14 0.250000 0.250000 0.856250
O O15 0.250000 0.470604 0.750000
#
# Coordination Sequence:
#
# PCOD8201341 Si02
#       6
#     8   8   8   8   8   8
#     4  10  18  35  58  83 113 154 197 228 284 356
#     4  10  20  38  60  85 117 152 192 238 293 355
#     4  11  23  35  52  87 122 152 193 239 284 345
#     4   9  20  39  61  85 113 149 193 242 297 347
#     4   8  17  34  59  83 106 147 194 237 286 346
#     4  10  21  38  57  86 113 149 201 244 288 341
#
# _framework density 19.083258000000001
#
# number of rings (size 3 to 8) (size 9 to 14) (size 15 to 20)
#    0.000    2.333    1.667    1.500    0.000    4.333 
#    9.000    0.000    0.000    6.000    0.000    0.000 
#    0.000    0.000    0.000    0.000    0.000    0.000 
#
# Total GULP energy -594734.517456 kJ/mol
# GULP energy per Si atom -12390.302447 kJ/mol
# Density = 1.903982 g / cm^3
# Si number density = 19.083258 Si / 1000 Ang^3
#
#
#
# Elastic Constant Matrix: (Units=GPa)
#
#
# Indices 1 2 3 4 5 6 
#
# 1 87.0569 37.4575 40.6526 0.0000 0.0000 0.0000
# 2 37.4575 100.3257 70.4468 0.0000 0.0000 0.0000
# 3 40.6526 70.4468 121.8463 0.0000 0.0000 0.0000
# 4 0.0000 0.0000 0.0000 14.9331 0.0000 0.0000
# 5 0.0000 0.0000 0.0000 0.0000 18.1648 0.0000
# 6 0.0000 0.0000 0.0000 0.0000 0.0000 28.2673
#
#
#
# Elastic Compliance Matrix: (Units=1/GPa)
#
#
# Indices 1 2 3 4 5 6 
#
# 1 0.014240 -0.003334 -0.002823 0.000000 0.000000 0.000000
# 2 -0.003334 0.017560 -0.009040 0.000000 0.000000 0.000000
# 3 -0.002823 -0.009040 0.014376 0.000000 0.000000 0.000000
# 4 0.000000 0.000000 0.000000 0.066965 0.000000 0.000000
# 5 0.000000 0.000000 0.000000 0.000000 0.055052 0.000000
# 6 0.000000 0.000000 0.000000 0.000000 0.000000 0.035377
#
#
# Mechanical properties :
#
#
# Convention : Reuss Voigt Hill
#
# Bulk Modulus (GPa) = 63.36968 67.37144 65.37056
# Shear Modulus (GPa) = 20.90086 22.98450 21.94268
#
# Velocity S-wave (km/s) = 3.31304 3.47426 3.39461
# Velocity P-wave (km/s) = 6.92200 7.17458 7.04942
#
# Compressibility (1/GPa) = 0.01578042
#
# Stress axis : x y z
#
# Youngs Moduli (GPa) = 70.22653 56.94677 69.56149
#
# Poissons Ratio (x) = 0.18986 0.19639
# Poissons Ratio (y) = 0.23414 0.62886
# Poissons Ratio (z) = 0.19827 0.51482
#
# Static dielectric constant tensor:
#      x y z
#    x 3.396360 0.000000 0.000000 
#    y 0.000000 3.791330 0.000000 
#    z 0.000000 0.000000 3.635050 
# 
# 
# High freq. dielectric constant tensor:
#      x y z
#    x 1.714770 0.000000 0.000000 
#    y 0.000000 1.738730 0.000000 
#    z 0.000000 0.000000 1.751850 
# 
# From -- ./inp_files/31936.got.cif
#   From: 2010.06.25/outbox.cif.g09.slc.cpg/sg48_16_cif.got.tgz:31936.got - 2010.06.26 18:06:46.
