data_PCOD8201439
_publ_section_title
;
Structure prediction by ZEFSAII (Michael W. Deem and Ramdas Pophale) SiO2 
 PCOD8201439
Probable space group: P N N N
;
_chemical_formula_sum "Si O2"
_cell_formula_units_Z 48
_cell_length_a 20.325158
_cell_length_b 16.130523
_cell_length_c 8.302722
_cell_angle_alpha 90.000000
_cell_angle_beta 90.000000
_cell_angle_gamma 90.000000
_cell_volume 2722.092480
_symmetry_space_group_name_H-M "P N N N"
_symmetry_group_IT_number 48
_space_group.IT_coordinate_system_code '2'
_symmetry_cell_setting 'orthorhombic'
loop_
_space_group_symop_operation_xyz
x,y,z
1/2-x,1/2-y,z
x,1/2-y,1/2-z
1/2-x,y,1/2-z
-x,-y,-z
1/2+x,1/2+y,-z
-x,1/2+y,1/2+z
1/2+x,-y,1/2+z
loop_
_atom_site_type_symbol
_atom_site_label
_atom_site_fract_x
_atom_site_fract_y
_atom_site_fract_z
Si Si1 0.180868 0.921357 0.544485
Si Si2 0.450267 0.526358 0.867020
Si Si3 0.003998 0.175432 0.352190
Si Si4 0.066348 0.046838 0.551454
Si Si5 0.116166 0.732468 0.068965
Si Si6 0.174749 0.893151 0.918521
O O1 0.159797 0.850122 0.421249
O O2 0.171817 0.886297 0.724747
O O3 0.258542 0.937458 0.518254
O O4 0.134956 0.001064 0.505446
O O5 0.473538 0.606306 0.765606
O O6 0.436668 0.449140 0.746163
O O7 0.384850 0.546896 0.968717
O O8 0.500000 0.500000 0.000000
O O9 0.036524 0.250000 0.250000
O O10 0.061758 0.136510 0.465519
O O11 0.947408 0.216735 0.459816
O O12 0.000000 0.000000 0.500000
O O13 0.092378 0.750000 0.250000
O O14 0.163181 0.803294 0.995513
#
# Coordination Sequence:
#
# PCOD8201439 Si02
#       6
#     8   8   8   8   8   8
#     4  10  19  36  53  75 109 157 182 221 273 332
#     4  10  20  34  56  81 106 144 184 231 282 336
#     4  11  20  37  54  77 110 147 192 236 285 328
#     4   9  18  33  54  73 106 146 186 227 273 320
#     4  12  22  31  49  79 116 153 183 223 275 337
#     4  10  20  34  54  76 112 147 188 217 275 344
#
# _framework density 17.633495
#
# number of rings (size 3 to 8) (size 9 to 14) (size 15 to 20)
#    0.000    1.667    6.667    1.000    2.333    2.667 
#    0.000    0.000    0.000    0.000    0.000    2.333 
#    0.000    5.333    0.000    0.000    0.000    0.000 
#
# Total GULP energy -594736.092278 kJ/mol
# GULP energy per Si atom -12390.335256 kJ/mol
# Density = 1.759336 g / cm^3
# Si number density = 17.633495 Si / 1000 Ang^3
#
#
#
# Elastic Constant Matrix: (Units=GPa)
#
#
# Indices 1 2 3 4 5 6 
#
# 1 132.4792 65.2560 43.4171 0.0000 0.0000 0.0000
# 2 65.2560 86.2223 51.7779 0.0000 0.0000 0.0000
# 3 43.4171 51.7779 73.1026 0.0000 0.0000 0.0000
# 4 0.0000 0.0000 0.0000 32.9900 0.0000 0.0000
# 5 0.0000 0.0000 0.0000 0.0000 22.6198 0.0000
# 6 0.0000 0.0000 0.0000 0.0000 0.0000 33.3760
#
#
#
# Elastic Compliance Matrix: (Units=1/GPa)
#
#
# Indices 1 2 3 4 5 6 
#
# 1 0.012097 -0.008424 -0.001218 0.000000 0.000000 0.000000
# 2 -0.008424 0.026048 -0.013447 0.000000 0.000000 0.000000
# 3 -0.001218 -0.013447 0.023927 0.000000 0.000000 0.000000
# 4 0.000000 0.000000 0.000000 0.030312 0.000000 0.000000
# 5 0.000000 0.000000 0.000000 0.000000 0.044209 0.000000
# 6 0.000000 0.000000 0.000000 0.000000 0.000000 0.029962
#
#
# Mechanical properties :
#
#
# Convention : Reuss Voigt Hill
#
# Bulk Modulus (GPa) = 62.91279 68.07844 65.49562
# Shear Modulus (GPa) = 22.93253 26.55404 24.74329
#
# Velocity S-wave (km/s) = 3.61017 3.88479 3.74999
# Velocity P-wave (km/s) = 7.28925 7.66899 7.48153
#
# Compressibility (1/GPa) = 0.01589502
#
# Stress axis : x y z
#
# Youngs Moduli (GPa) = 82.66536 38.39006 41.79385
#
# Poissons Ratio (x) = 0.32340 0.05091
# Poissons Ratio (y) = 0.69637 0.56199
# Poissons Ratio (z) = 0.10069 0.51622
#
# Static dielectric constant tensor:
#      x y z
#    x 3.603000 0.000000 0.000000 
#    y 0.000000 3.355040 0.000000 
#    z 0.000000 0.000000 4.096780 
# 
# 
# High freq. dielectric constant tensor:
#      x y z
#    x 1.669910 0.000000 0.000000 
#    y 0.000000 1.650170 0.000000 
#    z 0.000000 0.000000 1.683960 
# 
# From -- ./inp_files/14334.got.cif
#   From: 2010.06.25/outbox.cif.g09.slc.cpg/sg48_8_cif.got.tgz:14334.got - 2010.06.26 18:06:46.
