data_PCOD8201116
_publ_section_title
;
Structure prediction by ZEFSAII (Michael W. Deem and Ramdas Pophale) SiO2 
 PCOD8201116
Probable space group: P M M M
;
_chemical_formula_sum "Si O2"
_cell_formula_units_Z 52
_cell_length_a 9.676629
_cell_length_b 9.200409
_cell_length_c 33.619983
_cell_angle_alpha 90.000000
_cell_angle_beta 90.000000
_cell_angle_gamma 90.000000
_cell_volume 2993.151602
_symmetry_space_group_name_H-M "P M M M"
_symmetry_group_IT_number 47
_symmetry_cell_setting 'orthorhombic'
loop_
_space_group_symop_operation_xyz
x,y,z
-x,-y,z
x,-y,-z
-x,y,-z
-x,-y,-z
x,y,-z
-x,y,z
x,-y,z
loop_
_atom_site_type_symbol
_atom_site_label
_atom_site_fract_x
_atom_site_fract_y
_atom_site_fract_z
Si Si1 0.160322 0.830011 0.615568
Si Si2 0.835557 0.836055 0.230284
Si Si3 0.344946 0.827320 0.456074
Si Si4 0.664225 0.836272 0.000000
Si Si5 0.340367 0.669430 0.922583
Si Si6 0.840344 0.669181 0.847757
Si Si7 0.835428 0.664179 0.306364
O O1 0.241226 0.767069 0.577334
O O2 0.216291 0.745367 0.654069
O O3 0.000000 0.798753 0.607888
O O4 0.188363 0.000000 0.622648
O O5 0.785467 0.758152 0.190106
O O6 0.775509 0.748776 0.268081
O O7 0.000000 0.836004 0.232099
O O8 0.777564 0.000000 0.231199
O O9 0.300192 0.770748 0.500000
O O10 0.500000 0.773586 0.446353
O O11 0.339845 0.000000 0.456000
O O12 0.718251 0.755083 0.960684
O O13 0.500000 0.832398 0.000000
O O14 0.721735 0.000000 0.000000
O O15 0.500000 0.707337 0.913847
O O16 0.320954 0.500000 0.931555
O O17 0.250496 0.719708 0.885059
O O18 0.819124 0.500000 0.838201
O O19 0.000000 0.704011 0.857185
O O20 0.778027 0.500000 0.306119
O O21 0.000000 0.664787 0.304927
#
# Coordination Sequence:
#
# PCOD8201116 Si02
#       7
#     8   8   8   4   8   8   8
#     4   9  16  25  40  64  89 109 135 176 218 250
#     4   9  16  26  42  64  89 116 145 177 212 251
#     4   8  14  25  41  61  85 113 143 173 208 253
#     4   9  17  29  46  67  88 112 146 185 220 256
#     4   9  17  30  48  67  87 114 147 180 214 255
#     4   9  17  29  45  66  91 117 145 177 214 256
#     4   9  16  26  41  61  86 115 144 174 211 255
#
# _framework density 17.372992
#
# number of rings (size 3 to 8) (size 9 to 14) (size 15 to 20)
#    0.000    3.154    0.000    1.615    0.000    5.538 
#    0.000    1.923    0.000    4.154    0.000    3.231 
#    0.000    0.000    0.000    0.000    0.000    0.000 
#
# Total GULP energy -644684.707850 kJ/mol
# GULP energy per Si atom -12397.782843 kJ/mol
# Density = 1.733345 g / cm^3
# Si number density = 17.372992 Si / 1000 Ang^3
#
#
#
# Elastic Constant Matrix: (Units=GPa)
#
#
# Indices 1 2 3 4 5 6 
#
# 1 41.1928 28.0997 58.8751 0.0000 0.0000 0.0000
# 2 28.0997 88.0300 81.6080 0.0000 0.0000 0.0000
# 3 58.8751 81.6080 200.0331 0.0000 0.0000 0.0000
# 4 0.0000 0.0000 0.0000 25.7124 0.0000 0.0000
# 5 0.0000 0.0000 0.0000 0.0000 9.7876 0.0000
# 6 0.0000 0.0000 0.0000 0.0000 0.0000 9.5821
#
#
#
# Elastic Compliance Matrix: (Units=1/GPa)
#
#
# Indices 1 2 3 4 5 6 
#
# 1 0.042445 -0.003164 -0.011202 0.000000 0.000000 0.000000
# 2 -0.003164 0.018505 -0.006618 0.000000 0.000000 0.000000
# 3 -0.011202 -0.006618 0.010996 0.000000 0.000000 0.000000
# 4 0.000000 0.000000 0.000000 0.038892 0.000000 0.000000
# 5 0.000000 0.000000 0.000000 0.000000 0.102170 0.000000
# 6 0.000000 0.000000 0.000000 0.000000 0.000000 0.104362
#
#
# Mechanical properties :
#
#
# Convention : Reuss Voigt Hill
#
# Bulk Modulus (GPa) = 33.35793 74.04684 53.70239
# Shear Modulus (GPa) = 13.53801 19.72795 16.63298
#
# Velocity S-wave (km/s) = 2.79454 3.37345 3.09755
# Velocity P-wave (km/s) = 5.44567 7.60841 6.61601
#
# Compressibility (1/GPa) = 0.02997788
#
# Stress axis : x y z
#
# Youngs Moduli (GPa) = 23.56007 54.03856 90.93980
#
# Poissons Ratio (x) = 0.17098 1.01869
# Poissons Ratio (y) = 0.07454 0.60188
# Poissons Ratio (z) = 0.26392 0.35765
#
# Static dielectric constant tensor:
#      x y z
#    x 2.875660 0.000000 0.000000 
#    y 0.000000 3.172230 0.000000 
#    z 0.000000 0.000000 3.513640 
# 
# 
# High freq. dielectric constant tensor:
#      x y z
#    x 1.621350 0.000000 0.000000 
#    y 0.000000 1.657480 0.000000 
#    z 0.000000 0.000000 1.687000 
# 
# From -- ./inp_files/14090.got.cif
#   From: 2010.03.12/outbox.cif.g09.slc.cpg/sg47_8_cif.got.tgz:14090.got - 2010.04.14 03:12:58.
