data_PCOD8201054
_publ_section_title
;
Structure prediction by ZEFSAII (Michael W. Deem and Ramdas Pophale) SiO2 
 PCOD8201054
Probable space group: P M M M
;
_chemical_formula_sum "Si O2"
_cell_formula_units_Z 36
_cell_length_a 9.847852
_cell_length_b 9.346346
_cell_length_c 23.028429
_cell_angle_alpha 90.000000
_cell_angle_beta 90.000000
_cell_angle_gamma 90.000000
_cell_volume 2119.569585
_symmetry_space_group_name_H-M "P M M M"
_symmetry_group_IT_number 47
_symmetry_cell_setting 'orthorhombic'
loop_
_space_group_symop_operation_xyz
x,y,z
-x,-y,z
x,-y,-z
-x,y,-z
-x,-y,-z
x,y,-z
-x,y,z
x,-y,z
loop_
_atom_site_type_symbol
_atom_site_label
_atom_site_fract_x
_atom_site_fract_y
_atom_site_fract_z
Si Si1 0.838213 0.162257 0.500000
Si Si2 0.838575 0.159127 0.281964
Si Si3 0.344215 0.664863 0.933275
Si Si4 0.846490 0.169188 0.152953
Si Si5 0.838008 0.338589 0.389563
O O1 0.783373 0.245454 0.443468
O O2 0.000000 0.159947 0.500000
O O3 0.781754 0.000000 0.500000
O O4 0.795814 0.212121 0.217704
O O5 0.781518 0.268344 0.330159
O O6 0.000000 0.151643 0.285009
O O7 0.780328 0.000000 0.294430
O O8 0.500000 0.705600 0.921205
O O9 0.317996 0.500000 0.918108
O O10 0.250176 0.761272 0.893870
O O11 0.307262 0.695577 0.000000
O O12 0.000000 0.224194 0.142742
O O13 0.840515 0.000000 0.145782
O O14 0.781495 0.500000 0.394437
O O15 0.000000 0.340004 0.389632
#
# Coordination Sequence:
#
# PCOD8201054 Si02
#       5
#     4   8   8   8   8
#     4   9  15  21  29  41  61  95 136 173 212 257
#     4   8  14  25  38  52  75 106 136 168 211 261
#     4   9  19  35  51  67  90 120 152 185 223 269
#     4   9  18  31  47  69  94 118 148 187 227 269
#     4   9  15  21  30  46  68  95 132 176 214 250
#
# _framework density 16.984580000000001
#
# number of rings (size 3 to 8) (size 9 to 14) (size 15 to 20)
#    0.000    3.222    0.000    3.000    0.000    6.667 
#    0.000    5.556    0.000    0.000    0.000    0.000 
#    0.000    0.000    0.000    1.000    0.000   19.778 
#
# Total GULP energy -446236.546884 kJ/mol
# GULP energy per Si atom -12395.459636 kJ/mol
# Density = 1.694592 g / cm^3
# Si number density = 16.984580 Si / 1000 Ang^3
#
#
#
# Elastic Constant Matrix: (Units=GPa)
#
#
# Indices 1 2 3 4 5 6 
#
# 1 30.5445 26.1470 40.2754 0.0000 0.0000 0.0000
# 2 26.1470 101.0064 71.9705 0.0000 0.0000 0.0000
# 3 40.2754 71.9705 137.0493 0.0000 0.0000 0.0000
# 4 0.0000 0.0000 0.0000 30.0479 0.0000 0.0000
# 5 0.0000 0.0000 0.0000 0.0000 -3.7043 0.0000
# 6 0.0000 0.0000 0.0000 0.0000 0.0000 17.9091
#
#
#
# Elastic Compliance Matrix: (Units=1/GPa)
#
#
# Indices 1 2 3 4 5 6 
#
# 1 0.054604 -0.004316 -0.013780 0.000000 0.000000 0.000000
# 2 -0.004316 0.016161 -0.007218 0.000000 0.000000 0.000000
# 3 -0.013780 -0.007218 0.015137 0.000000 0.000000 0.000000
# 4 0.000000 0.000000 0.000000 0.033280 0.000000 0.000000
# 5 0.000000 0.000000 0.000000 0.000000 -0.269960 0.000000
# 6 0.000000 0.000000 0.000000 0.000000 0.000000 0.055837
#
#
# Mechanical properties :
#
#
# Convention : Reuss Voigt Hill
#
# Bulk Modulus (GPa) = 28.35059 60.59843 44.47451
# Shear Modulus (GPa) = -153.59738 17.53104 -68.03317
#
# Velocity S-wave (km/s) = -9.51997 3.21623 -6.33583
# Velocity P-wave (km/s) = 10.20350 7.03904 5.22318
#
# Compressibility (1/GPa) = 0.03527263
#
# Stress axis : x y z
#
# Youngs Moduli (GPa) = 18.31357 61.87707 66.06314
#
# Poissons Ratio (x) = 0.26708 0.91036
# Poissons Ratio (y) = 0.07905 0.47687
# Poissons Ratio (z) = 0.25236 0.44666
#
# Static dielectric constant tensor:
#      x y z
#    x 2.592520 0.000000 0.000000 
#    y 0.000000 3.275660 0.000000 
#    z 0.000000 0.000000 3.447650 
# 
# 
# High freq. dielectric constant tensor:
#      x y z
#    x 1.581660 0.000000 0.000000 
#    y 0.000000 1.660210 0.000000 
#    z 0.000000 0.000000 1.671160 
# 
# From -- ./inp_files/1390.got.cif
#   From: 2010.03.12/outbox.cif.g09.slc.cpg/sg47_1_cif.got.tgz:1390.got - 2010.04.14 03:12:58.
