data_PCOD8201665
_publ_section_title
;
Structure prediction by ZEFSAII (Michael W. Deem and Ramdas Pophale) SiO2 
 PCOD8201665
Probable space group: P N N N
;
_chemical_formula_sum "Si O2"
_cell_formula_units_Z 32
_cell_length_a 14.519467
_cell_length_b 5.315459
_cell_length_c 16.428380
_cell_angle_alpha 90.000000
_cell_angle_beta 90.000000
_cell_angle_gamma 90.000000
_cell_volume 1267.903458
_symmetry_space_group_name_H-M "P N N N"
_symmetry_group_IT_number 48
_space_group.IT_coordinate_system_code '2'
_symmetry_cell_setting 'orthorhombic'
loop_
_space_group_symop_operation_xyz
x,y,z
1/2-x,1/2-y,z
x,1/2-y,1/2-z
1/2-x,y,1/2-z
-x,-y,-z
1/2+x,1/2+y,-z
-x,1/2+y,1/2+z
1/2+x,-y,1/2+z
loop_
_atom_site_type_symbol
_atom_site_label
_atom_site_fract_x
_atom_site_fract_y
_atom_site_fract_z
Si Si1 0.586169 0.935105 0.676899
Si Si2 0.653902 0.886913 0.960240
Si Si3 0.811728 0.996471 0.367079
Si Si4 0.439773 0.250000 0.750000
Si Si5 0.750000 0.250000 0.649346
O O1 0.564277 0.750000 0.750000
O O2 0.584661 0.800457 0.587868
O O3 0.503600 0.137240 0.677851
O O4 0.687879 0.051085 0.700022
O O5 0.750000 0.750000 0.972453
O O6 0.669355 0.129982 0.904940
O O7 0.624915 0.981716 0.050425
O O8 0.750000 0.750000 0.361897
O O9 0.879453 0.976285 0.289581
O O10 0.750000 0.250000 0.364003
#
# Coordination Sequence:
#
# PCOD8201665 Si02
#       5
#     8   8   8   4   4
#     4  11  25  42  67 113 155 198 249 315 394 464
#     4   9  20  41  74 104 144 197 258 308 379 458
#     4  11  26  51  81 106 145 205 268 321 381 454
#     4  12  29  45  72 110 158 194 258 327 393 458
#     4  10  20  43  70 102 145 200 246 308 373 466
#
# _framework density 25.238513000000001
#
# number of rings (size 3 to 8) (size 9 to 14) (size 15 to 20)
#    0.000    1.500    1.250    1.875    3.500   14.000 
#    0.000    5.000    0.000    0.000    0.000    0.000 
#    0.000    0.000    0.000    0.000    0.000    0.000 
#
# Total GULP energy -396491.320281 kJ/mol
# GULP energy per Si atom -12390.353759 kJ/mol
# Density = 2.518107 g / cm^3
# Si number density = 25.238513 Si / 1000 Ang^3
#
#
#
# Elastic Constant Matrix: (Units=GPa)
#
#
# Indices 1 2 3 4 5 6 
#
# 1 95.6606 56.0022 63.8815 0.0000 0.0000 0.0000
# 2 56.0022 140.1023 43.8123 0.0000 0.0000 0.0000
# 3 63.8815 43.8123 149.6808 0.0000 0.0000 0.0000
# 4 0.0000 0.0000 0.0000 31.2894 0.0000 0.0000
# 5 0.0000 0.0000 0.0000 0.0000 -38.6419 0.0000
# 6 0.0000 0.0000 0.0000 0.0000 0.0000 37.0660
#
#
#
# Elastic Compliance Matrix: (Units=1/GPa)
#
#
# Indices 1 2 3 4 5 6 
#
# 1 0.017402 -0.005100 -0.005934 0.000000 0.000000 0.000000
# 2 -0.005100 0.009352 -0.000560 0.000000 0.000000 0.000000
# 3 -0.005934 -0.000560 0.009378 0.000000 0.000000 0.000000
# 4 0.000000 0.000000 0.000000 0.031960 0.000000 0.000000
# 5 0.000000 0.000000 0.000000 0.000000 -0.025879 0.000000
# 6 0.000000 0.000000 0.000000 0.000000 0.000000 0.026979
#
#
# Mechanical properties :
#
#
# Convention : Reuss Voigt Hill
#
# Bulk Modulus (GPa) = 77.27114 79.20396 78.23755
# Shear Modulus (GPa) = 51.70876 20.72588 36.21732
#
# Velocity S-wave (km/s) = 4.53128 2.86877 3.79225
# Velocity P-wave (km/s) = 7.61968 6.51333 7.08812
#
# Compressibility (1/GPa) = 0.01294144
#
# Stress axis : x y z
#
# Youngs Moduli (GPa) = 57.46360 106.93268 106.63770
#
# Poissons Ratio (x) = 0.54540 0.63280
# Poissons Ratio (y) = 0.29309 0.05977
# Poissons Ratio (z) = 0.34100 0.05994
#
# Static dielectric constant tensor:
#      x y z
#    x -5.710050 0.000000 0.000000 
#    y 0.000000 4.995500 0.000000 
#    z 0.000000 0.000000 5.145880 
# 
# 
# High freq. dielectric constant tensor:
#      x y z
#    x 1.978190 0.000000 0.000000 
#    y 0.000000 2.018040 0.000000 
#    z 0.000000 0.000000 2.010170 
# 
# From -- ./inp_files/31345.got.cif
#   From: 2010.06.25/outbox.cif.g09.slc.cpg/sg48_16_cif.got.tgz:31345.got - 2010.06.26 18:06:46.
