data_PCOD8201626
_publ_section_title
;
Structure prediction by ZEFSAII (Michael W. Deem and Ramdas Pophale) SiO2 
 PCOD8201626
Probable space group: P N N N
;
_chemical_formula_sum "Si O2"
_cell_formula_units_Z 30
_cell_length_a 11.256603
_cell_length_b 15.122121
_cell_length_c 7.351228
_cell_angle_alpha 90.000000
_cell_angle_beta 90.000000
_cell_angle_gamma 90.000000
_cell_volume 1251.353322
_symmetry_space_group_name_H-M "P N N N"
_symmetry_group_IT_number 48
_space_group.IT_coordinate_system_code '2'
_symmetry_cell_setting 'orthorhombic'
loop_
_space_group_symop_operation_xyz
x,y,z
1/2-x,1/2-y,z
x,1/2-y,1/2-z
1/2-x,y,1/2-z
-x,-y,-z
1/2+x,1/2+y,-z
-x,1/2+y,1/2+z
1/2+x,-y,1/2+z
loop_
_atom_site_type_symbol
_atom_site_label
_atom_site_fract_x
_atom_site_fract_y
_atom_site_fract_z
Si Si1 0.153841 0.927595 0.387951
Si Si2 0.582670 0.487493 0.245493
Si Si3 0.250000 0.250000 0.250000
Si Si4 0.073151 0.364035 0.483151
Si Si5 0.422123 0.750000 0.250000
O O1 0.250000 0.971944 0.250000
O O2 0.178246 0.954841 0.600243
O O3 0.158998 0.821676 0.357173
O O4 0.023377 0.959794 0.341461
O O5 0.636669 0.556953 0.099224
O O6 0.530332 0.401925 0.146186
O O7 0.173819 0.314908 0.372686
O O8 0.008478 0.293226 0.605242
#
# Coordination Sequence:
#
# PCOD8201626 Si02
#       5
#     8   8   2   8   4
#     4  10  20  38  69  98 127 177 225 277 332 420
#     4   9  21  43  64  94 141 176 217 280 353 401
#     4  12  24  38  68 104 128 178 244 276 350 428
#     4  10  22  42  64  95 136 182 217 291 350 415
#     4  10  21  41  62  94 136 168 220 291 345 384
#
# _framework density 23.974042000000001
#
# number of rings (size 3 to 8) (size 9 to 14) (size 15 to 20)
#    0.000    2.133    0.000    2.000    1.867    0.533 
#    4.800   10.667    0.000    9.600    0.000    0.000 
#    0.000    0.000    0.000    0.000    0.000    0.000 
#
# Total GULP energy -371903.295590 kJ/mol
# GULP energy per Si atom -12396.776520 kJ/mol
# Density = 2.391948 g / cm^3
# Si number density = 23.974042 Si / 1000 Ang^3
#
#
#
# Elastic Constant Matrix: (Units=GPa)
#
#
# Indices 1 2 3 4 5 6 
#
# 1 66.4741 47.7494 64.5956 0.0000 0.0000 0.0000
# 2 47.7494 135.7779 93.1167 0.0000 0.0000 0.0000
# 3 64.5956 93.1167 209.5431 0.0000 0.0000 0.0000
# 4 0.0000 0.0000 0.0000 45.3879 0.0000 0.0000
# 5 0.0000 0.0000 0.0000 0.0000 39.6362 0.0000
# 6 0.0000 0.0000 0.0000 0.0000 0.0000 21.2001
#
#
#
# Elastic Compliance Matrix: (Units=1/GPa)
#
#
# Indices 1 2 3 4 5 6 
#
# 1 0.023409 -0.004723 -0.005118 0.000000 0.000000 0.000000
# 2 -0.004723 0.011546 -0.003675 0.000000 0.000000 0.000000
# 3 -0.005118 -0.003675 0.007983 0.000000 0.000000 0.000000
# 4 0.000000 0.000000 0.000000 0.022032 0.000000 0.000000
# 5 0.000000 0.000000 0.000000 0.000000 0.025229 0.000000
# 6 0.000000 0.000000 0.000000 0.000000 0.000000 0.047170
#
#
# Mechanical properties :
#
#
# Convention : Reuss Voigt Hill
#
# Bulk Modulus (GPa) = 62.86361 91.41318 77.13839
# Shear Modulus (GPa) = 29.46343 35.00040 32.23191
#
# Velocity S-wave (km/s) = 3.50947 3.82505 3.67065
# Velocity P-wave (km/s) = 6.53455 7.59742 7.08594
#
# Compressibility (1/GPa) = 0.01590746
#
# Stress axis : x y z
#
# Youngs Moduli (GPa) = 42.71920 86.60916 125.26648
#
# Poissons Ratio (x) = 0.40902 0.64106
# Poissons Ratio (y) = 0.20174 0.46036
# Poissons Ratio (z) = 0.21862 0.31829
#
# Static dielectric constant tensor:
#      x y z
#    x 3.928600 0.000000 0.000000 
#    y 0.000000 4.641560 0.000000 
#    z 0.000000 0.000000 4.956940 
# 
# 
# High freq. dielectric constant tensor:
#      x y z
#    x 1.942120 0.000000 0.000000 
#    y 0.000000 1.959760 0.000000 
#    z 0.000000 0.000000 1.969370 
# 
# From -- ./inp_files/10191.got.cif
#   From: 2010.06.25/outbox.cif.g09.slc.cpg/sg48_6_cif.got.tgz:10191.got - 2010.06.26 18:06:46.
