data_PCOD8201200
_publ_section_title
;
Structure prediction by ZEFSAII (Michael W. Deem and Ramdas Pophale) SiO2 
 PCOD8201200
Probable space group: P M M M
;
_chemical_formula_sum "Si O2"
_cell_formula_units_Z 40
_cell_length_a 19.305165
_cell_length_b 18.250388
_cell_length_c 8.123875
_cell_angle_alpha 90.000000
_cell_angle_beta 90.000000
_cell_angle_gamma 90.000000
_cell_volume 2862.258490
_symmetry_space_group_name_H-M "P M M M"
_symmetry_group_IT_number 47
_symmetry_cell_setting 'orthorhombic'
loop_
_space_group_symop_operation_xyz
x,y,z
-x,-y,z
x,-y,-z
-x,y,-z
-x,-y,-z
x,y,-z
-x,y,z
x,-y,z
loop_
_atom_site_type_symbol
_atom_site_label
_atom_site_fract_x
_atom_site_fract_y
_atom_site_fract_z
Si Si1 0.079037 0.087330 0.000000
Si Si2 0.838734 0.913317 0.316794
Si Si3 0.579867 0.348955 0.690422
Si Si4 0.422864 0.196197 0.808898
Si Si5 0.310411 0.083811 0.193928
Si Si6 0.578101 0.500000 0.806987
O O1 0.114403 0.119109 0.832411
O O2 0.000000 0.113747 0.000000
O O3 0.085539 0.000000 0.000000
O O4 0.860869 0.884052 0.500000
O O5 0.759203 0.891608 0.285978
O O6 0.846774 0.000000 0.313743
O O7 0.591014 0.336820 0.500000
O O8 0.500000 0.354727 0.743910
O O9 0.610472 0.276863 0.779172
O O10 0.616341 0.425561 0.744938
O O11 0.500000 0.190483 0.727233
O O12 0.372208 0.134397 0.734997
O O13 0.429931 0.181201 0.000000
O O14 0.329825 0.000000 0.234140
O O15 0.298291 0.094892 0.000000
O O16 0.500000 0.500000 0.733488
O O17 0.577777 0.500000 0.000000
#
# Coordination Sequence:
#
# PCOD8201200 Si02
#       6
#     4   8   8   8   8   4
#     4   9  16  26  40  58  79  97 115 146 186 225
#     4   9  16  26  40  56  74  97 124 152 185 228
#     4   9  16  25  36  50  69  90 112 143 186 231
#     4   9  17  27  38  53  72  94 124 164 205 238
#     4   9  16  27  41  53  70  98 130 165 203 238
#     4   9  15  23  37  53  67  85 109 137 175 228
#
# _framework density 13.974978999999999
#
# number of rings (size 3 to 8) (size 9 to 14) (size 15 to 20)
#    0.000    3.000    1.000    0.900    0.000    5.200 
#    0.000    4.000    0.000    0.000    0.000    5.600 
#    0.000    0.000    0.000    0.000    0.000    0.000 
#
# Total GULP energy -495603.747415 kJ/mol
# GULP energy per Si atom -12390.093685 kJ/mol
# Density = 1.394317 g / cm^3
# Si number density = 13.974979 Si / 1000 Ang^3
#
#
#
# Elastic Constant Matrix: (Units=GPa)
#
#
# Indices 1 2 3 4 5 6 
#
# 1 62.8817 37.8202 36.2984 0.0000 0.0000 0.0000
# 2 37.8202 70.8948 21.4515 0.0000 0.0000 0.0000
# 3 36.2984 21.4515 64.2903 0.0000 0.0000 0.0000
# 4 0.0000 0.0000 0.0000 11.1249 0.0000 0.0000
# 5 0.0000 0.0000 0.0000 0.0000 9.7974 0.0000
# 6 0.0000 0.0000 0.0000 0.0000 0.0000 0.7233
#
#
#
# Elastic Compliance Matrix: (Units=1/GPa)
#
#
# Indices 1 2 3 4 5 6 
#
# 1 0.031233 -0.012598 -0.013430 0.000000 0.000000 0.000000
# 2 -0.012598 0.020771 0.000182 0.000000 0.000000 0.000000
# 3 -0.013430 0.000182 0.023077 0.000000 0.000000 0.000000
# 4 0.000000 0.000000 0.000000 0.089888 0.000000 0.000000
# 5 0.000000 0.000000 0.000000 0.000000 0.102067 0.000000
# 6 0.000000 0.000000 0.000000 0.000000 0.000000 1.382557
#
#
# Mechanical properties :
#
#
# Convention : Reuss Voigt Hill
#
# Bulk Modulus (GPa) = 42.75740 43.24521 43.00130
# Shear Modulus (GPa) = 2.92555 11.16225 7.04390
#
# Velocity S-wave (km/s) = 1.44844 2.82925 2.24751
# Velocity P-wave (km/s) = 5.78441 6.45638 6.12961
#
# Compressibility (1/GPa) = 0.02338777
#
# Stress axis : x y z
#
# Youngs Moduli (GPa) = 32.01785 48.14451 43.33409
#
# Poissons Ratio (x) = 0.60652 0.58200
# Poissons Ratio (y) = 0.40335 -0.00790
# Poissons Ratio (z) = 0.43002 -0.00877
#
# Static dielectric constant tensor:
#      x y z
#    x 2.564020 0.000000 0.000000 
#    y 0.000000 2.749370 0.000000 
#    z 0.000000 0.000000 2.842180 
# 
# 
# High freq. dielectric constant tensor:
#      x y z
#    x 1.481890 0.000000 0.000000 
#    y 0.000000 1.502830 0.000000 
#    z 0.000000 0.000000 1.544340 
# 
# From -- ./inp_files/6643.got.cif
#   From: 2010.03.12/outbox.cif.g09.slc.cpg/sg47_4_cif.got.tgz:6643.got - 2010.04.14 03:12:58.
