data_PCOD8201681
_publ_section_title
;
Structure prediction by ZEFSAII (Michael W. Deem and Ramdas Pophale) SiO2 
 PCOD8201681
Probable space group: P N N N
;
_chemical_formula_sum "Si O2"
_cell_formula_units_Z 48
_cell_length_a 11.255361
_cell_length_b 8.878348
_cell_length_c 27.088799
_cell_angle_alpha 90.000000
_cell_angle_beta 90.000000
_cell_angle_gamma 90.000000
_cell_volume 2706.956916
_symmetry_space_group_name_H-M "P N N N"
_symmetry_group_IT_number 48
_space_group.IT_coordinate_system_code '2'
_symmetry_cell_setting 'orthorhombic'
loop_
_space_group_symop_operation_xyz
x,y,z
1/2-x,1/2-y,z
x,1/2-y,1/2-z
1/2-x,y,1/2-z
-x,-y,-z
1/2+x,1/2+y,-z
-x,1/2+y,1/2+z
1/2+x,-y,1/2+z
loop_
_atom_site_type_symbol
_atom_site_label
_atom_site_fract_x
_atom_site_fract_y
_atom_site_fract_z
Si Si1 0.608958 0.416639 0.255502
Si Si2 0.499817 0.911415 0.438249
Si Si3 0.364168 0.440763 0.647270
Si Si4 0.398994 0.400718 0.837534
Si Si5 0.190627 0.589355 0.510533
Si Si6 0.586686 0.584970 0.462557
O O1 0.558148 0.250000 0.250000
O O2 0.750000 0.426357 0.250000
O O3 0.571797 0.459221 0.311168
O O4 0.554164 0.525271 0.213338
O O5 0.499895 0.918863 0.379142
O O6 0.361076 0.910741 0.454491
O O7 0.564277 0.763064 0.461236
O O8 0.572236 0.058385 0.457015
O O9 0.376609 0.274676 0.669499
O O10 0.223282 0.478449 0.642854
O O11 0.425692 0.471944 0.594388
O O12 0.250000 0.750000 0.524126
O O13 0.281549 0.452103 0.518107
O O14 0.500000 0.500000 0.500000
#
# Coordination Sequence:
#
# PCOD8201681 Si02
#       6
#     8   8   8   8   8   8
#     4   9  17  28  43  70  99 125 161 210 259 308
#     4  10  21  35  52  75 104 146 179 215 264 311
#     4   9  17  29  47  68  95 136 170 201 251 314
#     4   9  16  30  48  65  97 132 168 205 254 311
#     4  11  21  34  51  75 105 141 181 218 258 310
#     4  11  20  35  52  75 109 142 175 217 255 308
#
# _framework density 17.732088000000001
#
# number of rings (size 3 to 8) (size 9 to 14) (size 15 to 20)
#    0.000    2.167    3.333    1.000    0.000    3.333 
#    0.000    0.000    0.000    0.000    0.000    1.167 
#    0.000    1.333    0.000    0.000    0.000    0.000 
#
# Total GULP energy -594758.792344 kJ/mol
# GULP energy per Si atom -12390.808174 kJ/mol
# Density = 1.769173 g / cm^3
# Si number density = 17.732088 Si / 1000 Ang^3
#
#
#
# Elastic Constant Matrix: (Units=GPa)
#
#
# Indices 1 2 3 4 5 6 
#
# 1 45.7353 27.1294 37.4890 0.0000 0.0000 0.0000
# 2 27.1294 77.2904 61.6029 0.0000 0.0000 0.0000
# 3 37.4890 61.6029 150.1533 0.0000 0.0000 0.0000
# 4 0.0000 0.0000 0.0000 28.6536 0.0000 0.0000
# 5 0.0000 0.0000 0.0000 0.0000 22.9355 0.0000
# 6 0.0000 0.0000 0.0000 0.0000 0.0000 20.9279
#
#
#
# Elastic Compliance Matrix: (Units=1/GPa)
#
#
# Indices 1 2 3 4 5 6 
#
# 1 0.029655 -0.006698 -0.004656 0.000000 0.000000 0.000000
# 2 -0.006698 0.020737 -0.006836 0.000000 0.000000 0.000000
# 3 -0.004656 -0.006836 0.010627 0.000000 0.000000 0.000000
# 4 0.000000 0.000000 0.000000 0.034900 0.000000 0.000000
# 5 0.000000 0.000000 0.000000 0.000000 0.043600 0.000000
# 6 0.000000 0.000000 0.000000 0.000000 0.000000 0.047783
#
#
# Mechanical properties :
#
#
# Convention : Reuss Voigt Hill
#
# Bulk Modulus (GPa) = 40.58497 58.40243 49.49370
# Shear Modulus (GPa) = 21.56157 24.30059 22.93108
#
# Velocity S-wave (km/s) = 3.49085 3.70595 3.60001
# Velocity P-wave (km/s) = 6.25984 7.16377 6.72700
#
# Compressibility (1/GPa) = 0.02463966
#
# Stress axis : x y z
#
# Youngs Moduli (GPa) = 33.72168 48.22197 94.10238
#
# Poissons Ratio (x) = 0.32299 0.43813
# Poissons Ratio (y) = 0.22587 0.64324
# Poissons Ratio (z) = 0.15701 0.32963
#
# Static dielectric constant tensor:
#      x y z
#    x 3.007110 0.000000 0.000000 
#    y 0.000000 3.321740 0.000000 
#    z 0.000000 0.000000 3.429220 
# 
# 
# High freq. dielectric constant tensor:
#      x y z
#    x 1.626660 0.000000 0.000000 
#    y 0.000000 1.688890 0.000000 
#    z 0.000000 0.000000 1.691050 
# 
# From -- ./inp_files/18892.got.cif
#   From: 2010.06.25/outbox.cif.g09.slc.cpg/sg48_10_cif.got.tgz:18892.got - 2010.06.26 18:06:46.
