data_PCOD8201709
_publ_section_title
;
Structure prediction by ZEFSAII (Michael W. Deem and Ramdas Pophale) SiO2 
 PCOD8201709
Probable space group: P N N N
;
_chemical_formula_sum "Si O2"
_cell_formula_units_Z 60
_cell_length_a 22.861602
_cell_length_b 5.148465
_cell_length_c 24.499641
_cell_angle_alpha 90.000000
_cell_angle_beta 90.000000
_cell_angle_gamma 90.000000
_cell_volume 2883.660610
_symmetry_space_group_name_H-M "P N N N"
_symmetry_group_IT_number 48
_space_group.IT_coordinate_system_code '2'
_symmetry_cell_setting 'orthorhombic'
loop_
_space_group_symop_operation_xyz
x,y,z
1/2-x,1/2-y,z
x,1/2-y,1/2-z
1/2-x,y,1/2-z
-x,-y,-z
1/2+x,1/2+y,-z
-x,1/2+y,1/2+z
1/2+x,-y,1/2+z
loop_
_atom_site_type_symbol
_atom_site_label
_atom_site_fract_x
_atom_site_fract_y
_atom_site_fract_z
Si Si1 0.965451 0.208800 0.625353
Si Si2 0.930293 0.790474 0.812136
Si Si3 0.849155 0.220341 0.931746
Si Si4 0.153527 0.841075 0.944986
Si Si5 0.250000 0.750000 0.634474
Si Si6 0.598213 0.818556 0.096968
Si Si7 0.313643 0.340718 0.688340
Si Si8 0.314692 0.278378 0.368569
O O1 0.952825 0.425382 0.671150
O O2 0.919308 0.247765 0.576029
O O3 0.029796 0.227464 0.601755
O O4 0.961646 0.923936 0.651092
O O5 0.948052 0.750000 0.750000
O O6 0.860368 0.758728 0.819155
O O7 0.817634 0.438151 0.895635
O O8 0.827961 0.936456 0.914140
O O9 0.830404 0.251716 0.994364
O O10 0.210674 0.913553 0.908642
O O11 0.114714 0.610052 0.919100
O O12 0.117336 0.109007 0.948522
O O13 0.300855 0.642954 0.675915
O O14 0.630754 0.743071 0.154110
O O15 0.250000 0.250000 0.665249
O O16 0.323646 0.250000 0.750000
O O17 0.250000 0.250000 0.343696
#
# Coordination Sequence:
#
# PCOD8201709 Si02
#       8
#     8   8   8   8   4   8   8   8
#     4  10  22  40  62  85 125 151 203 248 291 363
#     4  10  21  39  62  88 119 161 195 247 302 344
#     4  10  22  39  58  91 118 164 194 243 304 344
#     4  11  23  38  60  85 120 151 198 241 297 358
#     4  10  22  39  56  84 116 150 191 246 294 356
#     4  11  23  41  59  89 114 155 197 248 293 354
#     4  10  21  39  57  78 112 149 189 241 301 354
#     4  10  21  37  59  89 125 155 202 243 289 360
#
# _framework density 20.806887
#
# number of rings (size 3 to 8) (size 9 to 14) (size 15 to 20)
#    0.000    1.733    1.333    2.400    1.867    3.467 
#    0.000    0.000    0.000    4.800    0.000    0.000 
#    0.000    0.000    0.000    0.000    0.000    0.000 
#
# Total GULP energy -743417.310385 kJ/mol
# GULP energy per Si atom -12390.288506 kJ/mol
# Density = 2.075953 g / cm^3
# Si number density = 20.806887 Si / 1000 Ang^3
#
#
#
# Elastic Constant Matrix: (Units=GPa)
#
#
# Indices 1 2 3 4 5 6 
#
# 1 75.3749 10.9613 -12.4558 0.0000 0.0000 0.0000
# 2 10.9613 75.6651 2.7121 0.0000 0.0000 0.0000
# 3 -12.4558 2.7121 65.1905 0.0000 0.0000 0.0000
# 4 0.0000 0.0000 0.0000 19.3512 0.0000 0.0000
# 5 0.0000 0.0000 0.0000 0.0000 11.8769 0.0000
# 6 0.0000 0.0000 0.0000 0.0000 0.0000 22.7852
#
#
#
# Elastic Compliance Matrix: (Units=1/GPa)
#
#
# Indices 1 2 3 4 5 6 
#
# 1 0.014035 -0.002132 0.002770 0.000000 0.000000 0.000000
# 2 -0.002132 0.013560 -0.000972 0.000000 0.000000 0.000000
# 3 0.002770 -0.000972 0.015909 0.000000 0.000000 0.000000
# 4 0.000000 0.000000 0.000000 0.051676 0.000000 0.000000
# 5 0.000000 0.000000 0.000000 0.000000 0.084197 0.000000
# 6 0.000000 0.000000 0.000000 0.000000 0.000000 0.043888
#
#
# Mechanical properties :
#
#
# Convention : Reuss Voigt Hill
#
# Bulk Modulus (GPa) = 23.34442 24.29617 23.82029
# Shear Modulus (GPa) = 20.98967 25.13685 23.06326
#
# Velocity S-wave (km/s) = 3.17958 3.47955 3.33294
# Velocity P-wave (km/s) = 4.97228 5.27687 5.12684
#
# Compressibility (1/GPa) = 0.04283680
#
# Stress axis : x y z
#
# Youngs Moduli (GPa) = 71.25077 73.74692 62.85594
#
# Poissons Ratio (x) = 0.15726 -0.17413
# Poissons Ratio (y) = 0.15194 0.06107
# Poissons Ratio (z) = -0.19739 0.07165
#
# Static dielectric constant tensor:
#      x y z
#    x 3.899500 0.000000 0.000000 
#    y 0.000000 4.431890 0.000000 
#    z 0.000000 0.000000 3.444770 
# 
# 
# High freq. dielectric constant tensor:
#      x y z
#    x 1.814580 0.000000 0.000000 
#    y 0.000000 1.830260 0.000000 
#    z 0.000000 0.000000 1.795730 
# 
# From -- ./inp_files/36780.got.cif
#   From: 2010.06.25/outbox.cif.g09.slc.cpg/sg48_19_cif.got.tgz:36780.got - 2010.06.26 18:06:46.
