data_PCOD8201214
_publ_section_title
;
Structure prediction by ZEFSAII (Michael W. Deem and Ramdas Pophale) SiO2 
 PCOD8201214
Probable space group: P M M M
;
_chemical_formula_sum "Si O2"
_cell_formula_units_Z 32
_cell_length_a 22.550628
_cell_length_b 9.695003
_cell_length_c 7.951432
_cell_angle_alpha 90.000000
_cell_angle_beta 90.000000
_cell_angle_gamma 90.000000
_cell_volume 1738.408904
_symmetry_space_group_name_H-M "P M M M"
_symmetry_group_IT_number 47
_symmetry_cell_setting 'orthorhombic'
loop_
_space_group_symop_operation_xyz
x,y,z
-x,-y,z
x,-y,-z
-x,y,-z
-x,-y,-z
x,y,-z
-x,y,z
x,-y,z
loop_
_atom_site_type_symbol
_atom_site_label
_atom_site_fract_x
_atom_site_fract_y
_atom_site_fract_z
Si Si1 0.642724 0.336134 0.312813
Si Si2 0.000000 0.157596 0.696711
Si Si3 0.567083 0.335291 0.000000
Si Si4 0.770199 0.656800 0.199835
Si Si5 0.124849 0.154237 0.196160
O O1 0.622541 0.287108 0.500000
O O2 0.641952 0.500000 0.301411
O O3 0.598974 0.277044 0.168687
O O4 0.709502 0.284524 0.278625
O O5 0.060598 0.224552 0.767956
O O6 0.000000 0.174434 0.500000
O O7 0.000000 0.000000 0.758560
O O8 0.568861 0.500000 0.000000
O O9 0.500000 0.280000 0.000000
O O10 0.781993 0.500000 0.257668
O O11 0.823800 0.749438 0.272948
O O12 0.764744 0.665067 0.000000
O O13 0.128281 0.000000 0.277014
O O14 0.135333 0.143724 0.000000
#
# Coordination Sequence:
#
# PCOD8201214 Si02
#       5
#     8   4   4   8   8
#     4   9  16  26  41  61  87 120 154 187 227 273
#     4   9  17  29  44  61  84 114 144 179 228 278
#     4   9  16  26  40  60  89 122 155 190 224 265
#     4   9  16  28  45  63  87 119 150 182 225 274
#     4   9  17  29  46  66  86 111 147 188 226 268
#
# _framework density 18.407637999999999
#
# number of rings (size 3 to 8) (size 9 to 14) (size 15 to 20)
#    0.000    3.000    1.250    0.375    0.000    3.000 
#    0.000    3.125    0.000    3.750    0.000    0.000 
#    0.000    2.000    0.000    2.250    0.000    2.500 
#
# Total GULP energy -396578.734177 kJ/mol
# GULP energy per Si atom -12393.085443 kJ/mol
# Density = 1.836574 g / cm^3
# Si number density = 18.407638 Si / 1000 Ang^3
#
#
#
# Elastic Constant Matrix: (Units=GPa)
#
#
# Indices 1 2 3 4 5 6 
#
# 1 182.3714 40.8067 65.8370 0.0000 0.0000 0.0000
# 2 40.8067 33.7960 16.0555 0.0000 0.0000 0.0000
# 3 65.8370 16.0555 81.7391 0.0000 0.0000 0.0000
# 4 0.0000 0.0000 0.0000 7.0499 0.0000 0.0000
# 5 0.0000 0.0000 0.0000 0.0000 13.8453 0.0000
# 6 0.0000 0.0000 0.0000 0.0000 0.0000 5.1962
#
#
#
# Elastic Compliance Matrix: (Units=1/GPa)
#
#
# Indices 1 2 3 4 5 6 
#
# 1 0.009617 -0.008748 -0.006027 0.000000 0.000000 0.000000
# 2 -0.008748 0.040593 -0.000927 0.000000 0.000000 0.000000
# 3 -0.006027 -0.000927 0.017271 0.000000 0.000000 0.000000
# 4 0.000000 0.000000 0.000000 0.141845 0.000000 0.000000
# 5 0.000000 0.000000 0.000000 0.000000 0.072227 0.000000
# 6 0.000000 0.000000 0.000000 0.000000 0.000000 0.192447
#
#
# Mechanical properties :
#
#
# Convention : Reuss Voigt Hill
#
# Bulk Modulus (GPa) = 27.72019 60.36721 44.04370
# Shear Modulus (GPa) = 9.66315 16.89878 13.28096
#
# Velocity S-wave (km/s) = 2.29367 3.03319 2.68897
# Velocity P-wave (km/s) = 4.70174 6.71810 5.79824
#
# Compressibility (1/GPa) = 0.03607479
#
# Stress axis : x y z
#
# Youngs Moduli (GPa) = 103.98578 24.63506 57.90053
#
# Poissons Ratio (x) = 0.21551 0.34899
# Poissons Ratio (y) = 0.90968 0.05368
# Poissons Ratio (z) = 0.62677 0.02284
#
# Static dielectric constant tensor:
#      x y z
#    x 3.652580 0.000000 0.000000 
#    y 0.000000 3.024690 0.000000 
#    z 0.000000 0.000000 3.376100 
# 
# 
# High freq. dielectric constant tensor:
#      x y z
#    x 1.724010 0.000000 0.000000 
#    y 0.000000 1.638520 0.000000 
#    z 0.000000 0.000000 1.714410 
# 
# From -- ./inp_files/1284.got.cif
#   From: 2010.03.12/outbox.cif.g09.slc.cpg/sg47_1_cif.got.tgz:1284.got - 2010.04.14 03:12:58.
