data_PCOD8201233
_publ_section_title
;
Structure prediction by ZEFSAII (Michael W. Deem and Ramdas Pophale) SiO2 
 PCOD8201233
Probable space group: P M M M
;
_chemical_formula_sum "Si O2"
_cell_formula_units_Z 48
_cell_length_a 9.393084
_cell_length_b 10.325581
_cell_length_c 27.468121
_cell_angle_alpha 90.000000
_cell_angle_beta 90.000000
_cell_angle_gamma 90.000000
_cell_volume 2664.106952
_symmetry_space_group_name_H-M "P M M M"
_symmetry_group_IT_number 47
_symmetry_cell_setting 'orthorhombic'
loop_
_space_group_symop_operation_xyz
x,y,z
-x,-y,z
x,-y,-z
-x,y,-z
-x,-y,-z
x,y,-z
-x,y,z
x,-y,z
loop_
_atom_site_type_symbol
_atom_site_label
_atom_site_fract_x
_atom_site_fract_y
_atom_site_fract_z
Si Si1 0.659736 0.346910 0.000000
Si Si2 0.333105 0.639002 0.653068
Si Si3 0.835301 0.852423 0.176939
Si Si4 0.157006 0.000000 0.557395
Si Si5 0.664362 0.756059 0.445326
Si Si6 0.667790 0.853747 0.725757
Si Si7 0.165693 0.350237 0.093728
O O1 0.744009 0.301016 0.952279
O O2 0.652542 0.500000 0.000000
O O3 0.500000 0.287920 0.000000
O O4 0.500000 0.640885 0.662374
O O5 0.269342 0.500000 0.669950
O O6 0.303813 0.647464 0.594942
O O7 0.268794 0.756702 0.684687
O O8 0.742597 0.819014 0.223860
O O9 0.790887 0.746872 0.136828
O O10 0.000000 0.836570 0.190974
O O11 0.804956 0.000000 0.158728
O O12 0.243662 0.124639 0.573827
O O13 0.143170 0.000000 0.500000
O O14 0.000000 0.000000 0.581459
O O15 0.706879 0.708554 0.500000
O O16 0.500000 0.799224 0.444824
O O17 0.500000 0.837062 0.733446
O O18 0.705043 0.000000 0.709132
O O19 0.200968 0.500000 0.107873
O O20 0.000000 0.336663 0.080374
#
# Coordination Sequence:
#
# PCOD8201233 Si02
#       7
#     4   8   8   4   8   8   8
#     4   9  17  29  46  71 102 132 164 201 236 272
#     4   9  18  31  48  72 100 127 157 197 243 290
#     4   9  18  33  51  71  96 124 157 200 246 288
#     4   9  17  29  45  67  95 123 153 191 233 276
#     4   9  17  29  48  72  96 124 160 199 238 283
#     4   9  18  32  50  69  91 124 161 195 238 292
#     4   9  17  30  49  71  95 127 164 198 236 282
#
# _framework density 18.017296000000002
#
# number of rings (size 3 to 8) (size 9 to 14) (size 15 to 20)
#    0.000    3.000    0.000    0.500    1.167    3.667 
#    0.000    2.917    0.000    4.000    0.000    2.333 
#    0.000    0.000    0.000    0.000    0.000    0.000 
#
# Total GULP energy -594852.507186 kJ/mol
# GULP energy per Si atom -12392.760566 kJ/mol
# Density = 1.797629 g / cm^3
# Si number density = 18.017296 Si / 1000 Ang^3
#
#
#
# Elastic Constant Matrix: (Units=GPa)
#
#
# Indices 1 2 3 4 5 6 
#
# 1 47.8310 33.4195 41.5783 0.0000 0.0000 0.0000
# 2 33.4195 122.4686 83.3090 0.0000 0.0000 0.0000
# 3 41.5783 83.3090 132.6160 0.0000 0.0000 0.0000
# 4 0.0000 0.0000 0.0000 26.7505 0.0000 0.0000
# 5 0.0000 0.0000 0.0000 0.0000 17.3994 0.0000
# 6 0.0000 0.0000 0.0000 0.0000 0.0000 8.1041
#
#
#
# Elastic Compliance Matrix: (Units=1/GPa)
#
#
# Indices 1 2 3 4 5 6 
#
# 1 0.029381 -0.003058 -0.007291 0.000000 0.000000 0.000000
# 2 -0.003058 0.014577 -0.008198 0.000000 0.000000 0.000000
# 3 -0.007291 -0.008198 0.014976 0.000000 0.000000 0.000000
# 4 0.000000 0.000000 0.000000 0.037382 0.000000 0.000000
# 5 0.000000 0.000000 0.000000 0.000000 0.057473 0.000000
# 6 0.000000 0.000000 0.000000 0.000000 0.000000 0.123394
#
#
# Mechanical properties :
#
#
# Convention : Reuss Voigt Hill
#
# Bulk Modulus (GPa) = 45.78675 68.83656 57.31166
# Shear Modulus (GPa) = 15.54928 20.09139 17.82033
#
# Velocity S-wave (km/s) = 2.94091 3.34296 3.14836
# Velocity P-wave (km/s) = 6.08274 7.29310 6.71524
#
# Compressibility (1/GPa) = 0.02184038
#
# Stress axis : x y z
#
# Youngs Moduli (GPa) = 34.03533 68.60252 66.77155
#
# Poissons Ratio (x) = 0.20980 0.48680
# Poissons Ratio (y) = 0.10409 0.54741
# Poissons Ratio (z) = 0.24814 0.56242
#
# Static dielectric constant tensor:
#      x y z
#    x 3.306740 0.000000 0.000000 
#    y 0.000000 3.456260 0.000000 
#    z 0.000000 0.000000 3.284100 
# 
# 
# High freq. dielectric constant tensor:
#      x y z
#    x 1.676350 0.000000 0.000000 
#    y 0.000000 1.690520 0.000000 
#    z 0.000000 0.000000 1.692180 
# 
# From -- ./inp_files/34033.got.cif
#   From: 2010.03.12/outbox.cif.g09.slc.cpg/sg47_18_cif.got.tgz:34033.got - 2010.04.14 03:12:58.
