data_PCOD8201553
_publ_section_title
;
Structure prediction by ZEFSAII (Michael W. Deem and Ramdas Pophale) SiO2 
 PCOD8201553
Probable space group: P N N N
;
_chemical_formula_sum "Si O2"
_cell_formula_units_Z 56
_cell_length_a 18.761963
_cell_length_b 9.295878
_cell_length_c 16.727524
_cell_angle_alpha 90.000000
_cell_angle_beta 90.000000
_cell_angle_gamma 90.000000
_cell_volume 2917.429380
_symmetry_space_group_name_H-M "P N N N"
_symmetry_group_IT_number 48
_space_group.IT_coordinate_system_code '2'
_symmetry_cell_setting 'orthorhombic'
loop_
_space_group_symop_operation_xyz
x,y,z
1/2-x,1/2-y,z
x,1/2-y,1/2-z
1/2-x,y,1/2-z
-x,-y,-z
1/2+x,1/2+y,-z
-x,1/2+y,1/2+z
1/2+x,-y,1/2+z
loop_
_atom_site_type_symbol
_atom_site_label
_atom_site_fract_x
_atom_site_fract_y
_atom_site_fract_z
Si Si1 0.947988 0.063304 0.435783
Si Si2 0.000408 0.679238 0.670146
Si Si3 0.829933 0.259185 0.490341
Si Si4 0.050013 0.566137 0.431782
Si Si5 0.339368 0.639001 0.816251
Si Si6 0.956461 0.721694 0.156004
Si Si7 0.313963 0.170316 0.667003
O O1 0.984361 0.204730 0.398811
O O2 0.875173 0.109122 0.483385
O O3 0.939343 0.946077 0.364274
O O4 0.000000 0.000000 0.500000
O O5 0.966006 0.750000 0.750000
O O6 0.076078 0.607301 0.693892
O O7 0.946448 0.556146 0.637654
O O8 0.750000 0.250000 0.529652
O O9 0.872299 0.389037 0.535033
O O10 0.817649 0.297506 0.399659
O O11 0.000000 0.500000 0.500000
O O12 0.021700 0.716677 0.395373
O O13 0.312255 0.750000 0.750000
O O14 0.295183 0.492266 0.811273
O O15 0.971479 0.750000 0.250000
O O16 0.888784 0.812419 0.121498
O O17 0.250000 0.250000 0.618846
O O18 0.325500 0.250000 0.750000
#
# Coordination Sequence:
#
# PCOD8201553 Si02
#       7
#     8   8   8   8   8   8   8
#     4  11  21  38  59  88 118 158 205 250 295 361
#     4  10  20  35  62  91 114 148 204 250 299 354
#     4  11  25  37  60  87 124 162 204 245 316 373
#     4  12  19  41  61  86 123 158 199 253 302 364
#     4  10  21  37  56  81 119 164 206 242 287 357
#     4  11  22  35  59  85 119 155 206 256 297 344
#     4  10  22  33  47  78 119 158 196 239 296 348
#
# _framework density 19.194980999999999
#
# number of rings (size 3 to 8) (size 9 to 14) (size 15 to 20)
#    0.000    1.286    5.714    0.857   12.000    1.429 
#    0.000    0.000    0.000    0.429    0.000    1.000 
#    0.000    0.000    0.000    0.000    0.000    0.000 
#
# Total GULP energy -693790.786587 kJ/mol
# GULP energy per Si atom -12389.121189 kJ/mol
# Density = 1.915129 g / cm^3
# Si number density = 19.194981 Si / 1000 Ang^3
#
#
#
# Elastic Constant Matrix: (Units=GPa)
#
#
# Indices 1 2 3 4 5 6 
#
# 1 110.2555 48.5035 41.9601 0.0000 0.0000 0.0000
# 2 48.5035 135.0440 27.2207 0.0000 0.0000 0.0000
# 3 41.9601 27.2207 66.3092 0.0000 0.0000 0.0000
# 4 0.0000 0.0000 0.0000 34.1874 0.0000 0.0000
# 5 0.0000 0.0000 0.0000 0.0000 13.5791 0.0000
# 6 0.0000 0.0000 0.0000 0.0000 0.0000 56.1720
#
#
#
# Elastic Compliance Matrix: (Units=1/GPa)
#
#
# Indices 1 2 3 4 5 6 
#
# 1 0.013192 -0.003331 -0.006980 0.000000 0.000000 0.000000
# 2 -0.003331 0.008914 -0.001551 0.000000 0.000000 0.000000
# 3 -0.006980 -0.001551 0.020135 0.000000 0.000000 0.000000
# 4 0.000000 0.000000 0.000000 0.029251 0.000000 0.000000
# 5 0.000000 0.000000 0.000000 0.000000 0.073643 0.000000
# 6 0.000000 0.000000 0.000000 0.000000 0.000000 0.017802
#
#
# Mechanical properties :
#
#
# Convention : Reuss Voigt Hill
#
# Bulk Modulus (GPa) = 54.00978 60.77525 57.39251
# Shear Modulus (GPa) = 25.92910 33.71599 29.82255
#
# Velocity S-wave (km/s) = 3.67935 4.19561 3.94593
# Velocity P-wave (km/s) = 6.80064 7.42978 7.12216
#
# Compressibility (1/GPa) = 0.01851517
#
# Stress axis : x y z
#
# Youngs Moduli (GPa) = 75.80523 112.18144 49.66522
#
# Poissons Ratio (x) = 0.37368 0.34667
# Poissons Ratio (y) = 0.25251 0.07706
# Poissons Ratio (z) = 0.52914 0.17405
#
# Static dielectric constant tensor:
#      x y z
#    x 4.070160 0.000000 0.000000 
#    y 0.000000 3.966740 0.000000 
#    z 0.000000 0.000000 3.206760 
# 
# 
# High freq. dielectric constant tensor:
#      x y z
#    x 1.718240 0.000000 0.000000 
#    y 0.000000 1.765800 0.000000 
#    z 0.000000 0.000000 1.726430 
# 
# From -- ./inp_files/32186.got.cif
#   From: 2010.06.25/outbox.cif.g09.slc.cpg/sg48_17_cif.got.tgz:32186.got - 2010.06.26 18:06:46.
