data_PCOD8201853
_publ_section_title
;
Structure prediction by ZEFSAII (Michael W. Deem and Ramdas Pophale) SiO2 
 PCOD8201853
Probable space group: P N N N
;
_chemical_formula_sum "Si O2"
_cell_formula_units_Z 48
_cell_length_a 14.040724
_cell_length_b 6.200142
_cell_length_c 26.665979
_cell_angle_alpha 90.000000
_cell_angle_beta 90.000000
_cell_angle_gamma 90.000000
_cell_volume 2321.393004
_symmetry_space_group_name_H-M "P N N N"
_symmetry_group_IT_number 48
_space_group.IT_coordinate_system_code '2'
_symmetry_cell_setting 'orthorhombic'
loop_
_space_group_symop_operation_xyz
x,y,z
1/2-x,1/2-y,z
x,1/2-y,1/2-z
1/2-x,y,1/2-z
-x,-y,-z
1/2+x,1/2+y,-z
-x,1/2+y,1/2+z
1/2+x,-y,1/2+z
loop_
_atom_site_type_symbol
_atom_site_label
_atom_site_fract_x
_atom_site_fract_y
_atom_site_fract_z
Si Si1 0.017450 0.980163 0.165034
Si Si2 0.414774 0.250000 0.250000
Si Si3 0.394690 0.085166 0.993046
Si Si4 0.357552 0.221786 0.101009
Si Si5 0.656792 0.872811 0.399808
Si Si6 0.652210 0.113032 0.819637
Si Si7 0.750000 0.250000 0.044484
O O1 0.068054 0.778837 0.191257
O O2 0.913996 0.907724 0.146363
O O3 0.012642 0.159835 0.208267
O O4 0.078570 0.077752 0.119033
O O5 0.346003 0.431195 0.275680
O O6 0.390869 0.232547 0.943908
O O7 0.318680 0.892021 0.990321
O O8 0.366909 0.223885 0.041319
O O9 0.500000 0.000000 0.000000
O O10 0.250000 0.250000 0.119167
O O11 0.381144 0.993582 0.127329
O O12 0.750000 0.750000 0.379202
O O13 0.682919 0.106863 0.420469
O O14 0.750000 0.250000 0.821767
#
# Coordination Sequence:
#
# PCOD8201853 Si02
#       7
#     8   4   8   8   8   8   4
#     4  11  23  42  64  88 127 163 212 270 330 386
#     4  10  26  41  62  95 120 164 216 261 332 403
#     4  11  23  37  60  93 129 171 219 260 318 383
#     4  11  22  36  56  94 130 166 212 250 310 395
#     4  10  23  42  65  92 122 172 221 266 325 387
#     4  11  23  41  63  91 130 170 205 259 326 395
#     4  10  22  40  60  89 130 172 211 266 314 372
#
# _framework density 20.677240999999999
#
# number of rings (size 3 to 8) (size 9 to 14) (size 15 to 20)
#    0.000    1.333    1.667    4.000    1.167   11.333 
#    0.000    0.000    0.000    7.500    0.000    0.000 
#    0.000    0.000    0.000    0.000    0.000    0.000 
#
# Total GULP energy -595146.493632 kJ/mol
# GULP energy per Si atom -12398.885284 kJ/mol
# Density = 2.063018 g / cm^3
# Si number density = 20.677241 Si / 1000 Ang^3
#
#
#
# Elastic Constant Matrix: (Units=GPa)
#
#
# Indices 1 2 3 4 5 6 
#
# 1 125.2283 45.2702 43.6982 0.0000 0.0000 0.0000
# 2 45.2702 109.2098 36.2146 0.0000 0.0000 0.0000
# 3 43.6982 36.2146 90.9422 0.0000 0.0000 0.0000
# 4 0.0000 0.0000 0.0000 31.2319 0.0000 0.0000
# 5 0.0000 0.0000 0.0000 0.0000 21.8841 0.0000
# 6 0.0000 0.0000 0.0000 0.0000 0.0000 27.2419
#
#
#
# Elastic Compliance Matrix: (Units=1/GPa)
#
#
# Indices 1 2 3 4 5 6 
#
# 1 0.010413 -0.003061 -0.003784 0.000000 0.000000 0.000000
# 2 -0.003061 0.011450 -0.003088 0.000000 0.000000 0.000000
# 3 -0.003784 -0.003088 0.014044 0.000000 0.000000 0.000000
# 4 0.000000 0.000000 0.000000 0.032019 0.000000 0.000000
# 5 0.000000 0.000000 0.000000 0.000000 0.045695 0.000000
# 6 0.000000 0.000000 0.000000 0.000000 0.000000 0.036708
#
#
# Mechanical properties :
#
#
# Convention : Reuss Voigt Hill
#
# Bulk Modulus (GPa) = 62.35011 63.97180 63.16096
# Shear Modulus (GPa) = 28.48306 29.41808 28.95057
#
# Velocity S-wave (km/s) = 3.71551 3.77600 3.74587
# Velocity P-wave (km/s) = 6.97324 7.07222 7.02291
#
# Compressibility (1/GPa) = 0.01603846
#
# Stress axis : x y z
#
# Youngs Moduli (GPa) = 96.03726 87.33712 71.20370
#
# Poissons Ratio (x) = 0.26738 0.26945
# Poissons Ratio (y) = 0.29401 0.21991
# Poissons Ratio (z) = 0.36343 0.26974
#
# Static dielectric constant tensor:
#      x y z
#    x 3.673910 0.000000 0.000000 
#    y 0.000000 4.017910 0.000000 
#    z 0.000000 0.000000 3.760700 
# 
# 
# High freq. dielectric constant tensor:
#      x y z
#    x 1.797080 0.000000 0.000000 
#    y 0.000000 1.827580 0.000000 
#    z 0.000000 0.000000 1.803170 
# 
# From -- ./inp_files/24465.got.cif
#   From: 2010.06.25/outbox.cif.g09.slc.cpg/sg48_13_cif.got.tgz:24465.got - 2010.06.26 18:06:46.
