data_PCOD8201331
_publ_section_title
;
Structure prediction by ZEFSAII (Michael W. Deem and Ramdas Pophale) SiO2 
 PCOD8201331
Probable space group: P N N N
;
_chemical_formula_sum "Si O2"
_cell_formula_units_Z 56
_cell_length_a 12.334451
_cell_length_b 19.082857
_cell_length_c 11.978024
_cell_angle_alpha 90.000000
_cell_angle_beta 90.000000
_cell_angle_gamma 90.000000
_cell_volume 2819.346140
_symmetry_space_group_name_H-M "P N N N"
_symmetry_group_IT_number 48
_space_group.IT_coordinate_system_code '2'
_symmetry_cell_setting 'orthorhombic'
loop_
_space_group_symop_operation_xyz
x,y,z
1/2-x,1/2-y,z
x,1/2-y,1/2-z
1/2-x,y,1/2-z
-x,-y,-z
1/2+x,1/2+y,-z
-x,1/2+y,1/2+z
1/2+x,-y,1/2+z
loop_
_atom_site_type_symbol
_atom_site_label
_atom_site_fract_x
_atom_site_fract_y
_atom_site_fract_z
Si Si1 0.656568 0.074767 0.837300
Si Si2 0.077664 0.447322 0.798044
Si Si3 0.572108 0.094904 0.422999
Si Si4 0.036221 0.893687 0.677805
Si Si5 0.117249 0.431496 0.563291
Si Si6 0.710004 0.328829 0.477919
Si Si7 0.657080 0.564369 0.533924
O O1 0.750000 0.055798 0.750000
O O2 0.546060 0.072615 0.767488
O O3 0.648500 0.017975 0.937536
O O4 0.672320 0.149867 0.897034
O O5 0.092872 0.530087 0.820848
O O6 0.146834 0.414962 0.693716
O O7 0.108579 0.412478 0.914963
O O8 0.529329 0.128808 0.306975
O O9 0.482444 0.114967 0.516620
O O10 0.689557 0.122709 0.449250
O O11 0.579516 0.011478 0.422063
O O12 0.112644 0.839934 0.610174
O O13 0.913517 0.893882 0.626648
O O14 0.215308 0.417641 0.476193
O O15 0.750000 0.250000 0.476467
#
# Coordination Sequence:
#
# PCOD8201331 Si02
#       7
#     8   8   8   8   8   8   8
#     4  11  21  34  55  84 121 153 189 239 294 353
#     4  10  18  34  55  82 119 151 184 233 298 350
#     4  10  21  35  51  84 120 145 192 235 289 340
#     4  10  20  34  54  81 113 154 190 234 282 349
#     4  10  20  32  57  86 116 149 180 241 294 353
#     4  12  23  39  58  79 115 163 202 235 280 341
#     4  11  19  33  58  85 117 151 186 227 306 355
#
# _framework density 19.862762
#
# number of rings (size 3 to 8) (size 9 to 14) (size 15 to 20)
#    0.000    1.429    4.286    2.571    6.000    3.714 
#    0.000    0.000    0.000    0.857    0.000    2.000 
#    0.000    0.000    0.000    0.000    0.000    0.000 
#
# Total GULP energy -693854.754154 kJ/mol
# GULP energy per Si atom -12390.263467 kJ/mol
# Density = 1.981755 g / cm^3
# Si number density = 19.862762 Si / 1000 Ang^3
#
#
#
# Elastic Constant Matrix: (Units=GPa)
#
#
# Indices 1 2 3 4 5 6 
#
# 1 85.6176 17.8525 28.9288 0.0000 0.0000 0.0000
# 2 17.8525 48.7003 31.6940 0.0000 0.0000 0.0000
# 3 28.9288 31.6940 74.1063 0.0000 0.0000 0.0000
# 4 0.0000 0.0000 0.0000 -0.9130 0.0000 0.0000
# 5 0.0000 0.0000 0.0000 0.0000 34.5594 0.0000
# 6 0.0000 0.0000 0.0000 0.0000 0.0000 21.0878
#
#
#
# Elastic Compliance Matrix: (Units=1/GPa)
#
#
# Indices 1 2 3 4 5 6 
#
# 1 0.013611 -0.002122 -0.004406 0.000000 0.000000 0.000000
# 2 -0.002122 0.028784 -0.011482 0.000000 0.000000 0.000000
# 3 -0.004406 -0.011482 0.020125 0.000000 0.000000 0.000000
# 4 0.000000 0.000000 0.000000 -1.095336 0.000000 0.000000
# 5 0.000000 0.000000 0.000000 0.000000 0.028936 0.000000
# 6 0.000000 0.000000 0.000000 0.000000 0.000000 0.047421
#
#
# Mechanical properties :
#
#
# Convention : Reuss Voigt Hill
#
# Bulk Modulus (GPa) = 37.73604 40.59718 39.16661
# Shear Modulus (GPa) = -5.48482 19.61011 7.06264
#
# Velocity S-wave (km/s) = -1.66354 3.14551 1.88771
# Velocity P-wave (km/s) = 3.91788 5.80306 4.95103
#
# Compressibility (1/GPa) = 0.02649987
#
# Stress axis : x y z
#
# Youngs Moduli (GPa) = 73.47019 34.74125 49.69043
#
# Poissons Ratio (x) = 0.07373 0.21892
# Poissons Ratio (y) = 0.15593 0.57055
# Poissons Ratio (z) = 0.32368 0.39890
#
# Static dielectric constant tensor:
#      x y z
#    x 4.754820 0.000000 0.000000 
#    y 0.000000 3.288420 0.000000 
#    z 0.000000 0.000000 3.995670 
# 
# 
# High freq. dielectric constant tensor:
#      x y z
#    x 1.788880 0.000000 0.000000 
#    y 0.000000 1.687160 0.000000 
#    z 0.000000 0.000000 1.796490 
# 
# From -- ./inp_files/20273.got.cif
#   From: 2010.06.25/outbox.cif.g09.slc.cpg/sg48_11_cif.got.tgz:20273.got - 2010.06.26 18:06:46.
