data_PCOD8201676
_publ_section_title
;
Structure prediction by ZEFSAII (Michael W. Deem and Ramdas Pophale) SiO2 
 PCOD8201676
Probable space group: P N N N
;
_chemical_formula_sum "Si O2"
_cell_formula_units_Z 52
_cell_length_a 26.190171
_cell_length_b 10.957881
_cell_length_c 9.463875
_cell_angle_alpha 90.000000
_cell_angle_beta 90.000000
_cell_angle_gamma 90.000000
_cell_volume 2716.025914
_symmetry_space_group_name_H-M "P N N N"
_symmetry_group_IT_number 48
_space_group.IT_coordinate_system_code '2'
_symmetry_cell_setting 'orthorhombic'
loop_
_space_group_symop_operation_xyz
x,y,z
1/2-x,1/2-y,z
x,1/2-y,1/2-z
1/2-x,y,1/2-z
-x,-y,-z
1/2+x,1/2+y,-z
-x,1/2+y,1/2+z
1/2+x,-y,1/2+z
loop_
_atom_site_type_symbol
_atom_site_label
_atom_site_fract_x
_atom_site_fract_y
_atom_site_fract_z
Si Si1 0.491385 0.750000 0.250000
Si Si2 0.163865 0.405501 0.112314
Si Si3 0.524426 0.116138 0.184803
Si Si4 0.648029 0.865827 0.565607
Si Si5 0.935104 0.452672 0.900384
Si Si6 0.954499 0.564722 0.421954
Si Si7 0.245196 0.394353 0.591277
O O1 0.453067 0.859325 0.218133
O O2 0.528865 0.798138 0.375020
O O3 0.171968 0.389839 0.279840
O O4 0.142671 0.279874 0.044661
O O5 0.123890 0.514759 0.101556
O O6 0.213931 0.446334 0.023062
O O7 0.518628 0.250000 0.250000
O O8 0.468553 0.073827 0.129980
O O9 0.554608 0.020756 0.285620
O O10 0.558765 0.118421 0.046844
O O11 0.593434 0.926778 0.529182
O O12 0.688153 0.926714 0.458405
O O13 0.000000 0.500000 0.500000
O O14 0.250000 0.250000 0.594325
O O15 0.250000 0.449272 0.750000
#
# Coordination Sequence:
#
# PCOD8201676 Si02
#       7
#     4   8   8   8   8   8   8
#     4  10  22  38  52  82 122 152 200 238 280 360
#     4  10  21  34  56  83 115 152 193 231 296 349
#     4  10  22  36  54  79 119 154 201 236 282 341
#     4  10  21  34  56  82 120 153 187 239 287 352
#     4  10  22  35  57  82 113 160 191 239 288 345
#     4  11  23  35  55  83 116 158 193 234 290 346
#     4   9  19  35  55  81 115 148 186 235 294 350
#
# _framework density 19.145619
#
# number of rings (size 3 to 8) (size 9 to 14) (size 15 to 20)
#    0.000    2.000    0.000    3.231   12.923    3.077 
#    0.000    0.000    0.000    0.000    0.000   17.231 
#    0.000    0.000    0.000    0.000    0.000    0.000 
#
# Total GULP energy -644327.975815 kJ/mol
# GULP energy per Si atom -12390.922612 kJ/mol
# Density = 1.910204 g / cm^3
# Si number density = 19.145619 Si / 1000 Ang^3
#
#
#
# Elastic Constant Matrix: (Units=GPa)
#
#
# Indices 1 2 3 4 5 6 
#
# 1 122.2261 29.0382 56.0372 0.0000 0.0000 0.0000
# 2 29.0382 70.9587 23.2008 0.0000 0.0000 0.0000
# 3 56.0372 23.2008 111.3369 0.0000 0.0000 0.0000
# 4 0.0000 0.0000 0.0000 29.5843 0.0000 0.0000
# 5 0.0000 0.0000 0.0000 0.0000 34.4130 0.0000
# 6 0.0000 0.0000 0.0000 0.0000 0.0000 22.8030
#
#
#
# Elastic Compliance Matrix: (Units=1/GPa)
#
#
# Indices 1 2 3 4 5 6 
#
# 1 0.011178 -0.002935 -0.005014 0.000000 0.000000 0.000000
# 2 -0.002935 0.015894 -0.001835 0.000000 0.000000 0.000000
# 3 -0.005014 -0.001835 0.011888 0.000000 0.000000 0.000000
# 4 0.000000 0.000000 0.000000 0.033802 0.000000 0.000000
# 5 0.000000 0.000000 0.000000 0.000000 0.029059 0.000000
# 6 0.000000 0.000000 0.000000 0.000000 0.000000 0.043854
#
#
# Mechanical properties :
#
#
# Convention : Reuss Voigt Hill
#
# Bulk Modulus (GPa) = 51.56945 57.89713 54.73329
# Shear Modulus (GPa) = 29.11967 30.44309 29.78138
#
# Velocity S-wave (km/s) = 3.90418 3.99191 3.94829
# Velocity P-wave (km/s) = 6.87876 7.18005 7.03102
#
# Compressibility (1/GPa) = 0.01939132
#
# Stress axis : x y z
#
# Youngs Moduli (GPa) = 89.46374 62.91834 84.11925
#
# Poissons Ratio (x) = 0.18465 0.42180
# Poissons Ratio (y) = 0.26255 0.15435
# Poissons Ratio (z) = 0.44860 0.11545
#
# Static dielectric constant tensor:
#      x y z
#    x 3.218520 0.000000 0.000000 
#    y 0.000000 3.383330 0.000000 
#    z 0.000000 0.000000 5.576230 
# 
# 
# High freq. dielectric constant tensor:
#      x y z
#    x 1.728760 0.000000 0.000000 
#    y 0.000000 1.708890 0.000000 
#    z 0.000000 0.000000 1.766880 
# 
# From -- ./inp_files/16405.got.cif
#   From: 2010.06.25/outbox.cif.g09.slc.cpg/sg48_9_cif.got.tgz:16405.got - 2010.06.26 18:06:46.
