data_PCOD8201871
_publ_section_title
;
Structure prediction by ZEFSAII (Michael W. Deem and Ramdas Pophale) SiO2 
 PCOD8201871
Probable space group: P N N N
;
_chemical_formula_sum "Si O2"
_cell_formula_units_Z 64
_cell_length_a 29.897885
_cell_length_b 10.895798
_cell_length_c 9.246631
_cell_angle_alpha 90.000000
_cell_angle_beta 90.000000
_cell_angle_gamma 90.000000
_cell_volume 3012.194679
_symmetry_space_group_name_H-M "P N N N"
_symmetry_group_IT_number 48
_space_group.IT_coordinate_system_code '2'
_symmetry_cell_setting 'orthorhombic'
loop_
_space_group_symop_operation_xyz
x,y,z
1/2-x,1/2-y,z
x,1/2-y,1/2-z
1/2-x,y,1/2-z
-x,-y,-z
1/2+x,1/2+y,-z
-x,1/2+y,1/2+z
1/2+x,-y,1/2+z
loop_
_atom_site_type_symbol
_atom_site_label
_atom_site_fract_x
_atom_site_fract_y
_atom_site_fract_z
Si Si1 0.178374 0.498001 0.030373
Si Si2 0.357693 0.497761 0.988956
Si Si3 0.389647 0.389495 0.274148
Si Si4 0.373540 0.378620 0.714376
Si Si5 0.037899 0.674997 0.901298
Si Si6 0.626228 0.260794 0.581125
Si Si7 0.738712 0.609162 0.083026
Si Si8 0.952308 0.903096 0.474396
O O1 0.159547 0.464380 0.873633
O O2 0.231536 0.479484 0.020590
O O3 0.158606 0.405168 0.150043
O O4 0.164157 0.635947 0.067612
O O5 0.388088 0.456707 0.122274
O O6 0.350121 0.642191 0.010432
O O7 0.387807 0.462956 0.850253
O O8 0.311768 0.423369 0.962430
O O9 0.401737 0.250000 0.250000
O O10 0.428385 0.447460 0.375558
O O11 0.348003 0.250000 0.750000
O O12 0.416289 0.332204 0.623085
O O13 0.036171 0.750000 0.750000
O O14 0.992287 0.694434 0.994784
O O15 0.081450 0.712849 0.990561
O O16 0.035137 0.526169 0.883526
O O17 0.613514 0.250000 0.750000
O O18 0.750000 0.750000 0.046016
O O19 0.750000 0.579906 0.250000
#
# Coordination Sequence:
#
# PCOD8201871 Si02
#       8
#     8   8   8   8   8   8   8   8
#     4  11  23  43  64  94 139 182 212 290 346 386
#     4  12  24  39  70 104 126 192 231 269 346 418
#     4  11  21  40  65  95 136 176 224 280 347 408
#     4  11  21  39  65  97 131 171 224 275 345 405
#     4  11  22  40  69  96 130 179 230 283 340 415
#     4  12  25  47  66  93 141 183 234 279 342 419
#     4  11  23  42  67 103 141 169 229 290 336 402
#     4  10  22  41  62  98 136 174 222 286 350 404
#
# _framework density 21.246967999999999
#
# number of rings (size 3 to 8) (size 9 to 14) (size 15 to 20)
#    0.000    0.875    5.000    4.125    0.000    1.500 
#    0.000    2.500    0.000    6.750    0.000    0.000 
#    0.000    0.000    0.000    0.000    0.000    0.000 
#
# Total GULP energy -793141.564224 kJ/mol
# GULP energy per Si atom -12392.836941 kJ/mol
# Density = 2.119861 g / cm^3
# Si number density = 21.246968 Si / 1000 Ang^3
#
#
#
# Elastic Constant Matrix: (Units=GPa)
#
#
# Indices 1 2 3 4 5 6 
#
# 1 85.9226 29.0556 20.4686 0.0000 0.0000 0.0000
# 2 29.0556 117.0379 39.5976 0.0000 0.0000 0.0000
# 3 20.4686 39.5976 111.6468 0.0000 0.0000 0.0000
# 4 0.0000 0.0000 0.0000 39.1245 0.0000 0.0000
# 5 0.0000 0.0000 0.0000 0.0000 20.1703 0.0000
# 6 0.0000 0.0000 0.0000 0.0000 0.0000 24.8250
#
#
#
# Elastic Compliance Matrix: (Units=1/GPa)
#
#
# Indices 1 2 3 4 5 6 
#
# 1 0.012894 -0.002729 -0.001396 0.000000 0.000000 0.000000
# 2 -0.002729 0.010287 -0.003148 0.000000 0.000000 0.000000
# 3 -0.001396 -0.003148 0.010329 0.000000 0.000000 0.000000
# 4 0.000000 0.000000 0.000000 0.025559 0.000000 0.000000
# 5 0.000000 0.000000 0.000000 0.000000 0.049578 0.000000
# 6 0.000000 0.000000 0.000000 0.000000 0.000000 0.040282
#
#
# Mechanical properties :
#
#
# Convention : Reuss Voigt Hill
#
# Bulk Modulus (GPa) = 52.73137 54.76123 53.74630
# Shear Modulus (GPa) = 29.44710 31.85633 30.65171
#
# Velocity S-wave (km/s) = 3.72687 3.87633 3.80233
# Velocity P-wave (km/s) = 6.58723 6.77231 6.68041
#
# Compressibility (1/GPa) = 0.01896404
#
# Stress axis : x y z
#
# Youngs Moduli (GPa) = 77.55743 97.21229 96.81183
#
# Poissons Ratio (x) = 0.26526 0.13516
# Poissons Ratio (y) = 0.21162 0.30478
# Poissons Ratio (z) = 0.10828 0.30604
#
# Static dielectric constant tensor:
#      x y z
#    x 4.140480 0.000000 0.000000 
#    y 0.000000 4.677010 0.000000 
#    z 0.000000 0.000000 4.241730 
# 
# 
# High freq. dielectric constant tensor:
#      x y z
#    x 1.827160 0.000000 0.000000 
#    y 0.000000 1.829240 0.000000 
#    z 0.000000 0.000000 1.841910 
# 
# From -- ./inp_files/16934.got.cif
#   From: 2010.06.25/outbox.cif.g09.slc.cpg/sg48_9_cif.got.tgz:16934.got - 2010.06.26 18:06:46.
