data_PCOD8201874
_publ_section_title
;
Structure prediction by ZEFSAII (Michael W. Deem and Ramdas Pophale) SiO2 
 PCOD8201874
Probable space group: P N N N
;
_chemical_formula_sum "Si O2"
_cell_formula_units_Z 64
_cell_length_a 30.440425
_cell_length_b 11.841170
_cell_length_c 8.812913
_cell_angle_alpha 90.000000
_cell_angle_beta 90.000000
_cell_angle_gamma 90.000000
_cell_volume 3176.616670
_symmetry_space_group_name_H-M "P N N N"
_symmetry_group_IT_number 48
_space_group.IT_coordinate_system_code '2'
_symmetry_cell_setting 'orthorhombic'
loop_
_space_group_symop_operation_xyz
x,y,z
1/2-x,1/2-y,z
x,1/2-y,1/2-z
1/2-x,y,1/2-z
-x,-y,-z
1/2+x,1/2+y,-z
-x,1/2+y,1/2+z
1/2+x,-y,1/2+z
loop_
_atom_site_type_symbol
_atom_site_label
_atom_site_fract_x
_atom_site_fract_y
_atom_site_fract_z
Si Si1 0.302100 0.514133 0.083290
Si Si2 0.125922 0.394077 0.916430
Si Si3 0.089092 0.752731 0.078760
Si Si4 0.623626 0.630539 0.063747
Si Si5 0.678471 0.250778 0.072467
Si Si6 0.953839 0.022044 0.574193
Si Si7 0.047256 0.506977 0.424898
Si Si8 0.796603 0.026038 0.569601
O O1 0.314185 0.533755 0.258829
O O2 0.252034 0.472043 0.063364
O O3 0.334134 0.418846 0.020722
O O4 0.308657 0.629709 0.994885
O O5 0.125315 0.263723 0.960886
O O6 0.124496 0.409040 0.736797
O O7 0.084338 0.455102 0.989209
O O8 0.171130 0.448549 0.972714
O O9 0.108383 0.750000 0.250000
O O10 0.052714 0.656256 0.062300
O O11 0.067615 0.871510 0.037784
O O12 0.127492 0.725596 0.960424
O O13 0.578148 0.588864 0.993630
O O14 0.687641 0.250000 0.250000
O O15 0.707244 0.152274 0.996846
O O16 0.955921 0.982653 0.747209
O O17 0.000000 0.000000 0.500000
O O18 0.000000 0.500000 0.500000
#
# Coordination Sequence:
#
# PCOD8201874 Si02
#       8
#     8   8   8   8   8   8   8   8
#     4  11  24  42  65  93 127 167 211 260 315 376
#     4  11  25  44  65  92 128 166 209 263 319 375
#     4  10  22  41  65  92 128 169 205 257 318 369
#     4  11  25  44  65  92 128 166 209 263 319 375
#     4  12  23  37  64  97 130 166 208 259 315 375
#     4  11  24  42  66  95 129 167 210 259 314 375
#     4  11  24  42  66  95 129 167 210 259 314 375
#     4  11  24  42  65  93 127 167 211 260 315 376
#
# _framework density 20.147220000000001
#
# number of rings (size 3 to 8) (size 9 to 14) (size 15 to 20)
#    0.000    1.000    2.500    3.750    1.750    7.000 
#    0.000    2.500    0.000    0.000    0.000    0.000 
#    0.000    0.000    0.000    0.000    0.000    0.000 
#
# Total GULP energy -793969.864956 kJ/mol
# GULP energy per Si atom -12405.779140 kJ/mol
# Density = 2.010136 g / cm^3
# Si number density = 20.147220 Si / 1000 Ang^3
#
#
#
# Elastic Constant Matrix: (Units=GPa)
#
#
# Indices 1 2 3 4 5 6 
#
# 1 108.2684 20.6674 32.9554 0.0000 0.0000 0.0000
# 2 20.6674 77.1577 45.0385 0.0000 0.0000 0.0000
# 3 32.9554 45.0385 120.0828 0.0000 0.0000 0.0000
# 4 0.0000 0.0000 0.0000 34.8900 0.0000 0.0000
# 5 0.0000 0.0000 0.0000 0.0000 34.3081 0.0000
# 6 0.0000 0.0000 0.0000 0.0000 0.0000 20.9751
#
#
#
# Elastic Compliance Matrix: (Units=1/GPa)
#
#
# Indices 1 2 3 4 5 6 
#
# 1 0.010196 -0.001405 -0.002271 0.000000 0.000000 0.000000
# 2 -0.001405 0.016787 -0.005910 0.000000 0.000000 0.000000
# 3 -0.002271 -0.005910 0.011168 0.000000 0.000000 0.000000
# 4 0.000000 0.000000 0.000000 0.028661 0.000000 0.000000
# 5 0.000000 0.000000 0.000000 0.000000 0.029148 0.000000
# 6 0.000000 0.000000 0.000000 0.000000 0.000000 0.047676
#
#
# Mechanical properties :
#
#
# Convention : Reuss Voigt Hill
#
# Bulk Modulus (GPa) = 52.69625 55.87015 54.28320
# Shear Modulus (GPa) = 29.56225 31.82447 30.69336
#
# Velocity S-wave (km/s) = 3.83471 3.97872 3.90738
# Velocity P-wave (km/s) = 6.76897 6.99272 6.88176
#
# Compressibility (1/GPa) = 0.01897668
#
# Stress axis : x y z
#
# Youngs Moduli (GPa) = 98.07915 59.56993 89.54442
#
# Poissons Ratio (x) = 0.08372 0.20336
# Poissons Ratio (y) = 0.13784 0.52925
# Poissons Ratio (z) = 0.22274 0.35209
#
# Static dielectric constant tensor:
#      x y z
#    x 3.758190 0.000000 0.000000 
#    y 0.000000 3.782930 0.000000 
#    z 0.000000 0.000000 3.828270 
# 
# 
# High freq. dielectric constant tensor:
#      x y z
#    x 1.799190 0.000000 0.000000 
#    y 0.000000 1.791670 0.000000 
#    z 0.000000 0.000000 1.801810 
# 
# From -- ./inp_files/16943.got.cif
#   From: 2010.06.25/outbox.cif.g09.slc.cpg/sg48_9_cif.got.tgz:16943.got - 2010.06.26 18:06:46.
