data_PCOD8201312
_publ_section_title
;
Structure prediction by ZEFSAII (Michael W. Deem and Ramdas Pophale) SiO2 
 PCOD8201312
Probable space group: P N N N
;
_chemical_formula_sum "Si O2"
_cell_formula_units_Z 64
_cell_length_a 16.859809
_cell_length_b 20.867852
_cell_length_c 9.138202
_cell_angle_alpha 90.000000
_cell_angle_beta 90.000000
_cell_angle_gamma 90.000000
_cell_volume 3215.075324
_symmetry_space_group_name_H-M "P N N N"
_symmetry_group_IT_number 48
_space_group.IT_coordinate_system_code '2'
_symmetry_cell_setting 'orthorhombic'
loop_
_space_group_symop_operation_xyz
x,y,z
1/2-x,1/2-y,z
x,1/2-y,1/2-z
1/2-x,y,1/2-z
-x,-y,-z
1/2+x,1/2+y,-z
-x,1/2+y,1/2+z
1/2+x,-y,1/2+z
loop_
_atom_site_type_symbol
_atom_site_label
_atom_site_fract_x
_atom_site_fract_y
_atom_site_fract_z
Si Si1 0.628356 0.492027 0.208689
Si Si2 0.755555 0.369804 0.588636
Si Si3 0.980224 0.057062 0.702432
Si Si4 0.484243 0.322959 0.230424
Si Si5 0.894895 0.113779 0.432143
Si Si6 0.235415 0.482417 0.457212
Si Si7 0.422886 0.884965 0.495719
Si Si8 0.123950 0.063874 0.291130
O O1 0.574199 0.551474 0.263765
O O2 0.646381 0.446877 0.348626
O O3 0.579585 0.450867 0.088008
O O4 0.708423 0.518362 0.128498
O O5 0.750000 0.339193 0.750000
O O6 0.677636 0.346452 0.502084
O O7 0.750951 0.446631 0.603944
O O8 0.836319 0.350238 0.504050
O O9 0.960833 0.091206 0.549350
O O10 0.949532 0.984260 0.693531
O O11 0.939536 0.099027 0.827629
O O12 0.458491 0.250000 0.250000
O O13 0.563316 0.337815 0.322214
O O14 0.509111 0.338735 0.062147
O O15 0.409957 0.364391 0.285724
O O16 0.317422 0.443543 0.431348
O O17 0.167630 0.449024 0.361373
#
# Coordination Sequence:
#
# PCOD8201312 Si02
#       8
#     8   8   8   8   8   8   8   8
#     4  10  20  28  49  89 128 151 178 234 308 380
#     4  11  17  33  55  88 124 148 174 236 313 383
#     4  12  17  33  58  93 120 150 188 242 323 372
#     4  11  26  43  56  79 118 168 219 253 285 343
#     4  11  22  34  57  88 124 158 188 248 309 365
#     4  10  18  31  54  91 125 152 184 235 314 374
#     4  10  19  33  59  82 117 158 195 241 295 372
#     4  11  18  35  61  86 122 158 193 245 298 370
#
# _framework density 19.906222
#
# number of rings (size 3 to 8) (size 9 to 14) (size 15 to 20)
#    0.000    1.250    8.750    1.500    0.000    4.500 
#    0.000    3.125    0.000    0.750    0.000    0.000 
#    0.000    0.000    0.000    0.000    0.000    0.000 
#
# Total GULP energy -793476.947863 kJ/mol
# GULP energy per Si atom -12398.077310 kJ/mol
# Density = 1.986091 g / cm^3
# Si number density = 19.906222 Si / 1000 Ang^3
#
#
#
# Elastic Constant Matrix: (Units=GPa)
#
#
# Indices 1 2 3 4 5 6 
#
# 1 60.2045 12.2539 23.0414 0.0000 0.0000 0.0000
# 2 12.2539 68.8792 10.5187 0.0000 0.0000 0.0000
# 3 23.0414 10.5187 105.9522 0.0000 0.0000 0.0000
# 4 0.0000 0.0000 0.0000 9.9898 0.0000 0.0000
# 5 0.0000 0.0000 0.0000 0.0000 45.7590 0.0000
# 6 0.0000 0.0000 0.0000 0.0000 0.0000 13.3181
#
#
#
# Elastic Compliance Matrix: (Units=1/GPa)
#
#
# Indices 1 2 3 4 5 6 
#
# 1 0.018612 -0.002734 -0.003776 0.000000 0.000000 0.000000
# 2 -0.002734 0.015143 -0.000909 0.000000 0.000000 0.000000
# 3 -0.003776 -0.000909 0.010350 0.000000 0.000000 0.000000
# 4 0.000000 0.000000 0.000000 0.100102 0.000000 0.000000
# 5 0.000000 0.000000 0.000000 0.000000 0.021854 0.000000
# 6 0.000000 0.000000 0.000000 0.000000 0.000000 0.075086
#
#
# Mechanical properties :
#
#
# Convention : Reuss Voigt Hill
#
# Bulk Modulus (GPa) = 34.16893 36.29598 35.23245
# Shear Modulus (GPa) = 18.81534 26.42817 22.62175
#
# Velocity S-wave (km/s) = 3.07774 3.64762 3.37473
# Velocity P-wave (km/s) = 5.46189 6.00111 5.73784
#
# Compressibility (1/GPa) = 0.02926635
#
# Stress axis : x y z
#
# Youngs Moduli (GPa) = 53.72943 66.03530 96.62208
#
# Poissons Ratio (x) = 0.18057 0.36485
# Poissons Ratio (y) = 0.14692 0.08780
# Poissons Ratio (z) = 0.20288 0.06001
#
# Static dielectric constant tensor:
#      x y z
#    x 3.738370 0.000000 0.000000 
#    y 0.000000 2.938660 0.000000 
#    z 0.000000 0.000000 3.878690 
# 
# 
# High freq. dielectric constant tensor:
#      x y z
#    x 1.784380 0.000000 0.000000 
#    y 0.000000 1.693880 0.000000 
#    z 0.000000 0.000000 1.794870 
# 
# From -- ./inp_files/14591.got.cif
#   From: 2010.06.25/outbox.cif.g09.slc.cpg/sg48_8_cif.got.tgz:14591.got - 2010.06.26 18:06:46.
