data_PCOD8201236
_publ_section_title
;
Structure prediction by ZEFSAII (Michael W. Deem and Ramdas Pophale) SiO2 
 PCOD8201236
Probable space group: P M M M
;
_chemical_formula_sum "Si O2"
_cell_formula_units_Z 40
_cell_length_a 27.618001
_cell_length_b 7.916339
_cell_length_c 9.711287
_cell_angle_alpha 90.000000
_cell_angle_beta 90.000000
_cell_angle_gamma 90.000000
_cell_volume 2123.212263
_symmetry_space_group_name_H-M "P M M M"
_symmetry_group_IT_number 47
_symmetry_cell_setting 'orthorhombic'
loop_
_space_group_symop_operation_xyz
x,y,z
-x,-y,z
x,-y,-z
-x,y,-z
-x,-y,-z
x,y,-z
-x,y,z
x,-y,z
loop_
_atom_site_type_symbol
_atom_site_label
_atom_site_fract_x
_atom_site_fract_y
_atom_site_fract_z
Si Si1 0.184160 0.696332 0.152512
Si Si2 0.000000 0.802992 0.341580
Si Si3 0.621544 0.194870 0.661450
Si Si4 0.711891 0.801669 0.154862
Si Si5 0.897976 0.696732 0.346717
Si Si6 0.553823 0.500000 0.337256
O O1 0.172894 0.500000 0.141050
O O2 0.238098 0.723823 0.211998
O O3 0.144030 0.780501 0.252640
O O4 0.180580 0.779559 0.000000
O O5 0.049419 0.728786 0.276080
O O6 0.000000 0.746481 0.500000
O O7 0.000000 0.000000 0.318894
O O8 0.632609 0.213192 0.500000
O O9 0.669210 0.252590 0.743074
O O10 0.580161 0.326383 0.709681
O O11 0.606423 0.000000 0.696394
O O12 0.717905 0.000000 0.153840
O O13 0.700722 0.734541 0.000000
O O14 0.895918 0.779703 0.500000
O O15 0.888172 0.500000 0.359796
O O16 0.500000 0.500000 0.271919
O O17 0.550266 0.500000 0.500000
#
# Coordination Sequence:
#
# PCOD8201236 Si02
#       6
#     8   4   8   8   8   4
#     4   9  18  31  46  66  92 121 153 189 231 281
#     4   9  17  29  46  67  88 112 146 187 230 276
#     4   9  18  32  50  74 102 131 166 207 247 289
#     4   9  18  32  49  69  95 129 163 195 239 291
#     4   9  17  30  47  66  88 116 150 187 229 277
#     4   9  18  32  51  77 105 133 167 206 249 292
#
# _framework density 18.839378
#
# number of rings (size 3 to 8) (size 9 to 14) (size 15 to 20)
#    0.000    3.000    0.000    0.300    1.400    3.200 
#    0.000    2.500    0.000    4.200    0.000    2.800 
#    0.000    0.000    0.000    0.000    0.000    0.000 
#
# Total GULP energy -495733.900180 kJ/mol
# GULP energy per Si atom -12393.347505 kJ/mol
# Density = 1.879650 g / cm^3
# Si number density = 18.839378 Si / 1000 Ang^3
#
#
#
# Elastic Constant Matrix: (Units=GPa)
#
#
# Indices 1 2 3 4 5 6 
#
# 1 187.1424 50.5696 72.2359 0.0000 0.0000 0.0000
# 2 50.5696 49.4931 21.6183 0.0000 0.0000 0.0000
# 3 72.2359 21.6183 59.8673 0.0000 0.0000 0.0000
# 4 0.0000 0.0000 0.0000 12.3983 0.0000 0.0000
# 5 0.0000 0.0000 0.0000 0.0000 11.3949 0.0000
# 6 0.0000 0.0000 0.0000 0.0000 0.0000 13.5293
#
#
#
# Elastic Compliance Matrix: (Units=1/GPa)
#
#
# Indices 1 2 3 4 5 6 
#
# 1 0.011682 -0.006862 -0.011618 0.000000 0.000000 0.000000
# 2 -0.006862 0.028019 -0.001838 0.000000 0.000000 0.000000
# 3 -0.011618 -0.001838 0.031386 0.000000 0.000000 0.000000
# 4 0.000000 0.000000 0.000000 0.080656 0.000000 0.000000
# 5 0.000000 0.000000 0.000000 0.000000 0.087759 0.000000
# 6 0.000000 0.000000 0.000000 0.000000 0.000000 0.073914
#
#
# Mechanical properties :
#
#
# Convention : Reuss Voigt Hill
#
# Bulk Modulus (GPa) = 32.84015 65.03894 48.93955
# Shear Modulus (GPa) = 13.72868 17.60309 15.66589
#
# Velocity S-wave (km/s) = 2.70242 3.06008 2.88679
# Velocity P-wave (km/s) = 5.21602 6.86172 6.09467
#
# Compressibility (1/GPa) = 0.03045053
#
# Stress axis : x y z
#
# Youngs Moduli (GPa) = 85.60121 35.69043 31.86179
#
# Poissons Ratio (x) = 0.24489 0.37017
# Poissons Ratio (y) = 0.58736 0.05858
# Poissons Ratio (z) = 0.99450 0.06562
#
# Static dielectric constant tensor:
#      x y z
#    x 3.690420 0.000000 0.000000 
#    y 0.000000 3.311710 0.000000 
#    z 0.000000 0.000000 3.561560 
# 
# 
# High freq. dielectric constant tensor:
#      x y z
#    x 1.735540 0.000000 0.000000 
#    y 0.000000 1.724330 0.000000 
#    z 0.000000 0.000000 1.698960 
# 
# From -- ./inp_files/13012.got.cif
#   From: 2010.03.12/outbox.cif.g09.slc.cpg/sg47_7_cif.got.tgz:13012.got - 2010.04.14 03:12:58.
