data_PCOD8201334
_publ_section_title
;
Structure prediction by ZEFSAII (Michael W. Deem and Ramdas Pophale) SiO2 
 PCOD8201334
Probable space group: P N N N
;
_chemical_formula_sum "Si O2"
_cell_formula_units_Z 36
_cell_length_a 5.562234
_cell_length_b 18.259136
_cell_length_c 18.640627
_cell_angle_alpha 90.000000
_cell_angle_beta 90.000000
_cell_angle_gamma 90.000000
_cell_volume 1893.171662
_symmetry_space_group_name_H-M "P N N N"
_symmetry_group_IT_number 48
_space_group.IT_coordinate_system_code '2'
_symmetry_cell_setting 'orthorhombic'
loop_
_space_group_symop_operation_xyz
x,y,z
1/2-x,1/2-y,z
x,1/2-y,1/2-z
1/2-x,y,1/2-z
-x,-y,-z
1/2+x,1/2+y,-z
-x,1/2+y,1/2+z
1/2+x,-y,1/2+z
loop_
_atom_site_type_symbol
_atom_site_label
_atom_site_fract_x
_atom_site_fract_y
_atom_site_fract_z
Si Si1 0.624208 0.822607 0.640228
Si Si2 0.250000 0.750000 0.541936
Si Si3 0.467776 0.382732 0.478969
Si Si4 0.816555 0.991912 0.062971
Si Si5 0.504229 0.966321 0.710846
O O1 0.750000 0.750000 0.673550
O O2 0.396637 0.801880 0.593911
O O3 0.542053 0.878724 0.701993
O O4 0.793994 0.865472 0.586187
O O5 0.407939 0.693539 0.493982
O O6 0.645703 0.438387 0.439715
O O7 0.337140 0.417498 0.548724
O O8 0.969813 0.989735 0.136238
O O9 0.000000 0.000000 0.000000
O O10 0.250000 0.980077 0.750000
O O11 0.750000 0.996509 0.750000
#
# Coordination Sequence:
#
# PCOD8201334 Si02
#       5
#     8   4   8   8   8
#     4  10  21  37  54  84 120 170 206 247 293 368
#     4  10  18  34  59  84 118 155 214 268 296 378
#     4  10  19  34  61  84 118 155 215 258 315 356
#     4  11  21  37  61  83 115 172 203 261 315 372
#     4  12  26  41  56  87 128 170 212 256 309 378
#
# _framework density 19.015709000000001
#
# number of rings (size 3 to 8) (size 9 to 14) (size 15 to 20)
#    0.000    1.333    4.444    1.333    6.222    0.444 
#    0.000    0.000    0.000    0.000    0.000    0.000 
#    0.000   36.444    0.000    0.000    0.000    0.000 
#
# Total GULP energy -446020.125130 kJ/mol
# GULP energy per Si atom -12389.447920 kJ/mol
# Density = 1.897243 g / cm^3
# Si number density = 19.015709 Si / 1000 Ang^3
#
#
#
# Elastic Constant Matrix: (Units=GPa)
#
#
# Indices 1 2 3 4 5 6 
#
# 1 135.6755 35.8608 55.0134 0.0000 0.0000 0.0000
# 2 35.8608 63.9444 29.7994 0.0000 0.0000 0.0000
# 3 55.0134 29.7994 99.2399 0.0000 0.0000 0.0000
# 4 0.0000 0.0000 0.0000 33.9796 0.0000 0.0000
# 5 0.0000 0.0000 0.0000 0.0000 40.6600 0.0000
# 6 0.0000 0.0000 0.0000 0.0000 0.0000 43.6377
#
#
#
# Elastic Compliance Matrix: (Units=1/GPa)
#
#
# Indices 1 2 3 4 5 6 
#
# 1 0.010165 -0.003575 -0.004561 0.000000 0.000000 0.000000
# 2 -0.003575 0.019440 -0.003856 0.000000 0.000000 0.000000
# 3 -0.004561 -0.003856 0.013763 0.000000 0.000000 0.000000
# 4 0.000000 0.000000 0.000000 0.029429 0.000000 0.000000
# 5 0.000000 0.000000 0.000000 0.000000 0.024594 0.000000
# 6 0.000000 0.000000 0.000000 0.000000 0.000000 0.022916
#
#
# Mechanical properties :
#
#
# Convention : Reuss Voigt Hill
#
# Bulk Modulus (GPa) = 51.58868 60.02297 55.80582
# Shear Modulus (GPa) = 33.16674 35.53455 34.35064
#
# Velocity S-wave (km/s) = 4.18086 4.32753 4.25483
# Velocity P-wave (km/s) = 7.10595 7.52353 7.31772
#
# Compressibility (1/GPa) = 0.01938410
#
# Stress axis : x y z
#
# Youngs Moduli (GPa) = 98.37680 51.43959 72.65849
#
# Poissons Ratio (x) = 0.18389 0.33143
# Poissons Ratio (y) = 0.35169 0.28015
# Poissons Ratio (z) = 0.44874 0.19834
#
# Static dielectric constant tensor:
#      x y z
#    x 4.422500 0.000000 0.000000 
#    y 0.000000 4.052550 0.000000 
#    z 0.000000 0.000000 3.381620 
# 
# 
# High freq. dielectric constant tensor:
#      x y z
#    x 1.773270 0.000000 0.000000 
#    y 0.000000 1.726340 0.000000 
#    z 0.000000 0.000000 1.699010 
# 
# From -- ./inp_files/3232.got.cif
#   From: 2010.06.25/outbox.cif.g09.slc.cpg/sg48_2_cif.got.tgz:3232.got - 2010.06.26 18:06:46.
