data_PCOD8201972
_publ_section_title
;
Structure prediction by ZEFSAII (Michael W. Deem and Ramdas Pophale) SiO2 
 PCOD8201972
Probable space group: P N N N
;
_chemical_formula_sum "Si O2"
_cell_formula_units_Z 32
_cell_length_a 8.749986
_cell_length_b 28.748693
_cell_length_c 5.416403
_cell_angle_alpha 90.000000
_cell_angle_beta 90.000000
_cell_angle_gamma 90.000000
_cell_volume 1362.499756
_symmetry_space_group_name_H-M "P N N N"
_symmetry_group_IT_number 48
_space_group.IT_coordinate_system_code '2'
_symmetry_cell_setting 'orthorhombic'
loop_
_space_group_symop_operation_xyz
x,y,z
1/2-x,1/2-y,z
x,1/2-y,1/2-z
1/2-x,y,1/2-z
-x,-y,-z
1/2+x,1/2+y,-z
-x,1/2+y,1/2+z
1/2+x,-y,1/2+z
loop_
_atom_site_type_symbol
_atom_site_label
_atom_site_fract_x
_atom_site_fract_y
_atom_site_fract_z
Si Si1 0.068247 0.478069 0.753161
Si Si2 0.250000 0.663789 0.750000
Si Si3 0.750000 0.670827 0.750000
Si Si4 0.005558 0.793677 0.069305
Si Si5 0.994017 0.623189 0.072607
O O1 0.250000 0.484615 0.750000
O O2 0.020098 0.424610 0.779020
O O3 0.000000 0.500000 0.500000
O O4 0.000000 0.500000 0.000000
O O5 0.353775 0.628075 0.593094
O O6 0.154951 0.702044 0.597572
O O7 0.853604 0.707024 0.596773
O O8 0.654639 0.634494 0.587628
O O9 0.011999 0.750000 0.250000
O O10 0.003878 0.840745 0.213080
#
# Coordination Sequence:
#
# PCOD8201972 Si02
#       5
#     8   4   4   8   8
#     4  12  30  51  83 119 159 209 268 331 406 483
#     4  10  26  45  76 106 154 198 256 318 393 460
#     4  10  24  45  76 106 150 196 256 320 385 460
#     4  11  25  45  72 108 149 199 254 315 387 467
#     4  11  26  47  77 107 152 194 258 316 391 466
#
# _framework density 23.486242000000001
#
# number of rings (size 3 to 8) (size 9 to 14) (size 15 to 20)
#    0.000    1.000    0.000    3.750   12.250   12.000 
#    0.000    3.750    0.000    0.000    0.000    0.000 
#    0.000    0.000    0.000    0.000    0.000    0.000 
#
# Total GULP energy -396663.885142 kJ/mol
# GULP energy per Si atom -12395.746411 kJ/mol
# Density = 2.343279 g / cm^3
# Si number density = 23.486242 Si / 1000 Ang^3
#
#
#
# Elastic Constant Matrix: (Units=GPa)
#
#
# Indices 1 2 3 4 5 6 
#
# 1 201.9375 84.8387 102.3082 0.0000 0.0000 0.0000
# 2 84.8387 185.3257 99.8840 0.0000 0.0000 0.0000
# 3 102.3082 99.8840 194.1965 0.0000 0.0000 0.0000
# 4 0.0000 0.0000 0.0000 60.9009 0.0000 0.0000
# 5 0.0000 0.0000 0.0000 0.0000 1061.8105 0.0000
# 6 0.0000 0.0000 0.0000 0.0000 0.0000 22.2376
#
#
#
# Elastic Compliance Matrix: (Units=1/GPa)
#
#
# Indices 1 2 3 4 5 6 
#
# 1 0.007128 -0.001714 -0.002873 0.000000 0.000000 0.000000
# 2 -0.001714 0.007878 -0.003149 0.000000 0.000000 0.000000
# 3 -0.002873 -0.003149 0.008283 0.000000 0.000000 0.000000
# 4 0.000000 0.000000 0.000000 0.016420 0.000000 0.000000
# 5 0.000000 0.000000 0.000000 0.000000 0.000942 0.000000
# 6 0.000000 0.000000 0.000000 0.000000 0.000000 0.044969
#
#
# Mechanical properties :
#
#
# Convention : Reuss Voigt Hill
#
# Bulk Modulus (GPa) = 127.95146 128.39129 128.17138
# Shear Modulus (GPa) = 48.21708 248.61838 148.41773
#
# Velocity S-wave (km/s) = 4.53591 10.29985 7.95806
# Velocity P-wave (km/s) = 9.05706 14.00837 11.79544
#
# Compressibility (1/GPa) = 0.00781546
#
# Stress axis : x y z
#
# Youngs Moduli (GPa) = 140.29001 126.93968 120.73260
#
# Poissons Ratio (x) = 0.21763 0.34692
# Poissons Ratio (y) = 0.24051 0.38015
# Poissons Ratio (z) = 0.40312 0.39969
#
# Static dielectric constant tensor:
#      x y z
#    x 4.712390 0.000000 0.000000 
#    y 0.000000 3.964170 0.000000 
#    z 0.000000 0.000000 4.664220 
# 
# 
# High freq. dielectric constant tensor:
#      x y z
#    x 1.955110 0.000000 0.000000 
#    y 0.000000 1.930570 0.000000 
#    z 0.000000 0.000000 1.956920 
# 
# From -- ./inp_files/1164.got.cif
#   From: 2010.06.25/outbox.cif.g09.slc.cpg/sg48_1_cif.got.tgz:1164.got - 2010.06.26 18:06:46.
