data_PCOD8201906
_publ_section_title
;
Structure prediction by ZEFSAII (Michael W. Deem and Ramdas Pophale) SiO2 
 PCOD8201906
Probable space group: P N N N
;
_chemical_formula_sum "Si O2"
_cell_formula_units_Z 56
_cell_length_a 20.205812
_cell_length_b 15.182350
_cell_length_c 8.779451
_cell_angle_alpha 90.000000
_cell_angle_beta 90.000000
_cell_angle_gamma 90.000000
_cell_volume 2693.287195
_symmetry_space_group_name_H-M "P N N N"
_symmetry_group_IT_number 48
_space_group.IT_coordinate_system_code '2'
_symmetry_cell_setting 'orthorhombic'
loop_
_space_group_symop_operation_xyz
x,y,z
1/2-x,1/2-y,z
x,1/2-y,1/2-z
1/2-x,y,1/2-z
-x,-y,-z
1/2+x,1/2+y,-z
-x,1/2+y,1/2+z
1/2+x,-y,1/2+z
loop_
_atom_site_type_symbol
_atom_site_label
_atom_site_fract_x
_atom_site_fract_y
_atom_site_fract_z
Si Si1 0.750000 0.956669 0.250000
Si Si2 0.898435 0.655530 0.826520
Si Si3 0.956096 0.158960 0.321430
Si Si4 0.172307 0.985727 0.212804
Si Si5 0.840638 0.093710 0.119953
Si Si6 0.691745 0.802688 0.091567
Si Si7 0.750000 0.250000 0.461473
Si Si8 0.127610 0.822938 0.377058
O O1 0.726255 0.897271 0.111207
O O2 0.812680 0.015761 0.218732
O O3 0.894157 0.750000 0.750000
O O4 0.853717 0.585463 0.733106
O O5 0.972061 0.613064 0.841915
O O6 0.873426 0.677066 0.996953
O O7 0.976513 0.250000 0.250000
O O8 0.911693 0.108657 0.197144
O O9 0.922397 0.178631 0.482721
O O10 0.250000 0.983008 0.250000
O O11 0.129369 0.923191 0.321938
O O12 0.155604 0.942097 0.050447
O O13 0.795416 0.182281 0.137222
O O14 0.750000 0.750000 0.002068
O O15 0.674922 0.750000 0.250000
O O16 0.797931 0.195344 0.569548
O O17 0.106254 0.750000 0.250000
#
# Coordination Sequence:
#
# PCOD8201906 Si02
#       8
#     4   8   8   8   8   8   4   8
#     4  10  23  39  66 106 130 156 220 267 327 404
#     4  11  28  45  66  95 130 175 228 274 327 394
#     4  11  25  45  62  92 135 184 221 254 324 408
#     4  12  25  41  68 102 131 167 220 281 336 377
#     4  12  24  39  68  97 136 176 208 267 330 401
#     4   9  22  45  70  96 128 166 220 285 342 383
#     4  12  21  39  66  98 134 166 206 260 332 386
#     4  12  22  42  66 100 137 167 213 270 325 402
#
# _framework density 20.792435000000001
#
# number of rings (size 3 to 8) (size 9 to 14) (size 15 to 20)
#    0.000    1.000    4.286    1.929    8.000    2.286 
#    0.000    0.000    0.000    0.000    0.000    0.000 
#    0.000    0.000    0.000    0.000    0.000    0.000 
#
# Total GULP energy -693821.733480 kJ/mol
# GULP energy per Si atom -12389.673812 kJ/mol
# Density = 2.074511 g / cm^3
# Si number density = 20.792435 Si / 1000 Ang^3
#
#
#
# Elastic Constant Matrix: (Units=GPa)
#
#
# Indices 1 2 3 4 5 6 
#
# 1 147.6672 51.8288 74.2580 0.0000 0.0000 0.0000
# 2 51.8288 132.6483 35.4146 0.0000 0.0000 0.0000
# 3 74.2580 35.4146 92.3889 0.0000 0.0000 0.0000
# 4 0.0000 0.0000 0.0000 14.5056 0.0000 0.0000
# 5 0.0000 0.0000 0.0000 0.0000 49.3224 0.0000
# 6 0.0000 0.0000 0.0000 0.0000 0.0000 15.3487
#
#
#
# Elastic Compliance Matrix: (Units=1/GPa)
#
#
# Indices 1 2 3 4 5 6 
#
# 1 0.011991 -0.002353 -0.008736 0.000000 0.000000 0.000000
# 2 -0.002353 0.008860 -0.001505 0.000000 0.000000 0.000000
# 3 -0.008736 -0.001505 0.018422 0.000000 0.000000 0.000000
# 4 0.000000 0.000000 0.000000 0.068939 0.000000 0.000000
# 5 0.000000 0.000000 0.000000 0.000000 0.020275 0.000000
# 6 0.000000 0.000000 0.000000 0.000000 0.000000 0.065152
#
#
# Mechanical properties :
#
#
# Convention : Reuss Voigt Hill
#
# Bulk Modulus (GPa) = 70.99515 77.30081 74.14798
# Shear Modulus (GPa) = 22.36930 29.91556 26.14243
#
# Velocity S-wave (km/s) = 3.28356 3.79723 3.54970
# Velocity P-wave (km/s) = 6.97097 7.51554 7.24837
#
# Compressibility (1/GPa) = 0.01408547
#
# Stress axis : x y z
#
# Youngs Moduli (GPa) = 83.39763 112.86867 54.28250
#
# Poissons Ratio (x) = 0.26556 0.47420
# Poissons Ratio (y) = 0.19622 0.08170
# Poissons Ratio (z) = 0.72854 0.16988
#
# Static dielectric constant tensor:
#      x y z
#    x 3.771730 0.000000 0.000000 
#    y 0.000000 4.030870 0.000000 
#    z 0.000000 0.000000 3.412810 
# 
# 
# High freq. dielectric constant tensor:
#      x y z
#    x 1.803860 0.000000 0.000000 
#    y 0.000000 1.829690 0.000000 
#    z 0.000000 0.000000 1.815620 
# 
# From -- ./inp_files/15319.got.cif
#   From: 2010.06.25/outbox.cif.g09.slc.cpg/sg48_8_cif.got.tgz:15319.got - 2010.06.26 18:06:46.
