data_PCOD8201266
_publ_section_title
;
Structure prediction by ZEFSAII (Michael W. Deem and Ramdas Pophale) SiO2 
 PCOD8201266
Probable space group: P N N N
;
_chemical_formula_sum "Si O2"
_cell_formula_units_Z 46
_cell_length_a 23.952172
_cell_length_b 11.468292
_cell_length_c 8.477076
_cell_angle_alpha 90.000000
_cell_angle_beta 90.000000
_cell_angle_gamma 90.000000
_cell_volume 2328.572266
_symmetry_space_group_name_H-M "P N N N"
_symmetry_group_IT_number 48
_space_group.IT_coordinate_system_code '2'
_symmetry_cell_setting 'orthorhombic'
loop_
_space_group_symop_operation_xyz
x,y,z
1/2-x,1/2-y,z
x,1/2-y,1/2-z
1/2-x,y,1/2-z
-x,-y,-z
1/2+x,1/2+y,-z
-x,1/2+y,1/2+z
1/2+x,-y,1/2+z
loop_
_atom_site_type_symbol
_atom_site_label
_atom_site_fract_x
_atom_site_fract_y
_atom_site_fract_z
Si Si1 0.829066 0.213615 0.498491
Si Si2 0.576910 0.514491 0.111494
Si Si3 0.994494 0.604513 0.123752
Si Si4 0.250000 0.750000 0.250000
Si Si5 0.689167 0.072634 0.290229
Si Si6 0.082270 0.750000 0.250000
Si Si7 0.512049 0.821315 0.595307
O O1 0.788264 0.168080 0.638500
O O2 0.798586 0.318410 0.404515
O O3 0.841280 0.111125 0.373766
O O4 0.884154 0.261290 0.585239
O O5 0.558907 0.584097 0.268138
O O6 0.644516 0.509353 0.120345
O O7 0.547125 0.387066 0.121284
O O8 0.558926 0.582731 0.952030
O O9 0.048293 0.626022 0.237796
O O10 0.991208 0.730225 0.044683
O O11 0.000000 0.500000 0.000000
O O12 0.750000 0.014880 0.250000
O O13 0.530433 0.750000 0.750000
#
# Coordination Sequence:
#
# PCOD8201266 Si02
#       7
#     8   8   8   2   8   4   8
#     4  10  20  33  56  82 121 161 195 247 316 371
#     4  11  24  37  62  91 124 165 202 249 314 373
#     4  12  22  38  58  90 122 162 200 247 303 370
#     4  10  16  34  48  80 116 166 192 240 310 366
#     4  11  21  37  56  83 118 161 208 252 299 370
#     4  11  22  35  56  88 127 156 191 252 312 384
#     4  11  23  40  61  89 130 160 202 251 311 376
#
# _framework density 19.754594000000001
#
# number of rings (size 3 to 8) (size 9 to 14) (size 15 to 20)
#    0.000    1.043    5.217    2.609    4.870    0.000 
#    0.000    0.000    0.000    2.087    0.000    1.217 
#    0.000    0.000    0.000    0.000    0.000    0.000 
#
# Total GULP energy -569891.901496 kJ/mol
# GULP energy per Si atom -12388.954380 kJ/mol
# Density = 1.970963 g / cm^3
# Si number density = 19.754594 Si / 1000 Ang^3
#
#
#
# Elastic Constant Matrix: (Units=GPa)
#
#
# Indices 1 2 3 4 5 6 
#
# 1 135.4974 39.0304 40.8469 0.0000 0.0000 0.0000
# 2 39.0304 84.3514 38.1642 0.0000 0.0000 0.0000
# 3 40.8469 38.1642 99.7717 0.0000 0.0000 0.0000
# 4 0.0000 0.0000 0.0000 44.6252 0.0000 0.0000
# 5 0.0000 0.0000 0.0000 0.0000 37.8517 0.0000
# 6 0.0000 0.0000 0.0000 0.0000 0.0000 25.9201
#
#
#
# Elastic Compliance Matrix: (Units=1/GPa)
#
#
# Indices 1 2 3 4 5 6 
#
# 1 0.009015 -0.003025 -0.002534 0.000000 0.000000 0.000000
# 2 -0.003025 0.015351 -0.004634 0.000000 0.000000 0.000000
# 3 -0.002534 -0.004634 0.012833 0.000000 0.000000 0.000000
# 4 0.000000 0.000000 0.000000 0.022409 0.000000 0.000000
# 5 0.000000 0.000000 0.000000 0.000000 0.026419 0.000000
# 6 0.000000 0.000000 0.000000 0.000000 0.000000 0.038580
#
#
# Mechanical properties :
#
#
# Convention : Reuss Voigt Hill
#
# Bulk Modulus (GPa) = 59.47300 61.74482 60.60891
# Shear Modulus (GPa) = 33.20113 35.11800 34.15957
#
# Velocity S-wave (km/s) = 4.10406 4.22087 4.16287
# Velocity P-wave (km/s) = 7.25458 7.42146 7.33850
#
# Compressibility (1/GPa) = 0.01681435
#
# Stress axis : x y z
#
# Youngs Moduli (GPa) = 110.92067 65.14064 77.92620
#
# Poissons Ratio (x) = 0.19706 0.19745
# Poissons Ratio (y) = 0.33555 0.36108
# Poissons Ratio (z) = 0.28105 0.30184
#
# Static dielectric constant tensor:
#      x y z
#    x 3.560650 0.000000 0.000000 
#    y 0.000000 3.429970 0.000000 
#    z 0.000000 0.000000 4.154650 
# 
# 
# High freq. dielectric constant tensor:
#      x y z
#    x 1.756420 0.000000 0.000000 
#    y 0.000000 1.722960 0.000000 
#    z 0.000000 0.000000 1.803430 
# 
# From -- ./inp_files/15926.got.cif
#   From: 2010.06.25/outbox.cif.g09.slc.cpg/sg48_8_cif.got.tgz:15926.got - 2010.06.26 18:06:46.
