data_PCOD8201318
_publ_section_title
;
Structure prediction by ZEFSAII (Michael W. Deem and Ramdas Pophale) SiO2 
 PCOD8201318
Probable space group: P N N N
;
_chemical_formula_sum "Si O2"
_cell_formula_units_Z 44
_cell_length_a 8.331477
_cell_length_b 22.453491
_cell_length_c 13.497267
_cell_angle_alpha 90.000000
_cell_angle_beta 90.000000
_cell_angle_gamma 90.000000
_cell_volume 2524.943777
_symmetry_space_group_name_H-M "P N N N"
_symmetry_group_IT_number 48
_space_group.IT_coordinate_system_code '2'
_symmetry_cell_setting 'orthorhombic'
loop_
_space_group_symop_operation_xyz
x,y,z
1/2-x,1/2-y,z
x,1/2-y,1/2-z
1/2-x,y,1/2-z
-x,-y,-z
1/2+x,1/2+y,-z
-x,1/2+y,1/2+z
1/2+x,-y,1/2+z
loop_
_atom_site_type_symbol
_atom_site_label
_atom_site_fract_x
_atom_site_fract_y
_atom_site_fract_z
Si Si1 0.584073 0.575338 0.618757
Si Si2 0.301729 0.531003 0.137765
Si Si3 0.250000 0.750000 0.582387
Si Si4 0.100816 0.539036 0.691156
Si Si5 0.768033 0.381952 0.027149
Si Si6 0.250000 0.344546 0.250000
Si Si7 0.004942 0.750000 0.750000
O O1 0.672478 0.514169 0.585741
O O2 0.505049 0.571659 0.727427
O O3 0.457580 0.600555 0.538886
O O4 0.727291 0.620444 0.645647
O O5 0.250000 0.543702 0.250000
O O6 0.486736 0.507921 0.133657
O O7 0.294006 0.591942 0.076726
O O8 0.266134 0.810868 0.518599
O O9 0.102321 0.765864 0.652275
O O10 0.250000 0.507175 0.750000
O O11 0.169460 0.588840 0.617056
O O12 0.403560 0.306759 0.221699
#
# Coordination Sequence:
#
# PCOD8201318 Si02
#       7
#     8   8   4   8   8   4   4
#     4  10  18  32  52  77 105 130 164 211 263 321
#     4  10  20  35  53  73 102 135 176 221 265 304
#     4  11  22  32  47  74 104 136 175 206 249 316
#     4   9  18  31  52  77 104 131 165 210 266 320
#     4  11  21  33  50  77 105 138 173 213 258 313
#     4  11  16  32  50  74 106 141 164 192 262 325
#     4  10  22  30  50  72 108 146 158 198 256 326
#
# _framework density 17.426131999999999
#
# number of rings (size 3 to 8) (size 9 to 14) (size 15 to 20)
#    0.000    1.818    4.545    2.182    5.091    0.000 
#    0.000    0.455    0.000    0.000    0.000    0.000 
#    0.000   11.636    0.000    0.000    0.000    0.000 
#
# Total GULP energy -545204.360072 kJ/mol
# GULP energy per Si atom -12391.008183 kJ/mol
# Density = 1.738647 g / cm^3
# Si number density = 17.426132 Si / 1000 Ang^3
#
#
#
# Elastic Constant Matrix: (Units=GPa)
#
#
# Indices 1 2 3 4 5 6 
#
# 1 92.3848 47.4651 25.3128 0.0000 0.0000 0.0000
# 2 47.4651 124.8421 43.8968 0.0000 0.0000 0.0000
# 3 25.3128 43.8968 42.0079 0.0000 0.0000 0.0000
# 4 0.0000 0.0000 0.0000 25.3374 0.0000 0.0000
# 5 0.0000 0.0000 0.0000 0.0000 60.2743 0.0000
# 6 0.0000 0.0000 0.0000 0.0000 0.0000 43.9896
#
#
#
# Elastic Compliance Matrix: (Units=1/GPa)
#
#
# Indices 1 2 3 4 5 6 
#
# 1 0.013978 -0.003720 -0.004536 0.000000 0.000000 0.000000
# 2 -0.003720 0.013653 -0.012025 0.000000 0.000000 0.000000
# 3 -0.004536 -0.012025 0.039104 0.000000 0.000000 0.000000
# 4 0.000000 0.000000 0.000000 0.039467 0.000000 0.000000
# 5 0.000000 0.000000 0.000000 0.000000 0.016591 0.000000
# 6 0.000000 0.000000 0.000000 0.000000 0.000000 0.022733
#
#
# Mechanical properties :
#
#
# Convention : Reuss Voigt Hill
#
# Bulk Modulus (GPa) = 38.20674 54.73158 46.46916
# Shear Modulus (GPa) = 25.66583 35.42427 30.54505
#
# Velocity S-wave (km/s) = 3.84192 4.51358 4.19122
# Velocity P-wave (km/s) = 6.45391 7.65762 7.08139
#
# Compressibility (1/GPa) = 0.02617339
#
# Stress axis : x y z
#
# Youngs Moduli (GPa) = 71.54012 73.24639 25.57275
#
# Poissons Ratio (x) = 0.27244 0.11600
# Poissons Ratio (y) = 0.26610 0.30752
# Poissons Ratio (z) = 0.32451 0.88080
#
# Static dielectric constant tensor:
#      x y z
#    x 3.653130 0.000000 0.000000 
#    y 0.000000 2.149100 0.000000 
#    z 0.000000 0.000000 2.870290 
# 
# 
# High freq. dielectric constant tensor:
#      x y z
#    x 1.694850 0.000000 0.000000 
#    y 0.000000 1.658370 0.000000 
#    z 0.000000 0.000000 1.633080 
# 
# From -- ./inp_files/25329.got.cif
#   From: 2010.06.25/outbox.cif.g09.slc.cpg/sg48_13_cif.got.tgz:25329.got - 2010.06.26 18:06:46.
