data_PCOD8201537
_publ_section_title
;
Structure prediction by ZEFSAII (Michael W. Deem and Ramdas Pophale) SiO2 
 PCOD8201537
Probable space group: P N N N
;
_chemical_formula_sum "Si O2"
_cell_formula_units_Z 64
_cell_length_a 8.857541
_cell_length_b 22.331878
_cell_length_c 16.788734
_cell_angle_alpha 90.000000
_cell_angle_beta 90.000000
_cell_angle_gamma 90.000000
_cell_volume 3320.904343
_symmetry_space_group_name_H-M "P N N N"
_symmetry_group_IT_number 48
_space_group.IT_coordinate_system_code '2'
_symmetry_cell_setting 'orthorhombic'
loop_
_space_group_symop_operation_xyz
x,y,z
1/2-x,1/2-y,z
x,1/2-y,1/2-z
1/2-x,y,1/2-z
-x,-y,-z
1/2+x,1/2+y,-z
-x,1/2+y,1/2+z
1/2+x,-y,1/2+z
loop_
_atom_site_type_symbol
_atom_site_label
_atom_site_fract_x
_atom_site_fract_y
_atom_site_fract_z
Si Si1 0.929098 0.388076 0.888528
Si Si2 0.426584 0.635153 0.566991
Si Si3 0.072800 0.504834 0.914337
Si Si4 0.929098 0.111924 0.888528
Si Si5 0.427201 0.504834 0.914337
Si Si6 0.580802 0.820371 0.250000
Si Si7 0.430731 0.750000 0.840434
Si Si8 0.573416 0.135153 0.433009
O O1 0.750000 0.391005 0.884895
O O2 0.994002 0.453382 0.861361
O O3 0.990475 0.339289 0.828187
O O4 0.989319 0.369739 0.976586
O O5 0.458446 0.573071 0.615623
O O6 0.497228 0.691245 0.614637
O O7 0.250000 0.646312 0.559871
O O8 0.250000 0.492225 0.919043
O O9 0.000000 0.500000 0.000000
O O10 0.990476 0.160711 0.828187
O O11 0.989320 0.130260 0.976586
O O12 0.994002 0.046618 0.861361
O O13 0.458447 0.573071 0.884377
O O14 0.500000 0.500000 0.000000
O O15 0.588858 0.750000 0.250000
O O16 0.750000 0.847717 0.250000
O O17 0.250000 0.750000 0.840483
O O18 0.491296 0.750000 0.750000
O O19 0.497228 0.691245 0.885363
#
# Coordination Sequence:
#
# PCOD8201537 Si02
#       8
#     8   8   8   8   8   8   8   8
#     4  10  20  35  56  80 108 145 188 227 276 333
#     4   8  16  29  49  77 107 144 184 225 270 321
#     4   9  16  30  51  78 110 141 183 232 278 327
#     4  10  20  35  56  80 108 145 188 227 276 333
#     4   9  16  30  51  78 110 141 183 232 278 327
#     4  11  25  41  55  79 115 144 179 230 283 339
#     4   9  16  28  46  73 109 140 176 223 268 316
#     4   8  16  29  49  77 107 144 184 225 270 321
#
# _framework density 19.271858000000002
#
# number of rings (size 3 to 8) (size 9 to 14) (size 15 to 20)
#    0.000    2.750    0.000    3.375    1.750    1.000 
#    2.250    0.000    0.000    0.000    0.000    0.000 
#    0.000   36.000    0.000    0.000    0.000    0.000 
#
# Total GULP energy -793034.500184 kJ/mol
# GULP energy per Si atom -12391.164065 kJ/mol
# Density = 1.922799 g / cm^3
# Si number density = 19.271858 Si / 1000 Ang^3
#
#
#
# Elastic Constant Matrix: (Units=GPa)
#
#
# Indices 1 2 3 4 5 6 
#
# 1 76.0341 41.4575 25.6237 0.0000 0.0000 0.0000
# 2 41.4575 151.9475 61.9625 0.0000 0.0000 0.0000
# 3 25.6237 61.9625 94.5040 0.0000 0.0000 0.0000
# 4 0.0000 0.0000 0.0000 26.7854 0.0000 0.0000
# 5 0.0000 0.0000 0.0000 0.0000 19.7038 0.0000
# 6 0.0000 0.0000 0.0000 0.0000 0.0000 25.5615
#
#
#
# Elastic Compliance Matrix: (Units=1/GPa)
#
#
# Indices 1 2 3 4 5 6 
#
# 1 0.015717 -0.003481 -0.001979 0.000000 0.000000 0.000000
# 2 -0.003481 0.009754 -0.005451 0.000000 0.000000 0.000000
# 3 -0.001979 -0.005451 0.014692 0.000000 0.000000 0.000000
# 4 0.000000 0.000000 0.000000 0.037334 0.000000 0.000000
# 5 0.000000 0.000000 0.000000 0.000000 0.050752 0.000000
# 6 0.000000 0.000000 0.000000 0.000000 0.000000 0.039121
#
#
# Mechanical properties :
#
#
# Convention : Reuss Voigt Hill
#
# Bulk Modulus (GPa) = 54.52504 64.50813 59.51658
# Shear Modulus (GPa) = 25.60069 27.30626 26.45347
#
# Velocity S-wave (km/s) = 3.64867 3.76825 3.70895
# Velocity P-wave (km/s) = 6.79002 7.24419 7.02078
#
# Compressibility (1/GPa) = 0.01834020
#
# Stress axis : x y z
#
# Youngs Moduli (GPa) = 63.62509 102.52099 68.06218
#
# Poissons Ratio (x) = 0.35690 0.13469
# Poissons Ratio (y) = 0.22150 0.37104
# Poissons Ratio (z) = 0.12591 0.55889
#
# Static dielectric constant tensor:
#      x y z
#    x 3.371510 0.000000 0.000000 
#    y 0.000000 4.205090 0.000000 
#    z 0.000000 0.000000 3.409200 
# 
# 
# High freq. dielectric constant tensor:
#      x y z
#    x 1.721230 0.000000 0.000000 
#    y 0.000000 1.769650 0.000000 
#    z 0.000000 0.000000 1.723650 
# 
# From -- ./inp_files/30608.got.cif
#   From: 2010.06.25/outbox.cif.g09.slc.cpg/sg48_16_cif.got.tgz:30608.got - 2010.06.26 18:06:46.
