data_PCOD8201583
_publ_section_title
;
Structure prediction by ZEFSAII (Michael W. Deem and Ramdas Pophale) SiO2 
 PCOD8201583
Probable space group: P N N N
;
_chemical_formula_sum "Si O2"
_cell_formula_units_Z 44
_cell_length_a 14.008187
_cell_length_b 22.012915
_cell_length_c 6.224432
_cell_angle_alpha 90.000000
_cell_angle_beta 90.000000
_cell_angle_gamma 90.000000
_cell_volume 1919.372261
_symmetry_space_group_name_H-M "P N N N"
_symmetry_group_IT_number 48
_space_group.IT_coordinate_system_code '2'
_symmetry_cell_setting 'orthorhombic'
loop_
_space_group_symop_operation_xyz
x,y,z
1/2-x,1/2-y,z
x,1/2-y,1/2-z
1/2-x,y,1/2-z
-x,-y,-z
1/2+x,1/2+y,-z
-x,1/2+y,1/2+z
1/2+x,-y,1/2+z
loop_
_atom_site_type_symbol
_atom_site_label
_atom_site_fract_x
_atom_site_fract_y
_atom_site_fract_z
Si Si1 0.999173 0.057705 0.233584
Si Si2 0.068397 0.658587 0.412722
Si Si3 0.433602 0.154923 0.956427
Si Si4 0.750000 0.608810 0.250000
Si Si5 0.841667 0.998152 0.023307
Si Si6 0.981717 0.250000 0.250000
Si Si7 0.750000 0.093026 0.750000
O O1 0.023032 0.090235 0.459064
O O2 0.899396 0.019835 0.238762
O O3 0.981365 0.103602 0.036725
O O4 0.085236 0.011726 0.175203
O O5 0.087294 0.714433 0.579982
O O6 0.160025 0.638239 0.271338
O O7 0.993032 0.681616 0.240210
O O8 0.324786 0.150282 0.878454
O O9 0.443828 0.202924 0.146857
O O10 0.703705 0.566749 0.068342
O O11 0.760707 0.047996 0.957401
#
# Coordination Sequence:
#
# PCOD8201583 Si02
#       7
#     8   8   8   4   8   4   4
#     4   9  20  39  63  92 140 175 210 256 325 396
#     4  10  21  44  66  97 124 173 220 284 327 407
#     4  11  23  42  67  91 125 170 225 283 327 401
#     4  12  24  36  67 102 136 169 228 256 334 400
#     4  10  20  37  59 102 142 179 204 256 325 403
#     4  10  24  48  70  82 128 174 228 292 362 372
#     4  10  22  38  67 100 140 165 218 260 328 402
#
# _framework density 22.924160000000001
#
# number of rings (size 3 to 8) (size 9 to 14) (size 15 to 20)
#    0.000    1.818    1.818    1.636    2.545    0.727 
#    0.000    5.455    0.000    0.000    0.000    0.000 
#    0.000    0.000    0.000    0.000    0.000    0.000 
#
# Total GULP energy -545118.501302 kJ/mol
# GULP energy per Si atom -12389.056848 kJ/mol
# Density = 2.287198 g / cm^3
# Si number density = 22.924160 Si / 1000 Ang^3
#
#
#
# Elastic Constant Matrix: (Units=GPa)
#
#
# Indices 1 2 3 4 5 6 
#
# 1 131.3237 49.4899 54.7627 0.0000 0.0000 0.0000
# 2 49.4899 94.5069 33.3306 0.0000 0.0000 0.0000
# 3 54.7627 33.3306 85.6009 0.0000 0.0000 0.0000
# 4 0.0000 0.0000 0.0000 33.5368 0.0000 0.0000
# 5 0.0000 0.0000 0.0000 0.0000 37.5776 0.0000
# 6 0.0000 0.0000 0.0000 0.0000 0.0000 21.0888
#
#
#
# Elastic Compliance Matrix: (Units=1/GPa)
#
#
# Indices 1 2 3 4 5 6 
#
# 1 0.011553 -0.003991 -0.005837 0.000000 0.000000 0.000000
# 2 -0.003991 0.013645 -0.002759 0.000000 0.000000 0.000000
# 3 -0.005837 -0.002759 0.016491 0.000000 0.000000 0.000000
# 4 0.000000 0.000000 0.000000 0.029818 0.000000 0.000000
# 5 0.000000 0.000000 0.000000 0.000000 0.026612 0.000000
# 6 0.000000 0.000000 0.000000 0.000000 0.000000 0.047418
#
#
# Mechanical properties :
#
#
# Convention : Reuss Voigt Hill
#
# Bulk Modulus (GPa) = 60.55818 65.17754 62.86786
# Shear Modulus (GPa) = 28.37437 30.03054 29.20245
#
# Velocity S-wave (km/s) = 3.52198 3.62331 3.57301
# Velocity P-wave (km/s) = 6.55845 6.78219 6.67126
#
# Compressibility (1/GPa) = 0.01651305
#
# Stress axis : x y z
#
# Youngs Moduli (GPa) = 86.55840 73.28949 60.64064
#
# Poissons Ratio (x) = 0.29252 0.35395
# Poissons Ratio (y) = 0.34548 0.16733
# Poissons Ratio (z) = 0.50522 0.20223
#
# Static dielectric constant tensor:
#      x y z
#    x 4.120070 0.000000 0.000000 
#    y 0.000000 4.249390 0.000000 
#    z 0.000000 0.000000 3.994640 
# 
# 
# High freq. dielectric constant tensor:
#      x y z
#    x 1.889510 0.000000 0.000000 
#    y 0.000000 1.907540 0.000000 
#    z 0.000000 0.000000 1.899110 
# 
# From -- ./inp_files/3504.got.cif
#   From: 2010.06.25/outbox.cif.g09.slc.cpg/sg48_2_cif.got.tgz:3504.got - 2010.06.26 18:06:46.
