data_PCOD8201521
_publ_section_title
;
Structure prediction by ZEFSAII (Michael W. Deem and Ramdas Pophale) SiO2 
 PCOD8201521
Probable space group: P N N N
;
_chemical_formula_sum "Si O2"
_cell_formula_units_Z 40
_cell_length_a 13.644734
_cell_length_b 13.635794
_cell_length_c 11.868464
_cell_angle_alpha 90.000000
_cell_angle_beta 90.000000
_cell_angle_gamma 90.000000
_cell_volume 2208.208219
_symmetry_space_group_name_H-M "P N N N"
_symmetry_group_IT_number 48
_space_group.IT_coordinate_system_code '2'
_symmetry_cell_setting 'orthorhombic'
loop_
_space_group_symop_operation_xyz
x,y,z
1/2-x,1/2-y,z
x,1/2-y,1/2-z
1/2-x,y,1/2-z
-x,-y,-z
1/2+x,1/2+y,-z
-x,1/2+y,1/2+z
1/2+x,-y,1/2+z
loop_
_atom_site_type_symbol
_atom_site_label
_atom_site_fract_x
_atom_site_fract_y
_atom_site_fract_z
Si Si1 0.477047 0.348106 0.311464
Si Si2 0.653601 0.980300 0.685492
Si Si3 0.177695 0.394539 0.555836
Si Si4 0.454514 0.453123 0.750060
Si Si5 0.395392 0.320475 0.555005
O O1 0.517853 0.250000 0.250000
O O2 0.376142 0.377800 0.246865
O O3 0.555077 0.437484 0.303662
O O4 0.455292 0.339701 0.442560
O O5 0.750000 0.021551 0.750000
O O6 0.667381 0.960652 0.554226
O O7 0.563012 0.057012 0.693820
O O8 0.135545 0.452451 0.662607
O O9 0.291592 0.373452 0.565206
O O10 0.114395 0.295763 0.558177
O O11 0.453929 0.364503 0.660515
#
# Coordination Sequence:
#
# PCOD8201521 Si02
#       5
#     8   8   8   8   8
#     4  10  20  34  56  79 106 139 179 218 264 312
#     4  10  20  34  56  79 106 139 179 218 264 312
#     4  11  20  34  57  82 109 138 175 223 272 317
#     4  10  22  33  49  82 118 138 168 220 274 322
#     4  11  20  34  57  82 109 138 175 223 272 317
#
# _framework density 18.114232000000001
#
# number of rings (size 3 to 8) (size 9 to 14) (size 15 to 20)
#    1.200    0.400    4.000    2.400    0.000    2.000 
#    0.000    0.000    0.000    4.800    0.000   11.200 
#    0.000    0.000    0.000    0.000    0.000    0.000 
#
# Total GULP energy -495568.961294 kJ/mol
# GULP energy per Si atom -12389.224032 kJ/mol
# Density = 1.807300 g / cm^3
# Si number density = 18.114232 Si / 1000 Ang^3
#
#
#
# Elastic Constant Matrix: (Units=GPa)
#
#
# Indices 1 2 3 4 5 6 
#
# 1 52.5134 31.5770 36.6917 0.0000 0.0000 0.0000
# 2 31.5770 49.5788 30.9995 0.0000 0.0000 0.0000
# 3 36.6917 30.9995 112.1038 0.0000 0.0000 0.0000
# 4 0.0000 0.0000 0.0000 7.5086 0.0000 0.0000
# 5 0.0000 0.0000 0.0000 0.0000 7.1791 0.0000
# 6 0.0000 0.0000 0.0000 0.0000 0.0000 40.3427
#
#
#
# Elastic Compliance Matrix: (Units=1/GPa)
#
#
# Indices 1 2 3 4 5 6 
#
# 1 0.034125 -0.017834 -0.006238 0.000000 0.000000 0.000000
# 2 -0.017834 0.033707 -0.003484 0.000000 0.000000 0.000000
# 3 -0.006238 -0.003484 0.011925 0.000000 0.000000 0.000000
# 4 0.000000 0.000000 0.000000 0.133181 0.000000 0.000000
# 5 0.000000 0.000000 0.000000 0.000000 0.139292 0.000000
# 6 0.000000 0.000000 0.000000 0.000000 0.000000 0.024788
#
#
# Mechanical properties :
#
#
# Convention : Reuss Voigt Hill
#
# Bulk Modulus (GPa) = 40.57433 45.85916 43.21674
# Shear Modulus (GPa) = 11.35475 18.66793 15.01134
#
# Velocity S-wave (km/s) = 2.50640 3.21373 2.88185
# Velocity P-wave (km/s) = 5.55192 6.25638 5.91465
#
# Compressibility (1/GPa) = 0.02464612
#
# Stress axis : x y z
#
# Youngs Moduli (GPa) = 29.30402 29.66760 83.85634
#
# Poissons Ratio (x) = 0.52910 0.52306
# Poissons Ratio (y) = 0.52262 0.29212
# Poissons Ratio (z) = 0.18278 0.10335
#
# Static dielectric constant tensor:
#      x y z
#    x 3.159190 0.000000 0.000000 
#    y 0.000000 3.235500 0.000000 
#    z 0.000000 0.000000 3.354730 
# 
# 
# High freq. dielectric constant tensor:
#      x y z
#    x 1.681330 0.000000 0.000000 
#    y 0.000000 1.681540 0.000000 
#    z 0.000000 0.000000 1.718810 
# 
# From -- ./inp_files/19765.got.cif
#   From: 2010.06.25/outbox.cif.g09.slc.cpg/sg48_10_cif.got.tgz:19765.got - 2010.06.26 18:06:46.
