data_PCOD8201999
_publ_section_title
;
Structure prediction by ZEFSAII (Michael W. Deem and Ramdas Pophale) SiO2 
 PCOD8201999
Probable space group: P N N N
;
_chemical_formula_sum "Si O2"
_cell_formula_units_Z 64
_cell_length_a 9.091612
_cell_length_b 16.787862
_cell_length_c 21.202671
_cell_angle_alpha 90.000000
_cell_angle_beta 90.000000
_cell_angle_gamma 90.000000
_cell_volume 3236.136697
_symmetry_space_group_name_H-M "P N N N"
_symmetry_group_IT_number 48
_space_group.IT_coordinate_system_code '2'
_symmetry_cell_setting 'orthorhombic'
loop_
_space_group_symop_operation_xyz
x,y,z
1/2-x,1/2-y,z
x,1/2-y,1/2-z
1/2-x,y,1/2-z
-x,-y,-z
1/2+x,1/2+y,-z
-x,1/2+y,1/2+z
1/2+x,-y,1/2+z
loop_
_atom_site_type_symbol
_atom_site_label
_atom_site_fract_x
_atom_site_fract_y
_atom_site_fract_z
Si Si1 0.040895 0.387957 0.137066
Si Si2 0.213945 0.437123 0.446712
Si Si3 0.129724 0.317151 0.555861
Si Si4 0.917066 0.221194 0.157940
Si Si5 0.446101 0.475130 0.882615
Si Si6 0.803314 0.051140 0.457415
Si Si7 0.920791 0.432063 0.262573
Si Si8 0.377214 0.808884 0.523106
O O1 0.208492 0.403526 0.115987
O O2 0.023044 0.297636 0.160450
O O3 0.940948 0.406009 0.075393
O O4 0.005713 0.444798 0.196448
O O5 0.166113 0.365053 0.491855
O O6 0.336493 0.485127 0.488981
O O7 0.076395 0.493511 0.428253
O O8 0.250000 0.250000 0.576133
O O9 0.084862 0.379164 0.611187
O O10 0.981151 0.272807 0.532160
O O11 0.750000 0.250000 0.167207
O O12 0.954512 0.157029 0.211726
O O13 0.952889 0.176799 0.091701
O O14 0.291732 0.515086 0.900401
O O15 0.478383 0.499176 0.810227
O O16 0.700998 0.110434 0.498304
O O17 0.750000 0.443393 0.250000
O O18 0.250000 0.750000 0.540636
#
# Coordination Sequence:
#
# PCOD8201999 Si02
#       8
#     8   8   8   8   8   8   8   8
#     4  12  23  33  56  93 121 161 205 242 280 357
#     4  11  23  38  58  86 128 157 188 249 310 358
#     4  11  22  38  59  88 120 152 197 252 317 362
#     4  11  18  31  55  84 119 156 196 237 282 347
#     4  11  21  40  61  80 120 165 196 243 305 359
#     4  11  18  37  58  84 117 156 197 235 290 356
#     4  12  21  36  59  85 115 160 212 239 290 358
#     4  11  18  33  58  86 115 156 190 234 298 365
#
# _framework density 19.776667
#
# number of rings (size 3 to 8) (size 9 to 14) (size 15 to 20)
#    0.000    0.750    8.750    2.250    0.000    0.500 
#    0.000    0.000    0.000    3.375    0.000    0.000 
#    0.000    0.000    0.000    0.000    0.000    0.000 
#
# Total GULP energy -792850.561806 kJ/mol
# GULP energy per Si atom -12388.290028 kJ/mol
# Density = 1.973165 g / cm^3
# Si number density = 19.776667 Si / 1000 Ang^3
#
#
#
# Elastic Constant Matrix: (Units=GPa)
#
#
# Indices 1 2 3 4 5 6 
#
# 1 48.6368 24.4604 25.0379 0.0000 0.0000 0.0000
# 2 24.4604 81.2157 39.7231 0.0000 0.0000 0.0000
# 3 25.0379 39.7231 94.4150 0.0000 0.0000 0.0000
# 4 0.0000 0.0000 0.0000 17.5058 0.0000 0.0000
# 5 0.0000 0.0000 0.0000 0.0000 29.1177 0.0000
# 6 0.0000 0.0000 0.0000 0.0000 0.0000 24.5957
#
#
#
# Elastic Compliance Matrix: (Units=1/GPa)
#
#
# Indices 1 2 3 4 5 6 
#
# 1 0.025647 -0.005537 -0.004472 0.000000 0.000000 0.000000
# 2 -0.005537 0.016699 -0.005557 0.000000 0.000000 0.000000
# 3 -0.004472 -0.005557 0.014115 0.000000 0.000000 0.000000
# 4 0.000000 0.000000 0.000000 0.057124 0.000000 0.000000
# 5 0.000000 0.000000 0.000000 0.000000 0.034343 0.000000
# 6 0.000000 0.000000 0.000000 0.000000 0.000000 0.040658
#
#
# Mechanical properties :
#
#
# Convention : Reuss Voigt Hill
#
# Bulk Modulus (GPa) = 39.48022 44.74557 42.11290
# Shear Modulus (GPa) = 21.91429 23.24693 22.58061
#
# Velocity S-wave (km/s) = 3.33241 3.43224 3.38269
# Velocity P-wave (km/s) = 5.90025 6.19528 6.04957
#
# Compressibility (1/GPa) = 0.02532914
#
# Stress axis : x y z
#
# Youngs Moduli (GPa) = 38.99033 59.88517 70.84441
#
# Poissons Ratio (x) = 0.33160 0.31680
# Poissons Ratio (y) = 0.21590 0.39369
# Poissons Ratio (z) = 0.17435 0.33279
#
# Static dielectric constant tensor:
#      x y z
#    x 3.517810 0.000000 0.000000 
#    y 0.000000 3.812040 0.000000 
#    z 0.000000 0.000000 3.596760 
# 
# 
# High freq. dielectric constant tensor:
#      x y z
#    x 1.761360 0.000000 0.000000 
#    y 0.000000 1.756420 0.000000 
#    z 0.000000 0.000000 1.751430 
# 
# From -- ./inp_files/15425.got.cif
#   From: 2010.06.25/outbox.cif.g09.slc.cpg/sg48_8_cif.got.tgz:15425.got - 2010.06.26 18:06:46.
