data_PCOD8201637
_publ_section_title
;
Structure prediction by ZEFSAII (Michael W. Deem and Ramdas Pophale) SiO2 
 PCOD8201637
Probable space group: P N N N
;
_chemical_formula_sum "Si O2"
_cell_formula_units_Z 64
_cell_length_a 17.244840
_cell_length_b 13.948792
_cell_length_c 12.330218
_cell_angle_alpha 90.000000
_cell_angle_beta 90.000000
_cell_angle_gamma 90.000000
_cell_volume 2965.968420
_symmetry_space_group_name_H-M "P N N N"
_symmetry_group_IT_number 48
_space_group.IT_coordinate_system_code '2'
_symmetry_cell_setting 'orthorhombic'
loop_
_space_group_symop_operation_xyz
x,y,z
1/2-x,1/2-y,z
x,1/2-y,1/2-z
1/2-x,y,1/2-z
-x,-y,-z
1/2+x,1/2+y,-z
-x,1/2+y,1/2+z
1/2+x,-y,1/2+z
loop_
_atom_site_type_symbol
_atom_site_label
_atom_site_fract_x
_atom_site_fract_y
_atom_site_fract_z
Si Si1 0.198578 0.543779 0.551414
Si Si2 0.424884 0.947090 0.133440
Si Si3 0.585224 0.704553 0.863135
Si Si4 0.735956 0.646088 0.375344
Si Si5 0.316980 0.679732 0.489193
Si Si6 0.591485 0.192916 0.356237
Si Si7 0.575045 0.876897 0.029467
Si Si8 0.170996 0.481197 0.321815
O O1 0.204560 0.432399 0.579851
O O2 0.277514 0.604328 0.573597
O O3 0.132982 0.590655 0.627144
O O4 0.183032 0.554350 0.421655
O O5 0.352226 0.878880 0.109690
O O6 0.503304 0.885291 0.114533
O O7 0.404766 0.983128 0.254348
O O8 0.429477 0.039929 0.058477
O O9 0.612061 0.750000 0.750000
O O10 0.498142 0.665563 0.850357
O O11 0.646782 0.619095 0.879440
O O12 0.583081 0.776881 0.965117
O O13 0.750000 0.750000 0.431639
O O14 0.750000 0.657121 0.250000
O O15 0.649702 0.609231 0.396465
O O16 0.250000 0.750000 0.445417
O O17 0.387507 0.736271 0.545142
O O18 0.619526 0.250000 0.250000
O O19 0.250000 0.469862 0.250000
#
# Coordination Sequence:
#
# PCOD8201637 Si02
#       8
#     8   8   8   8   8   8   8   8
#     4  11  24  42  68 100 135 177 225 291 343 409
#     4  11  22  40  68  97 132 182 225 277 346 415
#     4  11  23  41  67 104 137 179 231 292 337 402
#     4  11  25  44  67  94 133 183 229 274 337 412
#     4  10  20  39  65  96 130 171 221 275 342 405
#     4  10  24  42  70 102 133 169 230 290 350 408
#     4  11  22  42  69  96 136 178 231 283 336 411
#     4  12  24  42  65 102 142 182 232 278 355 413
#
# _framework density 21.578112000000001
#
# number of rings (size 3 to 8) (size 9 to 14) (size 15 to 20)
#    0.000    1.125    5.000    0.750    1.750    3.500 
#    0.000    6.875    0.000    0.000    0.000    0.000 
#    0.000    0.000    0.000    0.000    0.000    0.000 
#
# Total GULP energy -793181.364919 kJ/mol
# GULP energy per Si atom -12393.458827 kJ/mol
# Density = 2.152900 g / cm^3
# Si number density = 21.578112 Si / 1000 Ang^3
#
#
#
# Elastic Constant Matrix: (Units=GPa)
#
#
# Indices 1 2 3 4 5 6 
#
# 1 71.0981 24.7667 35.0388 0.0000 0.0000 0.0000
# 2 24.7667 116.9192 34.2773 0.0000 0.0000 0.0000
# 3 35.0388 34.2773 79.0107 0.0000 0.0000 0.0000
# 4 0.0000 0.0000 0.0000 37.6741 0.0000 0.0000
# 5 0.0000 0.0000 0.0000 0.0000 20.1100 0.0000
# 6 0.0000 0.0000 0.0000 0.0000 0.0000 38.7539
#
#
#
# Elastic Compliance Matrix: (Units=1/GPa)
#
#
# Indices 1 2 3 4 5 6 
#
# 1 0.018294 -0.001715 -0.007369 0.000000 0.000000 0.000000
# 2 -0.001715 0.009960 -0.003560 0.000000 0.000000 0.000000
# 3 -0.007369 -0.003560 0.017469 0.000000 0.000000 0.000000
# 4 0.000000 0.000000 0.000000 0.026543 0.000000 0.000000
# 5 0.000000 0.000000 0.000000 0.000000 0.049726 0.000000
# 6 0.000000 0.000000 0.000000 0.000000 0.000000 0.025804
#
#
# Mechanical properties :
#
#
# Convention : Reuss Voigt Hill
#
# Bulk Modulus (GPa) = 48.93650 50.57705 49.75678
# Shear Modulus (GPa) = 27.79374 30.83728 29.31551
#
# Velocity S-wave (km/s) = 3.59284 3.78445 3.68989
# Velocity P-wave (km/s) = 6.31976 6.52579 6.42360
#
# Compressibility (1/GPa) = 0.02043465
#
# Stress axis : x y z
#
# Youngs Moduli (GPa) = 54.66280 100.40171 57.24422
#
# Poissons Ratio (x) = 0.17217 0.42182
# Poissons Ratio (y) = 0.09374 0.20382
# Poissons Ratio (z) = 0.40280 0.35748
#
# Static dielectric constant tensor:
#      x y z
#    x 4.021820 0.000000 0.000000 
#    y 0.000000 4.114110 0.000000 
#    z 0.000000 0.000000 3.152590 
# 
# 
# High freq. dielectric constant tensor:
#      x y z
#    x 1.850690 0.000000 0.000000 
#    y 0.000000 1.858450 0.000000 
#    z 0.000000 0.000000 1.827820 
# 
# From -- ./inp_files/22339.got.cif
#   From: 2010.06.25/outbox.cif.g09.slc.cpg/sg48_12_cif.got.tgz:22339.got - 2010.06.26 18:06:46.
