data_PCOD8201359
_publ_section_title
;
Structure prediction by ZEFSAII (Michael W. Deem and Ramdas Pophale) SiO2 
 PCOD8201359
Probable space group: P N N N
;
_chemical_formula_sum "Si O2"
_cell_formula_units_Z 64
_cell_length_a 17.164541
_cell_length_b 18.303133
_cell_length_c 11.722703
_cell_angle_alpha 90.000000
_cell_angle_beta 90.000000
_cell_angle_gamma 90.000000
_cell_volume 3682.861544
_symmetry_space_group_name_H-M "P N N N"
_symmetry_group_IT_number 48
_space_group.IT_coordinate_system_code '2'
_symmetry_cell_setting 'orthorhombic'
loop_
_space_group_symop_operation_xyz
x,y,z
1/2-x,1/2-y,z
x,1/2-y,1/2-z
1/2-x,y,1/2-z
-x,-y,-z
1/2+x,1/2+y,-z
-x,1/2+y,1/2+z
1/2+x,-y,1/2+z
loop_
_atom_site_type_symbol
_atom_site_label
_atom_site_fract_x
_atom_site_fract_y
_atom_site_fract_z
Si Si1 0.799202 0.565307 0.979347
Si Si2 0.449411 0.900825 0.431212
Si Si3 0.313093 0.311174 0.054744
Si Si4 0.294615 0.544328 0.146127
Si Si5 0.622363 0.903585 0.749664
Si Si6 0.340230 0.049066 0.773563
Si Si7 0.084375 0.187994 0.844164
Si Si8 0.530506 0.043139 0.330521
O O1 0.726118 0.617881 0.003468
O O2 0.766962 0.483766 0.949310
O O3 0.848663 0.604281 0.878971
O O4 0.852980 0.559587 0.091043
O O5 0.357935 0.898381 0.399696
O O6 0.495632 0.832354 0.378353
O O7 0.452215 0.900119 0.568026
O O8 0.489437 0.972666 0.382527
O O9 0.250000 0.250000 0.083600
O O10 0.356245 0.332569 0.173311
O O11 0.373691 0.282762 0.959033
O O12 0.250000 0.584257 0.250000
O O13 0.334616 0.471441 0.192968
O O14 0.529430 0.916385 0.754438
O O15 0.250000 0.032313 0.750000
O O16 0.368348 0.120197 0.706867
O O17 0.390607 0.978898 0.734586
O O18 0.081519 0.250000 0.750000
#
# Coordination Sequence:
#
# PCOD8201359 Si02
#       8
#     8   8   8   8   8   8   8   8
#     4  10  19  30  45  71 103 129 166 212 253 311
#     4   9  16  30  49  67  93 127 171 206 249 309
#     4  11  20  32  48  67  98 136 177 210 242 302
#     4   8  15  28  49  71  92 123 160 207 254 301
#     4   9  18  32  46  67  96 131 172 207 250 298
#     4  11  20  30  46  72 101 131 167 208 263 319
#     4  11  22  32  47  70  99 136 165 209 258 306
#     4   9  17  29  48  68  93 132 167 206 250 307
#
# _framework density 17.377790999999998
#
# number of rings (size 3 to 8) (size 9 to 14) (size 15 to 20)
#    0.000    2.250    2.500    2.625    3.500    1.500 
#    0.000    0.000    0.000    0.375    0.000    0.000 
#    0.000    0.000    0.000    0.250    0.000    0.000 
#
# Total GULP energy -793293.888569 kJ/mol
# GULP energy per Si atom -12395.217009 kJ/mol
# Density = 1.733824 g / cm^3
# Si number density = 17.377791 Si / 1000 Ang^3
#
#
#
# Elastic Constant Matrix: (Units=GPa)
#
#
# Indices 1 2 3 4 5 6 
#
# 1 109.1303 41.0797 52.6955 0.0000 0.0000 0.0000
# 2 41.0797 43.2487 29.4139 0.0000 0.0000 0.0000
# 3 52.6955 29.4139 124.5517 0.0000 0.0000 0.0000
# 4 0.0000 0.0000 0.0000 20.8722 0.0000 0.0000
# 5 0.0000 0.0000 0.0000 0.0000 24.7715 0.0000
# 6 0.0000 0.0000 0.0000 0.0000 0.0000 24.0352
#
#
#
# Elastic Compliance Matrix: (Units=1/GPa)
#
#
# Indices 1 2 3 4 5 6 
#
# 1 0.015565 -0.012277 -0.003686 0.000000 0.000000 0.000000
# 2 -0.012277 0.037231 -0.003598 0.000000 0.000000 0.000000
# 3 -0.003686 -0.003598 0.010438 0.000000 0.000000 0.000000
# 4 0.000000 0.000000 0.000000 0.047911 0.000000 0.000000
# 5 0.000000 0.000000 0.000000 0.000000 0.040369 0.000000
# 6 0.000000 0.000000 0.000000 0.000000 0.000000 0.041606
#
#
# Mechanical properties :
#
#
# Convention : Reuss Voigt Hill
#
# Bulk Modulus (GPa) = 41.47469 58.14541 49.81005
# Shear Modulus (GPa) = 20.80926 24.18522 22.49724
#
# Velocity S-wave (km/s) = 3.46419 3.73464 3.60195
# Velocity P-wave (km/s) = 6.31816 7.22004 6.78410
#
# Compressibility (1/GPa) = 0.02411109
#
# Stress axis : x y z
#
# Youngs Moduli (GPa) = 64.24834 26.85947 95.80519
#
# Poissons Ratio (x) = 0.32976 0.35311
# Poissons Ratio (y) = 0.78880 0.34471
# Poissons Ratio (z) = 0.23680 0.09664
#
# Static dielectric constant tensor:
#      x y z
#    x 3.501410 0.000000 0.000000 
#    y 0.000000 2.823210 0.000000 
#    z 0.000000 0.000000 3.374200 
# 
# 
# High freq. dielectric constant tensor:
#      x y z
#    x 1.664840 0.000000 0.000000 
#    y 0.000000 1.614070 0.000000 
#    z 0.000000 0.000000 1.680260 
# 
# From -- ./inp_files/22418.got.cif
#   From: 2010.06.25/outbox.cif.g09.slc.cpg/sg48_12_cif.got.tgz:22418.got - 2010.06.26 18:06:46.
