data_PCOD8201822
_publ_section_title
;
Structure prediction by ZEFSAII (Michael W. Deem and Ramdas Pophale) SiO2 
 PCOD8201822
Probable space group: P N N N
;
_chemical_formula_sum "Si O2"
_cell_formula_units_Z 48
_cell_length_a 8.258712
_cell_length_b 18.983997
_cell_length_c 14.793852
_cell_angle_alpha 90.000000
_cell_angle_beta 90.000000
_cell_angle_gamma 90.000000
_cell_volume 2319.429881
_symmetry_space_group_name_H-M "P N N N"
_symmetry_group_IT_number 48
_space_group.IT_coordinate_system_code '2'
_symmetry_cell_setting 'orthorhombic'
loop_
_space_group_symop_operation_xyz
x,y,z
1/2-x,1/2-y,z
x,1/2-y,1/2-z
1/2-x,y,1/2-z
-x,-y,-z
1/2+x,1/2+y,-z
-x,1/2+y,1/2+z
1/2+x,-y,1/2+z
loop_
_atom_site_type_symbol
_atom_site_label
_atom_site_fract_x
_atom_site_fract_y
_atom_site_fract_z
Si Si1 0.746831 0.520652 0.459581
Si Si2 0.750000 0.510419 0.750000
Si Si3 0.431141 0.569743 0.391726
Si Si4 0.403423 0.799327 0.001052
Si Si5 0.113188 0.113239 0.101854
Si Si6 0.771418 0.116951 0.143264
Si Si7 0.750000 0.750000 0.546415
O O1 0.624480 0.569048 0.402781
O O2 0.652468 0.484884 0.541212
O O3 0.882811 0.571581 0.504721
O O4 0.811761 0.462832 0.389437
O O5 0.618227 0.457479 0.706955
O O6 0.652610 0.559754 0.818186
O O7 0.380463 0.649665 0.412595
O O8 0.250000 0.750000 0.007020
O O9 0.380345 0.846494 0.908155
O O10 0.578084 0.759539 0.007592
O O11 0.240407 0.177887 0.103657
O O12 0.941481 0.153337 0.116700
O O13 0.750000 0.120631 0.250000
#
# Coordination Sequence:
#
# PCOD8201822 Si02
#       7
#     8   4   8   8   8   8   4
#     4   9  18  35  60  84 119 162 206 254 303 365
#     4  10  22  37  59  98 122 154 206 268 324 370
#     4   9  18  36  63  86 119 159 206 257 312 369
#     4  11  23  43  62  87 123 171 212 254 312 384
#     4  11  22  38  60  91 126 163 209 252 315 390
#     4  11  23  37  58  90 125 162 207 265 319 373
#     4  12  24  41  62  88 123 176 208 248 309 390
#
# _framework density 20.694739999999999
#
# number of rings (size 3 to 8) (size 9 to 14) (size 15 to 20)
#    0.000    1.667    3.333    1.500    4.667    0.667 
#    0.000    0.417    0.000    0.000    0.000    1.750 
#    0.000    0.000    0.000    0.000    0.000    0.000 
#
# Total GULP energy -594632.344589 kJ/mol
# GULP energy per Si atom -12388.173846 kJ/mol
# Density = 2.064764 g / cm^3
# Si number density = 20.694740 Si / 1000 Ang^3
#
#
#
# Elastic Constant Matrix: (Units=GPa)
#
#
# Indices 1 2 3 4 5 6 
#
# 1 115.8189 35.7423 15.8879 0.0000 0.0000 0.0000
# 2 35.7423 110.8997 48.7556 0.0000 0.0000 0.0000
# 3 15.8879 48.7556 47.7052 0.0000 0.0000 0.0000
# 4 0.0000 0.0000 0.0000 21.6255 0.0000 0.0000
# 5 0.0000 0.0000 0.0000 0.0000 24.7961 0.0000
# 6 0.0000 0.0000 0.0000 0.0000 0.0000 36.9417
#
#
#
# Elastic Compliance Matrix: (Units=1/GPa)
#
#
# Indices 1 2 3 4 5 6 
#
# 1 0.009588 -0.003062 -0.000064 0.000000 0.000000 0.000000
# 2 -0.003062 0.017353 -0.016715 0.000000 0.000000 0.000000
# 3 -0.000064 -0.016715 0.038066 0.000000 0.000000 0.000000
# 4 0.000000 0.000000 0.000000 0.046242 0.000000 0.000000
# 5 0.000000 0.000000 0.000000 0.000000 0.040329 0.000000
# 6 0.000000 0.000000 0.000000 0.000000 0.000000 0.027070
#
#
# Mechanical properties :
#
#
# Convention : Reuss Voigt Hill
#
# Bulk Modulus (GPa) = 39.48604 52.79949 46.14276
# Shear Modulus (GPa) = 22.04883 28.27520 25.16201
#
# Velocity S-wave (km/s) = 3.26764 3.70036 3.49071
# Velocity P-wave (km/s) = 5.77566 6.62010 6.21225
#
# Compressibility (1/GPa) = 0.02532541
#
# Stress axis : x y z
#
# Youngs Moduli (GPa) = 104.29820 57.62855 26.27014
#
# Poissons Ratio (x) = 0.17647 0.00167
# Poissons Ratio (y) = 0.31938 0.43910
# Poissons Ratio (z) = 0.00663 0.96325
#
# Static dielectric constant tensor:
#      x y z
#    x 3.911470 0.000000 0.000000 
#    y 0.000000 3.864700 0.000000 
#    z 0.000000 0.000000 3.553950 
# 
# 
# High freq. dielectric constant tensor:
#      x y z
#    x 1.820930 0.000000 0.000000 
#    y 0.000000 1.812360 0.000000 
#    z 0.000000 0.000000 1.769180 
# 
# From -- ./inp_files/14187.got.cif
#   From: 2010.06.25/outbox.cif.g09.slc.cpg/sg48_8_cif.got.tgz:14187.got - 2010.06.26 18:06:46.
