data_PCOD8201261
_publ_section_title
;
Structure prediction by ZEFSAII (Michael W. Deem and Ramdas Pophale) SiO2 
 PCOD8201261
Probable space group: P N N N
;
_chemical_formula_sum "Si O2"
_cell_formula_units_Z 58
_cell_length_a 11.049676
_cell_length_b 18.258091
_cell_length_c 14.631022
_cell_angle_alpha 90.000000
_cell_angle_beta 90.000000
_cell_angle_gamma 90.000000
_cell_volume 2951.750017
_symmetry_space_group_name_H-M "P N N N"
_symmetry_group_IT_number 48
_space_group.IT_coordinate_system_code '2'
_symmetry_cell_setting 'orthorhombic'
loop_
_space_group_symop_operation_xyz
x,y,z
1/2-x,1/2-y,z
x,1/2-y,1/2-z
1/2-x,y,1/2-z
-x,-y,-z
1/2+x,1/2+y,-z
-x,1/2+y,1/2+z
1/2+x,-y,1/2+z
loop_
_atom_site_type_symbol
_atom_site_label
_atom_site_fract_x
_atom_site_fract_y
_atom_site_fract_z
Si Si1 0.821734 0.626906 0.661742
Si Si2 0.660683 0.419185 0.995608
Si Si3 0.815127 0.546268 0.984941
Si Si4 0.123305 0.964102 0.201681
Si Si5 0.443173 0.806260 0.611324
Si Si6 0.150690 0.696743 0.035139
Si Si7 0.021796 0.572482 0.120479
Si Si8 0.250000 0.750000 0.750000
O O1 0.750000 0.653614 0.750000
O O2 0.729279 0.615609 0.575501
O O3 0.887641 0.549871 0.681133
O O4 0.919761 0.692172 0.648507
O O5 0.697170 0.502282 0.021894
O O6 0.614512 0.416197 0.890572
O O7 0.775824 0.366840 0.016740
O O8 0.559359 0.386292 0.061829
O O9 0.888046 0.489216 0.920431
O O10 0.891705 0.570351 0.072305
O O11 0.250000 0.944516 0.250000
O O12 0.014191 0.941955 0.270831
O O13 0.428985 0.739962 0.539516
O O14 0.339506 0.800224 0.688959
O O15 0.250000 0.750000 0.082874
O O16 0.066994 0.656312 0.108678
#
# Coordination Sequence:
#
# PCOD8201261 Si02
#       8
#     8   8   8   8   8   8   8   2
#     4  10  20  38  55  87 120 149 203 248 305 365
#     4   9  17  35  56  78 115 148 195 244 298 347
#     4   9  18  30  56  85 112 155 195 244 309 348
#     4  10  16  31  54  88 116 141 191 261 295 346
#     4  11  23  38  57  77 121 164 192 251 295 370
#     4   9  17  34  51  76 111 149 196 228 288 354
#     4  10  17  31  56  82 116 156 190 260 290 351
#     4  12  24  40  54  80 110 160 212 238 298 356
#
# _framework density 19.649360000000001
#
# number of rings (size 3 to 8) (size 9 to 14) (size 15 to 20)
#    0.000    2.207    7.586    0.000    0.000    4.414 
#    0.000    7.241    0.000    2.483    0.000    0.000 
#    0.000   11.034    0.000    0.000    0.000    0.000 
#
# Total GULP energy -718560.727416 kJ/mol
# GULP energy per Si atom -12388.978059 kJ/mol
# Density = 1.960464 g / cm^3
# Si number density = 19.649360 Si / 1000 Ang^3
#
#
#
# Elastic Constant Matrix: (Units=GPa)
#
#
# Indices 1 2 3 4 5 6 
#
# 1 82.3089 34.0408 58.4870 0.0000 0.0000 0.0000
# 2 34.0408 56.4823 37.3256 0.0000 0.0000 0.0000
# 3 58.4870 37.3256 119.9677 0.0000 0.0000 0.0000
# 4 0.0000 0.0000 0.0000 25.8244 0.0000 0.0000
# 5 0.0000 0.0000 0.0000 0.0000 35.9362 0.0000
# 6 0.0000 0.0000 0.0000 0.0000 0.0000 30.2056
#
#
#
# Elastic Compliance Matrix: (Units=1/GPa)
#
#
# Indices 1 2 3 4 5 6 
#
# 1 0.020747 -0.007326 -0.007835 0.000000 0.000000 0.000000
# 2 -0.007326 0.024874 -0.004168 0.000000 0.000000 0.000000
# 3 -0.007835 -0.004168 0.013452 0.000000 0.000000 0.000000
# 4 0.000000 0.000000 0.000000 0.038723 0.000000 0.000000
# 5 0.000000 0.000000 0.000000 0.000000 0.027827 0.000000
# 6 0.000000 0.000000 0.000000 0.000000 0.000000 0.033106
#
#
# Mechanical properties :
#
#
# Convention : Reuss Voigt Hill
#
# Bulk Modulus (GPa) = 48.98234 57.60731 53.29482
# Shear Modulus (GPa) = 24.48686 26.98695 25.73691
#
# Velocity S-wave (km/s) = 3.53397 3.71000 3.62305
# Velocity P-wave (km/s) = 6.45246 6.90894 6.68460
#
# Compressibility (1/GPa) = 0.02041552
#
# Stress axis : x y z
#
# Youngs Moduli (GPa) = 48.20068 40.20285 74.33821
#
# Poissons Ratio (x) = 0.29452 0.58245
# Poissons Ratio (y) = 0.35311 0.30981
# Poissons Ratio (z) = 0.37766 0.16755
#
# Static dielectric constant tensor:
#      x y z
#    x 3.454630 0.000000 0.000000 
#    y 0.000000 3.545360 0.000000 
#    z 0.000000 0.000000 3.679440 
# 
# 
# High freq. dielectric constant tensor:
#      x y z
#    x 1.741680 0.000000 0.000000 
#    y 0.000000 1.750330 0.000000 
#    z 0.000000 0.000000 1.751910 
# 
# From -- ./inp_files/26683.got.cif
#   From: 2010.06.25/outbox.cif.g09.slc.cpg/sg48_14_cif.got.tgz:26683.got - 2010.06.26 18:06:46.
