data_PCOD8201474
_publ_section_title
;
Structure prediction by ZEFSAII (Michael W. Deem and Ramdas Pophale) SiO2 
 PCOD8201474
Probable space group: P N N N
;
_chemical_formula_sum "Si O2"
_cell_formula_units_Z 64
_cell_length_a 17.491955
_cell_length_b 8.336154
_cell_length_c 22.390002
_cell_angle_alpha 90.000000
_cell_angle_beta 90.000000
_cell_angle_gamma 90.000000
_cell_volume 3264.812262
_symmetry_space_group_name_H-M "P N N N"
_symmetry_group_IT_number 48
_space_group.IT_coordinate_system_code '2'
_symmetry_cell_setting 'orthorhombic'
loop_
_space_group_symop_operation_xyz
x,y,z
1/2-x,1/2-y,z
x,1/2-y,1/2-z
1/2-x,y,1/2-z
-x,-y,-z
1/2+x,1/2+y,-z
-x,1/2+y,1/2+z
1/2+x,-y,1/2+z
loop_
_atom_site_type_symbol
_atom_site_label
_atom_site_fract_x
_atom_site_fract_y
_atom_site_fract_z
Si Si1 0.450703 0.596095 0.827043
Si Si2 0.399282 0.192247 0.188763
Si Si3 0.915719 0.544731 0.020717
Si Si4 0.496050 0.588946 0.282878
Si Si5 0.417793 0.943192 0.477155
Si Si6 0.164905 0.255044 0.067775
Si Si7 0.020557 0.221135 0.896362
Si Si8 0.841450 0.243533 0.082557
O O1 0.523848 0.710912 0.829352
O O2 0.446029 0.519585 0.759285
O O3 0.457298 0.452918 0.873690
O O4 0.377147 0.695022 0.852023
O O5 0.361383 0.250000 0.250000
O O6 0.336281 0.211761 0.138328
O O7 0.420463 0.007931 0.200425
O O8 0.918493 0.715835 0.055293
O O9 0.875278 0.414277 0.062536
O O10 0.870023 0.584758 0.961108
O O11 0.000000 0.500000 0.000000
O O12 0.469125 0.750000 0.250000
O O13 0.530579 0.642735 0.345821
O O14 0.436656 0.800330 0.428610
O O15 0.364570 0.881282 0.530753
O O16 0.500000 0.000000 0.500000
O O17 0.376674 0.088389 0.444387
O O18 0.250000 0.250000 0.043795
O O19 0.750000 0.250000 0.089548
#
# Coordination Sequence:
#
# PCOD8201474 Si02
#       8
#     8   8   8   8   8   8   8   8
#     4  10  19  38  60  86 119 159 209 260 308 366
#     4  10  20  37  62  85 113 158 214 261 300 374
#     4  12  22  36  60  89 119 162 212 251 297 379
#     4   9  20  34  60  94 110 142 208 275 297 347
#     4  12  20  39  62  84 124 167 208 254 312 381
#     4  12  24  38  57  90 127 163 200 254 327 385
#     4  11  19  34  63  88 114 151 210 263 301 352
#     4  12  24  37  57  94 134 167 201 260 336 388
#
# _framework density 19.602965000000001
#
# number of rings (size 3 to 8) (size 9 to 14) (size 15 to 20)
#    0.000    1.000    5.000    3.000    0.000    0.250 
#    0.000    0.000    0.000    9.375    3.250   10.500 
#    0.000    0.000    0.000    0.000    0.000    0.000 
#
# Total GULP energy -792870.638923 kJ/mol
# GULP energy per Si atom -12388.603733 kJ/mol
# Density = 1.955835 g / cm^3
# Si number density = 19.602965 Si / 1000 Ang^3
#
#
#
# Elastic Constant Matrix: (Units=GPa)
#
#
# Indices 1 2 3 4 5 6 
#
# 1 101.4527 27.8787 35.7733 0.0000 0.0000 0.0000
# 2 27.8787 90.4536 35.6514 0.0000 0.0000 0.0000
# 3 35.7733 35.6514 112.2237 0.0000 0.0000 0.0000
# 4 0.0000 0.0000 0.0000 37.1217 0.0000 0.0000
# 5 0.0000 0.0000 0.0000 0.0000 20.2780 0.0000
# 6 0.0000 0.0000 0.0000 0.0000 0.0000 23.4723
#
#
#
# Elastic Compliance Matrix: (Units=1/GPa)
#
#
# Indices 1 2 3 4 5 6 
#
# 1 0.011547 -0.002410 -0.002915 0.000000 0.000000 0.000000
# 2 -0.002410 0.013141 -0.003406 0.000000 0.000000 0.000000
# 3 -0.002915 -0.003406 0.010922 0.000000 0.000000 0.000000
# 4 0.000000 0.000000 0.000000 0.026938 0.000000 0.000000
# 5 0.000000 0.000000 0.000000 0.000000 0.049315 0.000000
# 6 0.000000 0.000000 0.000000 0.000000 0.000000 0.042603
#
#
# Mechanical properties :
#
#
# Convention : Reuss Voigt Hill
#
# Bulk Modulus (GPa) = 55.10574 55.85965 55.48270
# Shear Modulus (GPa) = 28.09331 29.82949 28.96140
#
# Velocity S-wave (km/s) = 3.78976 3.90511 3.84786
# Velocity P-wave (km/s) = 6.87907 6.99218 6.93585
#
# Compressibility (1/GPa) = 0.01814693
#
# Stress axis : x y z
#
# Youngs Moduli (GPa) = 86.60274 76.09924 91.55662
#
# Poissons Ratio (x) = 0.18339 0.26691
# Poissons Ratio (y) = 0.20870 0.31188
# Poissons Ratio (z) = 0.25247 0.25922
#
# Static dielectric constant tensor:
#      x y z
#    x 3.101460 0.000000 0.000000 
#    y 0.000000 3.932520 0.000000 
#    z 0.000000 0.000000 4.180960 
# 
# 
# High freq. dielectric constant tensor:
#      x y z
#    x 1.711190 0.000000 0.000000 
#    y 0.000000 1.786030 0.000000 
#    z 0.000000 0.000000 1.785720 
# 
# From -- ./inp_files/13268.got.cif
#   From: 2010.06.25/outbox.cif.g09.slc.cpg/sg48_7_cif.got.tgz:13268.got - 2010.06.26 18:06:46.
