data_PCOD8201614
_publ_section_title
;
Structure prediction by ZEFSAII (Michael W. Deem and Ramdas Pophale) SiO2 
 PCOD8201614
Probable space group: P N N N
;
_chemical_formula_sum "Si O2"
_cell_formula_units_Z 36
_cell_length_a 8.616486
_cell_length_b 12.120277
_cell_length_c 14.234121
_cell_angle_alpha 90.000000
_cell_angle_beta 90.000000
_cell_angle_gamma 90.000000
_cell_volume 1486.528998
_symmetry_space_group_name_H-M "P N N N"
_symmetry_group_IT_number 48
_space_group.IT_coordinate_system_code '2'
_symmetry_cell_setting 'orthorhombic'
loop_
_space_group_symop_operation_xyz
x,y,z
1/2-x,1/2-y,z
x,1/2-y,1/2-z
1/2-x,y,1/2-z
-x,-y,-z
1/2+x,1/2+y,-z
-x,1/2+y,1/2+z
1/2+x,-y,1/2+z
loop_
_atom_site_type_symbol
_atom_site_label
_atom_site_fract_x
_atom_site_fract_y
_atom_site_fract_z
Si Si1 0.828137 0.595370 0.491975
Si Si2 0.250000 0.750000 0.127047
Si Si3 0.074919 0.870760 0.718274
Si Si4 0.995681 0.815019 0.514909
Si Si5 0.437292 0.547851 0.154576
O O1 0.929885 0.693451 0.539141
O O2 0.648098 0.616800 0.474079
O O3 0.840100 0.495751 0.565227
O O4 0.891915 0.572518 0.387140
O O5 0.346843 0.659313 0.189135
O O6 0.371342 0.814582 0.062240
O O7 0.018589 0.750000 0.750000
O O8 0.250000 0.894394 0.750000
O O9 0.066111 0.874729 0.606067
O O10 0.955470 0.962219 0.759701
#
# Coordination Sequence:
#
# PCOD8201614 Si02
#       5
#     8   4   8   8   8
#     4   9  20  37  64  95 135 172 224 278 333 413
#     4  10  22  40  69  95 136 186 236 272 330 425
#     4  11  22  37  63 102 143 173 213 298 359 399
#     4  10  20  38  64 100 129 176 225 279 345 399
#     4  10  21  40  61  99 136 178 226 279 340 413
#
# _framework density 24.217489
#
# number of rings (size 3 to 8) (size 9 to 14) (size 15 to 20)
#    0.000    2.000    2.222    1.333    6.222    1.778 
#    0.000    0.000    0.000    2.667   17.333    0.000 
#    0.000    0.000    0.000    0.000    0.000    0.000 
#
# Total GULP energy -446337.043326 kJ/mol
# GULP energy per Si atom -12398.251204 kJ/mol
# Density = 2.416237 g / cm^3
# Si number density = 24.217489 Si / 1000 Ang^3
#
#
#
# Elastic Constant Matrix: (Units=GPa)
#
#
# Indices 1 2 3 4 5 6 
#
# 1 136.7247 49.5410 37.1884 0.0000 0.0000 0.0000
# 2 49.5410 128.7308 35.3695 0.0000 0.0000 0.0000
# 3 37.1884 35.3695 94.6357 0.0000 0.0000 0.0000
# 4 0.0000 0.0000 0.0000 32.5875 0.0000 0.0000
# 5 0.0000 0.0000 0.0000 0.0000 21.0676 0.0000
# 6 0.0000 0.0000 0.0000 0.0000 0.0000 44.2991
#
#
#
# Elastic Compliance Matrix: (Units=1/GPa)
#
#
# Indices 1 2 3 4 5 6 
#
# 1 0.009000 -0.002777 -0.002499 0.000000 0.000000 0.000000
# 2 -0.002777 0.009514 -0.002465 0.000000 0.000000 0.000000
# 3 -0.002499 -0.002465 0.012470 0.000000 0.000000 0.000000
# 4 0.000000 0.000000 0.000000 0.030687 0.000000 0.000000
# 5 0.000000 0.000000 0.000000 0.000000 0.047466 0.000000
# 6 0.000000 0.000000 0.000000 0.000000 0.000000 0.022574
#
#
# Mechanical properties :
#
#
# Convention : Reuss Voigt Hill
#
# Bulk Modulus (GPa) = 64.50290 67.14323 65.82306
# Shear Modulus (GPa) = 32.81734 35.45700 34.13717
#
# Velocity S-wave (km/s) = 3.68517 3.83052 3.75855
# Velocity P-wave (km/s) = 6.69328 6.88107 6.78782
#
# Compressibility (1/GPa) = 0.01550318
#
# Stress axis : x y z
#
# Youngs Moduli (GPa) = 111.11337 105.10838 80.19336
#
# Poissons Ratio (x) = 0.29188 0.20038
# Poissons Ratio (y) = 0.30856 0.19764
# Poissons Ratio (z) = 0.27764 0.25904
#
# Static dielectric constant tensor:
#      x y z
#    x 4.266180 0.000000 0.000000 
#    y 0.000000 4.568860 0.000000 
#    z 0.000000 0.000000 3.905600 
# 
# 
# High freq. dielectric constant tensor:
#      x y z
#    x 1.967460 0.000000 0.000000 
#    y 0.000000 1.970860 0.000000 
#    z 0.000000 0.000000 1.940180 
# 
# From -- ./inp_files/25027.got.cif
#   From: 2010.06.25/outbox.cif.g09.slc.cpg/sg48_13_cif.got.tgz:25027.got - 2010.06.26 18:06:46.
