data_PCOD8201239
_publ_section_title
;
Structure prediction by ZEFSAII (Michael W. Deem and Ramdas Pophale) SiO2 
 PCOD8201239
Probable space group: P M M M
;
_chemical_formula_sum "Si O2"
_cell_formula_units_Z 64
_cell_length_a 24.000000
_cell_length_b 9.000000
_cell_length_c 15.000000
_cell_angle_alpha 90.000000
_cell_angle_beta 90.000000
_cell_angle_gamma 90.000000
_cell_volume 3240.000000
_symmetry_space_group_name_H-M "P M M M"
_symmetry_group_IT_number 47
_symmetry_cell_setting 'orthorhombic'
loop_
_space_group_symop_operation_xyz
x,y,z
-x,-y,z
x,-y,-z
-x,y,-z
-x,-y,-z
x,y,-z
-x,y,z
x,-y,z
loop_
_atom_site_type_symbol
_atom_site_label
_atom_site_fract_x
_atom_site_fract_y
_atom_site_fract_z
Si Si1 0.561620 0.168244 0.765833
Si Si2 0.140021 0.172260 0.228503
Si Si3 0.752786 0.335221 0.171865
Si Si4 0.282578 0.335189 0.631943
Si Si5 0.597935 0.673531 0.597961
Si Si6 0.162891 0.325706 0.597253
Si Si7 0.640856 0.328125 0.098777
Si Si8 0.934513 0.665998 0.099323
O O1 0.500000 0.182734 0.807715
O O2 0.559851 0.248605 0.670574
O O3 0.605613 0.233448 0.833397
O O4 0.578733 0.000000 0.748362
O O5 0.195649 0.224320 0.177747
O O6 0.128640 0.247466 0.324525
O O7 0.088436 0.211349 0.166257
O O8 0.143681 0.000000 0.245367
O O9 0.776519 0.500000 0.150478
O O10 0.717204 0.337153 0.261935
O O11 0.706727 0.284211 0.099835
O O12 0.282856 0.500000 0.590951
O O13 0.339326 0.256099 0.600158
O O14 0.225788 0.257890 0.596869
O O15 0.572013 0.700115 0.500000
O O16 0.600774 0.500000 0.621930
O O17 0.135396 0.296823 0.500000
O O18 0.165109 0.500000 0.620508
O O19 0.634530 0.500000 0.125199
O O20 0.618122 0.296452 0.000000
O O21 0.916967 0.500000 0.129958
O O22 0.000000 0.682087 0.099139
O O23 0.911267 0.696369 0.000000
#
# Coordination Sequence:
#
# PCOD8201239 Si02
#       8
#     8   8   8   8   8   8   8   8
#     4  11  25  42  57  75 107 147 179 216 271 337
#     4  11  22  33  51  84 124 158 185 222 276 335
#     4   9  17  33  55  79 111 147 182 219 264 322
#     4   8  13  26  50  77 104 134 171 218 267 313
#     4  10  19  33  57  85 108 134 176 228 275 320
#     4   9  17  31  52  77 109 152 197 235 271 316
#     4  10  21  39  64  88 106 132 177 232 282 325
#     4   9  19  38  63  86 108 142 193 246 286 324
#
# _framework density 19.753086
#
# number of rings (size 3 to 8) (size 9 to 14) (size 15 to 20)
#    0.000    2.375    1.250    3.000    0.000    5.250 
#    0.000    4.375    0.000    1.875    0.000    2.625 
#    0.000    0.000    0.000    0.000    0.000    0.000 
#
# Total GULP energy -793124.775739 kJ/mol
# GULP energy per Si atom -12392.574621 kJ/mol
# Density = 1.970813 g / cm^3
# Si number density = 19.753086 Si / 1000 Ang^3
#
#
#
# Elastic Constant Matrix: (Units=GPa)
#
#
# Indices 1 2 3 4 5 6 
#
# 1 45.5762 33.6289 38.9980 0.0000 0.0000 0.0000
# 2 33.6289 84.3068 52.8604 0.0000 0.0000 0.0000
# 3 38.9980 52.8604 96.5013 0.0000 0.0000 0.0000
# 4 0.0000 0.0000 0.0000 0.1842 0.0000 0.0000
# 5 0.0000 0.0000 0.0000 0.0000 -20.5859 0.0000
# 6 0.0000 0.0000 0.0000 0.0000 0.0000 59.4442
#
#
#
# Elastic Compliance Matrix: (Units=1/GPa)
#
#
# Indices 1 2 3 4 5 6 
#
# 1 0.036903 -0.008179 -0.010433 0.000000 0.000000 0.000000
# 2 -0.008179 0.019879 -0.007584 0.000000 0.000000 0.000000
# 3 -0.010433 -0.007584 0.018733 0.000000 0.000000 0.000000
# 4 0.000000 0.000000 0.000000 5.427914 0.000000 0.000000
# 5 0.000000 0.000000 0.000000 0.000000 -0.048577 0.000000
# 6 0.000000 0.000000 0.000000 0.000000 0.000000 0.016822
#
#
# Mechanical properties :
#
#
# Convention : Reuss Voigt Hill
#
# Bulk Modulus (GPa) = 43.24578 53.03990 48.14284
# Shear Modulus (GPa) = 0.90387 14.53497 7.71942
#
# Velocity S-wave (km/s) = 0.67718 2.71557 1.97900
# Velocity P-wave (km/s) = 4.74891 6.06153 5.44492
#
# Compressibility (1/GPa) = 0.02312364
#
# Stress axis : x y z
#
# Youngs Moduli (GPa) = 27.09777 50.30460 53.38127
#
# Poissons Ratio (x) = 0.41142 0.55695
# Poissons Ratio (y) = 0.22162 0.40484
# Poissons Ratio (z) = 0.28272 0.38151
#
# Static dielectric constant tensor:
#      x y z
#    x 3.314440 0.000000 0.000000 
#    y 0.000000 3.256190 0.000000 
#    z 0.000000 0.000000 3.660150 
# 
# 
# High freq. dielectric constant tensor:
#      x y z
#    x 1.745090 0.000000 0.000000 
#    y 0.000000 1.729220 0.000000 
#    z 0.000000 0.000000 1.769380 
# 
# From -- ./inp_files/25534.got.cif
#   From: 2010.03.12/outbox.ucp.g09.slc.cvg/sg47_13_cif.got.tgz:25534.got - 2010.05.04 21:26:29.
