data_PCOD8201171
_publ_section_title
;
Structure prediction by ZEFSAII (Michael W. Deem and Ramdas Pophale) SiO2 
 PCOD8201171
Probable space group: P M M M
;
_chemical_formula_sum "Si O2"
_cell_formula_units_Z 36
_cell_length_a 7.818290
_cell_length_b 11.857050
_cell_length_c 22.483351
_cell_angle_alpha 90.000000
_cell_angle_beta 90.000000
_cell_angle_gamma 90.000000
_cell_volume 2084.248354
_symmetry_space_group_name_H-M "P M M M"
_symmetry_group_IT_number 47
_symmetry_cell_setting 'orthorhombic'
loop_
_space_group_symop_operation_xyz
x,y,z
-x,-y,z
x,-y,-z
-x,y,-z
-x,-y,-z
x,y,-z
-x,y,z
x,-y,z
loop_
_atom_site_type_symbol
_atom_site_label
_atom_site_fract_x
_atom_site_fract_y
_atom_site_fract_z
Si Si1 0.310541 0.866238 0.854479
Si Si2 0.796393 0.500000 0.432313
Si Si3 0.203612 0.262587 0.612591
Si Si4 0.000000 0.134779 0.067078
Si Si5 0.797001 0.871590 0.726027
Si Si6 0.795953 0.126132 0.500000
O O1 0.500000 0.828147 0.875525
O O2 0.168953 0.817351 0.899792
O O3 0.278244 0.823067 0.787539
O O4 0.293756 0.000000 0.853835
O O5 0.725086 0.500000 0.500000
O O6 0.729985 0.390458 0.396403
O O7 0.000000 0.500000 0.435466
O O8 0.273727 0.209383 0.673868
O O9 0.274971 0.188650 0.558196
O O10 0.000000 0.259153 0.612797
O O11 0.000000 0.000000 0.067295
O O12 0.000000 0.181604 0.000000
O O13 0.000000 0.868330 0.730218
O O14 0.735628 0.000000 0.713813
O O15 0.000000 0.126601 0.500000
O O16 0.723214 0.000000 0.500000
#
# Coordination Sequence:
#
# PCOD8201171 Si02
#       6
#     8   4   8   4   8   4
#     4   9  16  26  40  58  83 117 152 184 220 261
#     4   9  14  22  32  46  75 109 139 177 229 282
#     4   9  15  21  32  49  72 106 141 180 227 272
#     4   9  16  26  40  60  88 120 153 186 214 248
#     4   9  15  24  37  54  78 108 144 184 225 266
#     4   9  14  19  27  45  72  99 135 181 226 268
#
# _framework density 17.272414000000001
#
# number of rings (size 3 to 8) (size 9 to 14) (size 15 to 20)
#    0.000    3.000    2.222    0.667    0.000    3.111 
#    0.000    2.222    0.000    0.000    0.000    1.556 
#    0.000    5.333    0.000    2.000    0.000    3.778 
#
# Total GULP energy -446203.889714 kJ/mol
# GULP energy per Si atom -12394.552492 kJ/mol
# Density = 1.723310 g / cm^3
# Si number density = 17.272414 Si / 1000 Ang^3
#
#
#
# Elastic Constant Matrix: (Units=GPa)
#
#
# Indices 1 2 3 4 5 6 
#
# 1 62.4929 16.4527 53.1686 0.0000 0.0000 0.0000
# 2 16.4527 90.2981 51.4429 0.0000 0.0000 0.0000
# 3 53.1686 51.4429 161.2699 0.0000 0.0000 0.0000
# 4 0.0000 0.0000 0.0000 6.7216 0.0000 0.0000
# 5 0.0000 0.0000 0.0000 0.0000 2.1038 0.0000
# 6 0.0000 0.0000 0.0000 0.0000 0.0000 1.2277
#
#
#
# Elastic Compliance Matrix: (Units=1/GPa)
#
#
# Indices 1 2 3 4 5 6 
#
# 1 0.022242 0.000153 -0.007382 0.000000 0.000000 0.000000
# 2 0.000153 0.013535 -0.004368 0.000000 0.000000 0.000000
# 3 -0.007382 -0.004368 0.010028 0.000000 0.000000 0.000000
# 4 0.000000 0.000000 0.000000 0.148774 0.000000 0.000000
# 5 0.000000 0.000000 0.000000 0.000000 0.475328 0.000000
# 6 0.000000 0.000000 0.000000 0.000000 0.000000 0.814515
#
#
# Mechanical properties :
#
#
# Convention : Reuss Voigt Hill
#
# Bulk Modulus (GPa) = 44.22607 61.79884 53.01245
# Shear Modulus (GPa) = 3.30000 14.87708 9.08854
#
# Velocity S-wave (km/s) = 1.38373 2.93801 2.29637
# Velocity P-wave (km/s) = 5.31164 6.88228 6.14733
#
# Compressibility (1/GPa) = 0.02261110
#
# Stress axis : x y z
#
# Youngs Moduli (GPa) = 44.96048 73.88279 99.72428
#
# Poissons Ratio (x) = -0.01128 0.73612
# Poissons Ratio (y) = -0.00687 0.43558
# Poissons Ratio (z) = 0.33188 0.32271
#
# Static dielectric constant tensor:
#      x y z
#    x 2.969360 0.000000 0.000000 
#    y 0.000000 2.990550 0.000000 
#    z 0.000000 0.000000 3.366820 
# 
# 
# High freq. dielectric constant tensor:
#      x y z
#    x 1.646960 0.000000 0.000000 
#    y 0.000000 1.611000 0.000000 
#    z 0.000000 0.000000 1.664760 
# 
# From -- ./inp_files/18861.got.cif
#   From: 2010.03.12/outbox.cif.g09.slc.cpg/sg47_10_cif.got.tgz:18861.got - 2010.04.14 03:12:58.
