data_PCOD8201030
_publ_section_title
;
Structure prediction by ZEFSAII (Michael W. Deem and Ramdas Pophale) SiO2 
 PCOD8201030
Probable space group: P M M M
;
_chemical_formula_sum "Si O2"
_cell_formula_units_Z 44
_cell_length_a 10.102280
_cell_length_b 28.985908
_cell_length_c 7.718808
_cell_angle_alpha 90.000000
_cell_angle_beta 90.000000
_cell_angle_gamma 90.000000
_cell_volume 2260.250371
_symmetry_space_group_name_H-M "P M M M"
_symmetry_group_IT_number 47
_symmetry_cell_setting 'orthorhombic'
loop_
_space_group_symop_operation_xyz
x,y,z
-x,-y,z
x,-y,-z
-x,y,-z
-x,-y,-z
x,y,-z
-x,y,z
x,-y,z
loop_
_atom_site_type_symbol
_atom_site_label
_atom_site_fract_x
_atom_site_fract_y
_atom_site_fract_z
Si Si1 0.343190 0.114635 0.308167
Si Si2 0.848592 0.705584 0.293401
Si Si3 0.341796 0.052110 0.000000
Si Si4 0.753650 0.607103 0.293880
Si Si5 0.352057 0.782198 0.705386
Si Si6 0.500000 0.447053 0.293184
Si Si7 0.000000 0.550998 0.706808
O O1 0.283123 0.104695 0.500000
O O2 0.500000 0.110512 0.319614
O O3 0.286146 0.077773 0.171142
O O4 0.306861 0.166133 0.243480
O O5 0.853328 0.706285 0.500000
O O6 0.775587 0.659218 0.226713
O O7 0.758661 0.747381 0.219557
O O8 0.000000 0.708891 0.222511
O O9 0.500000 0.053220 0.000000
O O10 0.287816 0.000000 0.000000
O O11 0.750130 0.607244 0.500000
O O12 0.623254 0.582294 0.220610
O O13 0.873098 0.576997 0.220718
O O14 0.359061 0.777881 0.500000
O O15 0.500000 0.771324 0.779935
O O16 0.500000 0.500000 0.222750
O O17 0.500000 0.448850 0.500000
O O18 0.000000 0.500000 0.784088
O O19 0.000000 0.550391 0.500000
#
# Coordination Sequence:
#
# PCOD8201030 Si02
#       7
#     8   8   4   8   8   4   4
#     4   8  14  25  38  56  85 118 154 193 231 276
#     4   9  15  22  31  46  66  86 117 166 220 269
#     4   9  16  24  38  62  91 125 159 191 232 277
#     4   9  15  21  27  37  53  75 108 157 210 256
#     4   8  14  23  36  51  70 101 134 168 215 267
#     4   9  16  22  26  34  50  76 114 159 205 256
#     4   9  14  20  28  34  46  74 110 149 203 262
#
# _framework density 19.46687
#
# number of rings (size 3 to 8) (size 9 to 14) (size 15 to 20)
#    0.000    3.364    0.909    1.636    1.273    2.545 
#    0.000    1.818    0.000    0.000    0.000    0.636 
#    0.000    1.455    0.000    7.091    0.000    7.273 
#
# Total GULP energy -545203.488509 kJ/mol
# GULP energy per Si atom -12390.988375 kJ/mol
# Density = 1.942256 g / cm^3
# Si number density = 19.466870 Si / 1000 Ang^3
#
#
#
# Elastic Constant Matrix: (Units=GPa)
#
#
# Indices 1 2 3 4 5 6 
#
# 1 125.4447 81.5137 15.5249 0.0000 0.0000 0.0000
# 2 81.5137 198.5477 41.1971 0.0000 0.0000 0.0000
# 3 15.5249 41.1971 42.8688 0.0000 0.0000 0.0000
# 4 0.0000 0.0000 0.0000 -7.2077 0.0000 0.0000
# 5 0.0000 0.0000 0.0000 0.0000 -1.6555 0.0000
# 6 0.0000 0.0000 0.0000 0.0000 0.0000 35.6963
#
#
#
# Elastic Compliance Matrix: (Units=1/GPa)
#
#
# Indices 1 2 3 4 5 6 
#
# 1 0.010879 -0.004558 0.000440 0.000000 0.000000 0.000000
# 2 -0.004558 0.008200 -0.006230 0.000000 0.000000 0.000000
# 3 0.000440 -0.006230 0.029155 0.000000 0.000000 0.000000
# 4 0.000000 0.000000 0.000000 -0.138741 0.000000 0.000000
# 5 0.000000 0.000000 0.000000 0.000000 -0.604065 0.000000
# 6 0.000000 0.000000 0.000000 0.000000 0.000000 0.028014
#
#
# Mechanical properties :
#
#
# Convention : Reuss Voigt Hill
#
# Bulk Modulus (GPa) = 36.31245 71.48140 53.89693
# Shear Modulus (GPa) = -7.85319 20.60834 6.37757
#
# Velocity S-wave (km/s) = -2.01069 3.25720 1.81197
# Velocity P-wave (km/s) = 3.64739 7.13758 5.66782
#
# Compressibility (1/GPa) = 0.02753876
#
# Stress axis : x y z
#
# Youngs Moduli (GPa) = 91.92311 121.94574 34.29972
#
# Poissons Ratio (x) = 0.55577 -0.01510
# Poissons Ratio (y) = 0.41894 0.21369
# Poissons Ratio (z) = -0.04046 0.75973
#
# Static dielectric constant tensor:
#      x y z
#    x 3.562950 0.000000 0.000000 
#    y 0.000000 3.812350 0.000000 
#    z 0.000000 0.000000 3.125140 
# 
# 
# High freq. dielectric constant tensor:
#      x y z
#    x 1.722560 0.000000 0.000000 
#    y 0.000000 1.762550 0.000000 
#    z 0.000000 0.000000 1.714630 
# 
# From -- ./inp_files/2370.got.cif
#   From: 2010.03.12/outbox.cif.g09.slc.cpg/sg47_2_cif.got.tgz:2370.got - 2010.04.14 03:12:58.
