data_PCOD8201679
_publ_section_title
;
Structure prediction by ZEFSAII (Michael W. Deem and Ramdas Pophale) SiO2 
 PCOD8201679
Probable space group: P N N N
;
_chemical_formula_sum "Si O2"
_cell_formula_units_Z 36
_cell_length_a 19.965653
_cell_length_b 5.052220
_cell_length_c 18.132353
_cell_angle_alpha 90.000000
_cell_angle_beta 90.000000
_cell_angle_gamma 90.000000
_cell_volume 1829.026248
_symmetry_space_group_name_H-M "P N N N"
_symmetry_group_IT_number 48
_space_group.IT_coordinate_system_code '2'
_symmetry_cell_setting 'orthorhombic'
loop_
_space_group_symop_operation_xyz
x,y,z
1/2-x,1/2-y,z
x,1/2-y,1/2-z
1/2-x,y,1/2-z
-x,-y,-z
1/2+x,1/2+y,-z
-x,1/2+y,1/2+z
1/2+x,-y,1/2+z
loop_
_atom_site_type_symbol
_atom_site_label
_atom_site_fract_x
_atom_site_fract_y
_atom_site_fract_z
Si Si1 0.349540 0.502793 0.289952
Si Si2 0.977910 0.750000 0.750000
Si Si3 0.027873 0.761292 0.907006
Si Si4 0.794357 0.506655 0.946626
Si Si5 0.416317 0.254988 0.522818
O O1 0.316293 0.750000 0.250000
O O2 0.429876 0.492379 0.275594
O O3 0.339471 0.556515 0.376182
O O4 0.315028 0.250000 0.250000
O O5 0.023790 0.822303 0.819992
O O6 0.047381 0.458957 0.922685
O O7 0.083911 0.966595 0.938243
O O8 0.955361 0.798089 0.945801
O O9 0.750000 0.750000 0.920920
O O10 0.750000 0.250000 0.971452
O O11 0.842453 0.621296 0.010842
#
# Coordination Sequence:
#
# PCOD8201679 Si02
#       5
#     8   4   8   8   8
#     4  10  22  35  52  78 124 148 195 231 289 352
#     4  10  22  36  59  90 117 158 182 254 292 378
#     4  10  21  34  63  78 123 144 196 238 313 338
#     4  12  24  38  58  80 116 162 207 241 283 352
#     4  10  21  39  53  88 108 161 190 249 284 359
#
# _framework density 19.682603
#
# number of rings (size 3 to 8) (size 9 to 14) (size 15 to 20)
#    0.667    0.889    2.222    2.667    3.111    4.444 
#    0.000    0.000    0.000    0.000    0.000   11.667 
#    0.000    0.000    0.000    0.000    0.000    0.000 
#
# Total GULP energy -446035.653405 kJ/mol
# GULP energy per Si atom -12389.879261 kJ/mol
# Density = 1.963780 g / cm^3
# Si number density = 19.682603 Si / 1000 Ang^3
#
#
#
# Elastic Constant Matrix: (Units=GPa)
#
#
# Indices 1 2 3 4 5 6 
#
# 1 63.4314 23.5710 38.2022 0.0000 0.0000 0.0000
# 2 23.5710 126.1972 23.8764 0.0000 0.0000 0.0000
# 3 38.2022 23.8764 113.8897 0.0000 0.0000 0.0000
# 4 0.0000 0.0000 0.0000 19.8073 0.0000 0.0000
# 5 0.0000 0.0000 0.0000 0.0000 10.7116 0.0000
# 6 0.0000 0.0000 0.0000 0.0000 0.0000 120.7063
#
#
#
# Elastic Compliance Matrix: (Units=1/GPa)
#
#
# Indices 1 2 3 4 5 6 
#
# 1 0.020568 -0.002641 -0.006346 0.000000 0.000000 0.000000
# 2 -0.002641 0.008591 -0.000915 0.000000 0.000000 0.000000
# 3 -0.006346 -0.000915 0.011101 0.000000 0.000000 0.000000
# 4 0.000000 0.000000 0.000000 0.050486 0.000000 0.000000
# 5 0.000000 0.000000 0.000000 0.000000 0.093357 0.000000
# 6 0.000000 0.000000 0.000000 0.000000 0.000000 0.008285
#
#
# Mechanical properties :
#
#
# Convention : Reuss Voigt Hill
#
# Bulk Modulus (GPa) = 48.88527 52.75750 50.82139
# Shear Modulus (GPa) = 22.83009 44.76961 33.79985
#
# Velocity S-wave (km/s) = 3.40944 4.77443 4.14846
# Velocity P-wave (km/s) = 6.35530 7.56676 6.98733
#
# Compressibility (1/GPa) = 0.02045606
#
# Stress axis : x y z
#
# Youngs Moduli (GPa) = 48.61884 116.40709 90.08407
#
# Poissons Ratio (x) = 0.30745 0.57163
# Poissons Ratio (y) = 0.12841 0.08243
# Poissons Ratio (z) = 0.30851 0.10652
#
# Static dielectric constant tensor:
#      x y z
#    x 3.329640 0.000000 0.000000 
#    y 0.000000 3.742700 0.000000 
#    z 0.000000 0.000000 2.961960 
# 
# 
# High freq. dielectric constant tensor:
#      x y z
#    x 1.734860 0.000000 0.000000 
#    y 0.000000 1.783040 0.000000 
#    z 0.000000 0.000000 1.740070 
# 
# From -- ./inp_files/32109.got.cif
#   From: 2010.06.25/outbox.cif.g09.slc.cpg/sg48_17_cif.got.tgz:32109.got - 2010.06.26 18:06:46.
