data_PCOD8201736
_publ_section_title
;
Structure prediction by ZEFSAII (Michael W. Deem and Ramdas Pophale) SiO2 
 PCOD8201736
Probable space group: P N N N
;
_chemical_formula_sum "Si O2"
_cell_formula_units_Z 56
_cell_length_a 11.533779
_cell_length_b 11.339893
_cell_length_c 21.809567
_cell_angle_alpha 90.000000
_cell_angle_beta 90.000000
_cell_angle_gamma 90.000000
_cell_volume 2852.512956
_symmetry_space_group_name_H-M "P N N N"
_symmetry_group_IT_number 48
_space_group.IT_coordinate_system_code '2'
_symmetry_cell_setting 'orthorhombic'
loop_
_space_group_symop_operation_xyz
x,y,z
1/2-x,1/2-y,z
x,1/2-y,1/2-z
1/2-x,y,1/2-z
-x,-y,-z
1/2+x,1/2+y,-z
-x,1/2+y,1/2+z
1/2+x,-y,1/2+z
loop_
_atom_site_type_symbol
_atom_site_label
_atom_site_fract_x
_atom_site_fract_y
_atom_site_fract_z
Si Si1 0.535045 0.530627 0.066692
Si Si2 0.122281 0.212424 0.570879
Si Si3 0.702133 0.383517 0.141074
Si Si4 0.992633 0.616798 0.733731
Si Si5 0.392692 0.152776 0.069040
Si Si6 0.941561 0.006139 0.355065
Si Si7 0.845707 0.600981 0.625491
O O1 0.550421 0.669360 0.070594
O O2 0.647022 0.447390 0.081293
O O3 0.421680 0.511452 0.108048
O O4 0.500000 0.500000 0.000000
O O5 0.250000 0.250000 0.591619
O O6 0.125456 0.148224 0.504161
O O7 0.061547 0.128357 0.621411
O O8 0.750000 0.250000 0.130052
O O9 0.604488 0.407677 0.191849
O O10 0.812238 0.457319 0.161836
O O11 0.013910 0.750000 0.750000
O O12 0.985770 0.528499 0.792316
O O13 0.868107 0.611237 0.698577
O O14 0.287321 0.088514 0.105604
O O15 0.402174 0.287034 0.090717
O O16 0.508757 0.085643 0.089114
#
# Coordination Sequence:
#
# PCOD8201736 Si02
#       7
#     8   8   8   8   8   8   8
#     4  11  21  40  63  87 126 173 211 255 327 403
#     4  12  23  41  62  92 133 172 210 267 326 401
#     4  11  22  36  62  92 123 161 213 269 325 378
#     4  11  21  38  61  92 129 159 212 272 323 390
#     4  11  21  41  64  95 129 157 218 280 323 393
#     4  12  24  38  60  95 130 166 208 268 335 383
#     4  10  21  38  64  90 122 167 213 264 326 381
#
# _framework density 19.631813000000001
#
# number of rings (size 3 to 8) (size 9 to 14) (size 15 to 20)
#    0.000    0.857    7.143    1.714    0.000    0.571 
#    0.000    3.571    0.000    0.000    0.000    4.000 
#    0.000    0.000    0.000    0.000    0.000    0.000 
#
# Total GULP energy -693870.301482 kJ/mol
# GULP energy per Si atom -12390.541098 kJ/mol
# Density = 1.958713 g / cm^3
# Si number density = 19.631813 Si / 1000 Ang^3
#
#
#
# Elastic Constant Matrix: (Units=GPa)
#
#
# Indices 1 2 3 4 5 6 
#
# 1 68.5291 25.7283 26.7712 0.0000 0.0000 0.0000
# 2 25.7283 99.3266 45.6687 0.0000 0.0000 0.0000
# 3 26.7712 45.6687 97.5860 0.0000 0.0000 0.0000
# 4 0.0000 0.0000 0.0000 23.4542 0.0000 0.0000
# 5 0.0000 0.0000 0.0000 0.0000 29.6011 0.0000
# 6 0.0000 0.0000 0.0000 0.0000 0.0000 19.3591
#
#
#
# Elastic Compliance Matrix: (Units=1/GPa)
#
#
# Indices 1 2 3 4 5 6 
#
# 1 0.016964 -0.002872 -0.003309 0.000000 0.000000 0.000000
# 2 -0.002872 0.013314 -0.005443 0.000000 0.000000 0.000000
# 3 -0.003309 -0.005443 0.013702 0.000000 0.000000 0.000000
# 4 0.000000 0.000000 0.000000 0.042636 0.000000 0.000000
# 5 0.000000 0.000000 0.000000 0.000000 0.033783 0.000000
# 6 0.000000 0.000000 0.000000 0.000000 0.000000 0.051655
#
#
# Mechanical properties :
#
#
# Convention : Reuss Voigt Hill
#
# Bulk Modulus (GPa) = 48.23722 51.30869 49.77295
# Shear Modulus (GPa) = 24.72622 25.63445 25.18034
#
# Velocity S-wave (km/s) = 3.55279 3.61745 3.58527
# Velocity P-wave (km/s) = 6.43848 6.60607 6.52281
#
# Compressibility (1/GPa) = 0.02073088
#
# Stress axis : x y z
#
# Youngs Moduli (GPa) = 58.94977 75.10671 72.97947
#
# Poissons Ratio (x) = 0.21574 0.24152
# Poissons Ratio (y) = 0.16933 0.39722
# Poissons Ratio (z) = 0.19509 0.40880
#
# Static dielectric constant tensor:
#      x y z
#    x 3.662660 0.000000 0.000000 
#    y 0.000000 3.164040 0.000000 
#    z 0.000000 0.000000 7.315110 
# 
# 
# High freq. dielectric constant tensor:
#      x y z
#    x 1.767850 0.000000 0.000000 
#    y 0.000000 1.747180 0.000000 
#    z 0.000000 0.000000 1.766710 
# 
# From -- ./inp_files/20256.got.cif
#   From: 2010.06.25/outbox.cif.g09.slc.cpg/sg48_11_cif.got.tgz:20256.got - 2010.06.26 18:06:46.
