data_PCOD8201568
_publ_section_title
;
Structure prediction by ZEFSAII (Michael W. Deem and Ramdas Pophale) SiO2 
 PCOD8201568
Probable space group: P N N N
;
_chemical_formula_sum "Si O2"
_cell_formula_units_Z 56
_cell_length_a 27.590861
_cell_length_b 12.639390
_cell_length_c 8.767893
_cell_angle_alpha 90.000000
_cell_angle_beta 90.000000
_cell_angle_gamma 90.000000
_cell_volume 3057.641816
_symmetry_space_group_name_H-M "P N N N"
_symmetry_group_IT_number 48
_space_group.IT_coordinate_system_code '2'
_symmetry_cell_setting 'orthorhombic'
loop_
_space_group_symop_operation_xyz
x,y,z
1/2-x,1/2-y,z
x,1/2-y,1/2-z
1/2-x,y,1/2-z
-x,-y,-z
1/2+x,1/2+y,-z
-x,1/2+y,1/2+z
1/2+x,-y,1/2+z
loop_
_atom_site_type_symbol
_atom_site_label
_atom_site_fract_x
_atom_site_fract_y
_atom_site_fract_z
Si Si1 0.250000 0.369479 0.069869
Si Si2 0.402671 0.867033 0.077644
Si Si3 0.097329 0.632967 0.422356
Si Si4 0.586013 0.750000 0.427619
Si Si5 0.982376 0.250000 0.429864
Si Si6 0.847042 0.553884 0.071680
Si Si7 0.652958 0.553884 0.071680
O O1 0.250000 0.250000 0.002894
O O2 0.250000 0.366886 0.250000
O O3 0.203244 0.432136 0.014306
O O4 0.296756 0.432136 0.014306
O O5 0.408329 0.910823 0.250000
O O6 0.377988 0.750000 0.078586
O O7 0.456186 0.854779 0.000788
O O8 0.369774 0.943184 0.977687
O O9 0.043814 0.645222 0.499212
O O10 0.130227 0.556816 0.522313
O O11 0.571878 0.750000 0.250000
O O12 0.538355 0.750000 0.528982
O O13 0.616635 0.647504 0.473630
O O14 0.616634 0.852498 0.473630
O O15 0.975696 0.250000 0.250000
O O16 0.836378 0.553477 0.250000
#
# Coordination Sequence:
#
# PCOD8201568 Si02
#       7
#     8   8   8   8   8   8   8
#     4  11  23  39  60  87 120 155 191 235 290 347
#     4   9  20  39  60  83 117 155 191 240 292 342
#     4   9  20  39  60  83 117 155 191 240 292 342
#     4  10  22  37  55  86 120 155 192 238 295 342
#     4  10  20  36  59  86 115 154 199 238 283 344
#     4  11  22  38  62  87 117 153 195 242 288 344
#     4  11  22  38  62  87 117 153 195 242 288 344
#
# _framework density 18.314765999999999
#
# number of rings (size 3 to 8) (size 9 to 14) (size 15 to 20)
#    0.857    1.000    1.429    3.000    0.000    4.000 
#    0.000    0.714    0.000    4.286    0.000    0.000 
#    0.000    0.000    0.000    0.000    0.000    0.000 
#
# Total GULP energy -694336.830339 kJ/mol
# GULP energy per Si atom -12398.871970 kJ/mol
# Density = 1.827308 g / cm^3
# Si number density = 18.314766 Si / 1000 Ang^3
#
#
#
# Elastic Constant Matrix: (Units=GPa)
#
#
# Indices 1 2 3 4 5 6 
#
# 1 130.3223 47.3964 44.7181 0.0000 0.0000 0.0000
# 2 47.3964 86.1255 28.2538 0.0000 0.0000 0.0000
# 3 44.7181 28.2538 83.9614 0.0000 0.0000 0.0000
# 4 0.0000 0.0000 0.0000 25.5072 0.0000 0.0000
# 5 0.0000 0.0000 0.0000 0.0000 32.3714 0.0000
# 6 0.0000 0.0000 0.0000 0.0000 0.0000 -610.8341
#
#
#
# Elastic Compliance Matrix: (Units=1/GPa)
#
#
# Indices 1 2 3 4 5 6 
#
# 1 0.010770 -0.004547 -0.004206 0.000000 0.000000 0.000000
# 2 -0.004547 0.014972 -0.002616 0.000000 0.000000 0.000000
# 3 -0.004206 -0.002616 0.015031 0.000000 0.000000 0.000000
# 4 0.000000 0.000000 0.000000 0.039205 0.000000 0.000000
# 5 0.000000 0.000000 0.000000 0.000000 0.030891 0.000000
# 6 0.000000 0.000000 0.000000 0.000000 0.000000 -0.001637
#
#
# Mechanical properties :
#
#
# Convention : Reuss Voigt Hill
#
# Bulk Modulus (GPa) = 55.45203 60.12730 57.78966
# Shear Modulus (GPa) = 36.23658 -98.58836 -31.17589
#
# Velocity S-wave (km/s) = 4.45291 -7.34485 -4.13028
# Velocity P-wave (km/s) = 7.53530 6.24723 2.97934
#
# Compressibility (1/GPa) = 0.01803360
#
# Stress axis : x y z
#
# Youngs Moduli (GPa) = 92.84774 66.79283 66.53011
#
# Poissons Ratio (x) = 0.30373 0.27983
# Poissons Ratio (y) = 0.42220 0.17406
# Poissons Ratio (z) = 0.39053 0.17474
#
# Static dielectric constant tensor:
#      x y z
#    x 3.231150 0.000000 0.000000 
#    y 0.000000 3.308290 0.000000 
#    z 0.000000 0.000000 3.401100 
# 
# 
# High freq. dielectric constant tensor:
#      x y z
#    x 1.703930 0.000000 0.000000 
#    y 0.000000 1.701370 0.000000 
#    z 0.000000 0.000000 1.725610 
# 
# From -- ./inp_files/15279.got.cif
#   From: 2010.06.25/outbox.cif.g09.slc.cpg/sg48_8_cif.got.tgz:15279.got - 2010.06.26 18:06:46.
