data_PCOD8201719
_publ_section_title
;
Structure prediction by ZEFSAII (Michael W. Deem and Ramdas Pophale) SiO2 
 PCOD8201719
Probable space group: P N N N
;
_chemical_formula_sum "Si O2"
_cell_formula_units_Z 38
_cell_length_a 5.038324
_cell_length_b 14.163780
_cell_length_c 28.833872
_cell_angle_alpha 90.000000
_cell_angle_beta 90.000000
_cell_angle_gamma 90.000000
_cell_volume 2057.634490
_symmetry_space_group_name_H-M "P N N N"
_symmetry_group_IT_number 48
_space_group.IT_coordinate_system_code '2'
_symmetry_cell_setting 'orthorhombic'
loop_
_space_group_symop_operation_xyz
x,y,z
1/2-x,1/2-y,z
x,1/2-y,1/2-z
1/2-x,y,1/2-z
-x,-y,-z
1/2+x,1/2+y,-z
-x,1/2+y,1/2+z
1/2+x,-y,1/2+z
loop_
_atom_site_type_symbol
_atom_site_label
_atom_site_fract_x
_atom_site_fract_y
_atom_site_fract_z
Si Si1 0.750000 0.250000 0.250000
Si Si2 0.065072 0.027111 0.405279
Si Si3 0.369394 0.347799 0.490574
Si Si4 0.422391 0.085276 0.573369
Si Si5 0.750000 0.250000 0.941173
Si Si6 0.508885 0.308603 0.338695
O O1 0.566800 0.316195 0.283157
O O2 0.998255 0.092928 0.449431
O O3 0.029580 0.086650 0.358400
O O4 0.366526 0.994021 0.412146
O O5 0.855467 0.940910 0.401593
O O6 0.250000 0.250000 0.470476
O O7 0.139092 0.406209 0.517893
O O8 0.600188 0.327706 0.527730
O O9 0.538220 0.188680 0.589125
O O10 0.250000 0.250000 0.349644
O O11 0.750000 0.250000 0.362815
#
# Coordination Sequence:
#
# PCOD8201719 Si02
#       6
#     2   8   8   8   4   8
#     4   8  22  38  62  80 122 150 166 208 292 352
#     4  12  23  33  56  79 107 136 200 235 267 319
#     4  10  22  34  51  71 107 154 191 232 283 321
#     4  11  23  37  49  75 106 147 189 242 277 317
#     4  10  22  37  50  66 104 152 186 220 295 318
#     4  10  21  38  57  83 113 150 174 215 278 341
#
# _framework density 18.467808000000002
#
# number of rings (size 3 to 8) (size 9 to 14) (size 15 to 20)
#    0.632    0.842    2.105    3.474    7.368    0.000 
#    0.000    0.000    0.000    0.000    0.000    0.000 
#    0.000    5.053    0.000    0.000    0.000    0.000 
#
# Total GULP energy -470816.975625 kJ/mol
# GULP energy per Si atom -12389.920411 kJ/mol
# Density = 1.842577 g / cm^3
# Si number density = 18.467808 Si / 1000 Ang^3
#
#
#
# Elastic Constant Matrix: (Units=GPa)
#
#
# Indices 1 2 3 4 5 6 
#
# 1 115.6225 33.9404 25.2639 0.0000 0.0000 0.0000
# 2 33.9404 70.3995 40.8982 0.0000 0.0000 0.0000
# 3 25.2639 40.8982 74.5435 0.0000 0.0000 0.0000
# 4 0.0000 0.0000 0.0000 31.6749 0.0000 0.0000
# 5 0.0000 0.0000 0.0000 0.0000 -39.2261 0.0000
# 6 0.0000 0.0000 0.0000 0.0000 0.0000 47.2065
#
#
#
# Elastic Compliance Matrix: (Units=1/GPa)
#
#
# Indices 1 2 3 4 5 6 
#
# 1 0.010136 -0.004244 -0.001107 0.000000 0.000000 0.000000
# 2 -0.004244 0.022627 -0.010976 0.000000 0.000000 0.000000
# 3 -0.001107 -0.010976 0.019812 0.000000 0.000000 0.000000
# 4 0.000000 0.000000 0.000000 0.031571 0.000000 0.000000
# 5 0.000000 0.000000 0.000000 0.000000 -0.025493 0.000000
# 6 0.000000 0.000000 0.000000 0.000000 0.000000 0.021184
#
#
# Mechanical properties :
#
#
# Convention : Reuss Voigt Hill
#
# Bulk Modulus (GPa) = 50.19579 51.19671 50.69625
# Shear Modulus (GPa) = 41.97057 18.62859 30.29958
#
# Velocity S-wave (km/s) = 4.77239 3.17946 4.05491
# Velocity P-wave (km/s) = 7.58991 6.42347 7.03092
#
# Compressibility (1/GPa) = 0.01992199
#
# Stress axis : x y z
#
# Youngs Moduli (GPa) = 98.65366 44.19487 50.47408
#
# Poissons Ratio (x) = 0.18755 0.05588
# Poissons Ratio (y) = 0.41866 0.55400
# Poissons Ratio (z) = 0.10922 0.48508
#
# Static dielectric constant tensor:
#      x y z
#    x 3.659750 0.000000 0.000000 
#    y 0.000000 3.372130 0.000000 
#    z 0.000000 0.000000 2.898020 
# 
# 
# High freq. dielectric constant tensor:
#      x y z
#    x 1.746130 0.000000 0.000000 
#    y 0.000000 1.715600 0.000000 
#    z 0.000000 0.000000 1.641720 
# 
# From -- ./inp_files/38292.got.cif
#   From: 2010.06.25/outbox.cif.g09.slc.cpg/sg48_20_cif.got.tgz:38292.got - 2010.06.26 18:06:46.
