data_PCOD8201656
_publ_section_title
;
Structure prediction by ZEFSAII (Michael W. Deem and Ramdas Pophale) SiO2 
 PCOD8201656
Probable space group: P N N N
;
_chemical_formula_sum "Si O2"
_cell_formula_units_Z 56
_cell_length_a 20.638988
_cell_length_b 8.801869
_cell_length_c 14.587650
_cell_angle_alpha 90.000000
_cell_angle_beta 90.000000
_cell_angle_gamma 90.000000
_cell_volume 2650.016841
_symmetry_space_group_name_H-M "P N N N"
_symmetry_group_IT_number 48
_space_group.IT_coordinate_system_code '2'
_symmetry_cell_setting 'orthorhombic'
loop_
_space_group_symop_operation_xyz
x,y,z
1/2-x,1/2-y,z
x,1/2-y,1/2-z
1/2-x,y,1/2-z
-x,-y,-z
1/2+x,1/2+y,-z
-x,1/2+y,1/2+z
1/2+x,-y,1/2+z
loop_
_atom_site_type_symbol
_atom_site_label
_atom_site_fract_x
_atom_site_fract_y
_atom_site_fract_z
Si Si1 0.141691 0.434385 0.346414
Si Si2 0.782947 0.414501 0.334465
Si Si3 0.244865 0.074246 0.479235
Si Si4 0.002978 0.435870 0.898964
Si Si5 0.072009 0.579966 0.740132
Si Si6 0.372658 0.088582 0.141899
Si Si7 0.515621 0.418878 0.905213
O O1 0.207596 0.471692 0.398029
O O2 0.160962 0.441233 0.239653
O O3 0.113542 0.267786 0.372219
O O4 0.090794 0.561446 0.379418
O O5 0.750000 0.250000 0.338432
O O6 0.750000 0.506215 0.250000
O O7 0.766581 0.488954 0.430218
O O8 0.858442 0.412031 0.309093
O O9 0.250000 0.250000 0.502716
O O10 0.172886 0.031630 0.442381
O O11 0.938429 0.494439 0.850067
O O12 0.004470 0.255858 0.907716
O O13 0.065722 0.495969 0.840112
O O14 0.000000 0.500000 0.000000
O O15 0.045397 0.750000 0.750000
O O16 0.025182 0.491452 0.674563
O O17 0.500000 0.500000 0.000000
#
# Coordination Sequence:
#
# PCOD8201656 Si02
#       7
#     8   8   8   8   8   8   8
#     4  10  20  41  66 100 142 178 224 274 345 405
#     4  11  25  48  66  95 130 179 228 278 343 407
#     4  10  23  41  68 103 137 182 231 281 334 407
#     4  12  27  43  67 102 135 181 232 285 344 409
#     4  12  24  46  73  97 135 179 225 285 347 404
#     4  10  21  40  69  99 139 182 222 277 342 411
#     4  12  25  43  66 100 139 179 230 285 341 412
#
# _framework density 21.131941999999999
#
# number of rings (size 3 to 8) (size 9 to 14) (size 15 to 20)
#    0.000    1.000    2.857    4.286    2.000    5.429 
#    2.571    0.000    0.000    2.571    0.000    0.000 
#    0.000    0.000    0.000    0.000    0.000    0.000 
#
# Total GULP energy -694161.544034 kJ/mol
# GULP energy per Si atom -12395.741858 kJ/mol
# Density = 2.108384 g / cm^3
# Si number density = 21.131942 Si / 1000 Ang^3
#
#
#
# Elastic Constant Matrix: (Units=GPa)
#
#
# Indices 1 2 3 4 5 6 
#
# 1 87.1391 35.9750 37.1328 0.0000 0.0000 0.0000
# 2 35.9750 120.4117 55.5518 0.0000 0.0000 0.0000
# 3 37.1328 55.5518 166.1596 0.0000 0.0000 0.0000
# 4 0.0000 0.0000 0.0000 41.2537 0.0000 0.0000
# 5 0.0000 0.0000 0.0000 0.0000 33.5917 0.0000
# 6 0.0000 0.0000 0.0000 0.0000 0.0000 -5.9445
#
#
#
# Elastic Compliance Matrix: (Units=1/GPa)
#
#
# Indices 1 2 3 4 5 6 
#
# 1 0.013626 -0.003152 -0.001991 0.000000 0.000000 0.000000
# 2 -0.003152 0.010549 -0.002822 0.000000 0.000000 0.000000
# 3 -0.001991 -0.002822 0.007407 0.000000 0.000000 0.000000
# 4 0.000000 0.000000 0.000000 0.024240 0.000000 0.000000
# 5 0.000000 0.000000 0.000000 0.000000 0.029769 0.000000
# 6 0.000000 0.000000 0.000000 0.000000 0.000000 -0.168222
#
#
# Mechanical properties :
#
#
# Convention : Reuss Voigt Hill
#
# Bulk Modulus (GPa) = 63.89811 70.11440 67.00625
# Shear Modulus (GPa) = -81.32333 30.11690 -25.60322
#
# Velocity S-wave (km/s) = -6.21025 3.77926 -3.48456
# Velocity P-wave (km/s) = 4.59560 7.23153 3.94813
#
# Compressibility (1/GPa) = 0.01564992
#
# Stress axis : x y z
#
# Youngs Moduli (GPa) = 73.39006 94.79851 135.01026
#
# Poissons Ratio (x) = 0.29884 0.26883
# Poissons Ratio (y) = 0.23135 0.38103
# Poissons Ratio (z) = 0.14613 0.26755
#
# Static dielectric constant tensor:
#      x y z
#    x 4.703340 0.000000 0.000000 
#    y 0.000000 3.767050 0.000000 
#    z 0.000000 0.000000 4.888930 
# 
# 
# High freq. dielectric constant tensor:
#      x y z
#    x 1.831280 0.000000 0.000000 
#    y 0.000000 1.817910 0.000000 
#    z 0.000000 0.000000 1.853690 
# 
# From -- ./inp_files/28342.got.cif
#   From: 2010.06.25/outbox.cif.g09.slc.cpg/sg48_15_cif.got.tgz:28342.got - 2010.06.26 18:06:46.
