data_PCOD8201908
_publ_section_title
;
Structure prediction by ZEFSAII (Michael W. Deem and Ramdas Pophale) SiO2 
 PCOD8201908
Probable space group: P N N N
;
_chemical_formula_sum "Si O2"
_cell_formula_units_Z 40
_cell_length_a 15.187621
_cell_length_b 14.634684
_cell_length_c 8.138292
_cell_angle_alpha 90.000000
_cell_angle_beta 90.000000
_cell_angle_gamma 90.000000
_cell_volume 1808.865887
_symmetry_space_group_name_H-M "P N N N"
_symmetry_group_IT_number 48
_space_group.IT_coordinate_system_code '2'
_symmetry_cell_setting 'orthorhombic'
loop_
_space_group_symop_operation_xyz
x,y,z
1/2-x,1/2-y,z
x,1/2-y,1/2-z
1/2-x,y,1/2-z
-x,-y,-z
1/2+x,1/2+y,-z
-x,1/2+y,1/2+z
1/2+x,-y,1/2+z
loop_
_atom_site_type_symbol
_atom_site_label
_atom_site_fract_x
_atom_site_fract_y
_atom_site_fract_z
Si Si1 0.586894 0.950691 0.063528
Si Si2 0.526888 0.758251 0.945701
Si Si3 0.836158 0.285705 0.434976
Si Si4 0.080165 0.063886 0.946092
Si Si5 0.765740 0.034930 0.934141
O O1 0.596341 0.955531 0.256745
O O2 0.581797 0.846371 0.001336
O O3 0.500000 0.000000 0.000000
O O4 0.671181 0.006096 0.001359
O O5 0.529671 0.750000 0.750000
O O6 0.425172 0.757420 0.009647
O O7 0.566131 0.670678 0.032511
O O8 0.750000 0.250000 0.533558
O O9 0.831549 0.250000 0.250000
O O10 0.823458 0.394609 0.452768
O O11 0.166998 0.049715 0.058833
O O12 0.000000 0.000000 0.000000
O O13 0.750000 0.070802 0.750000
#
# Coordination Sequence:
#
# PCOD8201908 Si02
#       5
#     8   8   8   8   8
#     4  12  27  44  72 105 147 191 242 292 366 431
#     4  11  23  45  72 104 141 189 239 298 362 432
#     4  10  23  39  71 100 141 181 237 291 367 420
#     4  12  25  46  72 102 148 192 240 300 358 433
#     4  12  26  46  72 108 141 190 242 299 364 435
#
# _framework density 22.113303999999999
#
# number of rings (size 3 to 8) (size 9 to 14) (size 15 to 20)
#    0.000    0.600    2.000    6.000    8.400    1.200 
#    3.600    4.000    0.000    0.000    0.000    0.000 
#    0.000    0.000    0.000    0.000    0.000    0.000 
#
# Total GULP energy -495658.064213 kJ/mol
# GULP energy per Si atom -12391.451605 kJ/mol
# Density = 2.206297 g / cm^3
# Si number density = 22.113304 Si / 1000 Ang^3
#
#
#
# Elastic Constant Matrix: (Units=GPa)
#
#
# Indices 1 2 3 4 5 6 
#
# 1 119.4957 13.8760 41.8610 0.0000 0.0000 0.0000
# 2 13.8760 103.6902 45.3946 0.0000 0.0000 0.0000
# 3 41.8610 45.3946 126.9254 0.0000 0.0000 0.0000
# 4 0.0000 0.0000 0.0000 41.0449 0.0000 0.0000
# 5 0.0000 0.0000 0.0000 0.0000 27.6124 0.0000
# 6 0.0000 0.0000 0.0000 0.0000 0.0000 25.0058
#
#
#
# Elastic Compliance Matrix: (Units=1/GPa)
#
#
# Indices 1 2 3 4 5 6 
#
# 1 0.009463 0.000119 -0.003163 0.000000 0.000000 0.000000
# 2 0.000119 0.011436 -0.004129 0.000000 0.000000 0.000000
# 3 -0.003163 -0.004129 0.010399 0.000000 0.000000 0.000000
# 4 0.000000 0.000000 0.000000 0.024364 0.000000 0.000000
# 5 0.000000 0.000000 0.000000 0.000000 0.036216 0.000000
# 6 0.000000 0.000000 0.000000 0.000000 0.000000 0.039991
#
#
# Mechanical properties :
#
#
# Convention : Reuss Voigt Hill
#
# Bulk Modulus (GPa) = 58.99811 61.37493 60.18652
# Shear Modulus (GPa) = 32.92394 35.33127 34.12761
#
# Velocity S-wave (km/s) = 3.86278 4.00151 3.93276
# Velocity P-wave (km/s) = 6.82881 7.01174 6.92088
#
# Compressibility (1/GPa) = 0.01694970
#
# Stress axis : x y z
#
# Youngs Moduli (GPa) = 105.67586 87.44353 96.16574
#
# Poissons Ratio (x) = -0.01037 0.30420
# Poissons Ratio (y) = -0.01253 0.39708
# Poissons Ratio (z) = 0.33429 0.36107
#
# Static dielectric constant tensor:
#      x y z
#    x 4.822880 0.000000 0.000000 
#    y 0.000000 4.340470 0.000000 
#    z 0.000000 0.000000 3.000200 
# 
# 
# High freq. dielectric constant tensor:
#      x y z
#    x 1.888460 0.000000 0.000000 
#    y 0.000000 1.881840 0.000000 
#    z 0.000000 0.000000 1.868050 
# 
# From -- ./inp_files/12323.got.cif
#   From: 2010.06.25/outbox.cif.g09.slc.cpg/sg48_7_cif.got.tgz:12323.got - 2010.06.26 18:06:46.
