data_PCOD8201730
_publ_section_title
;
Structure prediction by ZEFSAII (Michael W. Deem and Ramdas Pophale) SiO2 
 PCOD8201730
Probable space group: P N N N
;
_chemical_formula_sum "Si O2"
_cell_formula_units_Z 48
_cell_length_a 28.350498
_cell_length_b 9.229430
_cell_length_c 8.984401
_cell_angle_alpha 90.000000
_cell_angle_beta 90.000000
_cell_angle_gamma 90.000000
_cell_volume 2350.848813
_symmetry_space_group_name_H-M "P N N N"
_symmetry_group_IT_number 48
_space_group.IT_coordinate_system_code '2'
_symmetry_cell_setting 'orthorhombic'
loop_
_space_group_symop_operation_xyz
x,y,z
1/2-x,1/2-y,z
x,1/2-y,1/2-z
1/2-x,y,1/2-z
-x,-y,-z
1/2+x,1/2+y,-z
-x,1/2+y,1/2+z
1/2+x,-y,1/2+z
loop_
_atom_site_type_symbol
_atom_site_label
_atom_site_fract_x
_atom_site_fract_y
_atom_site_fract_z
Si Si1 0.451020 0.988636 0.921964
Si Si2 0.549775 0.967315 0.420825
Si Si3 0.295384 0.674839 0.408919
Si Si4 0.386517 0.732469 0.914091
Si Si5 0.793844 0.825525 0.590210
Si Si6 0.896485 0.780289 0.574907
O O1 0.434743 0.823688 0.916696
O O2 0.456294 0.051262 0.755665
O O3 0.500000 0.000000 0.000000
O O4 0.412583 0.059911 0.030679
O O5 0.567572 0.817031 0.484357
O O6 0.500000 0.000000 0.500000
O O7 0.593332 0.075350 0.457714
O O8 0.250000 0.750000 0.492258
O O9 0.296956 0.750000 0.250000
O O10 0.344983 0.716956 0.479754
O O11 0.289202 0.500314 0.400543
O O12 0.364403 0.750000 0.750000
O O13 0.750000 0.750000 0.500988
O O14 0.793630 0.750000 0.750000
O O15 0.842667 0.773795 0.515431
O O16 0.900663 0.750000 0.750000
#
# Coordination Sequence:
#
# PCOD8201730 Si02
#       6
#     8   8   8   8   8   8
#     4  11  22  42  64  89 127 163 210 266 312 377
#     4  11  24  40  64  93 124 169 213 258 317 374
#     4  11  23  38  67  98 123 162 213 258 311 375
#     4  10  24  42  61  89 128 164 204 257 316 372
#     4  10  21  38  62  93 131 162 204 262 317 366
#     4  11  23  38  63  93 126 167 208 256 317 375
#
# _framework density 20.418156
#
# number of rings (size 3 to 8) (size 9 to 14) (size 15 to 20)
#    0.000    1.333    1.667    4.500    7.000    3.000 
#    0.000    0.000    0.000    2.000    0.000    0.000 
#    0.000    0.000    0.000    0.000    0.000    0.000 
#
# Total GULP energy -594681.041110 kJ/mol
# GULP energy per Si atom -12389.188356 kJ/mol
# Density = 2.037168 g / cm^3
# Si number density = 20.418156 Si / 1000 Ang^3
#
#
#
# Elastic Constant Matrix: (Units=GPa)
#
#
# Indices 1 2 3 4 5 6 
#
# 1 168.9400 37.5574 47.9840 0.0000 0.0000 0.0000
# 2 37.5574 95.8444 24.4497 0.0000 0.0000 0.0000
# 3 47.9840 24.4497 86.9756 0.0000 0.0000 0.0000
# 4 0.0000 0.0000 0.0000 26.9232 0.0000 0.0000
# 5 0.0000 0.0000 0.0000 0.0000 19.4859 0.0000
# 6 0.0000 0.0000 0.0000 0.0000 0.0000 -30.9078
#
#
#
# Elastic Compliance Matrix: (Units=1/GPa)
#
#
# Indices 1 2 3 4 5 6 
#
# 1 0.007355 -0.001990 -0.003499 0.000000 0.000000 0.000000
# 2 -0.001990 0.011778 -0.002213 0.000000 0.000000 0.000000
# 3 -0.003499 -0.002213 0.014050 0.000000 0.000000 0.000000
# 4 0.000000 0.000000 0.000000 0.037143 0.000000 0.000000
# 5 0.000000 0.000000 0.000000 0.000000 0.051319 0.000000
# 6 0.000000 0.000000 0.000000 0.000000 0.000000 -0.032354
#
#
# Mechanical properties :
#
#
# Convention : Reuss Voigt Hill
#
# Bulk Modulus (GPa) = 56.24291 63.52693 59.88492
# Shear Modulus (GPa) = 45.19975 19.21818 32.20896
#
# Velocity S-wave (km/s) = 4.71011 3.07128 3.97604
# Velocity P-wave (km/s) = 7.56211 6.61494 7.10433
#
# Compressibility (1/GPa) = 0.01778002
#
# Stress axis : x y z
#
# Youngs Moduli (GPa) = 135.95633 84.90514 71.17573
#
# Poissons Ratio (x) = 0.16894 0.24901
# Poissons Ratio (y) = 0.27052 0.15752
# Poissons Ratio (z) = 0.47565 0.18791
#
# Static dielectric constant tensor:
#      x y z
#    x 4.207240 0.000000 0.000000 
#    y 0.000000 3.923530 0.000000 
#    z 0.000000 0.000000 3.358430 
# 
# 
# High freq. dielectric constant tensor:
#      x y z
#    x 1.824900 0.000000 0.000000 
#    y 0.000000 1.812260 0.000000 
#    z 0.000000 0.000000 1.775440 
# 
# From -- ./inp_files/16796.got.cif
#   From: 2010.06.25/outbox.cif.g09.slc.cpg/sg48_9_cif.got.tgz:16796.got - 2010.06.26 18:06:46.
