data_PCOD8201358
_publ_section_title
;
Structure prediction by ZEFSAII (Michael W. Deem and Ramdas Pophale) SiO2 
 PCOD8201358
Probable space group: P N N N
;
_chemical_formula_sum "Si O2"
_cell_formula_units_Z 60
_cell_length_a 25.435995
_cell_length_b 32.873872
_cell_length_c 5.204219
_cell_angle_alpha 90.000000
_cell_angle_beta 90.000000
_cell_angle_gamma 90.000000
_cell_volume 4351.661990
_symmetry_space_group_name_H-M "P N N N"
_symmetry_group_IT_number 48
_space_group.IT_coordinate_system_code '2'
_symmetry_cell_setting 'orthorhombic'
loop_
_space_group_symop_operation_xyz
x,y,z
1/2-x,1/2-y,z
x,1/2-y,1/2-z
1/2-x,y,1/2-z
-x,-y,-z
1/2+x,1/2+y,-z
-x,1/2+y,1/2+z
1/2+x,-y,1/2+z
loop_
_atom_site_type_symbol
_atom_site_label
_atom_site_fract_x
_atom_site_fract_y
_atom_site_fract_z
Si Si1 0.508401 0.433625 0.527241
Si Si2 0.250000 0.167770 0.750000
Si Si3 0.356886 0.296791 0.710941
Si Si4 0.086492 0.003364 0.480214
Si Si5 0.799552 0.898898 0.893325
Si Si6 0.970975 0.901298 0.968979
Si Si7 0.386937 0.157574 0.278823
Si Si8 0.376935 0.036666 0.521427
O O1 0.458589 0.463099 0.507070
O O2 0.561543 0.459122 0.568878
O O3 0.512976 0.410873 0.254531
O O4 0.501492 0.400250 0.756980
O O5 0.204306 0.196399 0.629813
O O6 0.276520 0.139055 0.543486
O O7 0.370793 0.250000 0.750000
O O8 0.392955 0.316343 0.484018
O O9 0.365846 0.315879 0.988188
O O10 0.126365 0.012053 0.245682
O O11 0.120526 0.005104 0.742056
O O12 0.750000 0.919092 0.750000
O O13 0.846280 0.879763 0.714973
O O14 0.825893 0.934456 0.063248
O O15 0.942626 0.859736 0.879447
O O16 0.929358 0.936979 0.007091
#
# Coordination Sequence:
#
# PCOD8201358 Si02
#       8
#     8   4   8   8   8   8   8   8
#     4   9  15  24  40  54  74  92 111 128 160 205
#     4  10  21  32  44  56  70  86 126 162 194 232
#     4  11  21  33  45  57  72  93 115 151 198 240
#     4   9  16  26  35  55  74  93 110 133 160 208
#     4  10  19  30  43  54  71  93 122 156 193 221
#     4   9  16  26  40  57  70  91 110 136 168 207
#     4  10  20  32  44  58  75  88 116 150 184 229
#     4   9  18  25  38  52  73  92 114 139 175 210
#
# _framework density 13.787836
#
# number of rings (size 3 to 8) (size 9 to 14) (size 15 to 20)
#    0.000    2.400    1.333    2.200    1.867    6.400 
#    0.000    1.333    0.000    0.000    0.000    0.000 
#    0.000    0.000    0.000    0.000    0.000    0.000 
#
# Total GULP energy -743378.409170 kJ/mol
# GULP energy per Si atom -12389.640153 kJ/mol
# Density = 1.375645 g / cm^3
# Si number density = 13.787836 Si / 1000 Ang^3
#
#
#
# Elastic Constant Matrix: (Units=GPa)
#
#
# Indices 1 2 3 4 5 6 
#
# 1 20.8317 25.2193 17.1449 0.0000 0.0000 0.0000
# 2 25.2193 45.6791 22.3144 0.0000 0.0000 0.0000
# 3 17.1449 22.3144 92.2012 0.0000 0.0000 0.0000
# 4 0.0000 0.0000 0.0000 32.3698 0.0000 0.0000
# 5 0.0000 0.0000 0.0000 0.0000 14.2118 0.0000
# 6 0.0000 0.0000 0.0000 0.0000 0.0000 15.2904
#
#
#
# Elastic Compliance Matrix: (Units=1/GPa)
#
#
# Indices 1 2 3 4 5 6 
#
# 1 0.151017 -0.078998 -0.008963 0.000000 0.000000 0.000000
# 2 -0.078998 0.066151 -0.001320 0.000000 0.000000 0.000000
# 3 -0.008963 -0.001320 0.012832 0.000000 0.000000 0.000000
# 4 0.000000 0.000000 0.000000 0.030893 0.000000 0.000000
# 5 0.000000 0.000000 0.000000 0.000000 0.070364 0.000000
# 6 0.000000 0.000000 0.000000 0.000000 0.000000 0.065400
#
#
# Mechanical properties :
#
#
# Convention : Reuss Voigt Hill
#
# Bulk Modulus (GPa) = 19.44054 32.00769 25.72412
# Shear Modulus (GPa) = 8.44074 18.64331 13.54202
#
# Velocity S-wave (km/s) = 2.47693 3.68116 3.13736
# Velocity P-wave (km/s) = 4.72341 6.42905 5.64107
#
# Compressibility (1/GPa) = 0.05143890
#
# Stress axis : x y z
#
# Youngs Moduli (GPa) = 6.62176 15.11688 77.93037
#
# Poissons Ratio (x) = 1.19420 0.69847
# Poissons Ratio (y) = 0.52310 0.10288
# Poissons Ratio (z) = 0.05935 0.01996
#
# Static dielectric constant tensor:
#      x y z
#    x 2.627070 0.000000 0.000000 
#    y 0.000000 2.526210 0.000000 
#    z 0.000000 0.000000 2.876160 
# 
# 
# High freq. dielectric constant tensor:
#      x y z
#    x 1.473580 0.000000 0.000000 
#    y 0.000000 1.485640 0.000000 
#    z 0.000000 0.000000 1.545130 
# 
# From -- ./inp_files/5466.got.cif
#   From: 2010.06.25/outbox.cif.g09.slc.cpg/sg48_3_cif.got.tgz:5466.got - 2010.06.26 18:06:46.
