data_PCOD8201108
_publ_section_title
;
Structure prediction by ZEFSAII (Michael W. Deem and Ramdas Pophale) SiO2 
 PCOD8201108
Probable space group: P M M M
;
_chemical_formula_sum "Si O2"
_cell_formula_units_Z 48
_cell_length_a 30.352059
_cell_length_b 9.490698
_cell_length_c 9.900026
_cell_angle_alpha 90.000000
_cell_angle_beta 90.000000
_cell_angle_gamma 90.000000
_cell_volume 2851.823524
_symmetry_space_group_name_H-M "P M M M"
_symmetry_group_IT_number 47
_symmetry_cell_setting 'orthorhombic'
loop_
_space_group_symop_operation_xyz
x,y,z
-x,-y,z
x,-y,-z
-x,y,-z
-x,-y,-z
x,y,-z
-x,y,z
x,-y,z
loop_
_atom_site_type_symbol
_atom_site_label
_atom_site_fract_x
_atom_site_fract_y
_atom_site_fract_z
Si Si1 0.951172 0.832690 0.651297
Si Si2 0.385847 0.663005 0.657032
Si Si3 0.788822 0.335760 0.155704
Si Si4 0.550624 0.836289 0.153754
Si Si5 0.874720 0.164338 0.155811
Si Si6 0.712578 0.332585 0.350379
O O1 0.938722 0.782283 0.500000
O O2 0.915331 0.774703 0.756840
O O3 0.000000 0.775973 0.690120
O O4 0.951726 0.000000 0.657348
O O5 0.396712 0.686425 0.500000
O O6 0.390397 0.500000 0.696204
O O7 0.419847 0.748981 0.745049
O O8 0.336430 0.718633 0.689408
O O9 0.797783 0.500000 0.184005
O O10 0.831695 0.249684 0.200271
O O11 0.748007 0.276298 0.242717
O O12 0.777100 0.308209 0.000000
O O13 0.500000 0.796007 0.180155
O O14 0.558450 0.000000 0.182278
O O15 0.563603 0.799240 0.000000
O O16 0.866002 0.000000 0.184383
O O17 0.886447 0.191594 0.000000
O O18 0.725156 0.276405 0.500000
O O19 0.712243 0.500000 0.352150
#
# Coordination Sequence:
#
# PCOD8201108 Si02
#       6
#     8   8   8   8   8   8
#     4   8  14  25  41  61  84 109 138 173 212 253
#     4   9  18  32  50  73  98 121 150 192 236 275
#     4   9  17  29  45  64  86 114 147 178 210 255
#     4   9  19  35  51  68  94 127 160 192 227 271
#     4   9  17  28  42  62  87 111 137 174 216 253
#     4   8  15  29  47  66  89 116 146 181 219 259
#
# _framework density 16.831337000000001
#
# number of rings (size 3 to 8) (size 9 to 14) (size 15 to 20)
#    0.000    3.333    0.000    2.000    0.000    3.000 
#    0.000    6.667    0.000    3.500    0.000    3.500 
#    0.000    0.000    0.000    0.000    0.000    0.000 
#
# Total GULP energy -595011.184480 kJ/mol
# GULP energy per Si atom -12396.066343 kJ/mol
# Density = 1.679303 g / cm^3
# Si number density = 16.831337 Si / 1000 Ang^3
#
#
#
# Elastic Constant Matrix: (Units=GPa)
#
#
# Indices 1 2 3 4 5 6 
#
# 1 148.8564 49.1756 97.1648 0.0000 0.0000 0.0000
# 2 49.1756 36.5516 39.6401 0.0000 0.0000 0.0000
# 3 97.1648 39.6401 101.7682 0.0000 0.0000 0.0000
# 4 0.0000 0.0000 0.0000 21.3648 0.0000 0.0000
# 5 0.0000 0.0000 0.0000 0.0000 42.2460 0.0000
# 6 0.0000 0.0000 0.0000 0.0000 0.0000 26.9288
#
#
#
# Elastic Compliance Matrix: (Units=1/GPa)
#
#
# Indices 1 2 3 4 5 6 
#
# 1 0.019997 -0.010731 -0.014913 0.000000 0.000000 0.000000
# 2 -0.010731 0.053126 -0.010448 0.000000 0.000000 0.000000
# 3 -0.014913 -0.010448 0.028134 0.000000 0.000000 0.000000
# 4 0.000000 0.000000 0.000000 0.046806 0.000000 0.000000
# 5 0.000000 0.000000 0.000000 0.000000 0.023671 0.000000
# 6 0.000000 0.000000 0.000000 0.000000 0.000000 0.037135
#
#
# Mechanical properties :
#
#
# Convention : Reuss Voigt Hill
#
# Bulk Modulus (GPa) = 34.39462 73.23746 53.81604
# Shear Modulus (GPa) = 17.19732 24.85432 21.02582
#
# Velocity S-wave (km/s) = 3.19994 3.84691 3.53825
# Velocity P-wave (km/s) = 5.84226 7.95856 6.98107
#
# Compressibility (1/GPa) = 0.02907432
#
# Stress axis : x y z
#
# Youngs Moduli (GPa) = 50.00779 18.82311 35.54414
#
# Poissons Ratio (x) = 0.20198 0.53006
# Poissons Ratio (y) = 0.53661 0.37137
# Poissons Ratio (z) = 0.74575 0.19667
#
# Static dielectric constant tensor:
#      x y z
#    x 3.373560 0.000000 0.000000 
#    y 0.000000 2.793410 0.000000 
#    z 0.000000 0.000000 3.274670 
# 
# 
# High freq. dielectric constant tensor:
#      x y z
#    x 1.655900 0.000000 0.000000 
#    y 0.000000 1.610040 0.000000 
#    z 0.000000 0.000000 1.652590 
# 
# From -- ./inp_files/2496.got.cif
#   From: 2010.03.12/outbox.cif.g09.slc.cpg/sg47_2_cif.got.tgz:2496.got - 2010.04.14 03:12:58.
