data_PCOD8201223
_publ_section_title
;
Structure prediction by ZEFSAII (Michael W. Deem and Ramdas Pophale) SiO2 
 PCOD8201223
Probable space group: P M M M
;
_chemical_formula_sum "Si O2"
_cell_formula_units_Z 40
_cell_length_a 12.782820
_cell_length_b 9.473547
_cell_length_c 19.771731
_cell_angle_alpha 90.000000
_cell_angle_beta 90.000000
_cell_angle_gamma 90.000000
_cell_volume 2394.329854
_symmetry_space_group_name_H-M "P M M M"
_symmetry_group_IT_number 47
_symmetry_cell_setting 'orthorhombic'
loop_
_space_group_symop_operation_xyz
x,y,z
-x,-y,z
x,-y,-z
-x,y,-z
-x,-y,-z
x,y,-z
-x,y,z
x,-y,z
loop_
_atom_site_type_symbol
_atom_site_label
_atom_site_fract_x
_atom_site_fract_y
_atom_site_fract_z
Si Si1 0.378126 0.343330 0.500000
Si Si2 0.619517 0.333853 0.783622
Si Si3 0.298215 0.332906 0.639278
Si Si4 0.881216 0.843261 0.684352
Si Si5 0.808652 0.837628 0.833953
Si Si6 0.000000 0.832179 0.076914
O O1 0.328333 0.500000 0.500000
O O2 0.500000 0.353908 0.500000
O O3 0.344533 0.266716 0.569833
O O4 0.500000 0.296778 0.804106
O O5 0.641197 0.500000 0.791194
O O6 0.636259 0.284851 0.705517
O O7 0.700547 0.252233 0.832881
O O8 0.297440 0.500000 0.635926
O O9 0.181417 0.274340 0.643560
O O10 0.869293 0.821136 0.763959
O O11 0.000000 0.822436 0.663094
O O12 0.841637 0.000000 0.664586
O O13 0.891900 0.777174 0.888804
O O14 0.778328 0.000000 0.849252
O O15 0.000000 0.000000 0.083667
O O16 0.000000 0.779031 0.000000
#
# Coordination Sequence:
#
# PCOD8201223 Si02
#       6
#     4   8   8   8   8   4
#     4   9  16  28  46  63  82 110 143 181 226 273
#     4   9  17  29  45  67  94 120 149 188 230 268
#     4   9  17  28  44  66  86 110 147 187 225 265
#     4   9  16  28  45  63  87 117 145 176 218 266
#     4   9  16  28  47  70  93 118 150 184 221 266
#     4   9  16  28  49  75  99 120 145 182 226 267
#
# _framework density 16.706135
#
# number of rings (size 3 to 8) (size 9 to 14) (size 15 to 20)
#    0.000    3.000    1.000    0.600    0.000    3.200 
#    0.000    1.500    0.000    7.200    0.000    4.200 
#    0.000    0.000    0.000    0.000    0.000    0.000 
#
# Total GULP energy -495681.862216 kJ/mol
# GULP energy per Si atom -12392.046555 kJ/mol
# Density = 1.666811 g / cm^3
# Si number density = 16.706135 Si / 1000 Ang^3
#
#
#
# Elastic Constant Matrix: (Units=GPa)
#
#
# Indices 1 2 3 4 5 6 
#
# 1 119.3675 33.6236 55.4093 0.0000 0.0000 0.0000
# 2 33.6236 22.7926 20.6809 0.0000 0.0000 0.0000
# 3 55.4093 20.6809 86.8193 0.0000 0.0000 0.0000
# 4 0.0000 0.0000 0.0000 3.3380 0.0000 0.0000
# 5 0.0000 0.0000 0.0000 0.0000 23.4258 0.0000
# 6 0.0000 0.0000 0.0000 0.0000 0.0000 21.6560
#
#
#
# Elastic Compliance Matrix: (Units=1/GPa)
#
#
# Indices 1 2 3 4 5 6 
#
# 1 0.016487 -0.018848 -0.006032 0.000000 0.000000 0.000000
# 2 -0.018848 0.077518 -0.006436 0.000000 0.000000 0.000000
# 3 -0.006032 -0.006436 0.016901 0.000000 0.000000 0.000000
# 4 0.000000 0.000000 0.000000 0.299581 0.000000 0.000000
# 5 0.000000 0.000000 0.000000 0.000000 0.042688 0.000000
# 6 0.000000 0.000000 0.000000 0.000000 0.000000 0.046177
#
#
# Mechanical properties :
#
#
# Convention : Reuss Voigt Hill
#
# Bulk Modulus (GPa) = 20.71547 49.82300 35.26923
# Shear Modulus (GPa) = 8.64937 17.63499 13.14218
#
# Velocity S-wave (km/s) = 2.27785 3.25252 2.80780
# Velocity P-wave (km/s) = 4.39829 6.63273 5.62753
#
# Compressibility (1/GPa) = 0.04827310
#
# Stress axis : x y z
#
# Youngs Moduli (GPa) = 60.65478 12.90020 59.16684
#
# Poissons Ratio (x) = 0.24314 0.35692
# Poissons Ratio (y) = 1.14320 0.38082
# Poissons Ratio (z) = 0.36590 0.08303
#
# Static dielectric constant tensor:
#      x y z
#    x 3.167750 0.000000 0.000000 
#    y 0.000000 3.007040 0.000000 
#    z 0.000000 0.000000 3.152070 
# 
# 
# High freq. dielectric constant tensor:
#      x y z
#    x 1.647130 0.000000 0.000000 
#    y 0.000000 1.615660 0.000000 
#    z 0.000000 0.000000 1.621200 
# 
# From -- ./inp_files/30329.got.cif
#   From: 2010.03.12/outbox.cif.g09.slc.cpg/sg47_16_cif.got.tgz:30329.got - 2010.04.14 03:12:58.
