data_PCOD8201846
_publ_section_title
;
Structure prediction by ZEFSAII (Michael W. Deem and Ramdas Pophale) SiO2 
 PCOD8201846
Probable space group: P N N N
;
_chemical_formula_sum "Si O2"
_cell_formula_units_Z 44
_cell_length_a 8.948553
_cell_length_b 8.674116
_cell_length_c 26.790158
_cell_angle_alpha 90.000000
_cell_angle_beta 90.000000
_cell_angle_gamma 90.000000
_cell_volume 2079.473141
_symmetry_space_group_name_H-M "P N N N"
_symmetry_group_IT_number 48
_space_group.IT_coordinate_system_code '2'
_symmetry_cell_setting 'orthorhombic'
loop_
_space_group_symop_operation_xyz
x,y,z
1/2-x,1/2-y,z
x,1/2-y,1/2-z
1/2-x,y,1/2-z
-x,-y,-z
1/2+x,1/2+y,-z
-x,1/2+y,1/2+z
1/2+x,-y,1/2+z
loop_
_atom_site_type_symbol
_atom_site_label
_atom_site_fract_x
_atom_site_fract_y
_atom_site_fract_z
Si Si1 0.750000 0.750000 0.669132
Si Si2 0.409972 0.569596 0.429553
Si Si3 0.583661 0.729090 0.141758
Si Si4 0.250000 0.002752 0.250000
Si Si5 0.008358 0.750000 0.250000
Si Si6 0.918386 0.224633 0.468243
Si Si7 0.914847 0.552600 0.596448
O O1 0.798954 0.894063 0.702872
O O2 0.886340 0.696020 0.633981
O O3 0.472254 0.641621 0.379009
O O4 0.510116 0.423592 0.442443
O O5 0.423204 0.701172 0.472127
O O6 0.238067 0.527410 0.420723
O O7 0.750000 0.750000 0.119756
O O8 0.592884 0.761843 0.200953
O O9 0.524390 0.562035 0.125584
O O10 0.108164 0.898985 0.237839
O O11 0.750000 0.250000 0.449170
O O12 0.009846 0.378112 0.453461
#
# Coordination Sequence:
#
# PCOD8201846 Si02
#       7
#     4   8   8   4   4   8   8
#     4  11  20  40  66 102 122 176 218 279 314 402
#     4  11  25  43  67  96 131 177 228 273 330 411
#     4  12  26  43  66  98 135 172 221 281 345 394
#     4  10  22  38  70  98 132 164 234 264 336 398
#     4  11  23  40  66  98 130 176 208 284 332 410
#     4  11  24  42  65  97 135 174 219 278 339 393
#     4  12  23  44  68  96 133 175 227 276 328 410
#
# _framework density 21.159205
#
# number of rings (size 3 to 8) (size 9 to 14) (size 15 to 20)
#    0.000    0.727    3.636    4.091    2.545    5.818 
#    0.000    0.000    0.000    0.000    0.000    0.000 
#    0.000    0.000    0.000    0.000    0.000    0.000 
#
# Total GULP energy -545669.212763 kJ/mol
# GULP energy per Si atom -12401.573017 kJ/mol
# Density = 2.111105 g / cm^3
# Si number density = 21.159205 Si / 1000 Ang^3
#
#
#
# Elastic Constant Matrix: (Units=GPa)
#
#
# Indices 1 2 3 4 5 6 
#
# 1 150.7033 61.6315 48.3724 0.0000 0.0000 0.0000
# 2 61.6315 99.4229 58.4034 0.0000 0.0000 0.0000
# 3 48.3724 58.4034 131.7057 0.0000 0.0000 0.0000
# 4 0.0000 0.0000 0.0000 45.3387 0.0000 0.0000
# 5 0.0000 0.0000 0.0000 0.0000 20.7210 0.0000
# 6 0.0000 0.0000 0.0000 0.0000 0.0000 40.7243
#
#
#
# Elastic Compliance Matrix: (Units=1/GPa)
#
#
# Indices 1 2 3 4 5 6 
#
# 1 0.009011 -0.004924 -0.001126 0.000000 0.000000 0.000000
# 2 -0.004924 0.016292 -0.005416 0.000000 0.000000 0.000000
# 3 -0.001126 -0.005416 0.010408 0.000000 0.000000 0.000000
# 4 0.000000 0.000000 0.000000 0.022056 0.000000 0.000000
# 5 0.000000 0.000000 0.000000 0.000000 0.048260 0.000000
# 6 0.000000 0.000000 0.000000 0.000000 0.000000 0.024555
#
#
# Mechanical properties :
#
#
# Convention : Reuss Voigt Hill
#
# Bulk Modulus (GPa) = 78.25678 79.84962 79.05320
# Shear Modulus (GPa) = 31.69088 35.58511 33.63799
#
# Velocity S-wave (km/s) = 3.87426 4.10540 3.99150
# Velocity P-wave (km/s) = 7.55501 7.76478 7.66062
#
# Compressibility (1/GPa) = 0.01277844
#
# Stress axis : x y z
#
# Youngs Moduli (GPa) = 110.97806 61.37944 96.08188
#
# Poissons Ratio (x) = 0.30226 0.10817
# Poissons Ratio (y) = 0.54650 0.52037
# Poissons Ratio (z) = 0.12494 0.33243
#
# Static dielectric constant tensor:
#      x y z
#    x 3.715790 0.000000 0.000000 
#    y 0.000000 3.951520 0.000000 
#    z 0.000000 0.000000 4.000650 
# 
# 
# High freq. dielectric constant tensor:
#      x y z
#    x 1.822080 0.000000 0.000000 
#    y 0.000000 1.844110 0.000000 
#    z 0.000000 0.000000 1.839970 
# 
# From -- ./inp_files/38640.got.cif
#   From: 2010.06.25/outbox.cif.g09.slc.cpg/sg48_20_cif.got.tgz:38640.got - 2010.06.26 18:06:46.
