data_PCOD8201622
_publ_section_title
;
Structure prediction by ZEFSAII (Michael W. Deem and Ramdas Pophale) SiO2 
 PCOD8201622
Probable space group: P N N N
;
_chemical_formula_sum "Si O2"
_cell_formula_units_Z 64
_cell_length_a 16.224498
_cell_length_b 12.243407
_cell_length_c 14.447407
_cell_angle_alpha 90.000000
_cell_angle_beta 90.000000
_cell_angle_gamma 90.000000
_cell_volume 2869.878181
_symmetry_space_group_name_H-M "P N N N"
_symmetry_group_IT_number 48
_space_group.IT_coordinate_system_code '2'
_symmetry_cell_setting 'orthorhombic'
loop_
_space_group_symop_operation_xyz
x,y,z
1/2-x,1/2-y,z
x,1/2-y,1/2-z
1/2-x,y,1/2-z
-x,-y,-z
1/2+x,1/2+y,-z
-x,1/2+y,1/2+z
1/2+x,-y,1/2+z
loop_
_atom_site_type_symbol
_atom_site_label
_atom_site_fract_x
_atom_site_fract_y
_atom_site_fract_z
Si Si1 0.597371 0.911940 0.517863
Si Si2 0.846899 0.061488 0.246788
Si Si3 0.880119 0.128725 0.769930
Si Si4 0.402486 0.485085 0.404362
Si Si5 0.564486 0.128450 0.075551
Si Si6 0.418570 0.868550 0.564189
Si Si7 0.439057 0.350959 0.816295
Si Si8 0.772209 0.565106 0.653393
O O1 0.512232 0.911798 0.574661
O O2 0.596517 0.842866 0.421772
O O3 0.625200 0.038978 0.498913
O O4 0.664833 0.865323 0.590140
O O5 0.750000 0.037495 0.250000
O O6 0.872575 0.121997 0.339971
O O7 0.871860 0.139525 0.161925
O O8 0.897892 0.950530 0.237095
O O9 0.844030 0.250000 0.750000
O O10 0.810961 0.054282 0.819389
O O11 0.962729 0.136816 0.832087
O O12 0.912094 0.075942 0.674446
O O13 0.469688 0.387976 0.389802
O O14 0.415027 0.533785 0.505059
O O15 0.310292 0.440365 0.405940
O O16 0.577966 0.245506 0.024702
O O17 0.417273 0.250000 0.750000
O O18 0.750000 0.626115 0.750000
#
# Coordination Sequence:
#
# PCOD8201622 Si02
#       8
#     8   8   8   8   8   8   8   8
#     4  10  22  41  68 102 124 166 226 280 336 408
#     4  11  24  43  63  93 129 166 217 280 334 399
#     4  10  20  38  65  99 134 172 225 280 343 400
#     4  10  24  39  61  90 133 176 213 269 333 406
#     4  11  24  42  60  88 128 178 217 264 339 406
#     4  10  23  40  69  90 124 168 220 278 330 403
#     4  10  22  40  73  97 131 174 219 282 343 407
#     4  10  22  40  64  97 137 173 215 281 335 396
#
# _framework density 22.300598999999998
#
# number of rings (size 3 to 8) (size 9 to 14) (size 15 to 20)
#    0.000    1.750    1.250    2.625   10.500    3.500 
#    0.000    0.625    8.250    2.250    0.000    0.000 
#    0.000    0.000    0.000    0.000    0.000    0.000 
#
# Total GULP energy -793195.302680 kJ/mol
# GULP energy per Si atom -12393.676604 kJ/mol
# Density = 2.224984 g / cm^3
# Si number density = 22.300599 Si / 1000 Ang^3
#
#
#
# Elastic Constant Matrix: (Units=GPa)
#
#
# Indices 1 2 3 4 5 6 
#
# 1 114.0824 6.8023 33.5070 0.0000 0.0000 0.0000
# 2 6.8023 57.0748 -1.1867 0.0000 0.0000 0.0000
# 3 33.5070 -1.1867 97.6148 0.0000 0.0000 0.0000
# 4 0.0000 0.0000 0.0000 19.3915 0.0000 0.0000
# 5 0.0000 0.0000 0.0000 0.0000 41.5456 0.0000
# 6 0.0000 0.0000 0.0000 0.0000 0.0000 11.6042
#
#
#
# Elastic Compliance Matrix: (Units=1/GPa)
#
#
# Indices 1 2 3 4 5 6 
#
# 1 0.009836 -0.001243 -0.003391 0.000000 0.000000 0.000000
# 2 -0.001243 0.017682 0.000642 0.000000 0.000000 0.000000
# 3 -0.003391 0.000642 0.011416 0.000000 0.000000 0.000000
# 4 0.000000 0.000000 0.000000 0.051569 0.000000 0.000000
# 5 0.000000 0.000000 0.000000 0.000000 0.024070 0.000000
# 6 0.000000 0.000000 0.000000 0.000000 0.000000 0.086176
#
#
# Mechanical properties :
#
#
# Convention : Reuss Voigt Hill
#
# Bulk Modulus (GPa) = 32.31091 38.55745 35.43418
# Shear Modulus (GPa) = 22.82580 29.81823 26.32202
#
# Velocity S-wave (km/s) = 3.20277 3.66061 3.43932
# Velocity P-wave (km/s) = 5.31011 5.93247 5.62989
#
# Compressibility (1/GPa) = 0.03094930
#
# Stress axis : x y z
#
# Youngs Moduli (GPa) = 101.66995 56.55369 87.59458
#
# Poissons Ratio (x) = 0.07028 0.29706
# Poissons Ratio (y) = 0.12635 -0.05620
# Poissons Ratio (z) = 0.34479 -0.03628
#
# Static dielectric constant tensor:
#      x y z
#    x 4.131200 0.000000 0.000000 
#    y 0.000000 3.821010 0.000000 
#    z 0.000000 0.000000 4.078370 
# 
# 
# High freq. dielectric constant tensor:
#      x y z
#    x 1.875830 0.000000 0.000000 
#    y 0.000000 1.857830 0.000000 
#    z 0.000000 0.000000 1.886770 
# 
# From -- ./inp_files/28079.got.cif
#   From: 2010.06.25/outbox.cif.g09.slc.cpg/sg48_15_cif.got.tgz:28079.got - 2010.06.26 18:06:46.
