data_PCOD8201922
_publ_section_title
;
Structure prediction by ZEFSAII (Michael W. Deem and Ramdas Pophale) SiO2 
 PCOD8201922
Probable space group: P N N N
;
_chemical_formula_sum "Si O2"
_cell_formula_units_Z 34
_cell_length_a 17.325354
_cell_length_b 14.750524
_cell_length_c 6.348644
_cell_angle_alpha 90.000000
_cell_angle_beta 90.000000
_cell_angle_gamma 90.000000
_cell_volume 1622.447081
_symmetry_space_group_name_H-M "P N N N"
_symmetry_group_IT_number 48
_space_group.IT_coordinate_system_code '2'
_symmetry_cell_setting 'orthorhombic'
loop_
_space_group_symop_operation_xyz
x,y,z
1/2-x,1/2-y,z
x,1/2-y,1/2-z
1/2-x,y,1/2-z
-x,-y,-z
1/2+x,1/2+y,-z
-x,1/2+y,1/2+z
1/2+x,-y,1/2+z
loop_
_atom_site_type_symbol
_atom_site_label
_atom_site_fract_x
_atom_site_fract_y
_atom_site_fract_z
Si Si1 0.517131 0.897959 0.930424
Si Si2 0.750000 0.750000 0.250000
Si Si3 0.884489 0.162367 0.129509
Si Si4 0.959278 0.250000 0.750000
Si Si5 0.250000 0.535968 0.750000
Si Si6 0.190807 0.109916 0.438521
O O1 0.462070 0.875470 0.736210
O O2 0.604701 0.894324 0.845101
O O3 0.509063 0.821511 0.112958
O O4 0.500000 0.000000 0.000000
O O5 0.805976 0.808712 0.395617
O O6 0.853367 0.250000 0.250000
O O7 0.815558 0.091496 0.129796
O O8 0.903969 0.187287 0.890684
O O9 0.290526 0.481214 0.564023
O O10 0.250000 0.126406 0.250000
#
# Coordination Sequence:
#
# PCOD8201922 Si02
#       6
#     8   2   8   4   4   8
#     4  11  23  44  66  98 132 174 226 274 335 401
#     4  10  24  44  62  92 134 176 214 278 324 396
#     4  10  23  42  66  96 131 171 220 273 330 400
#     4  10  25  42  71  98 130 180 218 277 340 397
#     4  11  23  41  63  98 134 168 219 269 329 399
#     4  11  25  41  67  96 131 174 220 272 334 396
#
# _framework density 20.955998999999998
#
# number of rings (size 3 to 8) (size 9 to 14) (size 15 to 20)
#    0.000    1.412    2.353    1.412    3.294   10.353 
#    0.000    4.706    0.000    0.000    0.000    0.000 
#    0.000    0.000    0.000    0.000    0.000    0.000 
#
# Total GULP energy -421640.867726 kJ/mol
# GULP energy per Si atom -12401.201992 kJ/mol
# Density = 2.090830 g / cm^3
# Si number density = 20.955999 Si / 1000 Ang^3
#
#
#
# Elastic Constant Matrix: (Units=GPa)
#
#
# Indices 1 2 3 4 5 6 
#
# 1 169.8830 62.8229 57.1898 0.0000 0.0000 0.0000
# 2 62.8229 134.5197 46.5880 0.0000 0.0000 0.0000
# 3 57.1898 46.5880 115.0985 0.0000 0.0000 0.0000
# 4 0.0000 0.0000 0.0000 -228.9669 0.0000 0.0000
# 5 0.0000 0.0000 0.0000 0.0000 12.5256 0.0000
# 6 0.0000 0.0000 0.0000 0.0000 0.0000 74.9739
#
#
#
# Elastic Compliance Matrix: (Units=1/GPa)
#
#
# Indices 1 2 3 4 5 6 
#
# 1 0.007821 -0.002683 -0.002800 0.000000 0.000000 0.000000
# 2 -0.002683 0.009566 -0.002539 0.000000 0.000000 0.000000
# 3 -0.002800 -0.002539 0.011107 0.000000 0.000000 0.000000
# 4 0.000000 0.000000 0.000000 -0.004367 0.000000 0.000000
# 5 0.000000 0.000000 0.000000 0.000000 0.079837 0.000000
# 6 0.000000 0.000000 0.000000 0.000000 0.000000 0.013338
#
#
# Mechanical properties :
#
#
# Convention : Reuss Voigt Hill
#
# Bulk Modulus (GPa) = 80.31849 83.63364 81.97607
# Shear Modulus (GPa) = 36.36464 -11.43346 12.46559
#
# Velocity S-wave (km/s) = 4.17019 -2.33833 2.44159
# Velocity P-wave (km/s) = 7.84843 5.71887 6.86670
#
# Compressibility (1/GPa) = 0.01245043
#
# Stress axis : x y z
#
# Youngs Moduli (GPa) = 127.85762 104.53573 90.03080
#
# Poissons Ratio (x) = 0.28045 0.25211
# Poissons Ratio (y) = 0.34302 0.22859
# Poissons Ratio (z) = 0.35803 0.26542
#
# Static dielectric constant tensor:
#      x y z
#    x 3.743820 0.000000 0.000000 
#    y 0.000000 4.197550 0.000000 
#    z 0.000000 0.000000 3.756530 
# 
# 
# High freq. dielectric constant tensor:
#      x y z
#    x 1.825710 0.000000 0.000000 
#    y 0.000000 1.842900 0.000000 
#    z 0.000000 0.000000 1.816430 
# 
# From -- ./inp_files/3115.got.cif
#   From: 2010.06.25/outbox.cif.g09.slc.cpg/sg48_2_cif.got.tgz:3115.got - 2010.06.26 18:06:46.
