data_PCOD8201080
_publ_section_title
;
Structure prediction by ZEFSAII (Michael W. Deem and Ramdas Pophale) SiO2 
 PCOD8201080
Probable space group: P M M M
;
_chemical_formula_sum "Si O2"
_cell_formula_units_Z 52
_cell_length_a 9.594128
_cell_length_b 9.629728
_cell_length_c 33.542981
_cell_angle_alpha 90.000000
_cell_angle_beta 90.000000
_cell_angle_gamma 90.000000
_cell_volume 3098.997207
_symmetry_space_group_name_H-M "P M M M"
_symmetry_group_IT_number 47
_symmetry_cell_setting 'orthorhombic'
loop_
_space_group_symop_operation_xyz
x,y,z
-x,-y,z
x,-y,-z
-x,y,-z
-x,-y,-z
x,y,-z
-x,y,z
x,-y,z
loop_
_atom_site_type_symbol
_atom_site_label
_atom_site_fract_x
_atom_site_fract_y
_atom_site_fract_z
Si Si1 0.834364 0.656010 0.189033
Si Si2 0.837442 0.161681 0.883304
Si Si3 0.337373 0.160435 0.574197
Si Si4 0.343477 0.164988 0.043973
Si Si5 0.834466 0.655850 0.723034
Si Si6 0.161110 0.839078 0.650900
Si Si7 0.665383 0.342354 0.500000
O O1 0.783032 0.500000 0.179476
O O2 0.776311 0.759876 0.155441
O O3 0.779924 0.701639 0.233017
O O4 0.000000 0.661188 0.189006
O O5 0.760380 0.222663 0.922316
O O6 0.000000 0.190989 0.889557
O O7 0.806196 0.000000 0.876840
O O8 0.500000 0.184600 0.583112
O O9 0.250607 0.205159 0.612791
O O10 0.282499 0.258759 0.538744
O O11 0.309252 0.000000 0.562515
O O12 0.500000 0.216233 0.053483
O O13 0.338185 0.000000 0.043982
O O14 0.297538 0.219123 0.000000
O O15 0.783135 0.500000 0.713571
O O16 0.776725 0.757591 0.688955
O O17 0.000000 0.661928 0.723135
O O18 0.000000 0.801334 0.642485
O O19 0.179532 0.000000 0.660711
O O20 0.725139 0.500000 0.500000
O O21 0.500000 0.345322 0.500000
#
# Coordination Sequence:
#
# PCOD8201080 Si02
#       7
#     8   8   8   8   8   8   4
#     4   8  14  25  40  58  82 111 138 163 198 245
#     4   9  16  24  38  63  86 100 125 170 211 235
#     4   9  17  30  47  64  84 112 141 167 202 250
#     4   8  14  25  40  57  79 108 137 162 195 244
#     4   8  14  25  41  60  82 110 141 168 197 239
#     4   9  17  28  43  65  89 110 136 172 209 241
#     4   9  17  29  46  67  86 106 140 181 210 236
#
# _framework density 16.779620999999999
#
# number of rings (size 3 to 8) (size 9 to 14) (size 15 to 20)
#    0.000    3.462    0.000    1.615    0.000    2.462 
#    0.000    5.000    0.000    4.154    0.000    9.692 
#    0.000    0.000    0.000    0.000    0.000    0.000 
#
# Total GULP energy -644467.503956 kJ/mol
# GULP energy per Si atom -12393.605845 kJ/mol
# Density = 1.674143 g / cm^3
# Si number density = 16.779621 Si / 1000 Ang^3
#
#
#
# Elastic Constant Matrix: (Units=GPa)
#
#
# Indices 1 2 3 4 5 6 
#
# 1 35.1692 27.0027 51.8930 0.0000 0.0000 0.0000
# 2 27.0027 72.2289 83.4742 0.0000 0.0000 0.0000
# 3 51.8930 83.4742 188.7996 0.0000 0.0000 0.0000
# 4 0.0000 0.0000 0.0000 16.9883 0.0000 0.0000
# 5 0.0000 0.0000 0.0000 0.0000 8.0337 0.0000
# 6 0.0000 0.0000 0.0000 0.0000 0.0000 9.7700
#
#
#
# Elastic Compliance Matrix: (Units=1/GPa)
#
#
# Indices 1 2 3 4 5 6 
#
# 1 0.048925 -0.005622 -0.010962 0.000000 0.000000 0.000000
# 2 -0.005622 0.028957 -0.011257 0.000000 0.000000 0.000000
# 3 -0.010962 -0.011257 0.013287 0.000000 0.000000 0.000000
# 4 0.000000 0.000000 0.000000 0.058864 0.000000 0.000000
# 5 0.000000 0.000000 0.000000 0.000000 0.124476 0.000000
# 6 0.000000 0.000000 0.000000 0.000000 0.000000 0.102355
#
#
# Mechanical properties :
#
#
# Convention : Reuss Voigt Hill
#
# Bulk Modulus (GPa) = 28.18028 68.99306 48.58667
# Shear Modulus (GPa) = 11.25180 15.88025 13.56602
#
# Velocity S-wave (km/s) = 2.59233 3.07970 2.84647
# Velocity P-wave (km/s) = 5.07849 7.33843 6.31045
#
# Compressibility (1/GPa) = 0.03548581
#
# Stress axis : x y z
#
# Youngs Moduli (GPa) = 20.43958 34.53416 75.26309
#
# Poissons Ratio (x) = 0.19416 0.82500
# Poissons Ratio (y) = 0.11492 0.84727
# Poissons Ratio (z) = 0.22405 0.38876
#
# Static dielectric constant tensor:
#      x y z
#    x 2.805690 0.000000 0.000000 
#    y 0.000000 3.103730 0.000000 
#    z 0.000000 0.000000 3.588700 
# 
# 
# High freq. dielectric constant tensor:
#      x y z
#    x 1.600660 0.000000 0.000000 
#    y 0.000000 1.628490 0.000000 
#    z 0.000000 0.000000 1.661160 
# 
# From -- ./inp_files/34502.got.cif
#   From: 2010.03.12/outbox.cif.g09.slc.cpg/sg47_18_cif.got.tgz:34502.got - 2010.04.14 03:12:58.
