data_PCOD8201606
_publ_section_title
;
Structure prediction by ZEFSAII (Michael W. Deem and Ramdas Pophale) SiO2 
 PCOD8201606
Probable space group: P N N N
;
_chemical_formula_sum "Si O2"
_cell_formula_units_Z 64
_cell_length_a 14.600482
_cell_length_b 23.245099
_cell_length_c 9.441889
_cell_angle_alpha 90.000000
_cell_angle_beta 90.000000
_cell_angle_gamma 90.000000
_cell_volume 3204.479399
_symmetry_space_group_name_H-M "P N N N"
_symmetry_group_IT_number 48
_space_group.IT_coordinate_system_code '2'
_symmetry_cell_setting 'orthorhombic'
loop_
_space_group_symop_operation_xyz
x,y,z
1/2-x,1/2-y,z
x,1/2-y,1/2-z
1/2-x,y,1/2-z
-x,-y,-z
1/2+x,1/2+y,-z
-x,1/2+y,1/2+z
1/2+x,-y,1/2+z
loop_
_atom_site_type_symbol
_atom_site_label
_atom_site_fract_x
_atom_site_fract_y
_atom_site_fract_z
Si Si1 0.835642 0.068396 0.666642
Si Si2 0.975846 0.182877 0.273481
Si Si3 0.977922 0.985540 0.341759
Si Si4 0.648454 0.886081 0.238114
Si Si5 0.397773 0.812100 0.252928
Si Si6 0.654894 0.082712 0.166617
Si Si7 0.929539 0.702066 0.052217
Si Si8 0.042044 0.329209 0.526477
O O1 0.750000 0.040018 0.750000
O O2 0.833383 0.135804 0.708665
O O3 0.826155 0.065572 0.496711
O O4 0.925153 0.034382 0.727258
O O5 0.947910 0.250000 0.250000
O O6 0.884146 0.147378 0.314312
O O7 0.051455 0.176637 0.396553
O O8 0.025799 0.155332 0.137082
O O9 0.911354 0.931634 0.345110
O O10 0.924056 0.039451 0.270288
O O11 0.000000 0.000000 0.500000
O O12 0.750000 0.910743 0.250000
O O13 0.651914 0.829936 0.135989
O O14 0.604959 0.875973 0.394073
O O15 0.345420 0.750000 0.250000
O O16 0.480167 0.808120 0.142960
O O17 0.440240 0.824797 0.407402
O O18 0.750000 0.076025 0.250000
O O19 0.904134 0.768889 0.042028
#
# Coordination Sequence:
#
# PCOD8201606 Si02
#       8
#     8   8   8   8   8   8   8   8
#     4  11  22  39  64  88 114 155 197 244 302 360
#     4  10  20  38  60  84 121 167 197 234 299 365
#     4  10  21  42  62  80 114 155 194 245 307 356
#     4  11  20  35  62  90 115 155 206 255 300 353
#     4   9  16  32  56  86 118 149 190 239 290 346
#     4  11  24  40  59  87 118 155 197 240 295 358
#     4   9  16  34  56  83 121 161 191 236 298 355
#     4   9  19  31  57  88 118 155 201 240 287 350
#
# _framework density 19.972041999999998
#
# number of rings (size 3 to 8) (size 9 to 14) (size 15 to 20)
#    0.000    2.000    3.750    2.250    1.750    1.500 
#    0.000    6.875    0.000    2.250    0.000    0.000 
#    0.000    0.000    0.000    0.000    0.000    0.000 
#
# Total GULP energy -793120.413867 kJ/mol
# GULP energy per Si atom -12392.506467 kJ/mol
# Density = 1.992659 g / cm^3
# Si number density = 19.972042 Si / 1000 Ang^3
#
#
#
# Elastic Constant Matrix: (Units=GPa)
#
#
# Indices 1 2 3 4 5 6 
#
# 1 123.8238 44.2462 34.2570 0.0000 0.0000 0.0000
# 2 44.2462 79.8241 22.2564 0.0000 0.0000 0.0000
# 3 34.2570 22.2564 114.0246 0.0000 0.0000 0.0000
# 4 0.0000 0.0000 0.0000 23.2285 0.0000 0.0000
# 5 0.0000 0.0000 0.0000 0.0000 16.0456 0.0000
# 6 0.0000 0.0000 0.0000 0.0000 0.0000 7.7808
#
#
#
# Elastic Compliance Matrix: (Units=1/GPa)
#
#
# Indices 1 2 3 4 5 6 
#
# 1 0.010544 -0.005247 -0.002144 0.000000 0.000000 0.000000
# 2 -0.005247 0.015859 -0.001519 0.000000 0.000000 0.000000
# 3 -0.002144 -0.001519 0.009711 0.000000 0.000000 0.000000
# 4 0.000000 0.000000 0.000000 0.043051 0.000000 0.000000
# 5 0.000000 0.000000 0.000000 0.000000 0.062322 0.000000
# 6 0.000000 0.000000 0.000000 0.000000 0.000000 0.128522
#
#
# Mechanical properties :
#
#
# Convention : Reuss Voigt Hill
#
# Bulk Modulus (GPa) = 54.66109 57.68797 56.17453
# Shear Modulus (GPa) = 17.01106 23.87184 20.44145
#
# Velocity S-wave (km/s) = 2.92163 3.46101 3.20269
# Velocity P-wave (km/s) = 6.22972 6.70213 6.47024
#
# Compressibility (1/GPa) = 0.01829455
#
# Stress axis : x y z
#
# Youngs Moduli (GPa) = 94.84174 63.05408 102.98016
#
# Poissons Ratio (x) = 0.33083 0.22075
# Poissons Ratio (y) = 0.49761 0.15646
# Poissons Ratio (z) = 0.20331 0.09580
#
# Static dielectric constant tensor:
#      x y z
#    x 3.531380 0.000000 0.000000 
#    y 0.000000 4.728070 0.000000 
#    z 0.000000 0.000000 3.756900 
# 
# 
# High freq. dielectric constant tensor:
#      x y z
#    x 1.753910 0.000000 0.000000 
#    y 0.000000 1.778820 0.000000 
#    z 0.000000 0.000000 1.773920 
# 
# From -- ./inp_files/13265.got.cif
#   From: 2010.06.25/outbox.cif.g09.slc.cpg/sg48_7_cif.got.tgz:13265.got - 2010.06.26 18:06:46.
