data_PCOD8201313
_publ_section_title
;
Structure prediction by ZEFSAII (Michael W. Deem and Ramdas Pophale) SiO2 
 PCOD8201313
Probable space group: P N N N
;
_chemical_formula_sum "Si O2"
_cell_formula_units_Z 60
_cell_length_a 13.003964
_cell_length_b 12.078763
_cell_length_c 19.437871
_cell_angle_alpha 90.000000
_cell_angle_beta 90.000000
_cell_angle_gamma 90.000000
_cell_volume 3053.141371
_symmetry_space_group_name_H-M "P N N N"
_symmetry_group_IT_number 48
_space_group.IT_coordinate_system_code '2'
_symmetry_cell_setting 'orthorhombic'
loop_
_space_group_symop_operation_xyz
x,y,z
1/2-x,1/2-y,z
x,1/2-y,1/2-z
1/2-x,y,1/2-z
-x,-y,-z
1/2+x,1/2+y,-z
-x,1/2+y,1/2+z
1/2+x,-y,1/2+z
loop_
_atom_site_type_symbol
_atom_site_label
_atom_site_fract_x
_atom_site_fract_y
_atom_site_fract_z
Si Si1 0.560939 0.646716 0.198566
Si Si2 0.296729 0.868755 0.878308
Si Si3 0.660135 0.463751 0.000072
Si Si4 0.250000 0.492041 0.750000
Si Si5 0.362162 0.879547 0.236174
Si Si6 0.467536 0.875681 0.980829
Si Si7 0.190641 0.640406 0.093505
Si Si8 0.956553 0.668997 0.463430
O O1 0.565310 0.750000 0.250000
O O2 0.664728 0.579125 0.209941
O O3 0.458474 0.573761 0.219089
O O4 0.549268 0.684600 0.119334
O O5 0.250000 0.750000 0.861094
O O6 0.221493 0.925312 0.932834
O O7 0.415306 0.867295 0.905839
O O8 0.305300 0.934703 0.807357
O O9 0.636538 0.592532 0.011220
O O10 0.730186 0.453708 0.931829
O O11 0.560392 0.389070 0.989214
O O12 0.357154 0.750000 0.250000
O O13 0.250000 0.934664 0.250000
O O14 0.380644 0.904130 0.155295
O O15 0.381375 0.825469 0.031334
O O16 0.558450 0.786890 0.995979
O O17 0.500000 0.000000 0.000000
O O18 0.250000 0.750000 0.119157
#
# Coordination Sequence:
#
# PCOD8201313 Si02
#       8
#     8   8   8   4   8   8   8   8
#     4  11  24  38  60  92 132 168 200 259 332 399
#     4  11  22  44  60  87 121 169 225 263 308 380
#     4  10  20  36  62  87 118 162 206 258 314 368
#     4  12  26  42  58  88 130 184 216 252 316 396
#     4  10  18  31  56  90 120 154 195 252 321 376
#     4  11  23  36  62  90 120 158 206 269 319 373
#     4  11  18  35  55  86 123 157 193 256 314 366
#     4  11  20  39  62  90 122 157 211 263 319 373
#
# _framework density 19.651889000000001
#
# number of rings (size 3 to 8) (size 9 to 14) (size 15 to 20)
#    0.000    1.200    5.333    3.600    3.733    0.000 
#    0.000    2.667    0.000    0.000    0.000    0.000 
#    0.000    0.000    0.000    0.000    0.000    0.000 
#
# Total GULP energy -743387.868840 kJ/mol
# GULP energy per Si atom -12389.797814 kJ/mol
# Density = 1.960716 g / cm^3
# Si number density = 19.651889 Si / 1000 Ang^3
#
#
#
# Elastic Constant Matrix: (Units=GPa)
#
#
# Indices 1 2 3 4 5 6 
#
# 1 67.9258 25.0568 24.2044 0.0000 0.0000 0.0000
# 2 25.0568 108.0403 36.4996 0.0000 0.0000 0.0000
# 3 24.2044 36.4996 122.4808 0.0000 0.0000 0.0000
# 4 0.0000 0.0000 0.0000 19.8522 0.0000 0.0000
# 5 0.0000 0.0000 0.0000 0.0000 15.6852 0.0000
# 6 0.0000 0.0000 0.0000 0.0000 0.0000 25.4523
#
#
#
# Elastic Compliance Matrix: (Units=1/GPa)
#
#
# Indices 1 2 3 4 5 6 
#
# 1 0.016704 -0.003068 -0.002387 0.000000 0.000000 0.000000
# 2 -0.003068 0.010855 -0.002629 0.000000 0.000000 0.000000
# 3 -0.002387 -0.002629 0.009420 0.000000 0.000000 0.000000
# 4 0.000000 0.000000 0.000000 0.050372 0.000000 0.000000
# 5 0.000000 0.000000 0.000000 0.000000 0.063755 0.000000
# 6 0.000000 0.000000 0.000000 0.000000 0.000000 0.039289
#
#
# Mechanical properties :
#
#
# Convention : Reuss Voigt Hill
#
# Bulk Modulus (GPa) = 48.04789 52.21872 50.13330
# Shear Modulus (GPa) = 23.41934 26.37702 24.89818
#
# Velocity S-wave (km/s) = 3.45586 3.66760 3.56330
# Velocity P-wave (km/s) = 6.35819 6.67567 6.51886
#
# Compressibility (1/GPa) = 0.02081257
#
# Stress axis : x y z
#
# Youngs Moduli (GPa) = 59.86561 92.12076 106.16184
#
# Poissons Ratio (x) = 0.28260 0.25339
# Poissons Ratio (y) = 0.18365 0.27907
# Poissons Ratio (z) = 0.14289 0.24216
#
# Static dielectric constant tensor:
#      x y z
#    x 4.242960 0.000000 0.000000 
#    y 0.000000 3.484060 0.000000 
#    z 0.000000 0.000000 3.771240 
# 
# 
# High freq. dielectric constant tensor:
#      x y z
#    x 1.766380 0.000000 0.000000 
#    y 0.000000 1.731290 0.000000 
#    z 0.000000 0.000000 1.774410 
# 
# From -- ./inp_files/34563.got.cif
#   From: 2010.06.25/outbox.cif.g09.slc.cpg/sg48_18_cif.got.tgz:34563.got - 2010.06.26 18:06:46.
