data_PCOD8201340
_publ_section_title
;
Structure prediction by ZEFSAII (Michael W. Deem and Ramdas Pophale) SiO2 
 PCOD8201340
Probable space group: P N N N
;
_chemical_formula_sum "Si O2"
_cell_formula_units_Z 58
_cell_length_a 13.242414
_cell_length_b 23.210477
_cell_length_c 9.865662
_cell_angle_alpha 90.000000
_cell_angle_beta 90.000000
_cell_angle_gamma 90.000000
_cell_volume 3032.336959
_symmetry_space_group_name_H-M "P N N N"
_symmetry_group_IT_number 48
_space_group.IT_coordinate_system_code '2'
_symmetry_cell_setting 'orthorhombic'
loop_
_space_group_symop_operation_xyz
x,y,z
1/2-x,1/2-y,z
x,1/2-y,1/2-z
1/2-x,y,1/2-z
-x,-y,-z
1/2+x,1/2+y,-z
-x,1/2+y,1/2+z
1/2+x,-y,1/2+z
loop_
_atom_site_type_symbol
_atom_site_label
_atom_site_fract_x
_atom_site_fract_y
_atom_site_fract_z
Si Si1 0.674940 0.537805 0.856286
Si Si2 0.750000 0.250000 0.750000
Si Si3 0.075569 0.717123 0.070757
Si Si4 0.343293 0.074763 0.654342
Si Si5 0.442652 0.545084 0.806189
Si Si6 0.984419 0.163951 0.825499
Si Si7 0.173366 0.914730 0.060781
Si Si8 0.670438 0.360742 0.363773
O O1 0.750000 0.568836 0.750000
O O2 0.562582 0.545842 0.799640
O O3 0.706811 0.470890 0.858310
O O4 0.696319 0.563350 0.003828
O O5 0.819170 0.287880 0.848322
O O6 0.030672 0.782175 0.068870
O O7 0.999679 0.680955 0.167125
O O8 0.096590 0.690473 0.920493
O O9 0.250000 0.091307 0.750000
O O10 0.416853 0.128790 0.636517
O O11 0.399977 0.019257 0.718180
O O12 0.397779 0.587907 0.693985
O O13 0.412694 0.566525 0.954173
O O14 0.880230 0.128629 0.836216
O O15 0.269390 0.886258 0.990059
O O16 0.750000 0.337296 0.250000
#
# Coordination Sequence:
#
# PCOD8201340 Si02
#       8
#     8   2   8   8   8   8   8   8
#     4  11  22  35  59  91 119 157 200 246 311 375
#     4   8  16  36  54  76 114 144 196 254 272 356
#     4  10  21  35  54  86 116 152 206 243 292 351
#     4  11  21  40  63  87 116 163 206 253 307 363
#     4  10  19  38  55  85 126 151 190 245 305 374
#     4  10  20  37  60  79 114 162 200 253 291 350
#     4  10  18  35  57  81 116 159 192 228 303 364
#     4  10  21  34  57  88 128 158 190 246 302 377
#
# _framework density 19.127162999999999
#
# number of rings (size 3 to 8) (size 9 to 14) (size 15 to 20)
#    0.000    1.931    2.759    4.552    1.931    1.103 
#    0.000   11.379    0.000    0.000    0.000    0.000 
#    0.000    0.000    0.000    0.000    0.000    0.000 
#
# Total GULP energy -718816.196487 kJ/mol
# GULP energy per Si atom -12393.382698 kJ/mol
# Density = 1.908363 g / cm^3
# Si number density = 19.127163 Si / 1000 Ang^3
#
#
#
# Elastic Constant Matrix: (Units=GPa)
#
#
# Indices 1 2 3 4 5 6 
#
# 1 92.5823 35.3716 51.2581 0.0000 0.0000 0.0000
# 2 35.3716 111.9130 52.4609 0.0000 0.0000 0.0000
# 3 51.2581 52.4609 94.7566 0.0000 0.0000 0.0000
# 4 0.0000 0.0000 0.0000 22.3060 0.0000 0.0000
# 5 0.0000 0.0000 0.0000 0.0000 23.7222 0.0000
# 6 0.0000 0.0000 0.0000 0.0000 0.0000 19.7912
#
#
#
# Elastic Compliance Matrix: (Units=1/GPa)
#
#
# Indices 1 2 3 4 5 6 
#
# 1 0.015561 -0.001313 -0.007690 0.000000 0.000000 0.000000
# 2 -0.001313 0.012178 -0.006032 0.000000 0.000000 0.000000
# 3 -0.007690 -0.006032 0.018053 0.000000 0.000000 0.000000
# 4 0.000000 0.000000 0.000000 0.044831 0.000000 0.000000
# 5 0.000000 0.000000 0.000000 0.000000 0.042155 0.000000
# 6 0.000000 0.000000 0.000000 0.000000 0.000000 0.050527
#
#
# Mechanical properties :
#
#
# Convention : Reuss Voigt Hill
#
# Bulk Modulus (GPa) = 63.61038 64.15922 63.88480
# Shear Modulus (GPa) = 22.87113 23.84131 23.35622
#
# Velocity S-wave (km/s) = 3.46170 3.53436 3.49822
# Velocity P-wave (km/s) = 7.02187 7.09027 7.05615
#
# Compressibility (1/GPa) = 0.01572070
#
# Stress axis : x y z
#
# Youngs Moduli (GPa) = 64.26440 82.11459 55.39251
#
# Poissons Ratio (x) = 0.10783 0.42599
# Poissons Ratio (y) = 0.08439 0.33412
# Poissons Ratio (z) = 0.49422 0.49531
#
# Static dielectric constant tensor:
#      x y z
#    x 3.317900 0.000000 0.000000 
#    y 0.000000 3.560340 0.000000 
#    z 0.000000 0.000000 3.527140 
# 
# 
# High freq. dielectric constant tensor:
#      x y z
#    x 1.726370 0.000000 0.000000 
#    y 0.000000 1.738610 0.000000 
#    z 0.000000 0.000000 1.739010 
# 
# From -- ./inp_files/13248.got.cif
#   From: 2010.06.25/outbox.cif.g09.slc.cpg/sg48_7_cif.got.tgz:13248.got - 2010.06.26 18:06:46.
