data_PCOD8201032
_publ_section_title
;
Structure prediction by ZEFSAII (Michael W. Deem and Ramdas Pophale) SiO2 
 PCOD8201032
Probable space group: P M M M
;
_chemical_formula_sum "Si O2"
_cell_formula_units_Z 48
_cell_length_a 19.759630
_cell_length_b 20.669553
_cell_length_c 9.308849
_cell_angle_alpha 90.000000
_cell_angle_beta 90.000000
_cell_angle_gamma 90.000000
_cell_volume 3801.945424
_symmetry_space_group_name_H-M "P M M M"
_symmetry_group_IT_number 47
_symmetry_cell_setting 'orthorhombic'
loop_
_space_group_symop_operation_xyz
x,y,z
-x,-y,z
x,-y,-z
-x,y,-z
-x,-y,-z
x,y,-z
-x,y,z
x,-y,z
loop_
_atom_site_type_symbol
_atom_site_label
_atom_site_fract_x
_atom_site_fract_y
_atom_site_fract_z
Si Si1 0.080757 0.500000 0.836667
Si Si2 0.080370 0.623432 0.662523
Si Si3 0.078781 0.250111 0.167645
Si Si4 0.923867 0.000000 0.171667
Si Si5 0.155609 0.876712 0.829525
Si Si6 0.574062 0.076878 0.337989
Si Si7 0.298242 0.925062 0.832103
O O1 0.108784 0.562726 0.752662
O O2 0.000000 0.500000 0.838858
O O3 0.108529 0.500000 0.000000
O O4 0.109246 0.621726 0.500000
O O5 0.103947 0.688565 0.741664
O O6 0.000000 0.619996 0.659072
O O7 0.123231 0.190134 0.225101
O O8 0.000000 0.234301 0.194963
O O9 0.091473 0.264553 0.000000
O O10 0.887014 0.063471 0.233942
O O11 0.000000 0.000000 0.229742
O O12 0.921798 0.000000 0.000000
O O13 0.233522 0.883657 0.779352
O O14 0.151274 0.879669 0.000000
O O15 0.585416 0.100973 0.500000
O O16 0.500000 0.100982 0.282721
O O17 0.634893 0.104797 0.241917
O O18 0.575577 0.000000 0.330734
O O19 0.285870 0.000000 0.790672
O O20 0.309635 0.917803 0.000000
#
# Coordination Sequence:
#
# PCOD8201032 Si02
#       7
#     4   8   8   4   8   8   8
#     4   9  15  23  37  55  71  85 103 129 162 203
#     4   9  16  25  36  50  68  88 108 133 168 207
#     4   9  16  25  36  49  65  87 116 147 177 209
#     4   9  14  20  32  48  64  83 110 146 187 223
#     4   9  15  23  33  48  68  87 110 145 184 215
#     4   8  14  24  36  49  65  83 102 126 158 200
#     4   9  15  23  35  50  68  86 105 135 174 212
#
# _framework density 12.625114999999999
#
# number of rings (size 3 to 8) (size 9 to 14) (size 15 to 20)
#    0.000    3.167    0.833    1.750    0.000    5.333 
#    0.000    2.500    0.000    0.000    0.000    0.000 
#    0.000    4.000    0.000    0.000    0.000    0.000 
#
# Total GULP energy -594918.406237 kJ/mol
# GULP energy per Si atom -12394.133463 kJ/mol
# Density = 1.259638 g / cm^3
# Si number density = 12.625115 Si / 1000 Ang^3
#
#
#
# Elastic Constant Matrix: (Units=GPa)
#
#
# Indices 1 2 3 4 5 6 
#
# 1 84.2637 41.1295 30.4524 0.0000 0.0000 0.0000
# 2 41.1295 91.9463 40.0188 0.0000 0.0000 0.0000
# 3 30.4524 40.0188 54.3721 0.0000 0.0000 0.0000
# 4 0.0000 0.0000 0.0000 9.5629 0.0000 0.0000
# 5 0.0000 0.0000 0.0000 0.0000 8.7376 0.0000
# 6 0.0000 0.0000 0.0000 0.0000 0.0000 4.1117
#
#
#
# Elastic Compliance Matrix: (Units=1/GPa)
#
#
# Indices 1 2 3 4 5 6 
#
# 1 0.016233 -0.004862 -0.005513 0.000000 0.000000 0.000000
# 2 -0.004862 0.017458 -0.010127 0.000000 0.000000 0.000000
# 3 -0.005513 -0.010127 0.028933 0.000000 0.000000 0.000000
# 4 0.000000 0.000000 0.000000 0.104571 0.000000 0.000000
# 5 0.000000 0.000000 0.000000 0.000000 0.114447 0.000000
# 6 0.000000 0.000000 0.000000 0.000000 0.000000 0.243206
#
#
# Mechanical properties :
#
#
# Convention : Reuss Voigt Hill
#
# Bulk Modulus (GPa) = 46.25164 50.42036 48.33600
# Shear Modulus (GPa) = 8.72511 12.41455 10.56983
#
# Velocity S-wave (km/s) = 2.63171 3.13920 2.89659
# Velocity P-wave (km/s) = 6.77855 7.29127 7.03958
#
# Compressibility (1/GPa) = 0.02162085
#
# Stress axis : x y z
#
# Youngs Moduli (GPa) = 61.60276 57.27979 34.56258
#
# Poissons Ratio (x) = 0.27848 0.19056
# Poissons Ratio (y) = 0.29950 0.35000
# Poissons Ratio (z) = 0.33964 0.58005
#
# Static dielectric constant tensor:
#      x y z
#    x 2.559800 0.000000 0.000000 
#    y 0.000000 2.485320 0.000000 
#    z 0.000000 0.000000 2.501820 
# 
# 
# High freq. dielectric constant tensor:
#      x y z
#    x 1.448860 0.000000 0.000000 
#    y 0.000000 1.453120 0.000000 
#    z 0.000000 0.000000 1.467630 
# 
# From -- ./inp_files/11706.got.cif
#   From: 2010.03.12/outbox.cif.g09.slc.cpg/sg47_6_cif.got.tgz:11706.got - 2010.04.14 03:12:58.
