data_PCOD8201404
_publ_section_title
;
Structure prediction by ZEFSAII (Michael W. Deem and Ramdas Pophale) SiO2 
 PCOD8201404
Probable space group: P N N N
;
_chemical_formula_sum "Si O2"
_cell_formula_units_Z 46
_cell_length_a 12.538305
_cell_length_b 18.042789
_cell_length_c 10.143897
_cell_angle_alpha 90.000000
_cell_angle_beta 90.000000
_cell_angle_gamma 90.000000
_cell_volume 2294.813157
_symmetry_space_group_name_H-M "P N N N"
_symmetry_group_IT_number 48
_space_group.IT_coordinate_system_code '2'
_symmetry_cell_setting 'orthorhombic'
loop_
_space_group_symop_operation_xyz
x,y,z
1/2-x,1/2-y,z
x,1/2-y,1/2-z
1/2-x,y,1/2-z
-x,-y,-z
1/2+x,1/2+y,-z
-x,1/2+y,1/2+z
1/2+x,-y,1/2+z
loop_
_atom_site_type_symbol
_atom_site_label
_atom_site_fract_x
_atom_site_fract_y
_atom_site_fract_z
Si Si1 0.750000 0.101282 0.250000
Si Si2 0.061932 0.391126 0.438382
Si Si3 0.911346 0.250000 0.750000
Si Si4 0.470130 0.830677 0.810318
Si Si5 0.750000 0.376080 0.750000
Si Si6 0.250000 0.250000 0.750000
Si Si7 0.155594 0.956913 0.010875
Si Si8 0.919332 0.764053 0.454399
O O1 0.655887 0.149945 0.181258
O O2 0.795944 0.050192 0.134745
O O3 0.146709 0.455740 0.460994
O O4 0.118521 0.312569 0.475379
O O5 0.029799 0.388950 0.284010
O O6 0.955875 0.412227 0.521733
O O7 0.847899 0.323645 0.784433
O O8 0.979413 0.267160 0.621955
O O9 0.476591 0.750000 0.750000
O O10 0.537850 0.828418 0.947378
O O11 0.765744 0.425705 0.621244
O O12 0.171379 0.204798 0.648675
#
# Coordination Sequence:
#
# PCOD8201404 Si02
#       8
#     4   8   4   8   4   2   8   8
#     4  10  19  33  58  94 119 153 188 242 318 383
#     4   9  19  37  57  76 114 159 186 244 296 351
#     4  10  20  32  60  84 122 146 186 248 318 362
#     4   9  18  33  59  88 119 148 194 256 310 358
#     4  11  20  34  56  94 117 154 186 242 317 386
#     4  10  24  36  58  78 114 162 216 250 296 338
#     4  10  20  35  56  83 120 151 192 229 300 375
#     4  10  19  39  56  83 114 155 203 255 293 350
#
# _framework density 20.045204999999999
#
# number of rings (size 3 to 8) (size 9 to 14) (size 15 to 20)
#    0.000    2.261    1.739    1.304    0.000    0.696 
#    3.130    3.043    0.000    4.174    0.000    0.000 
#    0.000    0.000    0.000    0.000    0.000    0.000 
#
# Total GULP energy -569852.484032 kJ/mol
# GULP energy per Si atom -12388.097479 kJ/mol
# Density = 1.999958 g / cm^3
# Si number density = 20.045205 Si / 1000 Ang^3
#
#
#
# Elastic Constant Matrix: (Units=GPa)
#
#
# Indices 1 2 3 4 5 6 
#
# 1 99.0365 35.3747 61.8274 0.0000 0.0000 0.0000
# 2 35.3747 85.4714 47.6092 0.0000 0.0000 0.0000
# 3 61.8274 47.6092 123.3122 0.0000 0.0000 0.0000
# 4 0.0000 0.0000 0.0000 18.1934 0.0000 0.0000
# 5 0.0000 0.0000 0.0000 0.0000 41.2975 0.0000
# 6 0.0000 0.0000 0.0000 0.0000 0.0000 1.2421
#
#
#
# Elastic Compliance Matrix: (Units=1/GPa)
#
#
# Indices 1 2 3 4 5 6 
#
# 1 0.015137 -0.002596 -0.006587 0.000000 0.000000 0.000000
# 2 -0.002596 0.015350 -0.004625 0.000000 0.000000 0.000000
# 3 -0.006587 -0.004625 0.013198 0.000000 0.000000 0.000000
# 4 0.000000 0.000000 0.000000 0.054965 0.000000 0.000000
# 5 0.000000 0.000000 0.000000 0.000000 0.024215 0.000000
# 6 0.000000 0.000000 0.000000 0.000000 0.000000 0.805091
#
#
# Mechanical properties :
#
#
# Convention : Reuss Voigt Hill
#
# Bulk Modulus (GPa) = 62.23124 66.38252 64.30688
# Shear Modulus (GPa) = 5.20330 23.01387 14.10859
#
# Velocity S-wave (km/s) = 1.61289 3.39204 2.65587
# Velocity P-wave (km/s) = 5.88060 6.96631 6.44635
#
# Compressibility (1/GPa) = 0.01606910
#
# Stress axis : x y z
#
# Youngs Moduli (GPa) = 66.06434 65.14502 75.76886
#
# Poissons Ratio (x) = 0.16908 0.49911
# Poissons Ratio (y) = 0.17147 0.35045
# Poissons Ratio (z) = 0.43519 0.30131
#
# Static dielectric constant tensor:
#      x y z
#    x 3.676230 0.000000 0.000000 
#    y 0.000000 3.382090 0.000000 
#    z 0.000000 0.000000 15.103650 
# 
# 
# High freq. dielectric constant tensor:
#      x y z
#    x 1.776400 0.000000 0.000000 
#    y 0.000000 1.753350 0.000000 
#    z 0.000000 0.000000 1.789700 
# 
# From -- ./inp_files/20143.got.cif
#   From: 2010.06.25/outbox.cif.g09.slc.cpg/sg48_11_cif.got.tgz:20143.got - 2010.06.26 18:06:46.
