data_PCOD8201907
_publ_section_title
;
Structure prediction by ZEFSAII (Michael W. Deem and Ramdas Pophale) SiO2 
 PCOD8201907
Probable space group: P N N N
;
_chemical_formula_sum "Si O2"
_cell_formula_units_Z 40
_cell_length_a 13.279651
_cell_length_b 15.647902
_cell_length_c 8.889819
_cell_angle_alpha 90.000000
_cell_angle_beta 90.000000
_cell_angle_gamma 90.000000
_cell_volume 1847.292631
_symmetry_space_group_name_H-M "P N N N"
_symmetry_group_IT_number 48
_space_group.IT_coordinate_system_code '2'
_symmetry_cell_setting 'orthorhombic'
loop_
_space_group_symop_operation_xyz
x,y,z
1/2-x,1/2-y,z
x,1/2-y,1/2-z
1/2-x,y,1/2-z
-x,-y,-z
1/2+x,1/2+y,-z
-x,1/2+y,1/2+z
1/2+x,-y,1/2+z
loop_
_atom_site_type_symbol
_atom_site_label
_atom_site_fract_x
_atom_site_fract_y
_atom_site_fract_z
Si Si1 0.358861 0.392855 0.704121
Si Si2 0.045743 0.549678 0.642919
Si Si3 0.988818 0.250000 0.750000
Si Si4 0.154094 0.803880 0.017540
Si Si5 0.750000 0.425935 0.750000
Si Si6 0.409250 0.041393 0.092793
O O1 0.250000 0.358328 0.750000
O O2 0.376488 0.487890 0.770138
O O3 0.443752 0.333313 0.775635
O O4 0.363030 0.388832 0.521385
O O5 0.104270 0.638376 0.611606
O O6 0.000000 0.500000 0.500000
O O7 0.953702 0.578231 0.751525
O O8 0.923918 0.261993 0.903882
O O9 0.250000 0.750000 0.955958
O O10 0.177242 0.867532 0.153372
O O11 0.817826 0.478893 0.865850
O O12 0.500000 0.000000 0.000000
#
# Coordination Sequence:
#
# PCOD8201907 Si02
#       6
#     8   8   4   8   4   8
#     4  11  24  43  68 100 135 181 239 289 354 427
#     4  11  21  42  69  98 138 184 228 287 359 435
#     4  12  22  42  70  96 140 182 234 296 350 420
#     4  12  23  37  68 105 139 179 239 292 357 418
#     4  12  19  38  72 102 127 182 234 290 351 424
#     4  10  23  39  69  98 137 177 235 289 346 428
#
# _framework density 21.653309
#
# number of rings (size 3 to 8) (size 9 to 14) (size 15 to 20)
#    0.000    0.800    6.000    2.700    0.000    0.000 
#    0.000    1.000    8.800    0.000    0.000    0.000 
#    0.000    0.000    0.000    0.000    0.000    0.000 
#
# Total GULP energy -495877.176743 kJ/mol
# GULP energy per Si atom -12396.929419 kJ/mol
# Density = 2.160402 g / cm^3
# Si number density = 21.653309 Si / 1000 Ang^3
#
#
#
# Elastic Constant Matrix: (Units=GPa)
#
#
# Indices 1 2 3 4 5 6 
#
# 1 134.6984 44.9528 48.1010 0.0000 0.0000 0.0000
# 2 44.9528 80.7450 29.0746 0.0000 0.0000 0.0000
# 3 48.1010 29.0746 122.5185 0.0000 0.0000 0.0000
# 4 0.0000 0.0000 0.0000 35.7339 0.0000 0.0000
# 5 0.0000 0.0000 0.0000 0.0000 48.1340 0.0000
# 6 0.0000 0.0000 0.0000 0.0000 0.0000 31.6422
#
#
#
# Elastic Compliance Matrix: (Units=1/GPa)
#
#
# Indices 1 2 3 4 5 6 
#
# 1 0.009942 -0.004515 -0.002832 0.000000 0.000000 0.000000
# 2 -0.004515 0.015593 -0.001927 0.000000 0.000000 0.000000
# 3 -0.002832 -0.001927 0.009731 0.000000 0.000000 0.000000
# 4 0.000000 0.000000 0.000000 0.027985 0.000000 0.000000
# 5 0.000000 0.000000 0.000000 0.000000 0.020775 0.000000
# 6 0.000000 0.000000 0.000000 0.000000 0.000000 0.031603
#
#
# Mechanical properties :
#
#
# Convention : Reuss Voigt Hill
#
# Bulk Modulus (GPa) = 59.82075 64.69098 62.25587
# Shear Modulus (GPa) = 35.77800 37.49092 36.63446
#
# Velocity S-wave (km/s) = 4.06927 4.16554 4.11769
# Velocity P-wave (km/s) = 7.05445 7.28535 7.17083
#
# Compressibility (1/GPa) = 0.01671661
#
# Stress axis : x y z
#
# Youngs Moduli (GPa) = 100.58190 64.13316 102.76229
#
# Poissons Ratio (x) = 0.28959 0.29100
# Poissons Ratio (y) = 0.45417 0.19807
# Poissons Ratio (z) = 0.28482 0.12362
#
# Static dielectric constant tensor:
#      x y z
#    x 4.062980 0.000000 0.000000 
#    y 0.000000 3.712790 0.000000 
#    z 0.000000 0.000000 4.162170 
# 
# 
# High freq. dielectric constant tensor:
#      x y z
#    x 1.866630 0.000000 0.000000 
#    y 0.000000 1.821270 0.000000 
#    z 0.000000 0.000000 1.852340 
# 
# From -- ./inp_files/12392.got.cif
#   From: 2010.06.25/outbox.cif.g09.slc.cpg/sg48_7_cif.got.tgz:12392.got - 2010.06.26 18:06:46.
