data_PCOD8201663
_publ_section_title
;
Structure prediction by ZEFSAII (Michael W. Deem and Ramdas Pophale) SiO2 
 PCOD8201663
Probable space group: P N N N
;
_chemical_formula_sum "Si O2"
_cell_formula_units_Z 40
_cell_length_a 15.734707
_cell_length_b 8.042138
_cell_length_c 11.810033
_cell_angle_alpha 90.000000
_cell_angle_beta 90.000000
_cell_angle_gamma 90.000000
_cell_volume 1494.449667
_symmetry_space_group_name_H-M "P N N N"
_symmetry_group_IT_number 48
_space_group.IT_coordinate_system_code '2'
_symmetry_cell_setting 'orthorhombic'
loop_
_space_group_symop_operation_xyz
x,y,z
1/2-x,1/2-y,z
x,1/2-y,1/2-z
1/2-x,y,1/2-z
-x,-y,-z
1/2+x,1/2+y,-z
-x,1/2+y,1/2+z
1/2+x,-y,1/2+z
loop_
_atom_site_type_symbol
_atom_site_label
_atom_site_fract_x
_atom_site_fract_y
_atom_site_fract_z
Si Si1 0.059275 0.564325 0.897155
Si Si2 0.747981 0.564165 0.418601
Si Si3 0.083027 0.926861 0.860504
Si Si4 0.018453 0.776409 0.124471
Si Si5 0.205375 0.910354 0.132749
O O1 0.152522 0.497974 0.916727
O O2 0.057441 0.762860 0.940258
O O3 0.043397 0.593615 0.763828
O O4 0.989151 0.413945 0.935358
O O5 0.750000 0.750000 0.369862
O O6 0.814199 0.447340 0.348619
O O7 0.781975 0.564109 0.548220
O O8 0.046316 0.086610 0.927871
O O9 0.978966 0.750000 0.250000
O O10 0.108483 0.860747 0.147653
O O11 0.250000 0.750000 0.076771
O O12 0.250000 0.957624 0.250000
#
# Coordination Sequence:
#
# PCOD8201663 Si02
#       5
#     8   8   8   8   8
#     4  10  21  40  70 106 138 175 218 281 352 411
#     4  12  24  42  64 104 142 182 228 278 345 413
#     4  10  21  39  70 106 142 173 217 284 350 412
#     4  10  20  42  72  97 132 173 230 280 341 395
#     4  11  24  47  70  89 133 189 233 281 334 400
#
# _framework density 26.765706000000002
#
# number of rings (size 3 to 8) (size 9 to 14) (size 15 to 20)
#    0.000    1.400    4.000    2.400    0.000    3.600 
#    3.600    4.000    0.000    0.000    0.000    0.000 
#    0.000    0.000    0.000    0.000    0.000    0.000 
#
# Total GULP energy -495767.081348 kJ/mol
# GULP energy per Si atom -12394.177034 kJ/mol
# Density = 2.670479 g / cm^3
# Si number density = 26.765706 Si / 1000 Ang^3
#
#
#
# Elastic Constant Matrix: (Units=GPa)
#
#
# Indices 1 2 3 4 5 6 
#
# 1 166.4534 78.6085 20.7298 0.0000 0.0000 0.0000
# 2 78.6085 209.5160 53.8360 0.0000 0.0000 0.0000
# 3 20.7298 53.8360 75.6224 0.0000 0.0000 0.0000
# 4 0.0000 0.0000 0.0000 27.6580 0.0000 0.0000
# 5 0.0000 0.0000 0.0000 0.0000 27.0151 0.0000
# 6 0.0000 0.0000 0.0000 0.0000 0.0000 33.7375
#
#
#
# Elastic Compliance Matrix: (Units=1/GPa)
#
#
# Indices 1 2 3 4 5 6 
#
# 1 0.007302 -0.002723 -0.000063 0.000000 0.000000 0.000000
# 2 -0.002723 0.006857 -0.004135 0.000000 0.000000 0.000000
# 3 -0.000063 -0.004135 0.016185 0.000000 0.000000 0.000000
# 4 0.000000 0.000000 0.000000 0.036156 0.000000 0.000000
# 5 0.000000 0.000000 0.000000 0.000000 0.037016 0.000000
# 6 0.000000 0.000000 0.000000 0.000000 0.000000 0.029641
#
#
# Mechanical properties :
#
#
# Convention : Reuss Voigt Hill
#
# Bulk Modulus (GPa) = 60.60267 84.21557 72.40912
# Shear Modulus (GPa) = 32.78705 37.57663 35.18184
#
# Velocity S-wave (km/s) = 3.50375 3.75094 3.62945
# Velocity P-wave (km/s) = 6.24975 7.09167 6.68398
#
# Compressibility (1/GPa) = 0.01650092
#
# Stress axis : x y z
#
# Youngs Moduli (GPa) = 136.95563 145.83126 61.78697
#
# Poissons Ratio (x) = 0.39715 0.00388
# Poissons Ratio (y) = 0.37298 0.25550
# Poissons Ratio (z) = 0.00859 0.60304
#
# Static dielectric constant tensor:
#      x y z
#    x 4.757020 0.000000 0.000000 
#    y 0.000000 5.955950 0.000000 
#    z 0.000000 0.000000 5.845690 
# 
# 
# High freq. dielectric constant tensor:
#      x y z
#    x 2.072820 0.000000 0.000000 
#    y 0.000000 2.096190 0.000000 
#    z 0.000000 0.000000 2.122070 
# 
# From -- ./inp_files/27058.got.cif
#   From: 2010.06.25/outbox.cif.g09.slc.cpg/sg48_14_cif.got.tgz:27058.got - 2010.06.26 18:06:46.
