data_PCOD8201861
_publ_section_title
;
Structure prediction by ZEFSAII (Michael W. Deem and Ramdas Pophale) SiO2 
 PCOD8201861
Probable space group: P N N N
;
_chemical_formula_sum "Si O2"
_cell_formula_units_Z 26
_cell_length_a 8.471841
_cell_length_b 4.974503
_cell_length_c 30.206400
_cell_angle_alpha 90.000000
_cell_angle_beta 90.000000
_cell_angle_gamma 90.000000
_cell_volume 1272.994310
_symmetry_space_group_name_H-M "P N N N"
_symmetry_group_IT_number 48
_space_group.IT_coordinate_system_code '2'
_symmetry_cell_setting 'orthorhombic'
loop_
_space_group_symop_operation_xyz
x,y,z
1/2-x,1/2-y,z
x,1/2-y,1/2-z
1/2-x,y,1/2-z
-x,-y,-z
1/2+x,1/2+y,-z
-x,1/2+y,1/2+z
1/2+x,-y,1/2+z
loop_
_atom_site_type_symbol
_atom_site_label
_atom_site_fract_x
_atom_site_fract_y
_atom_site_fract_z
Si Si1 0.642873 0.010646 0.033305
Si Si2 0.750000 0.250000 0.750000
Si Si3 0.407627 0.629992 0.165577
Si Si4 0.917148 0.373959 0.133830
O O1 0.750000 0.250000 0.016062
O O2 0.577089 0.062903 0.082126
O O3 0.750000 0.750000 0.033174
O O4 0.500000 0.000000 0.000000
O O5 0.634828 0.423600 0.782362
O O6 0.250000 0.750000 0.141577
O O7 0.449703 0.347127 0.143874
O O8 0.547726 0.850405 0.160320
O O9 0.750000 0.250000 0.149105
#
# Coordination Sequence:
#
# PCOD8201861 Si02
#       4
#     8   2   8   8
#     4  11  24  42  63  92 132 168 214 265 314 375
#     4   8  24  42  66  90 132 150 222 266 312 362
#     4  10  22  40  65  87 124 163 206 259 312 374
#     4  11  22  40  62  93 126 163 205 262 318 371
#
# _framework density 20.424288000000001
#
# number of rings (size 3 to 8) (size 9 to 14) (size 15 to 20)
#    0.923    0.615    0.000    6.462    0.000    6.154 
#    0.000    4.615    0.000    0.000    0.000    0.000 
#    0.000    0.000    0.000    0.000    0.000    0.000 
#
# Total GULP energy -322261.040081 kJ/mol
# GULP energy per Si atom -12394.655388 kJ/mol
# Density = 2.037780 g / cm^3
# Si number density = 20.424288 Si / 1000 Ang^3
#
#
#
# Elastic Constant Matrix: (Units=GPa)
#
#
# Indices 1 2 3 4 5 6 
#
# 1 96.2797 41.6500 81.0195 0.0000 0.0000 0.0000
# 2 41.6500 143.4060 64.7976 0.0000 0.0000 0.0000
# 3 81.0195 64.7976 130.1052 0.0000 0.0000 0.0000
# 4 0.0000 0.0000 0.0000 17.5154 0.0000 0.0000
# 5 0.0000 0.0000 0.0000 0.0000 52.7351 0.0000
# 6 0.0000 0.0000 0.0000 0.0000 0.0000 42.4829
#
#
#
# Elastic Compliance Matrix: (Units=1/GPa)
#
#
# Indices 1 2 3 4 5 6 
#
# 1 0.021828 -0.000255 -0.013466 0.000000 0.000000 0.000000
# 2 -0.000255 0.009001 -0.004324 0.000000 0.000000 0.000000
# 3 -0.013466 -0.004324 0.018225 0.000000 0.000000 0.000000
# 4 0.000000 0.000000 0.000000 0.057092 0.000000 0.000000
# 5 0.000000 0.000000 0.000000 0.000000 0.018963 0.000000
# 6 0.000000 0.000000 0.000000 0.000000 0.000000 0.023539
#
#
# Mechanical properties :
#
#
# Convention : Reuss Voigt Hill
#
# Bulk Modulus (GPa) = 77.13419 82.74723 79.94071
# Shear Modulus (GPa) = 26.44654 34.70161 30.57407
#
# Velocity S-wave (km/s) = 3.60232 4.12641 3.87324
# Velocity P-wave (km/s) = 7.42631 7.95645 7.69595
#
# Compressibility (1/GPa) = 0.01296442
#
# Stress axis : x y z
#
# Youngs Moduli (GPa) = 45.81179 111.09742 54.86906
#
# Poissons Ratio (x) = 0.02835 0.73887
# Poissons Ratio (y) = 0.01169 0.23726
# Poissons Ratio (z) = 0.61690 0.48039
#
# Static dielectric constant tensor:
#      x y z
#    x 3.544890 0.000000 0.000000 
#    y 0.000000 3.462780 0.000000 
#    z 0.000000 0.000000 3.339220 
# 
# 
# High freq. dielectric constant tensor:
#      x y z
#    x 1.807740 0.000000 0.000000 
#    y 0.000000 1.810340 0.000000 
#    z 0.000000 0.000000 1.783380 
# 
# From -- ./inp_files/919.got.cif
#   From: 2010.06.25/outbox.cif.g09.slc.cpg/sg48_1_cif.got.tgz:919.got - 2010.06.26 18:06:46.
