data_PCOD8201765
_publ_section_title
;
Structure prediction by ZEFSAII (Michael W. Deem and Ramdas Pophale) SiO2 
 PCOD8201765
Probable space group: P N N N
;
_chemical_formula_sum "Si O2"
_cell_formula_units_Z 64
_cell_length_a 11.554415
_cell_length_b 8.949863
_cell_length_c 30.021775
_cell_angle_alpha 90.000000
_cell_angle_beta 90.000000
_cell_angle_gamma 90.000000
_cell_volume 3104.564701
_symmetry_space_group_name_H-M "P N N N"
_symmetry_group_IT_number 48
_space_group.IT_coordinate_system_code '2'
_symmetry_cell_setting 'orthorhombic'
loop_
_space_group_symop_operation_xyz
x,y,z
1/2-x,1/2-y,z
x,1/2-y,1/2-z
1/2-x,y,1/2-z
-x,-y,-z
1/2+x,1/2+y,-z
-x,1/2+y,1/2+z
1/2+x,-y,1/2+z
loop_
_atom_site_type_symbol
_atom_site_label
_atom_site_fract_x
_atom_site_fract_y
_atom_site_fract_z
Si Si1 0.642479 0.545507 0.602608
Si Si2 0.885801 0.577156 0.257610
Si Si3 0.898940 0.022094 0.911279
Si Si4 0.465729 0.588120 0.676562
Si Si5 0.584252 0.081225 0.347994
Si Si6 0.519981 0.681611 0.441088
Si Si7 0.626638 0.727764 0.972614
Si Si8 0.790806 0.595047 0.122609
O O1 0.766961 0.465036 0.606522
O O2 0.590644 0.572415 0.652215
O O3 0.565227 0.452411 0.568185
O O4 0.640837 0.701296 0.576619
O O5 0.919042 0.750000 0.250000
O O6 0.750000 0.545225 0.250000
O O7 0.966273 0.463706 0.228079
O O8 0.916824 0.536357 0.307975
O O9 0.900371 0.944684 0.960249
O O10 0.965577 0.923956 0.874846
O O11 0.965919 0.178009 0.914999
O O12 0.405129 0.749439 0.670156
O O13 0.387216 0.461900 0.655435
O O14 0.689268 0.030242 0.381323
O O15 0.527674 0.710948 0.494267
O O16 0.649065 0.637754 0.424367
O O17 0.750000 0.750000 0.997355
O O18 0.750000 0.750000 0.144969
#
# Coordination Sequence:
#
# PCOD8201765 Si02
#       8
#     8   8   8   8   8   8   8   8
#     4  10  23  42  63  89 127 172 217 260 323 382
#     4  11  24  40  66  96 130 165 207 261 327 390
#     4  11  23  40  65  90 126 175 216 264 320 391
#     4  11  23  40  64  92 129 168 210 264 317 386
#     4  12  23  39  65  95 128 167 215 260 331 387
#     4  11  22  38  64  91 127 167 218 268 319 377
#     4  10  21  40  63  90 125 168 216 272 325 382
#     4  11  21  36  59  93 129 166 204 259 324 382
#
# _framework density 20.614806000000002
#
# number of rings (size 3 to 8) (size 9 to 14) (size 15 to 20)
#    0.000    1.125    3.750    3.000    1.750    0.500 
#    0.000    0.625    2.750    2.250    0.000    0.000 
#    0.000    0.000    0.000    0.000    0.000    0.000 
#
# Total GULP energy -793139.710855 kJ/mol
# GULP energy per Si atom -12392.807982 kJ/mol
# Density = 2.056789 g / cm^3
# Si number density = 20.614806 Si / 1000 Ang^3
#
#
#
# Elastic Constant Matrix: (Units=GPa)
#
#
# Indices 1 2 3 4 5 6 
#
# 1 112.4994 31.9261 48.9514 0.0000 0.0000 0.0000
# 2 31.9261 99.3842 22.0921 0.0000 0.0000 0.0000
# 3 48.9514 22.0921 75.9669 0.0000 0.0000 0.0000
# 4 0.0000 0.0000 0.0000 27.5099 0.0000 0.0000
# 5 0.0000 0.0000 0.0000 0.0000 21.0578 0.0000
# 6 0.0000 0.0000 0.0000 0.0000 0.0000 17.5312
#
#
#
# Elastic Compliance Matrix: (Units=1/GPa)
#
#
# Indices 1 2 3 4 5 6 
#
# 1 0.012888 -0.002453 -0.007592 0.000000 0.000000 0.000000
# 2 -0.002453 0.011224 -0.001684 0.000000 0.000000 0.000000
# 3 -0.007592 -0.001684 0.018545 0.000000 0.000000 0.000000
# 4 0.000000 0.000000 0.000000 0.036350 0.000000 0.000000
# 5 0.000000 0.000000 0.000000 0.000000 0.047488 0.000000
# 6 0.000000 0.000000 0.000000 0.000000 0.000000 0.057041
#
#
# Mechanical properties :
#
#
# Convention : Reuss Voigt Hill
#
# Bulk Modulus (GPa) = 52.07907 54.86553 53.47230
# Shear Modulus (GPa) = 23.43081 25.54518 24.48800
#
# Velocity S-wave (km/s) = 3.37501 3.52400 3.45031
# Velocity P-wave (km/s) = 6.36438 6.57499 6.47054
#
# Compressibility (1/GPa) = 0.01920157
#
# Stress axis : x y z
#
# Youngs Moduli (GPa) = 77.58963 89.09389 53.92239
#
# Poissons Ratio (x) = 0.21852 0.40936
# Poissons Ratio (y) = 0.19030 0.09079
# Poissons Ratio (z) = 0.58904 0.15000
#
# Static dielectric constant tensor:
#      x y z
#    x 3.910230 0.000000 0.000000 
#    y 0.000000 3.792870 0.000000 
#    z 0.000000 0.000000 3.749120 
# 
# 
# High freq. dielectric constant tensor:
#      x y z
#    x 1.795700 0.000000 0.000000 
#    y 0.000000 1.820850 0.000000 
#    z 0.000000 0.000000 1.793750 
# 
# From -- ./inp_files/38842.got.cif
#   From: 2010.06.25/outbox.cif.g09.slc.cpg/sg48_20_cif.got.tgz:38842.got - 2010.06.26 18:06:46.
