data_PCOD8201666
_publ_section_title
;
Structure prediction by ZEFSAII (Michael W. Deem and Ramdas Pophale) SiO2 
 PCOD8201666
Probable space group: P N N N
;
_chemical_formula_sum "Si O2"
_cell_formula_units_Z 46
_cell_length_a 8.327343
_cell_length_b 11.294248
_cell_length_c 23.334866
_cell_angle_alpha 90.000000
_cell_angle_beta 90.000000
_cell_angle_gamma 90.000000
_cell_volume 2194.669279
_symmetry_space_group_name_H-M "P N N N"
_symmetry_group_IT_number 48
_space_group.IT_coordinate_system_code '2'
_symmetry_cell_setting 'orthorhombic'
loop_
_space_group_symop_operation_xyz
x,y,z
1/2-x,1/2-y,z
x,1/2-y,1/2-z
1/2-x,y,1/2-z
-x,-y,-z
1/2+x,1/2+y,-z
-x,1/2+y,1/2+z
1/2+x,-y,1/2+z
loop_
_atom_site_type_symbol
_atom_site_label
_atom_site_fract_x
_atom_site_fract_y
_atom_site_fract_z
Si Si1 0.250000 0.250000 0.116866
Si Si2 0.744455 0.995342 0.025575
Si Si3 0.450030 0.619448 0.058587
Si Si4 0.945510 0.644111 0.711466
Si Si5 0.750000 0.250000 0.250000
Si Si6 0.750000 0.250000 0.847061
Si Si7 0.992204 0.824411 0.526395
Si Si8 0.250000 0.933496 0.250000
O O1 0.145569 0.152891 0.151197
O O2 0.121412 0.321471 0.080828
O O3 0.659331 0.116097 0.046804
O O4 0.820071 0.021783 0.962019
O O5 0.880212 0.947826 0.070393
O O6 0.602695 0.899297 0.021804
O O7 0.392964 0.698511 0.112616
O O8 0.474583 0.698024 0.001562
O O9 0.872334 0.750000 0.750000
O O10 0.905272 0.515193 0.737334
O O11 0.139109 0.664927 0.709533
O O12 0.694983 0.144136 0.804999
#
# Coordination Sequence:
#
# PCOD8201666 Si02
#       8
#     4   8   8   8   2   4   8   4
#     4  12  21  36  68 100 130 173 212 282 342 404
#     4  10  22  37  62  88 133 183 212 262 318 407
#     4  11  21  43  60  91 133 176 224 270 328 404
#     4  10  20  43  70  96 129 166 221 285 335 396
#     4   8  20  46  62  98 126 158 216 300 342 384
#     4  11  26  40  71  92 131 184 231 278 328 408
#     4  11  22  38  59  98 136 168 222 260 327 416
#     4  11  23  44  70  98 121 177 244 270 332 417
#
# _framework density 20.959879999999998
#
# number of rings (size 3 to 8) (size 9 to 14) (size 15 to 20)
#    0.522    0.870    5.217    0.000    2.435    0.000 
#    6.261    0.000    3.826    1.043    0.000    0.000 
#    0.000    0.000    0.000    0.000    0.000    0.000 
#
# Total GULP energy -569887.251407 kJ/mol
# GULP energy per Si atom -12388.853291 kJ/mol
# Density = 2.091217 g / cm^3
# Si number density = 20.959880 Si / 1000 Ang^3
#
#
#
# Elastic Constant Matrix: (Units=GPa)
#
#
# Indices 1 2 3 4 5 6 
#
# 1 154.9081 46.7674 48.7126 0.0000 0.0000 0.0000
# 2 46.7674 100.4599 36.2076 0.0000 0.0000 0.0000
# 3 48.7126 36.2076 95.5299 0.0000 0.0000 0.0000
# 4 0.0000 0.0000 0.0000 24.6530 0.0000 0.0000
# 5 0.0000 0.0000 0.0000 0.0000 28.5463 0.0000
# 6 0.0000 0.0000 0.0000 0.0000 0.0000 27.5863
#
#
#
# Elastic Compliance Matrix: (Units=1/GPa)
#
#
# Indices 1 2 3 4 5 6 
#
# 1 0.008276 -0.002701 -0.003196 0.000000 0.000000 0.000000
# 2 -0.002701 0.012410 -0.003327 0.000000 0.000000 0.000000
# 3 -0.003196 -0.003327 0.013359 0.000000 0.000000 0.000000
# 4 0.000000 0.000000 0.000000 0.040563 0.000000 0.000000
# 5 0.000000 0.000000 0.000000 0.000000 0.035031 0.000000
# 6 0.000000 0.000000 0.000000 0.000000 0.000000 0.036250
#
#
# Mechanical properties :
#
#
# Convention : Reuss Voigt Hill
#
# Bulk Modulus (GPa) = 64.11265 68.25255 66.18260
# Shear Modulus (GPa) = 29.49231 30.77113 30.13172
#
# Velocity S-wave (km/s) = 3.75518 3.83573 3.79567
# Velocity P-wave (km/s) = 7.03253 7.22850 7.13119
#
# Compressibility (1/GPa) = 0.01559755
#
# Stress axis : x y z
#
# Youngs Moduli (GPa) = 120.83213 80.57721 74.85733
#
# Poissons Ratio (x) = 0.21761 0.23928
# Poissons Ratio (y) = 0.32633 0.24903
# Poissons Ratio (z) = 0.38624 0.26805
#
# Static dielectric constant tensor:
#      x y z
#    x 3.918360 0.000000 0.000000 
#    y 0.000000 4.065960 0.000000 
#    z 0.000000 0.000000 3.510070 
# 
# 
# High freq. dielectric constant tensor:
#      x y z
#    x 1.826920 0.000000 0.000000 
#    y 0.000000 1.832680 0.000000 
#    z 0.000000 0.000000 1.782060 
# 
# From -- ./inp_files/37489.got.cif
#   From: 2010.06.25/outbox.cif.g09.slc.cpg/sg48_19_cif.got.tgz:37489.got - 2010.06.26 18:06:46.
