data_PCOD8201986
_publ_section_title
;
Structure prediction by ZEFSAII (Michael W. Deem and Ramdas Pophale) SiO2 
 PCOD8201986
Probable space group: P N N N
;
_chemical_formula_sum "Si O2"
_cell_formula_units_Z 28
_cell_length_a 24.089925
_cell_length_b 4.953602
_cell_length_c 10.284663
_cell_angle_alpha 90.000000
_cell_angle_beta 90.000000
_cell_angle_gamma 90.000000
_cell_volume 1227.288383
_symmetry_space_group_name_H-M "P N N N"
_symmetry_group_IT_number 48
_space_group.IT_coordinate_system_code '2'
_symmetry_cell_setting 'orthorhombic'
loop_
_space_group_symop_operation_xyz
x,y,z
1/2-x,1/2-y,z
x,1/2-y,1/2-z
1/2-x,y,1/2-z
-x,-y,-z
1/2+x,1/2+y,-z
-x,1/2+y,1/2+z
1/2+x,-y,1/2+z
loop_
_atom_site_type_symbol
_atom_site_label
_atom_site_fract_x
_atom_site_fract_y
_atom_site_fract_z
Si Si1 0.289126 0.003079 0.567253
Si Si2 0.873615 0.250000 0.250000
Si Si3 0.382883 0.080522 0.383239
Si Si4 0.564278 0.068958 0.001392
O O1 0.250000 0.250000 0.600664
O O2 0.319404 0.026576 0.426468
O O3 0.250000 0.750000 0.556337
O O4 0.333845 0.973357 0.683376
O O5 0.916163 0.353374 0.143431
O O6 0.386781 0.250000 0.250000
O O7 0.406953 0.282416 0.487876
O O8 0.417470 0.795671 0.392287
O O9 0.500000 0.000000 0.000000
#
# Coordination Sequence:
#
# PCOD8201986 Si02
#       4
#     8   4   8   8
#     4  11  24  43  70 102 138 183 227 287 356 411
#     4  10  25  44  70 104 140 172 239 292 342 426
#     4  11  25  47  67 102 143 181 237 289 342 435
#     4  11  25  45  72 100 137 187 234 291 356 412
#
# _framework density 22.814520999999999
#
# number of rings (size 3 to 8) (size 9 to 14) (size 15 to 20)
#    0.000    1.143    0.000    5.571    2.000   14.286 
#   10.286    4.286    0.000    0.000    0.000    0.000 
#    0.000    0.000    0.000    0.000    0.000    0.000 
#
# Total GULP energy -346882.658094 kJ/mol
# GULP energy per Si atom -12388.666361 kJ/mol
# Density = 2.276259 g / cm^3
# Si number density = 22.814521 Si / 1000 Ang^3
#
#
#
# Elastic Constant Matrix: (Units=GPa)
#
#
# Indices 1 2 3 4 5 6 
#
# 1 192.7345 84.2328 78.4759 0.0000 0.0000 0.0000
# 2 84.2328 149.5475 11.9854 0.0000 0.0000 0.0000
# 3 78.4759 11.9854 75.0265 0.0000 0.0000 0.0000
# 4 0.0000 0.0000 0.0000 36.2762 0.0000 0.0000
# 5 0.0000 0.0000 0.0000 0.0000 30.9787 0.0000
# 6 0.0000 0.0000 0.0000 0.0000 0.0000 40.4029
#
#
#
# Elastic Compliance Matrix: (Units=1/GPa)
#
#
# Indices 1 2 3 4 5 6 
#
# 1 0.013187 -0.006404 -0.012770 0.000000 0.000000 0.000000
# 2 -0.006404 0.009884 0.005120 0.000000 0.000000 0.000000
# 3 -0.012770 0.005120 0.025868 0.000000 0.000000 0.000000
# 4 0.000000 0.000000 0.000000 0.027566 0.000000 0.000000
# 5 0.000000 0.000000 0.000000 0.000000 0.032280 0.000000
# 6 0.000000 0.000000 0.000000 0.000000 0.000000 0.024751
#
#
# Mechanical properties :
#
#
# Convention : Reuss Voigt Hill
#
# Bulk Modulus (GPa) = 48.00904 85.18854 66.59879
# Shear Modulus (GPa) = 29.65796 37.70586 33.68191
#
# Velocity S-wave (km/s) = 3.60941 4.06977 3.84648
# Velocity P-wave (km/s) = 6.20156 7.71393 6.99871
#
# Compressibility (1/GPa) = 0.02082941
#
# Stress axis : x y z
#
# Youngs Moduli (GPa) = 75.83188 101.17696 38.65748
#
# Poissons Ratio (x) = 0.64795 0.49367
# Poissons Ratio (y) = 0.48564 -0.19791
# Poissons Ratio (z) = 0.96840 -0.51800
#
# Static dielectric constant tensor:
#      x y z
#    x 4.240280 0.000000 0.000000 
#    y 0.000000 4.482230 0.000000 
#    z 0.000000 0.000000 4.164060 
# 
# 
# High freq. dielectric constant tensor:
#      x y z
#    x 1.909090 0.000000 0.000000 
#    y 0.000000 1.922980 0.000000 
#    z 0.000000 0.000000 1.899490 
# 
# From -- ./inp_files/16178.got.cif
#   From: 2010.06.25/outbox.cif.g09.slc.cpg/sg48_9_cif.got.tgz:16178.got - 2010.06.26 18:06:46.
