data_PCOD8201466
_publ_section_title
;
Structure prediction by ZEFSAII (Michael W. Deem and Ramdas Pophale) SiO2 
 PCOD8201466
Probable space group: P N N N
;
_chemical_formula_sum "Si O2"
_cell_formula_units_Z 42
_cell_length_a 19.244059
_cell_length_b 10.583634
_cell_length_c 10.494079
_cell_angle_alpha 90.000000
_cell_angle_beta 90.000000
_cell_angle_gamma 90.000000
_cell_volume 2137.350868
_symmetry_space_group_name_H-M "P N N N"
_symmetry_group_IT_number 48
_space_group.IT_coordinate_system_code '2'
_symmetry_cell_setting 'orthorhombic'
loop_
_space_group_symop_operation_xyz
x,y,z
1/2-x,1/2-y,z
x,1/2-y,1/2-z
1/2-x,y,1/2-z
-x,-y,-z
1/2+x,1/2+y,-z
-x,1/2+y,1/2+z
1/2+x,-y,1/2+z
loop_
_atom_site_type_symbol
_atom_site_label
_atom_site_fract_x
_atom_site_fract_y
_atom_site_fract_z
Si Si1 0.932524 0.314472 0.373079
Si Si2 0.955934 0.711481 0.044908
Si Si3 0.142850 0.921512 0.106792
Si Si4 0.003596 0.433505 0.719062
Si Si5 0.826713 0.714261 0.604259
Si Si6 0.250000 0.750000 0.250000
O O1 0.896379 0.250000 0.250000
O O2 0.874151 0.364626 0.468029
O O3 0.983198 0.213093 0.439924
O O4 0.982424 0.425510 0.324407
O O5 0.970903 0.591674 0.136512
O O6 0.955624 0.840709 0.124845
O O7 0.880785 0.702658 0.978496
O O8 0.078671 0.907975 0.204965
O O9 0.205728 0.841217 0.160996
O O10 0.164017 0.065520 0.086459
O O11 0.750000 0.750000 0.556354
O O12 0.838134 0.750000 0.750000
#
# Coordination Sequence:
#
# PCOD8201466 Si02
#       6
#     8   8   8   8   8   2
#     4  11  21  39  64  92 128 160 202 263 311 358
#     4  10  19  37  62  93 120 156 209 255 310 365
#     4  11  22  44  62  90 130 161 206 256 305 365
#     4  10  20  38  67  90 119 162 201 264 317 352
#     4  11  22  39  62  90 123 162 206 258 310 361
#     4  12  24  40  68  88 124 176 214 240 304 388
#
# _framework density 19.650493999999998
#
# number of rings (size 3 to 8) (size 9 to 14) (size 15 to 20)
#    0.000    1.333    3.810    5.143    0.000    0.762 
#    6.857    2.381    0.000    0.000    0.000    0.000 
#    0.000    0.000    0.000    0.000    0.000    0.000 
#
# Total GULP energy -520871.258358 kJ/mol
# GULP energy per Si atom -12401.696628 kJ/mol
# Density = 1.960577 g / cm^3
# Si number density = 19.650494 Si / 1000 Ang^3
#
#
#
# Elastic Constant Matrix: (Units=GPa)
#
#
# Indices 1 2 3 4 5 6 
#
# 1 133.9260 38.9792 70.8914 0.0000 0.0000 0.0000
# 2 38.9792 48.6520 43.5595 0.0000 0.0000 0.0000
# 3 70.8914 43.5595 137.0090 0.0000 0.0000 0.0000
# 4 0.0000 0.0000 0.0000 29.8338 0.0000 0.0000
# 5 0.0000 0.0000 0.0000 0.0000 22.0324 0.0000
# 6 0.0000 0.0000 0.0000 0.0000 0.0000 29.0707
#
#
#
# Elastic Compliance Matrix: (Units=1/GPa)
#
#
# Indices 1 2 3 4 5 6 
#
# 1 0.011176 -0.005279 -0.004104 0.000000 0.000000 0.000000
# 2 -0.005279 0.031227 -0.007196 0.000000 0.000000 0.000000
# 3 -0.004104 -0.007196 0.011710 0.000000 0.000000 0.000000
# 4 0.000000 0.000000 0.000000 0.033519 0.000000 0.000000
# 5 0.000000 0.000000 0.000000 0.000000 0.045388 0.000000
# 6 0.000000 0.000000 0.000000 0.000000 0.000000 0.034399
#
#
# Mechanical properties :
#
#
# Convention : Reuss Voigt Hill
#
# Bulk Modulus (GPa) = 47.72502 69.60527 58.66515
# Shear Modulus (GPa) = 24.08906 27.26449 25.67677
#
# Velocity S-wave (km/s) = 3.50505 3.72892 3.61871
# Velocity P-wave (km/s) = 6.38123 7.35108 6.88326
#
# Compressibility (1/GPa) = 0.02095337
#
# Stress axis : x y z
#
# Youngs Moduli (GPa) = 89.47890 32.02358 85.39477
#
# Poissons Ratio (x) = 0.16906 0.35047
# Poissons Ratio (y) = 0.47239 0.61453
# Poissons Ratio (z) = 0.36723 0.23045
#
# Static dielectric constant tensor:
#      x y z
#    x 3.499480 0.000000 0.000000 
#    y 0.000000 3.557040 0.000000 
#    z 0.000000 0.000000 3.869690 
# 
# 
# High freq. dielectric constant tensor:
#      x y z
#    x 1.748070 0.000000 0.000000 
#    y 0.000000 1.770960 0.000000 
#    z 0.000000 0.000000 1.773700 
# 
# From -- ./inp_files/15058.got.cif
#   From: 2010.06.25/outbox.cif.g09.slc.cpg/sg48_8_cif.got.tgz:15058.got - 2010.06.26 18:06:46.
