data_PCOD8201230
_publ_section_title
;
Structure prediction by ZEFSAII (Michael W. Deem and Ramdas Pophale) SiO2 
 PCOD8201230
Probable space group: P M M M
;
_chemical_formula_sum "Si O2"
_cell_formula_units_Z 40
_cell_length_a 7.669304
_cell_length_b 29.744470
_cell_length_c 9.313340
_cell_angle_alpha 90.000000
_cell_angle_beta 90.000000
_cell_angle_gamma 90.000000
_cell_volume 2124.553372
_symmetry_space_group_name_H-M "P M M M"
_symmetry_group_IT_number 47
_symmetry_cell_setting 'orthorhombic'
loop_
_space_group_symop_operation_xyz
x,y,z
-x,-y,z
x,-y,-z
-x,y,-z
-x,-y,-z
x,y,-z
-x,y,z
x,-y,z
loop_
_atom_site_type_symbol
_atom_site_label
_atom_site_fract_x
_atom_site_fract_y
_atom_site_fract_z
Si Si1 0.500000 0.753826 0.170237
Si Si2 0.500000 0.653960 0.169614
Si Si3 0.703948 0.000000 0.660329
Si Si4 0.206252 0.500000 0.338794
Si Si5 0.798410 0.095020 0.340475
Si Si6 0.200765 0.180163 0.831510
Si Si7 0.200941 0.587410 0.831733
O O1 0.500000 0.703832 0.238567
O O2 0.324049 0.779158 0.221266
O O3 0.500000 0.750669 0.000000
O O4 0.676066 0.628397 0.218453
O O5 0.500000 0.658149 0.000000
O O6 0.766599 0.953674 0.735750
O O7 0.500000 0.000000 0.656848
O O8 0.785720 0.000000 0.500000
O O9 0.284723 0.500000 0.500000
O O10 0.269292 0.456003 0.254019
O O11 0.000000 0.500000 0.344458
O O12 0.710672 0.095850 0.500000
O O13 0.723809 0.135063 0.243026
O O14 0.000000 0.104139 0.355876
O O15 0.000000 0.191356 0.790015
O O16 0.218643 0.171962 0.000000
O O17 0.000000 0.599562 0.795024
O O18 0.222386 0.576954 0.000000
#
# Coordination Sequence:
#
# PCOD8201230 Si02
#       7
#     4   4   4   4   8   8   8
#     4   9  18  32  50  71  96 122 153 197 240 281
#     4   9  18  31  48  73  97 121 158 199 240 281
#     4   9  17  27  42  67  94 120 151 186 226 273
#     4   9  17  30  49  72  99 133 166 193 229 278
#     4   9  17  30  48  68  91 120 153 189 229 275
#     4   9  18  32  50  71  94 122 155 191 234 281
#     4   9  17  30  49  72  98 126 158 198 237 273
#
# _framework density 18.827487000000001
#
# number of rings (size 3 to 8) (size 9 to 14) (size 15 to 20)
#    0.000    3.000    0.000    0.600    1.400    3.600 
#    0.000    7.000    0.000    5.400    0.000    5.600 
#    0.000    0.000    0.000    0.000    0.000    0.000 
#
# Total GULP energy -495720.906271 kJ/mol
# GULP energy per Si atom -12393.022657 kJ/mol
# Density = 1.878463 g / cm^3
# Si number density = 18.827487 Si / 1000 Ang^3
#
#
#
# Elastic Constant Matrix: (Units=GPa)
#
#
# Indices 1 2 3 4 5 6 
#
# 1 90.9130 74.0417 24.2882 0.0000 0.0000 0.0000
# 2 74.0417 205.8479 47.4214 0.0000 0.0000 0.0000
# 3 24.2882 47.4214 42.9935 0.0000 0.0000 0.0000
# 4 0.0000 0.0000 0.0000 13.0560 0.0000 0.0000
# 5 0.0000 0.0000 0.0000 0.0000 9.7380 0.0000
# 6 0.0000 0.0000 0.0000 0.0000 0.0000 31.8553
#
#
#
# Elastic Compliance Matrix: (Units=1/GPa)
#
#
# Indices 1 2 3 4 5 6 
#
# 1 0.015962 -0.004912 -0.003599 0.000000 0.000000 0.000000
# 2 -0.004912 0.008025 -0.006076 0.000000 0.000000 0.000000
# 3 -0.003599 -0.006076 0.031994 0.000000 0.000000 0.000000
# 4 0.000000 0.000000 0.000000 0.076593 0.000000 0.000000
# 5 0.000000 0.000000 0.000000 0.000000 0.102690 0.000000
# 6 0.000000 0.000000 0.000000 0.000000 0.000000 0.031392
#
#
# Mechanical properties :
#
#
# Convention : Reuss Voigt Hill
#
# Bulk Modulus (GPa) = 37.30510 70.13967 53.72238
# Shear Modulus (GPa) = 16.40605 23.86340 20.13472
#
# Velocity S-wave (km/s) = 2.95513 3.56403 3.27377
# Velocity P-wave (km/s) = 5.61257 7.36689 6.54874
#
# Compressibility (1/GPa) = 0.02680599
#
# Stress axis : x y z
#
# Youngs Moduli (GPa) = 62.65034 124.61789 31.25556
#
# Poissons Ratio (x) = 0.61214 0.11249
# Poissons Ratio (y) = 0.30775 0.18991
# Poissons Ratio (z) = 0.22549 0.75718
#
# Static dielectric constant tensor:
#      x y z
#    x 3.421990 0.000000 0.000000 
#    y 0.000000 3.832590 0.000000 
#    z 0.000000 0.000000 3.325360 
# 
# 
# High freq. dielectric constant tensor:
#      x y z
#    x 1.733000 0.000000 0.000000 
#    y 0.000000 1.735110 0.000000 
#    z 0.000000 0.000000 1.683830 
# 
# From -- ./inp_files/1903.got.cif
#   From: 2010.03.12/outbox.cif.g09.slc.cpg/sg47_1_cif.got.tgz:1903.got - 2010.04.14 03:12:58.
