data_PCOD8201241
_publ_section_title
;
Structure prediction by ZEFSAII (Michael W. Deem and Ramdas Pophale) SiO2 
 PCOD8201241
Probable space group: P M M M
;
_chemical_formula_sum "Si O2"
_cell_formula_units_Z 48
_cell_length_a 9.000000
_cell_length_b 15.000000
_cell_length_c 18.000000
_cell_angle_alpha 90.000000
_cell_angle_beta 90.000000
_cell_angle_gamma 90.000000
_cell_volume 2430.000000
_symmetry_space_group_name_H-M "P M M M"
_symmetry_group_IT_number 47
_symmetry_cell_setting 'orthorhombic'
loop_
_space_group_symop_operation_xyz
x,y,z
-x,-y,z
x,-y,-z
-x,y,-z
-x,-y,-z
x,y,-z
-x,y,z
x,-y,z
loop_
_atom_site_type_symbol
_atom_site_label
_atom_site_fract_x
_atom_site_fract_y
_atom_site_fract_z
Si Si1 0.832847 0.100931 0.805377
Si Si2 0.676162 0.645842 0.322621
Si Si3 0.167057 0.500000 0.587498
Si Si4 0.333924 0.896140 0.500000
Si Si5 0.323586 0.402993 0.158977
Si Si6 0.826244 0.170056 0.353459
Si Si7 0.676223 0.771565 0.082502
O O1 0.800665 0.105853 0.717245
O O2 0.723648 0.158273 0.855677
O O3 0.000000 0.134003 0.821352
O O4 0.809983 0.000000 0.830806
O O5 0.500000 0.642509 0.329455
O O6 0.746259 0.586958 0.386851
O O7 0.732477 0.611608 0.242838
O O8 0.733962 0.743804 0.333789
O O9 0.164132 0.500000 0.500000
O O10 0.000000 0.500000 0.619719
O O11 0.500000 0.851717 0.500000
O O12 0.240654 0.871348 0.427533
O O13 0.355962 0.000000 0.500000
O O14 0.500000 0.399677 0.158827
O O15 0.267105 0.500000 0.131140
O O16 0.261063 0.326081 0.105053
O O17 0.000000 0.190639 0.366400
O O18 0.500000 0.770572 0.081850
O O19 0.737158 0.795271 0.000000
#
# Coordination Sequence:
#
# PCOD8201241 Si02
#       7
#     8   8   4   4   8   8   8
#     4  10  22  40  62  87 116 157 205 249 300 362
#     4  11  21  37  61  87 116 154 202 251 298 354
#     4  11  25  41  57  83 122 161 202 250 303 359
#     4  11  25  43  63  90 121 154 195 245 301 359
#     4   9  17  33  58  87 116 150 193 240 292 351
#     4  11  23  40  63  89 120 157 200 249 303 362
#     4  10  21  37  59  89 123 157 197 249 304 360
#
# _framework density 19.753086
#
# number of rings (size 3 to 8) (size 9 to 14) (size 15 to 20)
#    0.000    1.667    2.500    2.000    1.167    4.000 
#    0.000    3.333    0.000    0.000    0.000    1.167 
#    0.000    0.000    0.000    0.000    0.000    0.000 
#
# Total GULP energy -595095.939871 kJ/mol
# GULP energy per Si atom -12397.832081 kJ/mol
# Density = 1.970813 g / cm^3
# Si number density = 19.753086 Si / 1000 Ang^3
#
#
#
# Elastic Constant Matrix: (Units=GPa)
#
#
# Indices 1 2 3 4 5 6 
#
# 1 73.5370 24.2837 43.8047 0.0000 0.0000 0.0000
# 2 24.2837 89.1638 38.1801 0.0000 0.0000 0.0000
# 3 43.8047 38.1801 125.2533 0.0000 0.0000 0.0000
# 4 0.0000 0.0000 0.0000 17.9509 0.0000 0.0000
# 5 0.0000 0.0000 0.0000 0.0000 27.7410 0.0000
# 6 0.0000 0.0000 0.0000 0.0000 0.0000 15.1283
#
#
#
# Elastic Compliance Matrix: (Units=1/GPa)
#
#
# Indices 1 2 3 4 5 6 
#
# 1 0.017644 -0.002488 -0.005412 0.000000 0.000000 0.000000
# 2 -0.002488 0.013250 -0.003169 0.000000 0.000000 0.000000
# 3 -0.005412 -0.003169 0.010843 0.000000 0.000000 0.000000
# 4 0.000000 0.000000 0.000000 0.055707 0.000000 0.000000
# 5 0.000000 0.000000 0.000000 0.000000 0.036048 0.000000
# 6 0.000000 0.000000 0.000000 0.000000 0.000000 0.066101
#
#
# Mechanical properties :
#
#
# Convention : Reuss Voigt Hill
#
# Bulk Modulus (GPa) = 51.02385 55.61012 53.31699
# Shear Modulus (GPa) = 21.90451 24.27643 23.09047
#
# Velocity S-wave (km/s) = 3.33365 3.50950 3.42271
# Velocity P-wave (km/s) = 6.38001 6.68101 6.53225
#
# Compressibility (1/GPa) = 0.01959868
#
# Stress axis : x y z
#
# Youngs Moduli (GPa) = 56.67592 75.47324 92.22892
#
# Poissons Ratio (x) = 0.18776 0.49917
# Poissons Ratio (y) = 0.14100 0.29225
# Poissons Ratio (z) = 0.30675 0.23916
#
# Static dielectric constant tensor:
#      x y z
#    x 3.587970 0.000000 0.000000 
#    y 0.000000 4.554610 0.000000 
#    z 0.000000 0.000000 2.965050 
# 
# 
# High freq. dielectric constant tensor:
#      x y z
#    x 1.756240 0.000000 0.000000 
#    y 0.000000 1.773130 0.000000 
#    z 0.000000 0.000000 1.775980 
# 
# From -- ./inp_files/21156.got.cif
#   From: 2010.03.12/outbox.ucp.g09.slc.cvg/sg47_11_cif.got.tgz:21156.got - 2010.05.04 21:26:29.
