data_PCOD8201202
_publ_section_title
;
Structure prediction by ZEFSAII (Michael W. Deem and Ramdas Pophale) SiO2 
 PCOD8201202
Probable space group: P M M M
;
_chemical_formula_sum "Si O2"
_cell_formula_units_Z 48
_cell_length_a 32.892320
_cell_length_b 8.129767
_cell_length_c 9.685373
_cell_angle_alpha 90.000000
_cell_angle_beta 90.000000
_cell_angle_gamma 90.000000
_cell_volume 2589.935547
_symmetry_space_group_name_H-M "P M M M"
_symmetry_group_IT_number 47
_symmetry_cell_setting 'orthorhombic'
loop_
_space_group_symop_operation_xyz
x,y,z
-x,-y,z
x,-y,-z
-x,y,-z
-x,-y,-z
x,y,-z
-x,y,z
x,-y,z
loop_
_atom_site_type_symbol
_atom_site_label
_atom_site_fract_x
_atom_site_fract_y
_atom_site_fract_z
Si Si1 0.000000 0.307182 0.844231
Si Si2 0.598963 0.189742 0.837761
Si Si3 0.831781 0.308090 0.153923
Si Si4 0.916235 0.808839 0.841693
Si Si5 0.323941 0.808209 0.655651
Si Si6 0.454674 0.500000 0.163271
Si Si7 0.762200 0.691934 0.346859
O O1 0.041328 0.245074 0.768236
O O2 0.000000 0.500000 0.844382
O O3 0.000000 0.233757 0.000000
O O4 0.639745 0.238393 0.757727
O O5 0.566558 0.328385 0.789218
O O6 0.584949 0.000000 0.802341
O O7 0.607707 0.204311 0.000000
O O8 0.824036 0.500000 0.142431
O O9 0.876053 0.275190 0.223367
O O10 0.796295 0.227177 0.247521
O O11 0.829890 0.228480 0.000000
O O12 0.910308 0.000000 0.825383
O O13 0.918872 0.749249 0.000000
O O14 0.334494 0.747209 0.500000
O O15 0.283021 0.722586 0.712071
O O16 0.315732 0.000000 0.656479
O O17 0.500000 0.500000 0.227070
O O18 0.456756 0.500000 0.000000
O O19 0.765665 0.771552 0.500000
O O20 0.770594 0.500000 0.356706
#
# Coordination Sequence:
#
# PCOD8201202 Si02
#       7
#     4   8   8   8   8   4   8
#     4   9  15  23  37  57  82 113 144 175 216 266
#     4   9  18  32  50  74 102 131 165 205 246 288
#     4   9  17  29  43  61  87 117 148 183 225 271
#     4   9  16  25  38  58  84 112 143 180 221 265
#     4   9  18  32  49  69  94 125 159 196 240 287
#     4   9  18  32  51  77 105 133 167 205 245 290
#     4   9  18  31  46  65  89 119 155 191 228 275
#
# _framework density 18.533279
#
# number of rings (size 3 to 8) (size 9 to 14) (size 15 to 20)
#    0.000    3.000    0.000    0.750    1.167    4.667 
#    0.000    1.667    0.000    1.000    0.000    2.917 
#    0.000    4.667    0.000    0.000    0.000    0.000 
#
# Total GULP energy -594778.371852 kJ/mol
# GULP energy per Si atom -12391.216080 kJ/mol
# Density = 1.849110 g / cm^3
# Si number density = 18.533279 Si / 1000 Ang^3
#
#
#
# Elastic Constant Matrix: (Units=GPa)
#
#
# Indices 1 2 3 4 5 6 
#
# 1 182.5771 50.9274 58.2526 0.0000 0.0000 0.0000
# 2 50.9274 55.1427 20.4500 0.0000 0.0000 0.0000
# 3 58.2526 20.4500 44.1140 0.0000 0.0000 0.0000
# 4 0.0000 0.0000 0.0000 11.2832 0.0000 0.0000
# 5 0.0000 0.0000 0.0000 0.0000 5.1919 0.0000
# 6 0.0000 0.0000 0.0000 0.0000 0.0000 23.0136
#
#
#
# Elastic Compliance Matrix: (Units=1/GPa)
#
#
# Indices 1 2 3 4 5 6 
#
# 1 0.010739 -0.005626 -0.011572 0.000000 0.000000 0.000000
# 2 -0.005626 0.024847 -0.004089 0.000000 0.000000 0.000000
# 3 -0.011572 -0.004089 0.039846 0.000000 0.000000 0.000000
# 4 0.000000 0.000000 0.000000 0.088627 0.000000 0.000000
# 5 0.000000 0.000000 0.000000 0.000000 0.192608 0.000000
# 6 0.000000 0.000000 0.000000 0.000000 0.000000 0.043453
#
#
# Mechanical properties :
#
#
# Convention : Reuss Voigt Hill
#
# Bulk Modulus (GPa) = 30.43572 60.12153 45.27863
# Shear Modulus (GPa) = 11.02179 18.04466 14.53323
#
# Velocity S-wave (km/s) = 2.44130 3.12370 2.80334
# Velocity P-wave (km/s) = 4.94008 6.74686 5.91289
#
# Compressibility (1/GPa) = 0.03285613
#
# Stress axis : x y z
#
# Youngs Moduli (GPa) = 93.12099 40.24572 25.09694
#
# Poissons Ratio (x) = 0.22643 0.29043
# Poissons Ratio (y) = 0.52391 0.10263
# Poissons Ratio (z) = 1.07763 0.16457
#
# Static dielectric constant tensor:
#      x y z
#    x 3.707080 0.000000 0.000000 
#    y 0.000000 3.306280 0.000000 
#    z 0.000000 0.000000 3.275310 
# 
# 
# High freq. dielectric constant tensor:
#      x y z
#    x 1.730370 0.000000 0.000000 
#    y 0.000000 1.716060 0.000000 
#    z 0.000000 0.000000 1.664210 
# 
# From -- ./inp_files/13970.got.cif
#   From: 2010.03.12/outbox.cif.g09.slc.cpg/sg47_7_cif.got.tgz:13970.got - 2010.04.14 03:12:58.
