data_PCOD8201446
_publ_section_title
;
Structure prediction by ZEFSAII (Michael W. Deem and Ramdas Pophale) SiO2 
 PCOD8201446
Probable space group: P N N N
;
_chemical_formula_sum "Si O2"
_cell_formula_units_Z 64
_cell_length_a 15.690145
_cell_length_b 17.058706
_cell_length_c 12.174444
_cell_angle_alpha 90.000000
_cell_angle_beta 90.000000
_cell_angle_gamma 90.000000
_cell_volume 3258.533407
_symmetry_space_group_name_H-M "P N N N"
_symmetry_group_IT_number 48
_space_group.IT_coordinate_system_code '2'
_symmetry_cell_setting 'orthorhombic'
loop_
_space_group_symop_operation_xyz
x,y,z
1/2-x,1/2-y,z
x,1/2-y,1/2-z
1/2-x,y,1/2-z
-x,-y,-z
1/2+x,1/2+y,-z
-x,1/2+y,1/2+z
1/2+x,-y,1/2+z
loop_
_atom_site_type_symbol
_atom_site_label
_atom_site_fract_x
_atom_site_fract_y
_atom_site_fract_z
Si Si1 0.840022 0.485116 0.209233
Si Si2 0.004834 0.327278 0.504677
Si Si3 0.338929 0.088371 0.987308
Si Si4 0.593612 0.589274 0.725327
Si Si5 0.495660 0.561876 0.201740
Si Si6 0.422546 0.664573 0.779608
Si Si7 0.542069 0.694997 0.347315
Si Si8 0.307862 0.328013 0.096093
O O1 0.750000 0.516310 0.250000
O O2 0.844950 0.507058 0.080216
O O3 0.910535 0.528322 0.280918
O O4 0.850471 0.392710 0.231026
O O5 0.994239 0.404098 0.579426
O O6 0.983653 0.248512 0.573064
O O7 0.100527 0.313640 0.459210
O O8 0.935215 0.341168 0.410600
O O9 0.379946 0.157528 0.914481
O O10 0.388522 0.071961 0.099229
O O11 0.242462 0.112435 0.016785
O O12 0.573596 0.507375 0.787328
O O13 0.512742 0.646733 0.722377
O O14 0.673046 0.632359 0.784635
O O15 0.480419 0.629033 0.293978
O O16 0.390006 0.750000 0.750000
O O17 0.581045 0.750000 0.250000
O O18 0.250000 0.250000 0.112495
#
# Coordination Sequence:
#
# PCOD8201446 Si02
#       8
#     8   8   8   8   8   8   8   8
#     4  10  22  38  56  78 107 143 191 239 283 340
#     4  10  19  36  58  82 117 152 188 234 292 336
#     4  11  21  36  55  78 115 152 181 233 289 342
#     4  10  23  36  55  84 114 150 193 230 285 349
#     4   9  20  37  57  83 113 149 193 240 276 351
#     4  10  22  36  56  81 106 143 189 238 279 338
#     4   9  18  33  54  81 111 144 190 234 284 338
#     4  11  22  35  55  86 118 156 189 234 289 363
#
# _framework density 19.640739
#
# number of rings (size 3 to 8) (size 9 to 14) (size 15 to 20)
#    0.000    2.000    1.250    1.875    1.750   11.750 
#    0.000    1.875    0.000    0.000    0.000    0.000 
#    0.000    7.000    0.000    0.000    0.000    0.000 
#
# Total GULP energy -793355.662039 kJ/mol
# GULP energy per Si atom -12396.182219 kJ/mol
# Density = 1.959604 g / cm^3
# Si number density = 19.640739 Si / 1000 Ang^3
#
#
#
# Elastic Constant Matrix: (Units=GPa)
#
#
# Indices 1 2 3 4 5 6 
#
# 1 49.2738 32.6191 33.2210 0.0000 0.0000 0.0000
# 2 32.6191 129.7218 62.8758 0.0000 0.0000 0.0000
# 3 33.2210 62.8758 142.7164 0.0000 0.0000 0.0000
# 4 0.0000 0.0000 0.0000 33.0537 0.0000 0.0000
# 5 0.0000 0.0000 0.0000 0.0000 20.9900 0.0000
# 6 0.0000 0.0000 0.0000 0.0000 0.0000 21.0946
#
#
#
# Elastic Compliance Matrix: (Units=1/GPa)
#
#
# Indices 1 2 3 4 5 6 
#
# 1 0.026061 -0.004594 -0.004043 0.000000 0.000000 0.000000
# 2 -0.004594 0.010612 -0.003606 0.000000 0.000000 0.000000
# 3 -0.004043 -0.003606 0.009537 0.000000 0.000000 0.000000
# 4 0.000000 0.000000 0.000000 0.030254 0.000000 0.000000
# 5 0.000000 0.000000 0.000000 0.000000 0.047642 0.000000
# 6 0.000000 0.000000 0.000000 0.000000 0.000000 0.047405
#
#
# Mechanical properties :
#
#
# Convention : Reuss Voigt Hill
#
# Bulk Modulus (GPa) = 46.02957 64.34929 55.18943
# Shear Modulus (GPa) = 24.60185 27.89407 26.24796
#
# Velocity S-wave (km/s) = 3.54304 3.77266 3.65965
# Velocity P-wave (km/s) = 6.34225 7.19803 6.78365
#
# Compressibility (1/GPa) = 0.02172516
#
# Stress axis : x y z
#
# Youngs Moduli (GPa) = 38.37089 94.23603 104.86013
#
# Poissons Ratio (x) = 0.43290 0.42391
# Poissons Ratio (y) = 0.17627 0.37810
# Poissons Ratio (z) = 0.15512 0.33980
#
# Static dielectric constant tensor:
#      x y z
#    x 3.261300 0.000000 0.000000 
#    y 0.000000 3.836260 0.000000 
#    z 0.000000 0.000000 3.799180 
# 
# 
# High freq. dielectric constant tensor:
#      x y z
#    x 1.725060 0.000000 0.000000 
#    y 0.000000 1.772770 0.000000 
#    z 0.000000 0.000000 1.781910 
# 
# From -- ./inp_files/21575.got.cif
#   From: 2010.06.25/outbox.cif.g09.slc.cpg/sg48_11_cif.got.tgz:21575.got - 2010.06.26 18:06:46.
