data_PCOD8201260
_publ_section_title
;
Structure prediction by ZEFSAII (Michael W. Deem and Ramdas Pophale) SiO2 
 PCOD8201260
Probable space group: P N N N
;
_chemical_formula_sum "Si O2"
_cell_formula_units_Z 44
_cell_length_a 11.738974
_cell_length_b 9.155884
_cell_length_c 22.061143
_cell_angle_alpha 90.000000
_cell_angle_beta 90.000000
_cell_angle_gamma 90.000000
_cell_volume 2371.146744
_symmetry_space_group_name_H-M "P N N N"
_symmetry_group_IT_number 48
_space_group.IT_coordinate_system_code '2'
_symmetry_cell_setting 'orthorhombic'
loop_
_space_group_symop_operation_xyz
x,y,z
1/2-x,1/2-y,z
x,1/2-y,1/2-z
1/2-x,y,1/2-z
-x,-y,-z
1/2+x,1/2+y,-z
-x,1/2+y,1/2+z
1/2+x,-y,1/2+z
loop_
_atom_site_type_symbol
_atom_site_label
_atom_site_fract_x
_atom_site_fract_y
_atom_site_fract_z
Si Si1 0.945213 0.538566 0.358591
Si Si2 0.377239 0.419668 0.736841
Si Si3 0.437123 0.041613 0.902712
Si Si4 0.121096 0.765828 0.077160
Si Si5 0.750000 0.750000 0.400856
Si Si6 0.121931 0.728830 0.561637
O O1 0.956231 0.497713 0.287315
O O2 0.834084 0.646467 0.361659
O O3 0.935649 0.394764 0.398485
O O4 0.058996 0.617945 0.380443
O O5 0.394751 0.250000 0.750000
O O6 0.250000 0.473852 0.750000
O O7 0.414328 0.462227 0.669271
O O8 0.559566 0.109545 0.917303
O O9 0.335864 0.139085 0.936193
O O10 0.443818 0.880924 0.930120
O O11 0.250000 0.750000 0.100136
O O12 0.117751 0.821883 0.007975
O O13 0.250000 0.750000 0.584674
#
# Coordination Sequence:
#
# PCOD8201260 Si02
#       6
#     8   8   8   8   4   8
#     4  11  20  35  57  85 114 145 181 226 284 331
#     4  11  16  31  57  87 112 139 178 231 282 344
#     4  11  20  35  57  85 114 145 181 226 284 331
#     4  10  23  39  56  75 114 155 199 218 257 329
#     4  10  16  31  54  80 106 144 176 211 276 330
#     4  11  21  36  56  87 118 140 178 237 286 330
#
# _framework density 18.556421
#
# number of rings (size 3 to 8) (size 9 to 14) (size 15 to 20)
#    0.000    1.273    7.273    1.091    0.000    0.727 
#    0.000    4.545    0.000    0.000    0.000    2.545 
#    0.000    0.000    0.000    0.000    0.000    0.000 
#
# Total GULP energy -545254.483936 kJ/mol
# GULP energy per Si atom -12392.147362 kJ/mol
# Density = 1.851419 g / cm^3
# Si number density = 18.556421 Si / 1000 Ang^3
#
#
#
# Elastic Constant Matrix: (Units=GPa)
#
#
# Indices 1 2 3 4 5 6 
#
# 1 122.5357 42.0715 31.2446 0.0000 0.0000 0.0000
# 2 42.0715 84.2965 15.8916 0.0000 0.0000 0.0000
# 3 31.2446 15.8916 75.3500 0.0000 0.0000 0.0000
# 4 0.0000 0.0000 0.0000 18.6650 0.0000 0.0000
# 5 0.0000 0.0000 0.0000 0.0000 17.8211 0.0000
# 6 0.0000 0.0000 0.0000 0.0000 0.0000 13.0597
#
#
#
# Elastic Compliance Matrix: (Units=1/GPa)
#
#
# Indices 1 2 3 4 5 6 
#
# 1 0.010635 -0.004662 -0.003427 0.000000 0.000000 0.000000
# 2 -0.004662 0.014398 -0.001103 0.000000 0.000000 0.000000
# 3 -0.003427 -0.001103 0.014925 0.000000 0.000000 0.000000
# 4 0.000000 0.000000 0.000000 0.053576 0.000000 0.000000
# 5 0.000000 0.000000 0.000000 0.000000 0.056113 0.000000
# 6 0.000000 0.000000 0.000000 0.000000 0.000000 0.076571
#
#
# Mechanical properties :
#
#
# Convention : Reuss Voigt Hill
#
# Bulk Modulus (GPa) = 46.35270 51.17751 48.76511
# Shear Modulus (GPa) = 19.85745 22.77411 21.31578
#
# Velocity S-wave (km/s) = 3.27481 3.50707 3.39293
# Velocity P-wave (km/s) = 6.27158 6.63616 6.45645
#
# Compressibility (1/GPa) = 0.02157372
#
# Stress axis : x y z
#
# Youngs Moduli (GPa) = 94.02645 69.45582 67.00136
#
# Poissons Ratio (x) = 0.32380 0.22960
# Poissons Ratio (y) = 0.43835 0.07393
# Poissons Ratio (z) = 0.32221 0.07664
#
# Static dielectric constant tensor:
#      x y z
#    x 3.346510 0.000000 0.000000 
#    y 0.000000 3.393600 0.000000 
#    z 0.000000 0.000000 3.520050 
# 
# 
# High freq. dielectric constant tensor:
#      x y z
#    x 1.699430 0.000000 0.000000 
#    y 0.000000 1.709570 0.000000 
#    z 0.000000 0.000000 1.716680 
# 
# From -- ./inp_files/36207.got.cif
#   From: 2010.06.25/outbox.cif.g09.slc.cpg/sg48_19_cif.got.tgz:36207.got - 2010.06.26 18:06:46.
