data_PCOD8201083
_publ_section_title
;
Structure prediction by ZEFSAII (Michael W. Deem and Ramdas Pophale) SiO2 
 PCOD8201083
Probable space group: P M M M
;
_chemical_formula_sum "Si O2"
_cell_formula_units_Z 44
_cell_length_a 9.780932
_cell_length_b 28.504707
_cell_length_c 9.388153
_cell_angle_alpha 90.000000
_cell_angle_beta 90.000000
_cell_angle_gamma 90.000000
_cell_volume 2617.441474
_symmetry_space_group_name_H-M "P M M M"
_symmetry_group_IT_number 47
_symmetry_cell_setting 'orthorhombic'
loop_
_space_group_symop_operation_xyz
x,y,z
-x,-y,z
x,-y,-z
-x,y,-z
-x,-y,-z
x,y,-z
-x,y,z
x,-y,z
loop_
_atom_site_type_symbol
_atom_site_label
_atom_site_fract_x
_atom_site_fract_y
_atom_site_fract_z
Si Si1 0.341980 0.134768 0.332913
Si Si2 0.846617 0.051960 0.669281
Si Si3 0.337529 0.223011 0.158238
Si Si4 0.159076 0.590158 0.833577
Si Si5 0.837678 0.500000 0.338875
Si Si6 0.652484 0.325665 0.830545
O O1 0.319368 0.140837 0.500000
O O2 0.500000 0.126134 0.294836
O O3 0.258346 0.090532 0.270279
O O4 0.283409 0.181921 0.260568
O O5 0.840833 0.052088 0.500000
O O6 0.000000 0.064217 0.720952
O O7 0.804739 0.000000 0.724902
O O8 0.500000 0.222110 0.150950
O O9 0.294199 0.274224 0.219726
O O10 0.276611 0.214930 0.000000
O O11 0.214309 0.545775 0.745045
O O12 0.242711 0.634952 0.776193
O O13 0.000000 0.599975 0.804520
O O14 0.185993 0.580243 0.000000
O O15 0.779522 0.500000 0.500000
O O16 0.000000 0.500000 0.339937
O O17 0.500000 0.336236 0.770432
O O18 0.646909 0.325024 0.000000
#
# Coordination Sequence:
#
# PCOD8201083 Si02
#       6
#     8   8   8   8   4   8
#     4   9  16  25  40  63  84 100 128 172 208 231
#     4   8  14  25  40  57  79 108 137 163 198 245
#     4   8  14  26  43  60  81 111 139 160 193 245
#     4   9  16  27  45  66  83 101 133 175 207 230
#     4   9  17  29  44  61  84 114 140 161 196 248
#     4   8  14  26  44  63  82 107 138 167 197 238
#
# _framework density 16.810309
#
# number of rings (size 3 to 8) (size 9 to 14) (size 15 to 20)
#    0.000    3.545    0.000    1.909    0.000    1.455 
#    0.000    4.091    0.000    6.545    0.000    3.818 
#    0.000    0.000    0.000    0.000    0.000    0.000 
#
# Total GULP energy -545286.655061 kJ/mol
# GULP energy per Si atom -12392.878524 kJ/mol
# Density = 1.677205 g / cm^3
# Si number density = 16.810309 Si / 1000 Ang^3
#
#
#
# Elastic Constant Matrix: (Units=GPa)
#
#
# Indices 1 2 3 4 5 6 
#
# 1 59.6715 73.0071 24.3121 0.0000 0.0000 0.0000
# 2 73.0071 193.0926 50.1502 0.0000 0.0000 0.0000
# 3 24.3121 50.1502 40.5049 0.0000 0.0000 0.0000
# 4 0.0000 0.0000 0.0000 24.3280 0.0000 0.0000
# 5 0.0000 0.0000 0.0000 0.0000 9.0988 0.0000
# 6 0.0000 0.0000 0.0000 0.0000 0.0000 27.7349
#
#
#
# Elastic Compliance Matrix: (Units=1/GPa)
#
#
# Indices 1 2 3 4 5 6 
#
# 1 0.032231 -0.010556 -0.006276 0.000000 0.000000 0.000000
# 2 -0.010556 0.011091 -0.007396 0.000000 0.000000 0.000000
# 3 -0.006276 -0.007396 0.037612 0.000000 0.000000 0.000000
# 4 0.000000 0.000000 0.000000 0.041105 0.000000 0.000000
# 5 0.000000 0.000000 0.000000 0.000000 0.109905 0.000000
# 6 0.000000 0.000000 0.000000 0.000000 0.000000 0.036056
#
#
# Mechanical properties :
#
#
# Convention : Reuss Voigt Hill
#
# Bulk Modulus (GPa) = 30.78983 65.35644 48.07314
# Shear Modulus (GPa) = 15.27738 21.95231 18.61484
#
# Velocity S-wave (km/s) = 3.01792 3.61762 3.33129
# Velocity P-wave (km/s) = 5.52264 7.51084 6.59213
#
# Compressibility (1/GPa) = 0.03247825
#
# Stress axis : x y z
#
# Youngs Moduli (GPa) = 31.02610 90.16294 26.58707
#
# Poissons Ratio (x) = 0.95179 0.16685
# Poissons Ratio (y) = 0.32752 0.19664
# Poissons Ratio (z) = 0.19471 0.66684
#
# Static dielectric constant tensor:
#      x y z
#    x 3.018140 0.000000 0.000000 
#    y 0.000000 3.642460 0.000000 
#    z 0.000000 0.000000 2.886160 
# 
# 
# High freq. dielectric constant tensor:
#      x y z
#    x 1.617100 0.000000 0.000000 
#    y 0.000000 1.664260 0.000000 
#    z 0.000000 0.000000 1.605920 
# 
# From -- ./inp_files/1979.got.cif
#   From: 2010.03.12/outbox.cif.g09.slc.cpg/sg47_1_cif.got.tgz:1979.got - 2010.04.14 03:12:58.
