data_PCOD8201059
_publ_section_title
;
Structure prediction by ZEFSAII (Michael W. Deem and Ramdas Pophale) SiO2 
 PCOD8201059
Probable space group: P M M M
;
_chemical_formula_sum "Si O2"
_cell_formula_units_Z 60
_cell_length_a 9.557862
_cell_length_b 25.323745
_cell_length_c 15.943939
_cell_angle_alpha 90.000000
_cell_angle_beta 90.000000
_cell_angle_gamma 90.000000
_cell_volume 3859.084708
_symmetry_space_group_name_H-M "P M M M"
_symmetry_group_IT_number 47
_symmetry_cell_setting 'orthorhombic'
loop_
_space_group_symop_operation_xyz
x,y,z
-x,-y,z
x,-y,-z
-x,y,-z
-x,-y,-z
x,y,-z
-x,y,z
x,-y,z
loop_
_atom_site_type_symbol
_atom_site_label
_atom_site_fract_x
_atom_site_fract_y
_atom_site_fract_z
Si Si1 0.653978 0.337553 0.098390
Si Si2 0.836835 0.061687 0.250263
Si Si3 0.833262 0.129619 0.906413
Si Si4 0.661292 0.440656 0.810808
Si Si5 0.843168 0.438098 0.348830
Si Si6 0.658329 0.062694 0.406855
Si Si7 0.341374 0.436835 0.500000
Si Si8 0.153897 0.753592 0.099017
O O1 0.500000 0.326529 0.134982
O O2 0.697016 0.397964 0.117811
O O3 0.753780 0.293267 0.139693
O O4 0.656002 0.330761 0.000000
O O5 0.779647 0.089736 0.165539
O O6 0.757678 0.084579 0.332551
O O7 0.000000 0.073369 0.263911
O O8 0.806914 0.000000 0.237963
O O9 0.780172 0.188594 0.882616
O O10 0.000000 0.130223 0.909644
O O11 0.777951 0.113139 0.000000
O O12 0.500000 0.436952 0.779920
O O13 0.690888 0.500000 0.844924
O O14 0.766526 0.425517 0.737371
O O15 0.856814 0.500000 0.363591
O O16 0.744206 0.414195 0.420823
O O17 0.000000 0.413159 0.350149
O O18 0.706563 0.082629 0.500000
O O19 0.500000 0.081778 0.389370
O O20 0.665520 0.000000 0.406287
O O21 0.347866 0.500000 0.500000
O O22 0.500000 0.414342 0.500000
O O23 0.000000 0.749072 0.139700
O O24 0.142573 0.745854 0.000000
#
# Coordination Sequence:
#
# PCOD8201059 Si02
#       8
#     8   8   8   8   8   8   4   8
#     4   9  17  28  42  60  80 101 130 171 209 238
#     4   9  16  24  37  60  86 110 139 175 209 241
#     4   8  14  25  40  58  82 111 140 169 203 246
#     4   9  17  28  40  55  79 109 134 156 191 243
#     4   9  16  25  37  54  77 103 130 160 190 221
#     4   8  14  25  39  53  74 108 143 171 204 247
#     4   9  15  23  37  55  75 101 131 159 189 227
#     4   8  14  26  43  58  73  99 134 168 201 238
#
# _framework density 15.547727999999999
#
# number of rings (size 3 to 8) (size 9 to 14) (size 15 to 20)
#    0.000    3.400    0.000    1.800    0.000    3.733 
#    0.000    4.667    0.000    1.200    0.000    5.600 
#    2.000    0.000    2.000    0.000    2.133    0.000 
#
# Total GULP energy -743332.924139 kJ/mol
# GULP energy per Si atom -12388.882069 kJ/mol
# Density = 1.551234 g / cm^3
# Si number density = 15.547728 Si / 1000 Ang^3
#
#
#
# Elastic Constant Matrix: (Units=GPa)
#
#
# Indices 1 2 3 4 5 6 
#
# 1 69.7590 30.8173 36.2784 0.0000 0.0000 0.0000
# 2 30.8173 65.1897 39.8958 0.0000 0.0000 0.0000
# 3 36.2784 39.8958 76.7574 0.0000 0.0000 0.0000
# 4 0.0000 0.0000 0.0000 3.7117 0.0000 0.0000
# 5 0.0000 0.0000 0.0000 0.0000 19.2007 0.0000
# 6 0.0000 0.0000 0.0000 0.0000 0.0000 15.2749
#
#
#
# Elastic Compliance Matrix: (Units=1/GPa)
#
#
# Indices 1 2 3 4 5 6 
#
# 1 0.020245 -0.005447 -0.006737 0.000000 0.000000 0.000000
# 2 -0.005447 0.023961 -0.009880 0.000000 0.000000 0.000000
# 3 -0.006737 -0.009880 0.021347 0.000000 0.000000 0.000000
# 4 0.000000 0.000000 0.000000 0.269422 0.000000 0.000000
# 5 0.000000 0.000000 0.000000 0.000000 0.052081 0.000000
# 6 0.000000 0.000000 0.000000 0.000000 0.000000 0.065467
#
#
# Mechanical properties :
#
#
# Convention : Reuss Voigt Hill
#
# Bulk Modulus (GPa) = 46.67357 47.29879 46.98618
# Shear Modulus (GPa) = 9.92468 14.61842 12.27155
#
# Velocity S-wave (km/s) = 2.52927 3.06964 2.81247
# Velocity P-wave (km/s) = 6.21404 6.56135 6.39006
#
# Compressibility (1/GPa) = 0.02142540
#
# Stress axis : x y z
#
# Youngs Moduli (GPa) = 49.39408 41.73403 46.84402
#
# Poissons Ratio (x) = 0.22734 0.31560
# Poissons Ratio (y) = 0.26907 0.46280
# Poissons Ratio (z) = 0.33278 0.41231
#
# Static dielectric constant tensor:
#      x y z
#    x 3.155370 0.000000 0.000000 
#    y 0.000000 2.795920 0.000000 
#    z 0.000000 0.000000 3.016970 
# 
# 
# High freq. dielectric constant tensor:
#      x y z
#    x 1.590580 0.000000 0.000000 
#    y 0.000000 1.555510 0.000000 
#    z 0.000000 0.000000 1.580580 
# 
# From -- ./inp_files/27125.got.cif
#   From: 2010.03.12/outbox.cif.g09.slc.cpg/sg47_14_cif.got.tgz:27125.got - 2010.04.14 03:12:58.
