data_PCOD8201388
_publ_section_title
;
Structure prediction by ZEFSAII (Michael W. Deem and Ramdas Pophale) SiO2 
 PCOD8201388
Probable space group: P N N N
;
_chemical_formula_sum "Si O2"
_cell_formula_units_Z 48
_cell_length_a 26.999602
_cell_length_b 11.281383
_cell_length_c 8.535419
_cell_angle_alpha 90.000000
_cell_angle_beta 90.000000
_cell_angle_gamma 90.000000
_cell_volume 2599.827608
_symmetry_space_group_name_H-M "P N N N"
_symmetry_group_IT_number 48
_space_group.IT_coordinate_system_code '2'
_symmetry_cell_setting 'orthorhombic'
loop_
_space_group_symop_operation_xyz
x,y,z
1/2-x,1/2-y,z
x,1/2-y,1/2-z
1/2-x,y,1/2-z
-x,-y,-z
1/2+x,1/2+y,-z
-x,1/2+y,1/2+z
1/2+x,-y,1/2+z
loop_
_atom_site_type_symbol
_atom_site_label
_atom_site_fract_x
_atom_site_fract_y
_atom_site_fract_z
Si Si1 0.995795 0.309566 0.082768
Si Si2 0.642473 0.119094 0.429913
Si Si3 0.565404 0.005366 0.923528
Si Si4 0.155613 0.898139 0.574362
Si Si5 0.744262 0.390142 0.922704
Si Si6 0.961065 0.086220 0.919682
O O1 0.985779 0.250000 0.250000
O O2 0.051437 0.364733 0.069962
O O3 0.959972 0.423480 0.067728
O O4 0.983006 0.217838 0.944846
O O5 0.642743 0.260447 0.451446
O O6 0.644226 0.071947 0.253283
O O7 0.691128 0.067545 0.514492
O O8 0.592864 0.067415 0.504908
O O9 0.545056 0.060856 0.762846
O O10 0.623757 0.022748 0.951830
O O11 0.212309 0.933077 0.538902
O O12 0.750000 0.250000 0.914105
O O13 0.750000 0.445588 0.750000
O O14 0.000000 0.000000 0.000000
#
# Coordination Sequence:
#
# PCOD8201388 Si02
#       6
#     8   8   8   8   8   8
#     4  11  22  39  53  77 112 148 190 234 273 332
#     4  10  20  32  50  76 111 145 181 227 274 332
#     4  11  23  35  58  78 109 154 189 229 287 325
#     4  10  19  33  52  76 108 144 183 225 278 334
#     4   9  17  30  50  74 106 141 180 223 276 335
#     4  12  23  36  56  79 113 151 187 229 274 330
#
# _framework density 18.462762999999999
#
# number of rings (size 3 to 8) (size 9 to 14) (size 15 to 20)
#    0.000    1.500    3.333    3.000    2.333    3.333 
#    0.000    0.000    0.000    0.000    0.000    1.167 
#    0.000    2.667    0.000    0.000    0.000    0.000 
#
# Total GULP energy -595006.853908 kJ/mol
# GULP energy per Si atom -12395.976123 kJ/mol
# Density = 1.842074 g / cm^3
# Si number density = 18.462763 Si / 1000 Ang^3
#
#
#
# Elastic Constant Matrix: (Units=GPa)
#
#
# Indices 1 2 3 4 5 6 
#
# 1 152.6532 40.8229 64.5750 0.0000 0.0000 0.0000
# 2 40.8229 51.6676 32.4006 0.0000 0.0000 0.0000
# 3 64.5750 32.4006 115.6398 0.0000 0.0000 0.0000
# 4 0.0000 0.0000 0.0000 19.4895 0.0000 0.0000
# 5 0.0000 0.0000 0.0000 0.0000 36.0928 0.0000
# 6 0.0000 0.0000 0.0000 0.0000 0.0000 22.7344
#
#
#
# Elastic Compliance Matrix: (Units=1/GPa)
#
#
# Indices 1 2 3 4 5 6 
#
# 1 0.009573 -0.005109 -0.003914 0.000000 0.000000 0.000000
# 2 -0.005109 0.026207 -0.004490 0.000000 0.000000 0.000000
# 3 -0.003914 -0.004490 0.012091 0.000000 0.000000 0.000000
# 4 0.000000 0.000000 0.000000 0.051310 0.000000 0.000000
# 5 0.000000 0.000000 0.000000 0.000000 0.027706 0.000000
# 6 0.000000 0.000000 0.000000 0.000000 0.000000 0.043986
#
#
# Mechanical properties :
#
#
# Convention : Reuss Voigt Hill
#
# Bulk Modulus (GPa) = 47.97340 66.17304 57.07322
# Shear Modulus (GPa) = 24.40847 27.80749 26.10798
#
# Velocity S-wave (km/s) = 3.63993 3.88511 3.76452
# Velocity P-wave (km/s) = 6.61103 7.48629 7.06223
#
# Compressibility (1/GPa) = 0.02084489
#
# Stress axis : x y z
#
# Youngs Moduli (GPa) = 104.46260 38.15821 82.70456
#
# Poissons Ratio (x) = 0.19495 0.32372
# Poissons Ratio (y) = 0.53370 0.37133
# Poissons Ratio (z) = 0.40888 0.17132
#
# Static dielectric constant tensor:
#      x y z
#    x 3.655650 0.000000 0.000000 
#    y 0.000000 3.157270 0.000000 
#    z 0.000000 0.000000 3.529260 
# 
# 
# High freq. dielectric constant tensor:
#      x y z
#    x 1.725020 0.000000 0.000000 
#    y 0.000000 1.655140 0.000000 
#    z 0.000000 0.000000 1.733170 
# 
# From -- ./inp_files/11373.got.cif
#   From: 2010.06.25/outbox.cif.g09.slc.cpg/sg48_6_cif.got.tgz:11373.got - 2010.06.26 18:06:46.
