data_PCOD8201295
_publ_section_title
;
Structure prediction by ZEFSAII (Michael W. Deem and Ramdas Pophale) SiO2 
 PCOD8201295
Probable space group: P N N N
;
_chemical_formula_sum "Si O2"
_cell_formula_units_Z 56
_cell_length_a 10.774186
_cell_length_b 18.367844
_cell_length_c 18.368145
_cell_angle_alpha 90.000000
_cell_angle_beta 90.000000
_cell_angle_gamma 90.000000
_cell_volume 3635.029586
_symmetry_space_group_name_H-M "P N N N"
_symmetry_group_IT_number 48
_space_group.IT_coordinate_system_code '2'
_symmetry_cell_setting 'orthorhombic'
loop_
_space_group_symop_operation_xyz
x,y,z
1/2-x,1/2-y,z
x,1/2-y,1/2-z
1/2-x,y,1/2-z
-x,-y,-z
1/2+x,1/2+y,-z
-x,1/2+y,1/2+z
1/2+x,-y,1/2+z
loop_
_atom_site_type_symbol
_atom_site_label
_atom_site_fract_x
_atom_site_fract_y
_atom_site_fract_z
Si Si1 0.534341 0.503924 0.886674
Si Si2 0.246849 0.335603 0.585367
Si Si3 0.000325 0.645162 0.146539
Si Si4 0.375959 0.416713 0.785463
Si Si5 0.875501 0.285962 0.590267
Si Si6 0.745879 0.418332 0.835698
Si Si7 0.961745 0.884058 0.998761
O O1 0.453523 0.486965 0.814088
O O2 0.680542 0.489431 0.870173
O O3 0.519996 0.587541 0.915344
O O4 0.487131 0.451696 0.949607
O O5 0.250000 0.250000 0.592536
O O6 0.384891 0.370316 0.591814
O O7 0.155355 0.361872 0.649423
O O8 0.182303 0.359469 0.509619
O O9 0.955407 0.630906 0.228637
O O10 0.043201 0.728376 0.135863
O O11 0.116767 0.591752 0.129684
O O12 0.250000 0.447987 0.750000
O O13 0.750000 0.250000 0.559172
O O14 0.843304 0.349842 0.646913
O O15 0.948385 0.316606 0.519414
O O16 0.750000 0.426372 0.750000
#
# Coordination Sequence:
#
# PCOD8201295 Si02
#       7
#     8   8   8   8   8   8   8
#     4   9  17  31  44  58  86 128 164 180 213 273
#     4  10  18  27  40  63  91 122 152 187 227 273
#     4  10  18  27  39  64  98 114 149 192 229 278
#     4   9  18  27  41  66  90 122 147 185 228 268
#     4   9  18  27  41  66  90 122 147 185 228 268
#     4  10  18  27  40  63  91 122 152 187 227 273
#     4   9  17  31  44  58  86 128 164 180 213 273
#
# _framework density 15.405652
#
# number of rings (size 3 to 8) (size 9 to 14) (size 15 to 20)
#    0.000    2.571    2.857    0.000    0.000    6.286 
#    0.000    0.714    0.000    1.714    0.000    0.000 
#    0.000    3.429    0.000    0.000    0.000    0.000 
#
# Total GULP energy -693812.908785 kJ/mol
# GULP energy per Si atom -12389.516228 kJ/mol
# Density = 1.537059 g / cm^3
# Si number density = 15.405652 Si / 1000 Ang^3
#
#
#
# Elastic Constant Matrix: (Units=GPa)
#
#
# Indices 1 2 3 4 5 6 
#
# 1 111.0517 38.6062 37.9271 0.0000 0.0000 0.0000
# 2 38.6062 47.2221 45.9919 0.0000 0.0000 0.0000
# 3 37.9271 45.9919 50.9560 0.0000 0.0000 0.0000
# 4 0.0000 0.0000 0.0000 29.5013 0.0000 0.0000
# 5 0.0000 0.0000 0.0000 0.0000 14.4778 0.0000
# 6 0.0000 0.0000 0.0000 0.0000 0.0000 14.0094
#
#
#
# Elastic Compliance Matrix: (Units=1/GPa)
#
#
# Indices 1 2 3 4 5 6 
#
# 1 0.012583 -0.009638 -0.000667 0.000000 0.000000 0.000000
# 2 -0.009638 0.182493 -0.157541 0.000000 0.000000 0.000000
# 3 -0.000667 -0.157541 0.162315 0.000000 0.000000 0.000000
# 4 0.000000 0.000000 0.000000 0.033897 0.000000 0.000000
# 5 0.000000 0.000000 0.000000 0.000000 0.069071 0.000000
# 6 0.000000 0.000000 0.000000 0.000000 0.000000 0.071381
#
#
# Mechanical properties :
#
#
# Convention : Reuss Voigt Hill
#
# Bulk Modulus (GPa) = 46.08458 50.47558 48.28008
# Shear Modulus (GPa) = 5.71647 17.37800 11.54724
#
# Velocity S-wave (km/s) = 1.92839 3.36226 2.74075
# Velocity P-wave (km/s) = 5.91078 6.92159 6.43606
#
# Compressibility (1/GPa) = 0.02169923
#
# Stress axis : x y z
#
# Youngs Moduli (GPa) = 79.47200 5.47966 6.16085
#
# Poissons Ratio (x) = 0.05281 0.00411
# Poissons Ratio (y) = 0.76592 0.97059
# Poissons Ratio (z) = 0.05300 0.86327
#
# Static dielectric constant tensor:
#      x y z
#    x 3.500530 0.000000 0.000000 
#    y 0.000000 2.840150 0.000000 
#    z 0.000000 0.000000 2.844820 
# 
# 
# High freq. dielectric constant tensor:
#      x y z
#    x 1.616110 0.000000 0.000000 
#    y 0.000000 1.548580 0.000000 
#    z 0.000000 0.000000 1.547560 
# 
# From -- ./inp_files/22371.got.cif
#   From: 2010.06.25/outbox.cif.g09.slc.cpg/sg48_12_cif.got.tgz:22371.got - 2010.06.26 18:06:46.
