data_PCOD8201579
_publ_section_title
;
Structure prediction by ZEFSAII (Michael W. Deem and Ramdas Pophale) SiO2 
 PCOD8201579
Probable space group: P N N N
;
_chemical_formula_sum "Si O2"
_cell_formula_units_Z 38
_cell_length_a 11.338000
_cell_length_b 9.297261
_cell_length_c 17.247557
_cell_angle_alpha 90.000000
_cell_angle_beta 90.000000
_cell_angle_gamma 90.000000
_cell_volume 1818.105433
_symmetry_space_group_name_H-M "P N N N"
_symmetry_group_IT_number 48
_space_group.IT_coordinate_system_code '2'
_symmetry_cell_setting 'orthorhombic'
loop_
_space_group_symop_operation_xyz
x,y,z
1/2-x,1/2-y,z
x,1/2-y,1/2-z
1/2-x,y,1/2-z
-x,-y,-z
1/2+x,1/2+y,-z
-x,1/2+y,1/2+z
1/2+x,-y,1/2+z
loop_
_atom_site_type_symbol
_atom_site_label
_atom_site_fract_x
_atom_site_fract_y
_atom_site_fract_z
Si Si1 0.900994 0.900877 0.622666
Si Si2 0.250000 0.250000 0.250000
Si Si3 0.381749 0.779021 0.659063
Si Si4 0.250000 0.250000 0.995250
Si Si5 0.946734 0.936318 0.077352
Si Si6 0.387683 0.724864 0.337295
O O1 0.832836 0.852027 0.699654
O O2 0.825018 0.860081 0.547551
O O3 0.028035 0.825543 0.614571
O O4 0.922407 0.069876 0.629119
O O5 0.250000 0.750000 0.627964
O O6 0.390843 0.750000 0.750000
O O7 0.415517 0.942758 0.640530
O O8 0.168914 0.156654 0.938958
O O9 0.050956 0.841433 0.110109
O O10 0.000000 0.000000 0.000000
O O11 0.250000 0.750000 0.343836
O O12 0.432648 0.750000 0.250000
#
# Coordination Sequence:
#
# PCOD8201579 Si02
#       6
#     8   2   8   4   8   8
#     4  11  22  42  70 100 134 182 229 281 349 411
#     4  10  20  36  76  96 138 172 228 290 334 416
#     4  11  25  45  72 100 140 186 235 283 350 418
#     4  11  26  43  67 100 141 184 232 284 353 408
#     4  12  26  48  69 103 143 179 229 293 346 416
#     4  11  25  42  70 105 138 173 230 286 348 411
#
# _framework density 20.900879
#
# number of rings (size 3 to 8) (size 9 to 14) (size 15 to 20)
#    0.000    0.842    3.158    3.789    5.895    3.368 
#    0.000    0.000    0.000    0.000    0.000    0.000 
#    0.000    0.000    0.000    0.000    0.000    0.000 
#
# Total GULP energy -471456.984718 kJ/mol
# GULP energy per Si atom -12406.762756 kJ/mol
# Density = 2.085331 g / cm^3
# Si number density = 20.900879 Si / 1000 Ang^3
#
#
#
# Elastic Constant Matrix: (Units=GPa)
#
#
# Indices 1 2 3 4 5 6 
#
# 1 113.7463 45.3017 40.0334 0.0000 0.0000 0.0000
# 2 45.3017 165.9042 59.1783 0.0000 0.0000 0.0000
# 3 40.0334 59.1783 106.6747 0.0000 0.0000 0.0000
# 4 0.0000 0.0000 0.0000 43.6066 0.0000 0.0000
# 5 0.0000 0.0000 0.0000 0.0000 27.1038 0.0000
# 6 0.0000 0.0000 0.0000 0.0000 0.0000 42.1546
#
#
#
# Elastic Compliance Matrix: (Units=1/GPa)
#
#
# Indices 1 2 3 4 5 6 
#
# 1 0.010558 -0.001832 -0.002946 0.000000 0.000000 0.000000
# 2 -0.001832 0.007833 -0.003658 0.000000 0.000000 0.000000
# 3 -0.002946 -0.003658 0.012509 0.000000 0.000000 0.000000
# 4 0.000000 0.000000 0.000000 0.022932 0.000000 0.000000
# 5 0.000000 0.000000 0.000000 0.000000 0.036895 0.000000
# 6 0.000000 0.000000 0.000000 0.000000 0.000000 0.023722
#
#
# Mechanical properties :
#
#
# Convention : Reuss Voigt Hill
#
# Bulk Modulus (GPa) = 71.28468 75.03909 73.16189
# Shear Modulus (GPa) = 36.76573 38.69380 37.72977
#
# Velocity S-wave (km/s) = 4.19866 4.30734 4.25335
# Velocity P-wave (km/s) = 7.59507 7.79217 7.69425
#
# Compressibility (1/GPa) = 0.01402826
#
# Stress axis : x y z
#
# Youngs Moduli (GPa) = 94.71497 127.67280 79.94327
#
# Poissons Ratio (x) = 0.23392 0.23550
# Poissons Ratio (y) = 0.17353 0.29240
# Poissons Ratio (z) = 0.27902 0.46697
#
# Static dielectric constant tensor:
#      x y z
#    x 4.107880 0.000000 0.000000 
#    y 0.000000 3.977350 0.000000 
#    z 0.000000 0.000000 0.575960 
# 
# 
# High freq. dielectric constant tensor:
#      x y z
#    x 1.833870 0.000000 0.000000 
#    y 0.000000 1.830490 0.000000 
#    z 0.000000 0.000000 1.818840 
# 
# From -- ./inp_files/18474.got.cif
#   From: 2010.06.25/outbox.cif.g09.slc.cpg/sg48_10_cif.got.tgz:18474.got - 2010.06.26 18:06:46.
