data_PCOD8201863
_publ_section_title
;
Structure prediction by ZEFSAII (Michael W. Deem and Ramdas Pophale) SiO2 
 PCOD8201863
Probable space group: P N N N
;
_chemical_formula_sum "Si O2"
_cell_formula_units_Z 52
_cell_length_a 8.672082
_cell_length_b 18.353192
_cell_length_c 16.424138
_cell_angle_alpha 90.000000
_cell_angle_beta 90.000000
_cell_angle_gamma 90.000000
_cell_volume 2614.072144
_symmetry_space_group_name_H-M "P N N N"
_symmetry_group_IT_number 48
_space_group.IT_coordinate_system_code '2'
_symmetry_cell_setting 'orthorhombic'
loop_
_space_group_symop_operation_xyz
x,y,z
1/2-x,1/2-y,z
x,1/2-y,1/2-z
1/2-x,y,1/2-z
-x,-y,-z
1/2+x,1/2+y,-z
-x,1/2+y,1/2+z
1/2+x,-y,1/2+z
loop_
_atom_site_type_symbol
_atom_site_label
_atom_site_fract_x
_atom_site_fract_y
_atom_site_fract_z
Si Si1 0.750000 0.750000 0.750000
Si Si2 0.750000 0.250000 0.750000
Si Si3 0.800139 0.670216 0.036898
Si Si4 0.557482 0.645646 0.634729
Si Si5 0.046727 0.075229 0.038506
Si Si6 0.610876 0.147588 0.886807
Si Si7 0.274714 0.493495 0.341149
Si Si8 0.255476 0.829942 0.940981
O O1 0.630506 0.699356 0.701197
O O2 0.646541 0.197359 0.807480
O O3 0.750000 0.750000 0.066831
O O4 0.924983 0.640981 0.102815
O O5 0.875981 0.676603 0.949034
O O6 0.653946 0.616171 0.028368
O O7 0.585377 0.561965 0.655908
O O8 0.374521 0.636155 0.623396
O O9 0.133485 0.053011 0.121290
O O10 0.904962 0.126701 0.062631
O O11 0.000000 0.000000 0.000000
O O12 0.685049 0.067225 0.887895
O O13 0.684998 0.181576 0.966996
O O14 0.250000 0.519129 0.250000
O O15 0.250000 0.750000 0.903868
#
# Coordination Sequence:
#
# PCOD8201863 Si02
#       8
#     2   2   8   8   8   8   8   8
#     4  12  20  42  62  96 128 176 210 284 340 404
#     4  12  24  42  70 104 128 168 218 284 336 388
#     4  10  22  40  66  94 127 172 218 268 321 395
#     4  10  23  37  68  91 127 167 217 259 330 389
#     4  11  23  39  66  94 128 166 223 273 319 389
#     4  11  23  40  69  93 130 169 219 263 328 395
#     4  11  23  41  62  91 129 173 208 266 334 390
#     4  11  23  40  66  99 126 168 223 271 322 389
#
# _framework density 19.892334999999999
#
# number of rings (size 3 to 8) (size 9 to 14) (size 15 to 20)
#    0.000    1.231    4.615    1.846    4.308    1.846 
#    0.000    3.077    0.000    0.000    0.000    0.000 
#    0.000    0.000    0.000    0.000    0.000    0.000 
#
# Total GULP energy -644248.860170 kJ/mol
# GULP energy per Si atom -12389.401157 kJ/mol
# Density = 1.984706 g / cm^3
# Si number density = 19.892335 Si / 1000 Ang^3
#
#
#
# Elastic Constant Matrix: (Units=GPa)
#
#
# Indices 1 2 3 4 5 6 
#
# 1 154.4347 68.6152 39.9534 0.0000 0.0000 0.0000
# 2 68.6152 136.0294 24.9741 0.0000 0.0000 0.0000
# 3 39.9534 24.9741 75.7126 0.0000 0.0000 0.0000
# 4 0.0000 0.0000 0.0000 29.5556 0.0000 0.0000
# 5 0.0000 0.0000 0.0000 0.0000 19.5771 0.0000
# 6 0.0000 0.0000 0.0000 0.0000 0.0000 23.4589
#
#
#
# Elastic Compliance Matrix: (Units=1/GPa)
#
#
# Indices 1 2 3 4 5 6 
#
# 1 0.009149 -0.003969 -0.003519 0.000000 0.000000 0.000000
# 2 -0.003969 0.009547 -0.001055 0.000000 0.000000 0.000000
# 3 -0.003519 -0.001055 0.015413 0.000000 0.000000 0.000000
# 4 0.000000 0.000000 0.000000 0.033835 0.000000 0.000000
# 5 0.000000 0.000000 0.000000 0.000000 0.051080 0.000000
# 6 0.000000 0.000000 0.000000 0.000000 0.000000 0.042628
#
#
# Mechanical properties :
#
#
# Convention : Reuss Voigt Hill
#
# Bulk Modulus (GPa) = 58.74126 70.36244 64.55185
# Shear Modulus (GPa) = 27.11349 30.02724 28.57036
#
# Velocity S-wave (km/s) = 3.69590 3.88943 3.79390
# Velocity P-wave (km/s) = 6.91423 7.45779 7.19115
#
# Compressibility (1/GPa) = 0.01702381
#
# Stress axis : x y z
#
# Youngs Moduli (GPa) = 109.30293 104.74577 64.88205
#
# Poissons Ratio (x) = 0.41572 0.22830
# Poissons Ratio (y) = 0.43380 0.06844
# Poissons Ratio (z) = 0.38461 0.11048
#
# Static dielectric constant tensor:
#      x y z
#    x 3.774480 0.000000 0.000000 
#    y 0.000000 3.828500 0.000000 
#    z 0.000000 0.000000 3.265330 
# 
# 
# High freq. dielectric constant tensor:
#      x y z
#    x 1.779580 0.000000 0.000000 
#    y 0.000000 1.796220 0.000000 
#    z 0.000000 0.000000 1.757390 
# 
# From -- ./inp_files/30446.got.cif
#   From: 2010.06.25/outbox.cif.g09.slc.cpg/sg48_16_cif.got.tgz:30446.got - 2010.06.26 18:06:46.
