data_PCOD8201157
_publ_section_title
;
Structure prediction by ZEFSAII (Michael W. Deem and Ramdas Pophale) SiO2 
 PCOD8201157
Probable space group: P M M M
;
_chemical_formula_sum "Si O2"
_cell_formula_units_Z 44
_cell_length_a 14.508885
_cell_length_b 9.313658
_cell_length_c 16.008836
_cell_angle_alpha 90.000000
_cell_angle_beta 90.000000
_cell_angle_gamma 90.000000
_cell_volume 2163.286701
_symmetry_space_group_name_H-M "P M M M"
_symmetry_group_IT_number 47
_symmetry_cell_setting 'orthorhombic'
loop_
_space_group_symop_operation_xyz
x,y,z
-x,-y,z
x,-y,-z
-x,y,-z
-x,-y,-z
x,y,-z
-x,y,z
x,-y,z
loop_
_atom_site_type_symbol
_atom_site_label
_atom_site_fract_x
_atom_site_fract_y
_atom_site_fract_z
Si Si1 0.107836 0.332654 0.249137
Si Si2 0.603567 0.335113 0.181840
Si Si3 0.217113 0.667339 0.090917
Si Si4 0.610421 0.662990 0.500000
Si Si5 0.390703 0.838683 0.342952
Si Si6 0.890513 0.837292 0.591764
O O1 0.130129 0.500000 0.258531
O O2 0.156860 0.266388 0.166505
O O3 0.149557 0.257749 0.332252
O O4 0.000000 0.302189 0.239087
O O5 0.500000 0.294241 0.152624
O O6 0.607106 0.500000 0.212345
O O7 0.673734 0.308088 0.105992
O O8 0.638623 0.237434 0.257598
O O9 0.193915 0.500000 0.087040
O O10 0.192874 0.736386 0.000000
O O11 0.647585 0.500000 0.500000
O O12 0.500000 0.662849 0.500000
O O13 0.650120 0.747062 0.580365
O O14 0.500000 0.842924 0.350242
O O15 0.350173 0.000000 0.345625
O O16 0.856646 0.781909 0.500000
O O17 0.000000 0.828438 0.593994
O O18 0.857241 0.000000 0.605464
#
# Coordination Sequence:
#
# PCOD8201157 Si02
#       6
#     8   8   8   4   8   8
#     4   9  17  29  48  75 104 133 164 198 239 290
#     4   9  17  30  49  70  91 120 162 209 254 297
#     4   9  18  32  50  73 100 128 162 207 254 299
#     4   9  15  23  39  65  95 125 160 199 238 287
#     4   9  16  26  42  65  93 124 157 196 244 294
#     4   8  14  26  46  72 101 133 166 198 237 286
#
# _framework density 20.339421000000002
#
# number of rings (size 3 to 8) (size 9 to 14) (size 15 to 20)
#    0.000    3.182    0.000    1.364    0.000    4.364 
#    0.000    6.364    2.000    2.182    0.000    5.091 
#    0.000    0.000    0.000    0.000    0.000    0.000 
#
# Total GULP energy -545330.398765 kJ/mol
# GULP energy per Si atom -12393.872699 kJ/mol
# Density = 2.029313 g / cm^3
# Si number density = 20.339421 Si / 1000 Ang^3
#
#
#
# Elastic Constant Matrix: (Units=GPa)
#
#
# Indices 1 2 3 4 5 6 
#
# 1 40.3270 10.6195 46.7828 0.0000 0.0000 0.0000
# 2 10.6195 84.0022 63.2346 0.0000 0.0000 0.0000
# 3 46.7828 63.2346 201.9896 0.0000 0.0000 0.0000
# 4 0.0000 0.0000 0.0000 11.0424 0.0000 0.0000
# 5 0.0000 0.0000 0.0000 0.0000 22.6547 0.0000
# 6 0.0000 0.0000 0.0000 0.0000 0.0000 5.2121
#
#
#
# Elastic Compliance Matrix: (Units=1/GPa)
#
#
# Indices 1 2 3 4 5 6 
#
# 1 0.034201 0.002145 -0.008593 0.000000 0.000000 0.000000
# 2 0.002145 0.015709 -0.005415 0.000000 0.000000 0.000000
# 3 -0.008593 -0.005415 0.008636 0.000000 0.000000 0.000000
# 4 0.000000 0.000000 0.000000 0.090560 0.000000 0.000000
# 5 0.000000 0.000000 0.000000 0.000000 0.044141 0.000000
# 6 0.000000 0.000000 0.000000 0.000000 0.000000 0.191862
#
#
# Mechanical properties :
#
#
# Convention : Reuss Voigt Hill
#
# Bulk Modulus (GPa) = 28.71851 63.06585 45.89218
# Shear Modulus (GPa) = 11.89228 21.49397 16.69312
#
# Velocity S-wave (km/s) = 2.42066 3.25432 2.86794
# Velocity P-wave (km/s) = 4.68648 6.72271 5.79473
#
# Compressibility (1/GPa) = 0.03482075
#
# Stress axis : x y z
#
# Youngs Moduli (GPa) = 29.23922 63.65634 115.79442
#
# Poissons Ratio (x) = -0.13652 0.99498
# Poissons Ratio (y) = -0.06271 0.62699
# Poissons Ratio (z) = 0.25124 0.34468
#
# Static dielectric constant tensor:
#      x y z
#    x 3.414540 0.000000 0.000000 
#    y 0.000000 3.572350 0.000000 
#    z 0.000000 0.000000 4.017220 
# 
# 
# High freq. dielectric constant tensor:
#      x y z
#    x 1.779880 0.000000 0.000000 
#    y 0.000000 1.761540 0.000000 
#    z 0.000000 0.000000 1.796590 
# 
# From -- ./inp_files/9007.got.cif
#   From: 2010.03.12/outbox.cif.g09.slc.cpg/sg47_5_cif.got.tgz:9007.got - 2010.04.14 03:12:58.
