data_PCOD8201015
_publ_section_title
;
Structure prediction by ZEFSAII (Michael W. Deem and Ramdas Pophale) SiO2 
 PCOD8201015
Probable space group: P M M M
;
_chemical_formula_sum "Si O2"
_cell_formula_units_Z 52
_cell_length_a 28.346177
_cell_length_b 13.866647
_cell_length_c 7.829533
_cell_angle_alpha 90.000000
_cell_angle_beta 90.000000
_cell_angle_gamma 90.000000
_cell_volume 3077.526587
_symmetry_space_group_name_H-M "P M M M"
_symmetry_group_IT_number 47
_symmetry_cell_setting 'orthorhombic'
loop_
_space_group_symop_operation_xyz
x,y,z
-x,-y,z
x,-y,-z
-x,y,-z
-x,-y,-z
x,y,-z
-x,y,z
x,-y,z
loop_
_atom_site_type_symbol
_atom_site_label
_atom_site_fract_x
_atom_site_fract_y
_atom_site_fract_z
Si Si1 0.234972 0.892382 0.201950
Si Si2 0.192954 0.606958 0.298044
Si Si3 0.142482 0.786625 0.200173
Si Si4 0.051738 0.891046 0.796847
Si Si5 0.715105 0.288719 0.300819
Si Si6 0.447603 0.386061 0.000000
Si Si7 0.619991 0.386624 0.697562
O O1 0.186316 0.847875 0.277755
O O2 0.278787 0.824625 0.257431
O O3 0.242523 0.000000 0.276880
O O4 0.232248 0.896540 0.000000
O O5 0.196469 0.602757 0.500000
O O6 0.185171 0.500000 0.222204
O O7 0.148972 0.673853 0.243631
O O8 0.241196 0.651609 0.218964
O O9 0.093002 0.823273 0.280448
O O10 0.141087 0.803578 0.000000
O O11 0.000000 0.856846 0.730461
O O12 0.061479 0.000000 0.735332
O O13 0.052166 0.886994 0.000000
O O14 0.715536 0.306712 0.500000
O O15 0.665606 0.329098 0.232465
O O16 0.421690 0.353511 0.175038
O O17 0.451301 0.500000 0.000000
O O18 0.500000 0.339987 0.000000
O O19 0.606980 0.360784 0.500000
O O20 0.630691 0.500000 0.713840
#
# Coordination Sequence:
#
# PCOD8201015 Si02
#       7
#     8   8   8   8   8   4   8
#     4   9  17  27  39  58  86 116 139 165 208 259
#     4   9  17  29  43  58  80 110 141 172 207 250
#     4   9  16  26  41  61  83 105 134 172 209 249
#     4   8  13  22  39  62  83 103 130 166 209 255
#     4   9  17  28  43  62  83 111 146 179 211 250
#     4   9  18  30  44  66  93 123 159 191 223 266
#     4   9  17  29  45  65  91 122 153 188 227 264
#
# _framework density 16.896685999999999
#
# number of rings (size 3 to 8) (size 9 to 14) (size 15 to 20)
#    0.000    3.154    0.000    1.385    1.077    4.615 
#    0.000    1.538    0.000    2.308    0.000    4.308 
#    0.000    1.231    0.000    3.385    0.000    0.154 
#
# Total GULP energy -644422.741405 kJ/mol
# GULP energy per Si atom -12392.745027 kJ/mol
# Density = 1.685823 g / cm^3
# Si number density = 16.896686 Si / 1000 Ang^3
#
#
#
# Elastic Constant Matrix: (Units=GPa)
#
#
# Indices 1 2 3 4 5 6 
#
# 1 140.4728 70.5721 31.9412 0.0000 0.0000 0.0000
# 2 70.5721 109.9963 10.9702 0.0000 0.0000 0.0000
# 3 31.9412 10.9702 34.0871 0.0000 0.0000 0.0000
# 4 0.0000 0.0000 0.0000 17.0388 0.0000 0.0000
# 5 0.0000 0.0000 0.0000 0.0000 13.0463 0.0000
# 6 0.0000 0.0000 0.0000 0.0000 0.0000 20.8519
#
#
#
# Elastic Compliance Matrix: (Units=1/GPa)
#
#
# Indices 1 2 3 4 5 6 
#
# 1 0.013089 -0.007413 -0.009880 0.000000 0.000000 0.000000
# 2 -0.007413 0.013591 0.002572 0.000000 0.000000 0.000000
# 3 -0.009880 0.002572 0.037767 0.000000 0.000000 0.000000
# 4 0.000000 0.000000 0.000000 0.058690 0.000000 0.000000
# 5 0.000000 0.000000 0.000000 0.000000 0.076650 0.000000
# 6 0.000000 0.000000 0.000000 0.000000 0.000000 0.047957
#
#
# Mechanical properties :
#
#
# Convention : Reuss Voigt Hill
#
# Bulk Modulus (GPa) = 28.56649 56.83591 42.70120
# Shear Modulus (GPa) = 17.30988 21.59224 19.45106
#
# Velocity S-wave (km/s) = 3.20418 3.57865 3.39658
# Velocity P-wave (km/s) = 5.53465 7.12643 6.38037
#
# Compressibility (1/GPa) = 0.03500605
#
# Stress axis : x y z
#
# Youngs Moduli (GPa) = 76.39814 73.58076 26.47844
#
# Poissons Ratio (x) = 0.54542 0.26160
# Poissons Ratio (y) = 0.56631 -0.06811
# Poissons Ratio (z) = 0.75479 -0.18926
#
# Static dielectric constant tensor:
#      x y z
#    x 3.401310 0.000000 0.000000 
#    y 0.000000 3.219490 0.000000 
#    z 0.000000 0.000000 2.954890 
# 
# 
# High freq. dielectric constant tensor:
#      x y z
#    x 1.632470 0.000000 0.000000 
#    y 0.000000 1.629130 0.000000 
#    z 0.000000 0.000000 1.639230 
# 
# From -- ./inp_files/13387.got.cif
#   From: 2010.03.12/outbox.cif.g09.slc.cpg/sg47_7_cif.got.tgz:13387.got - 2010.04.14 03:12:58.
