data_PCOD8201452
_publ_section_title
;
Structure prediction by ZEFSAII (Michael W. Deem and Ramdas Pophale) SiO2 
 PCOD8201452
Probable space group: P N N N
;
_chemical_formula_sum "Si O2"
_cell_formula_units_Z 64
_cell_length_a 18.534395
_cell_length_b 8.388978
_cell_length_c 20.766477
_cell_angle_alpha 90.000000
_cell_angle_beta 90.000000
_cell_angle_gamma 90.000000
_cell_volume 3228.868032
_symmetry_space_group_name_H-M "P N N N"
_symmetry_group_IT_number 48
_space_group.IT_coordinate_system_code '2'
_symmetry_cell_setting 'orthorhombic'
loop_
_space_group_symop_operation_xyz
x,y,z
1/2-x,1/2-y,z
x,1/2-y,1/2-z
1/2-x,y,1/2-z
-x,-y,-z
1/2+x,1/2+y,-z
-x,1/2+y,1/2+z
1/2+x,-y,1/2+z
loop_
_atom_site_type_symbol
_atom_site_label
_atom_site_fract_x
_atom_site_fract_y
_atom_site_fract_z
Si Si1 0.844129 0.398875 0.134764
Si Si2 0.919032 0.417559 0.335867
Si Si3 0.538801 0.510881 0.931747
Si Si4 0.534001 0.148829 0.909074
Si Si5 0.788985 0.583556 0.391377
Si Si6 0.448395 0.413528 0.713029
Si Si7 0.820056 0.821351 0.974383
Si Si8 0.098463 0.029934 0.513384
O O1 0.867996 0.236877 0.169347
O O2 0.758558 0.431549 0.132890
O O3 0.876838 0.551765 0.172064
O O4 0.877671 0.392528 0.062915
O O5 0.867617 0.566696 0.357152
O O6 0.956509 0.449204 0.266906
O O7 0.984626 0.392652 0.385587
O O8 0.553596 0.334941 0.903938
O O9 0.615612 0.604944 0.931530
O O10 0.500000 0.500000 0.000000
O O11 0.515388 0.086555 0.837347
O O12 0.473800 0.120484 0.963919
O O13 0.598188 0.044238 0.940683
O O14 0.750000 0.750000 0.373220
O O15 0.798406 0.556803 0.468482
O O16 0.441042 0.250000 0.750000
O O17 0.750000 0.750000 0.934742
O O18 0.843178 0.668024 0.015663
#
# Coordination Sequence:
#
# PCOD8201452 Si02
#       8
#     8   8   8   8   8   8   8   8
#     4  11  23  38  59  91 129 165 212 259 310 374
#     4  12  24  39  60  91 124 168 221 267 305 371
#     4  12  21  36  62  91 123 159 212 264 313 376
#     4  10  21  36  60  92 118 157 207 259 315 367
#     4  11  21  39  60  85 131 177 208 254 311 383
#     4  11  23  41  60  84 129 167 214 254 306 377
#     4  11  22  38  58  91 131 159 201 256 329 385
#     4  10  19  36  60  88 123 158 198 259 323 369
#
# _framework density 19.821187999999999
#
# number of rings (size 3 to 8) (size 9 to 14) (size 15 to 20)
#    0.000    1.000    6.250    2.250    3.500    0.500 
#    0.000    3.125    0.000    0.000    0.000    1.750 
#    0.000    0.000    0.000    0.000    0.000    0.000 
#
# Total GULP energy -793000.140147 kJ/mol
# GULP energy per Si atom -12390.627190 kJ/mol
# Density = 1.977607 g / cm^3
# Si number density = 19.821188 Si / 1000 Ang^3
#
#
#
# Elastic Constant Matrix: (Units=GPa)
#
#
# Indices 1 2 3 4 5 6 
#
# 1 90.9811 27.3560 49.0555 0.0000 0.0000 0.0000
# 2 27.3560 84.8240 32.9863 0.0000 0.0000 0.0000
# 3 49.0555 32.9863 114.3801 0.0000 0.0000 0.0000
# 4 0.0000 0.0000 0.0000 31.5030 0.0000 0.0000
# 5 0.0000 0.0000 0.0000 0.0000 15.9075 0.0000
# 6 0.0000 0.0000 0.0000 0.0000 0.0000 28.6430
#
#
#
# Elastic Compliance Matrix: (Units=1/GPa)
#
#
# Indices 1 2 3 4 5 6 
#
# 1 0.014787 -0.002594 -0.005594 0.000000 0.000000 0.000000
# 2 -0.002594 0.013733 -0.002848 0.000000 0.000000 0.000000
# 3 -0.005594 -0.002848 0.011963 0.000000 0.000000 0.000000
# 4 0.000000 0.000000 0.000000 0.031743 0.000000 0.000000
# 5 0.000000 0.000000 0.000000 0.000000 0.062864 0.000000
# 6 0.000000 0.000000 0.000000 0.000000 0.000000 0.034912
#
#
# Mechanical properties :
#
#
# Convention : Reuss Voigt Hill
#
# Bulk Modulus (GPa) = 54.31170 56.55341 55.43256
# Shear Modulus (GPa) = 25.22553 27.26320 26.24437
#
# Velocity S-wave (km/s) = 3.57130 3.71274 3.64271
# Velocity P-wave (km/s) = 6.66827 6.85368 6.76161
#
# Compressibility (1/GPa) = 0.01841224
#
# Stress axis : x y z
#
# Youngs Moduli (GPa) = 67.62548 72.81651 83.58852
#
# Poissons Ratio (x) = 0.18885 0.46760
# Poissons Ratio (y) = 0.17539 0.23808
# Poissons Ratio (z) = 0.37830 0.20740
#
# Static dielectric constant tensor:
#      x y z
#    x 3.662890 0.000000 0.000000 
#    y 0.000000 3.642020 0.000000 
#    z 0.000000 0.000000 3.581800 
# 
# 
# High freq. dielectric constant tensor:
#      x y z
#    x 1.753170 0.000000 0.000000 
#    y 0.000000 1.779920 0.000000 
#    z 0.000000 0.000000 1.746630 
# 
# From -- ./inp_files/34720.got.cif
#   From: 2010.06.25/outbox.cif.g09.slc.cpg/sg48_18_cif.got.tgz:34720.got - 2010.06.26 18:06:46.
