data_PCOD8201441
_publ_section_title
;
Structure prediction by ZEFSAII (Michael W. Deem and Ramdas Pophale) SiO2 
 PCOD8201441
Probable space group: P N N N
;
_chemical_formula_sum "Si O2"
_cell_formula_units_Z 42
_cell_length_a 10.126945
_cell_length_b 22.130318
_cell_length_c 10.242356
_cell_angle_alpha 90.000000
_cell_angle_beta 90.000000
_cell_angle_gamma 90.000000
_cell_volume 2295.440144
_symmetry_space_group_name_H-M "P N N N"
_symmetry_group_IT_number 48
_space_group.IT_coordinate_system_code '2'
_symmetry_cell_setting 'orthorhombic'
loop_
_space_group_symop_operation_xyz
x,y,z
1/2-x,1/2-y,z
x,1/2-y,1/2-z
1/2-x,y,1/2-z
-x,-y,-z
1/2+x,1/2+y,-z
-x,1/2+y,1/2+z
1/2+x,-y,1/2+z
loop_
_atom_site_type_symbol
_atom_site_label
_atom_site_fract_x
_atom_site_fract_y
_atom_site_fract_z
Si Si1 0.375403 0.863852 0.507655
Si Si2 0.750000 0.750000 0.750000
Si Si3 0.928345 0.372617 0.015238
Si Si4 0.504419 0.746880 0.889548
Si Si5 0.595818 0.047658 0.258369
Si Si6 0.596291 0.436893 0.753564
O O1 0.221587 0.851627 0.521834
O O2 0.437837 0.797705 0.509534
O O3 0.426818 0.905841 0.624153
O O4 0.418045 0.889936 0.369881
O O5 0.648288 0.717062 0.850394
O O6 0.956037 0.403622 0.876252
O O7 0.017193 0.313122 0.042832
O O8 0.955649 0.422720 0.124923
O O9 0.424328 0.750000 0.750000
O O10 0.750000 0.027738 0.250000
O O11 0.501353 0.991432 0.285398
O O12 0.750000 0.458865 0.750000
#
# Coordination Sequence:
#
# PCOD8201441 Si02
#       6
#     8   2   8   8   8   8
#     4  10  20  35  60  82 111 140 186 230 273 326
#     4   8  20  36  50  82 116 136 180 228 252 354
#     4  10  20  35  60  82 111 140 186 230 273 326
#     4  10  19  37  56  83 105 139 180 223 280 318
#     4  10  19  36  55  82 107 150 193 227 262 327
#     4  10  22  38  52  85 116 148 182 228 276 326
#
# _framework density 18.297142999999998
#
# number of rings (size 3 to 8) (size 9 to 14) (size 15 to 20)
#    0.571    1.524    1.905    1.714    0.000    1.524 
#   10.286    2.857    0.000    1.143    0.000    0.000 
#    0.000    0.000    0.000    0.000    0.000    0.000 
#
# Total GULP energy -520319.176619 kJ/mol
# GULP energy per Si atom -12388.551824 kJ/mol
# Density = 1.825550 g / cm^3
# Si number density = 18.297143 Si / 1000 Ang^3
#
#
#
# Elastic Constant Matrix: (Units=GPa)
#
#
# Indices 1 2 3 4 5 6 
#
# 1 59.1285 38.8968 15.1564 0.0000 0.0000 0.0000
# 2 38.8968 80.2530 18.3381 0.0000 0.0000 0.0000
# 3 15.1564 18.3381 103.0687 0.0000 0.0000 0.0000
# 4 0.0000 0.0000 0.0000 -13.8240 0.0000 0.0000
# 5 0.0000 0.0000 0.0000 0.0000 12.9980 0.0000
# 6 0.0000 0.0000 0.0000 0.0000 0.0000-2516.7330
#
#
#
# Elastic Compliance Matrix: (Units=1/GPa)
#
#
# Indices 1 2 3 4 5 6 
#
# 1 0.025076 -0.011791 -0.001590 0.000000 0.000000 0.000000
# 2 -0.011791 0.018532 -0.001563 0.000000 0.000000 0.000000
# 3 -0.001590 -0.001563 0.010214 0.000000 0.000000 0.000000
# 4 0.000000 0.000000 0.000000 -0.072338 0.000000 0.000000
# 5 0.000000 0.000000 0.000000 0.000000 0.076935 0.000000
# 6 0.000000 0.000000 0.000000 0.000000 0.000000 -0.000397
#
#
# Mechanical properties :
#
#
# Convention : Reuss Voigt Hill
#
# Bulk Modulus (GPa) = 41.77934 43.02586 42.40260
# Shear Modulus (GPa) = 52.14399 -492.17454 -220.01528
#
# Velocity S-wave (km/s) = 5.34418 -16.41870 -10.97756
# Velocity P-wave (km/s) = 7.80793 18.32664 11.72395
#
# Compressibility (1/GPa) = 0.02393527
#
# Stress axis : x y z
#
# Youngs Moduli (GPa) = 39.87876 53.95944 97.90286
#
# Poissons Ratio (x) = 0.63621 0.15564
# Poissons Ratio (y) = 0.47019 0.15307
# Poissons Ratio (z) = 0.06340 0.08437
#
# Static dielectric constant tensor:
#      x y z
#    x 3.276760 0.000000 0.000000 
#    y 0.000000 3.139450 0.000000 
#    z 0.000000 0.000000 3.449370 
# 
# 
# High freq. dielectric constant tensor:
#      x y z
#    x 1.693230 0.000000 0.000000 
#    y 0.000000 1.698610 0.000000 
#    z 0.000000 0.000000 1.718160 
# 
# From -- ./inp_files/11027.got.cif
#   From: 2010.06.25/outbox.cif.g09.slc.cpg/sg48_6_cif.got.tgz:11027.got - 2010.06.26 18:06:46.
