data_PCOD8201491
_publ_section_title
;
Structure prediction by ZEFSAII (Michael W. Deem and Ramdas Pophale) SiO2 
 PCOD8201491
Probable space group: P N N N
;
_chemical_formula_sum "Si O2"
_cell_formula_units_Z 64
_cell_length_a 14.788931
_cell_length_b 23.486817
_cell_length_c 9.159512
_cell_angle_alpha 90.000000
_cell_angle_beta 90.000000
_cell_angle_gamma 90.000000
_cell_volume 3181.509926
_symmetry_space_group_name_H-M "P N N N"
_symmetry_group_IT_number 48
_space_group.IT_coordinate_system_code '2'
_symmetry_cell_setting 'orthorhombic'
loop_
_space_group_symop_operation_xyz
x,y,z
1/2-x,1/2-y,z
x,1/2-y,1/2-z
1/2-x,y,1/2-z
-x,-y,-z
1/2+x,1/2+y,-z
-x,1/2+y,1/2+z
1/2+x,-y,1/2+z
loop_
_atom_site_type_symbol
_atom_site_label
_atom_site_fract_x
_atom_site_fract_y
_atom_site_fract_z
Si Si1 0.293543 0.098528 0.600958
Si Si2 0.518741 0.863166 0.930810
Si Si3 0.891840 0.100111 0.007012
Si Si4 0.289650 0.186601 0.102366
Si Si5 0.145281 0.683128 0.742708
Si Si6 0.801274 0.002008 0.898438
Si Si7 0.021575 0.407173 0.747579
Si Si8 0.513307 0.967368 0.730252
O O1 0.250000 0.080418 0.750000
O O2 0.250287 0.156023 0.539251
O O3 0.260712 0.047991 0.495537
O O4 0.398811 0.108436 0.633531
O O5 0.600444 0.818756 0.892870
O O6 0.421379 0.841892 0.868677
O O7 0.540733 0.924805 0.861092
O O8 0.517429 0.869279 0.106183
O O9 0.881472 0.161773 0.080795
O O10 0.945075 0.061769 0.121267
O O11 0.933700 0.108355 0.846735
O O12 0.799608 0.063450 0.980928
O O13 0.250000 0.250000 0.095013
O O14 0.250000 0.157671 0.250000
O O15 0.135114 0.750000 0.750000
O O16 0.250000 0.663626 0.750000
O O17 0.750000 0.009221 0.750000
O O18 0.903398 0.983838 0.869979
O O19 0.027705 0.473748 0.794042
#
# Coordination Sequence:
#
# PCOD8201491 Si02
#       8
#     8   8   8   8   8   8   8   8
#     4  12  22  37  57  90 138 172 216 259 326 386
#     4  11  23  41  65  96 130 169 217 271 324 385
#     4  10  21  40  64  87 124 163 208 259 321 388
#     4  11  26  42  62  93 128 176 227 272 316 394
#     4  10  25  47  70  90 117 162 219 277 335 392
#     4  11  21  35  59  91 127 167 213 257 319 390
#     4  11  21  38  60  97 133 173 208 261 328 390
#     4  10  19  39  60  86 128 173 207 250 319 389
#
# _framework density 20.116235
#
# number of rings (size 3 to 8) (size 9 to 14) (size 15 to 20)
#    0.000    1.250    3.750    3.000    3.500    2.750 
#    0.000    1.875    0.000    1.500    0.000    0.000 
#    0.000    0.000    0.000    0.000    0.000    0.000 
#
# Total GULP energy -793080.475770 kJ/mol
# GULP energy per Si atom -12391.882434 kJ/mol
# Density = 2.007045 g / cm^3
# Si number density = 20.116235 Si / 1000 Ang^3
#
#
#
# Elastic Constant Matrix: (Units=GPa)
#
#
# Indices 1 2 3 4 5 6 
#
# 1 97.8735 48.1980 37.4374 0.0000 0.0000 0.0000
# 2 48.1980 99.7895 52.0793 0.0000 0.0000 0.0000
# 3 37.4374 52.0793 125.9169 0.0000 0.0000 0.0000
# 4 0.0000 0.0000 0.0000 37.6560 0.0000 0.0000
# 5 0.0000 0.0000 0.0000 0.0000 32.4821 0.0000
# 6 0.0000 0.0000 0.0000 0.0000 0.0000 25.0980
#
#
#
# Elastic Compliance Matrix: (Units=1/GPa)
#
#
# Indices 1 2 3 4 5 6 
#
# 1 0.013686 -0.005722 -0.001703 0.000000 0.000000 0.000000
# 2 -0.005722 0.015172 -0.004574 0.000000 0.000000 0.000000
# 3 -0.001703 -0.004574 0.010340 0.000000 0.000000 0.000000
# 4 0.000000 0.000000 0.000000 0.026556 0.000000 0.000000
# 5 0.000000 0.000000 0.000000 0.000000 0.030786 0.000000
# 6 0.000000 0.000000 0.000000 0.000000 0.000000 0.039844
#
#
# Mechanical properties :
#
#
# Convention : Reuss Voigt Hill
#
# Bulk Modulus (GPa) = 65.78454 66.55659 66.17056
# Shear Modulus (GPa) = 30.22105 31.43824 30.82964
#
# Velocity S-wave (km/s) = 3.88018 3.95755 3.91906
# Velocity P-wave (km/s) = 7.26964 7.35124 7.31056
#
# Compressibility (1/GPa) = 0.01520114
#
# Stress axis : x y z
#
# Youngs Moduli (GPa) = 73.06604 65.91187 96.71448
#
# Poissons Ratio (x) = 0.37714 0.16467
# Poissons Ratio (y) = 0.41807 0.44236
# Poissons Ratio (z) = 0.12440 0.30147
#
# Static dielectric constant tensor:
#      x y z
#    x 4.123350 0.000000 0.000000 
#    y 0.000000 3.681680 0.000000 
#    z 0.000000 0.000000 4.009290 
# 
# 
# High freq. dielectric constant tensor:
#      x y z
#    x 1.784250 0.000000 0.000000 
#    y 0.000000 1.772330 0.000000 
#    z 0.000000 0.000000 1.795280 
# 
# From -- ./inp_files/13254.got.cif
#   From: 2010.06.25/outbox.cif.g09.slc.cpg/sg48_7_cif.got.tgz:13254.got - 2010.06.26 18:06:46.
