data_PCOD8201830
_publ_section_title
;
Structure prediction by ZEFSAII (Michael W. Deem and Ramdas Pophale) SiO2 
 PCOD8201830
Probable space group: P N N N
;
_chemical_formula_sum "Si O2"
_cell_formula_units_Z 38
_cell_length_a 19.032655
_cell_length_b 5.274350
_cell_length_c 16.365845
_cell_angle_alpha 90.000000
_cell_angle_beta 90.000000
_cell_angle_gamma 90.000000
_cell_volume 1642.883450
_symmetry_space_group_name_H-M "P N N N"
_symmetry_group_IT_number 48
_space_group.IT_coordinate_system_code '2'
_symmetry_cell_setting 'orthorhombic'
loop_
_space_group_symop_operation_xyz
x,y,z
1/2-x,1/2-y,z
x,1/2-y,1/2-z
1/2-x,y,1/2-z
-x,-y,-z
1/2+x,1/2+y,-z
-x,1/2+y,1/2+z
1/2+x,-y,1/2+z
loop_
_atom_site_type_symbol
_atom_site_label
_atom_site_fract_x
_atom_site_fract_y
_atom_site_fract_z
Si Si1 0.250000 0.250000 0.250000
Si Si2 0.820334 0.391063 0.624209
Si Si3 0.823346 0.622129 0.460564
Si Si4 0.989173 0.250000 0.250000
Si Si5 0.250000 0.750000 0.651145
Si Si6 0.376316 0.445139 0.678524
Si Si7 0.921757 0.250000 0.750000
O O1 0.198087 0.412425 0.305121
O O2 0.750000 0.250000 0.593097
O O3 0.856872 0.527402 0.546126
O O4 0.874897 0.198085 0.668073
O O5 0.750000 0.750000 0.484643
O O6 0.809353 0.383853 0.402874
O O7 0.873646 0.816679 0.411512
O O8 0.936596 0.337237 0.176139
O O9 0.034777 0.496696 0.272327
O O10 0.298417 0.554358 0.703216
O O11 0.397047 0.250000 0.750000
#
# Coordination Sequence:
#
# PCOD8201830 Si02
#       7
#     2   8   8   4   4   8   4
#     4  12  20  40  72 106 144 182 220 300 380 432
#     4  12  23  42  72 110 143 183 239 312 378 439
#     4  10  22  38  66 110 147 180 223 308 375 443
#     4  12  27  49  69 100 143 202 254 300 338 447
#     4  10  22  37  70 107 136 176 230 285 378 426
#     4  11  24  45  70 101 145 190 240 300 369 430
#     4  12  27  46  74 103 138 204 256 292 362 431
#
# _framework density 23.130061999999999
#
# number of rings (size 3 to 8) (size 9 to 14) (size 15 to 20)
#    0.000    0.842    5.263    1.895    0.000   10.105 
#    0.000    2.105    0.000    0.000    0.000    0.000 
#    0.000    0.000    0.000    0.000    0.000    0.000 
#
# Total GULP energy -470963.642964 kJ/mol
# GULP energy per Si atom -12393.780078 kJ/mol
# Density = 2.307742 g / cm^3
# Si number density = 23.130062 Si / 1000 Ang^3
#
#
#
# Elastic Constant Matrix: (Units=GPa)
#
#
# Indices 1 2 3 4 5 6 
#
# 1 102.5233 45.5133 47.0831 0.0000 0.0000 0.0000
# 2 45.5133 123.3189 52.0615 0.0000 0.0000 0.0000
# 3 47.0831 52.0615 155.7959 0.0000 0.0000 0.0000
# 4 0.0000 0.0000 0.0000 47.1569 0.0000 0.0000
# 5 0.0000 0.0000 0.0000 0.0000 9.5036 0.0000
# 6 0.0000 0.0000 0.0000 0.0000 0.0000 41.9322
#
#
#
# Elastic Compliance Matrix: (Units=1/GPa)
#
#
# Indices 1 2 3 4 5 6 
#
# 1 0.012512 -0.003518 -0.002606 0.000000 0.000000 0.000000
# 2 -0.003518 0.010430 -0.002422 0.000000 0.000000 0.000000
# 3 -0.002606 -0.002422 0.008016 0.000000 0.000000 0.000000
# 4 0.000000 0.000000 0.000000 0.021206 0.000000 0.000000
# 5 0.000000 0.000000 0.000000 0.000000 0.105224 0.000000
# 6 0.000000 0.000000 0.000000 0.000000 0.000000 0.023848
#
#
# Mechanical properties :
#
#
# Convention : Reuss Voigt Hill
#
# Bulk Modulus (GPa) = 72.11811 74.55045 73.33428
# Shear Modulus (GPa) = 24.63673 35.51722 30.07697
#
# Velocity S-wave (km/s) = 3.26719 3.92285 3.60994
# Velocity P-wave (km/s) = 6.74387 7.26769 7.01067
#
# Compressibility (1/GPa) = 0.01386614
#
# Stress axis : x y z
#
# Youngs Moduli (GPa) = 79.92171 95.87772 124.75719
#
# Poissons Ratio (x) = 0.33728 0.32509
# Poissons Ratio (y) = 0.28115 0.30219
# Poissons Ratio (z) = 0.20826 0.23224
#
# Static dielectric constant tensor:
#      x y z
#    x 4.198810 0.000000 0.000000 
#    y 0.000000 4.540030 0.000000 
#    z 0.000000 0.000000 4.006530 
# 
# 
# High freq. dielectric constant tensor:
#      x y z
#    x 1.885750 0.000000 0.000000 
#    y 0.000000 1.933530 0.000000 
#    z 0.000000 0.000000 1.900620 
# 
# From -- ./inp_files/29336.got.cif
#   From: 2010.06.25/outbox.cif.g09.slc.cpg/sg48_15_cif.got.tgz:29336.got - 2010.06.26 18:06:46.
