data_PCOD8201981
_publ_section_title
;
Structure prediction by ZEFSAII (Michael W. Deem and Ramdas Pophale) SiO2 
 PCOD8201981
Probable space group: P N N N
;
_chemical_formula_sum "Si O2"
_cell_formula_units_Z 40
_cell_length_a 11.915478
_cell_length_b 19.031834
_cell_length_c 8.871743
_cell_angle_alpha 90.000000
_cell_angle_beta 90.000000
_cell_angle_gamma 90.000000
_cell_volume 2011.875318
_symmetry_space_group_name_H-M "P N N N"
_symmetry_group_IT_number 48
_space_group.IT_coordinate_system_code '2'
_symmetry_cell_setting 'orthorhombic'
loop_
_space_group_symop_operation_xyz
x,y,z
1/2-x,1/2-y,z
x,1/2-y,1/2-z
1/2-x,y,1/2-z
-x,-y,-z
1/2+x,1/2+y,-z
-x,1/2+y,1/2+z
1/2+x,-y,1/2+z
loop_
_atom_site_type_symbol
_atom_site_label
_atom_site_fract_x
_atom_site_fract_y
_atom_site_fract_z
Si Si1 0.750000 0.400972 0.250000
Si Si2 0.076241 0.239859 0.426897
Si Si3 0.764891 0.864471 0.926926
Si Si4 0.342245 0.808795 0.005907
Si Si5 0.866447 0.491487 0.496797
Si Si6 0.750000 0.094186 0.750000
O O1 0.669345 0.353027 0.352187
O O2 0.833792 0.447398 0.349710
O O3 0.058255 0.250000 0.250000
O O4 0.137964 0.310672 0.477393
O O5 0.146884 0.170526 0.474688
O O6 0.959191 0.232192 0.511685
O O7 0.750000 0.878179 0.750000
O O8 0.795890 0.936150 0.011948
O O9 0.250000 0.750000 0.015958
O O10 0.333175 0.859331 0.149065
O O11 0.832088 0.452336 0.649066
O O12 0.000000 0.500000 0.500000
#
# Coordination Sequence:
#
# PCOD8201981 Si02
#       6
#     4   8   8   8   8   4
#     4  10  25  38  58  99 118 168 216 244 318 379
#     4   9  19  34  64  92 116 155 210 258 306 360
#     4   9  19  37  61  92 119 159 205 255 310 367
#     4  11  22  39  64  91 128 159 211 263 312 375
#     4  11  24  41  65  89 135 168 210 262 316 387
#     4  10  25  42  58  97 122 170 208 248 330 375
#
# _framework density 19.881947
#
# number of rings (size 3 to 8) (size 9 to 14) (size 15 to 20)
#    0.000    2.000    1.000    3.000   11.200    1.600 
#    0.000    4.000    0.000    1.200    0.000    0.000 
#    0.000    0.000    0.000    0.000    0.000    0.000 
#
# Total GULP energy -495906.450329 kJ/mol
# GULP energy per Si atom -12397.661258 kJ/mol
# Density = 1.983669 g / cm^3
# Si number density = 19.881947 Si / 1000 Ang^3
#
#
#
# Elastic Constant Matrix: (Units=GPa)
#
#
# Indices 1 2 3 4 5 6 
#
# 1 150.6891 49.1669 36.1268 0.0000 0.0000 0.0000
# 2 49.1669 119.2901 36.9708 0.0000 0.0000 0.0000
# 3 36.1268 36.9708 85.1397 0.0000 0.0000 0.0000
# 4 0.0000 0.0000 0.0000 254.1798 0.0000 0.0000
# 5 0.0000 0.0000 0.0000 0.0000 17.0916 0.0000
# 6 0.0000 0.0000 0.0000 0.0000 0.0000 22.7397
#
#
#
# Elastic Compliance Matrix: (Units=1/GPa)
#
#
# Indices 1 2 3 4 5 6 
#
# 1 0.008032 -0.002605 -0.002277 0.000000 0.000000 0.000000
# 2 -0.002605 0.010531 -0.003468 0.000000 0.000000 0.000000
# 3 -0.002277 -0.003468 0.014217 0.000000 0.000000 0.000000
# 4 0.000000 0.000000 0.000000 0.003934 0.000000 0.000000
# 5 0.000000 0.000000 0.000000 0.000000 0.058508 0.000000
# 6 0.000000 0.000000 0.000000 0.000000 0.000000 0.043976
#
#
# Mechanical properties :
#
#
# Convention : Reuss Voigt Hill
#
# Bulk Modulus (GPa) = 62.18351 66.62755 64.40553
# Shear Modulus (GPa) = 31.00604 74.32585 52.66594
#
# Velocity S-wave (km/s) = 3.95334 6.12084 5.15236
# Velocity P-wave (km/s) = 7.22377 9.13988 8.23772
#
# Compressibility (1/GPa) = 0.01608143
#
# Stress axis : x y z
#
# Youngs Moduli (GPa) = 124.50234 94.95536 70.33597
#
# Poissons Ratio (x) = 0.24734 0.16016
# Poissons Ratio (y) = 0.32430 0.24391
# Poissons Ratio (z) = 0.28350 0.32929
#
# Static dielectric constant tensor:
#      x y z
#    x 3.492850 0.000000 0.000000 
#    y 0.000000 3.892880 0.000000 
#    z 0.000000 0.000000 3.503670 
# 
# 
# High freq. dielectric constant tensor:
#      x y z
#    x 1.776630 0.000000 0.000000 
#    y 0.000000 1.792980 0.000000 
#    z 0.000000 0.000000 1.758730 
# 
# From -- ./inp_files/11042.got.cif
#   From: 2010.06.25/outbox.cif.g09.slc.cpg/sg48_6_cif.got.tgz:11042.got - 2010.06.26 18:06:46.
