data_PCOD8201267
_publ_section_title
;
Structure prediction by ZEFSAII (Michael W. Deem and Ramdas Pophale) SiO2 
 PCOD8201267
Probable space group: P N N N
;
_chemical_formula_sum "Si O2"
_cell_formula_units_Z 32
_cell_length_a 28.574412
_cell_length_b 11.778009
_cell_length_c 5.119193
_cell_angle_alpha 90.000000
_cell_angle_beta 90.000000
_cell_angle_gamma 90.000000
_cell_volume 1722.862775
_symmetry_space_group_name_H-M "P N N N"
_symmetry_group_IT_number 48
_space_group.IT_coordinate_system_code '2'
_symmetry_cell_setting 'orthorhombic'
loop_
_space_group_symop_operation_xyz
x,y,z
1/2-x,1/2-y,z
x,1/2-y,1/2-z
1/2-x,y,1/2-z
-x,-y,-z
1/2+x,1/2+y,-z
-x,1/2+y,1/2+z
1/2+x,-y,1/2+z
loop_
_atom_site_type_symbol
_atom_site_label
_atom_site_fract_x
_atom_site_fract_y
_atom_site_fract_z
Si Si1 0.877715 0.326555 0.501536
Si Si2 0.458284 0.968977 0.697856
Si Si3 0.975157 0.821013 0.507298
Si Si4 0.771057 0.376846 0.501910
O O1 0.890248 0.250000 0.750000
O O2 0.913679 0.431451 0.471482
O O3 0.826617 0.380703 0.522797
O O4 0.879639 0.250000 0.250000
O O5 0.475541 0.864596 0.877235
O O6 0.500000 0.000000 0.500000
O O7 0.444784 0.072367 0.897123
O O8 0.950557 0.750000 0.750000
O O9 0.987310 0.750000 0.250000
O O10 0.750000 0.250000 0.500409
O O11 0.750000 0.443073 0.750000
O O12 0.750000 0.441129 0.250000
#
# Coordination Sequence:
#
# PCOD8201267 Si02
#       4
#     8   8   8   8
#     4  12  24  33  56  81 114 155 190 225 288 343
#     4  11  26  37  54  85 109 150 211 235 275 354
#     4  11  23  41  57  71 108 156 191 251 289 314
#     4  10  16  34  50  77 109 146 181 218 274 354
#
# _framework density 18.573734999999999
#
# number of rings (size 3 to 8) (size 9 to 14) (size 15 to 20)
#    0.000    1.000    7.500    0.750   10.500    0.000 
#    0.000    0.000    0.000    0.000    0.000    0.000 
#    0.000    1.000    9.000    0.000    0.000    0.000 
#
# Total GULP energy -396420.674439 kJ/mol
# GULP energy per Si atom -12388.146076 kJ/mol
# Density = 1.853146 g / cm^3
# Si number density = 18.573735 Si / 1000 Ang^3
#
#
#
# Elastic Constant Matrix: (Units=GPa)
#
#
# Indices 1 2 3 4 5 6 
#
# 1 144.4681 42.6161 57.2690 0.0000 0.0000 0.0000
# 2 42.6161 77.2774 53.6028 0.0000 0.0000 0.0000
# 3 57.2690 53.6028 190.5672 0.0000 0.0000 0.0000
# 4 0.0000 0.0000 0.0000 24.9309 0.0000 0.0000
# 5 0.0000 0.0000 0.0000 0.0000 28.7837 0.0000
# 6 0.0000 0.0000 0.0000 0.0000 0.0000 19.9594
#
#
#
# Elastic Compliance Matrix: (Units=1/GPa)
#
#
# Indices 1 2 3 4 5 6 
#
# 1 0.008624 -0.003675 -0.001558 0.000000 0.000000 0.000000
# 2 -0.003675 0.017643 -0.003858 0.000000 0.000000 0.000000
# 3 -0.001558 -0.003858 0.006801 0.000000 0.000000 0.000000
# 4 0.000000 0.000000 0.000000 0.040111 0.000000 0.000000
# 5 0.000000 0.000000 0.000000 0.000000 0.034742 0.000000
# 6 0.000000 0.000000 0.000000 0.000000 0.000000 0.050102
#
#
# Mechanical properties :
#
#
# Convention : Reuss Voigt Hill
#
# Bulk Modulus (GPa) = 67.17961 79.92094 73.55027
# Shear Modulus (GPa) = 27.59893 31.98980 29.79437
#
# Velocity S-wave (km/s) = 3.85893 4.15458 4.00948
# Velocity P-wave (km/s) = 7.49018 8.13243 7.81791
#
# Compressibility (1/GPa) = 0.01488547
#
# Stress axis : x y z
#
# Youngs Moduli (GPa) = 115.96120 56.67856 147.03907
#
# Poissons Ratio (x) = 0.20830 0.22906
# Poissons Ratio (y) = 0.42616 0.56732
# Poissons Ratio (z) = 0.18065 0.21868
#
# Static dielectric constant tensor:
#      x y z
#    x 5.884070 0.000000 0.000000 
#    y 0.000000 3.310480 0.000000 
#    z 0.000000 0.000000 3.380810 
# 
# 
# High freq. dielectric constant tensor:
#      x y z
#    x 1.686680 0.000000 0.000000 
#    y 0.000000 1.673530 0.000000 
#    z 0.000000 0.000000 1.767390 
# 
# From -- ./inp_files/2118.got.cif
#   From: 2010.06.25/outbox.cif.g09.slc.cpg/sg48_2_cif.got.tgz:2118.got - 2010.06.26 18:06:46.
