data_PCOD8201319
_publ_section_title
;
Structure prediction by ZEFSAII (Michael W. Deem and Ramdas Pophale) SiO2 
 PCOD8201319
Probable space group: P N N N
;
_chemical_formula_sum "Si O2"
_cell_formula_units_Z 54
_cell_length_a 17.309835
_cell_length_b 11.436419
_cell_length_c 13.790961
_cell_angle_alpha 90.000000
_cell_angle_beta 90.000000
_cell_angle_gamma 90.000000
_cell_volume 2730.093474
_symmetry_space_group_name_H-M "P N N N"
_symmetry_group_IT_number 48
_space_group.IT_coordinate_system_code '2'
_symmetry_cell_setting 'orthorhombic'
loop_
_space_group_symop_operation_xyz
x,y,z
1/2-x,1/2-y,z
x,1/2-y,1/2-z
1/2-x,y,1/2-z
-x,-y,-z
1/2+x,1/2+y,-z
-x,1/2+y,1/2+z
1/2+x,-y,1/2+z
loop_
_atom_site_type_symbol
_atom_site_label
_atom_site_fract_x
_atom_site_fract_y
_atom_site_fract_z
Si Si1 0.500900 0.770209 0.858102
Si Si2 0.943812 0.896695 0.474345
Si Si3 0.394367 0.613991 0.981351
Si Si4 0.864059 0.925918 0.163690
Si Si5 0.750000 0.250000 0.432103
Si Si6 0.981215 0.199910 0.845750
Si Si7 0.250000 0.250000 0.750000
Si Si8 0.643768 0.437070 0.349524
O O1 0.534271 0.750000 0.750000
O O2 0.461170 0.655742 0.905933
O O3 0.433960 0.864946 0.852139
O O4 0.570650 0.821552 0.926084
O O5 0.991207 0.810907 0.405787
O O6 0.866642 0.950104 0.422850
O O7 0.000000 0.000000 0.500000
O O8 0.366866 0.485697 0.943895
O O9 0.322500 0.703129 0.993237
O O10 0.428513 0.612096 0.090214
O O11 0.799846 0.825309 0.173300
O O12 0.946188 0.873064 0.192432
O O13 0.841781 0.024685 0.240202
O O14 0.719461 0.360666 0.371204
O O15 0.937172 0.250000 0.750000
#
# Coordination Sequence:
#
# PCOD8201319 Si02
#       8
#     8   8   8   8   4   8   2   8
#     4   9  16  30  51  82 111 143 192 240 291 353
#     4   9  18  32  53  78 112 152 190 235 294 347
#     4  10  22  35  56  81 113 159 194 246 295 349
#     4  12  21  36  53  82 121 155 196 234 307 365
#     4  10  22  37  55  86 120 150 207 238 291 362
#     4  11  21  38  58  84 117 152 201 245 289 357
#     4  12  24  32  52  82 116 166 194 236 308 386
#     4  10  18  32  52  79 116 158 185 236 294 360
#
# _framework density 19.779540999999998
#
# number of rings (size 3 to 8) (size 9 to 14) (size 15 to 20)
#    0.000    1.778    3.704    2.222    0.000    0.593 
#    0.000    0.370    0.000    0.000    0.000    0.000 
#    0.000    0.000    0.000    0.000    0.000    0.000 
#
# Total GULP energy -668985.742652 kJ/mol
# GULP energy per Si atom -12388.624864 kJ/mol
# Density = 1.973452 g / cm^3
# Si number density = 19.779541 Si / 1000 Ang^3
#
#
#
# Elastic Constant Matrix: (Units=GPa)
#
#
# Indices 1 2 3 4 5 6 
#
# 1 64.9539 29.2074 34.8661 0.0000 0.0000 0.0000
# 2 29.2074 88.2648 42.3252 0.0000 0.0000 0.0000
# 3 34.8661 42.3252 141.7725 0.0000 0.0000 0.0000
# 4 0.0000 0.0000 0.0000 26.1293 0.0000 0.0000
# 5 0.0000 0.0000 0.0000 0.0000 11.2800 0.0000
# 6 0.0000 0.0000 0.0000 0.0000 0.0000 23.2818
#
#
#
# Elastic Compliance Matrix: (Units=1/GPa)
#
#
# Indices 1 2 3 4 5 6 
#
# 1 0.019340 -0.004807 -0.003321 0.000000 0.000000 0.000000
# 2 -0.004807 0.014417 -0.003122 0.000000 0.000000 0.000000
# 3 -0.003321 -0.003122 0.008802 0.000000 0.000000 0.000000
# 4 0.000000 0.000000 0.000000 0.038271 0.000000 0.000000
# 5 0.000000 0.000000 0.000000 0.000000 0.088653 0.000000
# 6 0.000000 0.000000 0.000000 0.000000 0.000000 0.042952
#
#
# Mechanical properties :
#
#
# Convention : Reuss Voigt Hill
#
# Bulk Modulus (GPa) = 49.85270 56.42095 53.13682
# Shear Modulus (GPa) = 20.69347 24.71106 22.70226
#
# Velocity S-wave (km/s) = 3.23802 3.53841 3.39154
# Velocity P-wave (km/s) = 6.26407 6.72909 6.50074
#
# Compressibility (1/GPa) = 0.02005910
#
# Stress axis : x y z
#
# Youngs Moduli (GPa) = 51.70678 69.36103 113.60592
#
# Poissons Ratio (x) = 0.33343 0.37730
# Poissons Ratio (y) = 0.24856 0.35468
# Poissons Ratio (z) = 0.17172 0.21654
#
# Static dielectric constant tensor:
#      x y z
#    x 3.500720 0.000000 0.000000 
#    y 0.000000 3.947400 0.000000 
#    z 0.000000 0.000000 3.958380 
# 
# 
# High freq. dielectric constant tensor:
#      x y z
#    x 1.730010 0.000000 0.000000 
#    y 0.000000 1.788640 0.000000 
#    z 0.000000 0.000000 1.757930 
# 
# From -- ./inp_files/27346.got.cif
#   From: 2010.06.25/outbox.cif.g09.slc.cpg/sg48_14_cif.got.tgz:27346.got - 2010.06.26 18:06:46.
