data_PCOD8201151
_publ_section_title
;
Structure prediction by ZEFSAII (Michael W. Deem and Ramdas Pophale) SiO2 
 PCOD8201151
Probable space group: P M M M
;
_chemical_formula_sum "Si O2"
_cell_formula_units_Z 56
_cell_length_a 23.573305
_cell_length_b 13.835567
_cell_length_c 9.748827
_cell_angle_alpha 90.000000
_cell_angle_beta 90.000000
_cell_angle_gamma 90.000000
_cell_volume 3179.580323
_symmetry_space_group_name_H-M "P M M M"
_symmetry_group_IT_number 47
_symmetry_cell_setting 'orthorhombic'
loop_
_space_group_symop_operation_xyz
x,y,z
-x,-y,z
x,-y,-z
-x,y,-z
-x,-y,-z
x,y,-z
-x,y,z
x,-y,z
loop_
_atom_site_type_symbol
_atom_site_label
_atom_site_fract_x
_atom_site_fract_y
_atom_site_fract_z
Si Si1 0.329415 0.894030 0.661212
Si Si2 0.117728 0.888901 0.657142
Si Si3 0.829982 0.611897 0.840058
Si Si4 0.063648 0.737713 0.156627
Si Si5 0.567311 0.393900 0.152472
Si Si6 0.771930 0.235411 0.658816
Si Si7 0.435708 0.223814 0.341171
O O1 0.318998 0.901176 0.500000
O O2 0.285474 0.814074 0.717237
O O3 0.394446 0.865096 0.693504
O O4 0.319109 0.000000 0.727553
O O5 0.097991 0.879469 0.500000
O O6 0.072960 0.831692 0.749854
O O7 0.179849 0.844840 0.678063
O O8 0.119364 0.000000 0.704203
O O9 0.828005 0.500000 0.797281
O O10 0.892920 0.651731 0.805784
O O11 0.784042 0.669931 0.750042
O O12 0.815224 0.625655 0.000000
O O13 0.000000 0.698248 0.181004
O O14 0.072575 0.770654 0.000000
O O15 0.500000 0.397503 0.156537
O O16 0.591464 0.500000 0.191497
O O17 0.589219 0.315989 0.260847
O O18 0.588046 0.364905 0.000000
O O19 0.766524 0.267607 0.500000
O O20 0.433482 0.251769 0.500000
O O21 0.500000 0.196104 0.296668
#
# Coordination Sequence:
#
# PCOD8201151 Si02
#       7
#     8   8   8   8   8   8   8
#     4   9  17  30  49  71  94 121 153 189 229 275
#     4   9  17  29  46  67  90 119 156 196 235 272
#     4   9  18  33  52  72  95 123 152 186 231 276
#     4   9  18  31  46  67  95 125 157 190 223 266
#     4   8  14  26  44  63  84 115 152 184 217 261
#     4   9  17  31  51  71  90 116 154 195 231 271
#     4   9  17  28  44  69  97 122 151 189 231 273
#
# _framework density 17.612386000000001
#
# number of rings (size 3 to 8) (size 9 to 14) (size 15 to 20)
#    0.000    3.143    0.000    0.857    0.000    3.714 
#    0.000    7.143    0.000    6.857    0.000    6.000 
#    0.000    0.000    0.000    0.000    0.000    0.000 
#
# Total GULP energy -694168.869105 kJ/mol
# GULP energy per Si atom -12395.872663 kJ/mol
# Density = 1.757230 g / cm^3
# Si number density = 17.612386 Si / 1000 Ang^3
#
#
#
# Elastic Constant Matrix: (Units=GPa)
#
#
# Indices 1 2 3 4 5 6 
#
# 1 90.1146 55.3341 34.1377 0.0000 0.0000 0.0000
# 2 55.3341 147.0420 56.3254 0.0000 0.0000 0.0000
# 3 34.1377 56.3254 54.0819 0.0000 0.0000 0.0000
# 4 0.0000 0.0000 0.0000 23.3672 0.0000 0.0000
# 5 0.0000 0.0000 0.0000 0.0000 16.5198 0.0000
# 6 0.0000 0.0000 0.0000 0.0000 0.0000 18.3320
#
#
#
# Elastic Compliance Matrix: (Units=1/GPa)
#
#
# Indices 1 2 3 4 5 6 
#
# 1 0.015591 -0.003489 -0.006207 0.000000 0.000000 0.000000
# 2 -0.003489 0.012096 -0.010395 0.000000 0.000000 0.000000
# 3 -0.006207 -0.010395 0.033235 0.000000 0.000000 0.000000
# 4 0.000000 0.000000 0.000000 0.042795 0.000000 0.000000
# 5 0.000000 0.000000 0.000000 0.000000 0.060533 0.000000
# 6 0.000000 0.000000 0.000000 0.000000 0.000000 0.054549
#
#
# Mechanical properties :
#
#
# Convention : Reuss Voigt Hill
#
# Bulk Modulus (GPa) = 48.21971 64.75921 56.48946
# Shear Modulus (GPa) = 18.80439 21.33989 20.07214
#
# Velocity S-wave (km/s) = 3.27108 3.48464 3.37955
# Velocity P-wave (km/s) = 6.45789 7.28280 6.88272
#
# Compressibility (1/GPa) = 0.02073841
#
# Stress axis : x y z
#
# Youngs Moduli (GPa) = 64.13915 82.67365 30.08895
#
# Poissons Ratio (x) = 0.28848 0.18677
# Poissons Ratio (y) = 0.22381 0.31277
# Poissons Ratio (z) = 0.39813 0.85939
#
# Static dielectric constant tensor:
#      x y z
#    x 3.198780 0.000000 0.000000 
#    y 0.000000 3.377820 0.000000 
#    z 0.000000 0.000000 3.221940 
# 
# 
# High freq. dielectric constant tensor:
#      x y z
#    x 1.669680 0.000000 0.000000 
#    y 0.000000 1.677350 0.000000 
#    z 0.000000 0.000000 1.662090 
# 
# From -- ./inp_files/19578.got.cif
#   From: 2010.03.12/outbox.cif.g09.slc.cpg/sg47_10_cif.got.tgz:19578.got - 2010.04.14 03:12:58.
