data_PCOD8201285
_publ_section_title
;
Structure prediction by ZEFSAII (Michael W. Deem and Ramdas Pophale) SiO2 
 PCOD8201285
Probable space group: P N N N
;
_chemical_formula_sum "Si O2"
_cell_formula_units_Z 58
_cell_length_a 17.667121
_cell_length_b 17.637655
_cell_length_c 9.890159
_cell_angle_alpha 90.000000
_cell_angle_beta 90.000000
_cell_angle_gamma 90.000000
_cell_volume 3081.838672
_symmetry_space_group_name_H-M "P N N N"
_symmetry_group_IT_number 48
_space_group.IT_coordinate_system_code '2'
_symmetry_cell_setting 'orthorhombic'
loop_
_space_group_symop_operation_xyz
x,y,z
1/2-x,1/2-y,z
x,1/2-y,1/2-z
1/2-x,y,1/2-z
-x,-y,-z
1/2+x,1/2+y,-z
-x,1/2+y,1/2+z
1/2+x,-y,1/2+z
loop_
_atom_site_type_symbol
_atom_site_label
_atom_site_fract_x
_atom_site_fract_y
_atom_site_fract_z
Si Si1 0.584393 0.287367 0.107541
Si Si2 0.815830 0.411961 0.851423
Si Si3 0.420764 0.313459 0.136112
Si Si4 0.827914 0.589256 0.809631
Si Si5 0.762760 0.339309 0.402146
Si Si6 0.750000 0.750000 0.250000
Si Si7 0.374313 0.308748 0.558404
Si Si8 0.457439 0.687402 0.363232
O O1 0.609538 0.250000 0.250000
O O2 0.507880 0.335179 0.115672
O O3 0.648027 0.347800 0.061531
O O4 0.572846 0.217693 0.005816
O O5 0.750000 0.381809 0.750000
O O6 0.824596 0.501286 0.840429
O O7 0.899513 0.379211 0.819697
O O8 0.789344 0.389866 0.001763
O O9 0.411544 0.250000 0.250000
O O10 0.384659 0.391960 0.185899
O O11 0.385339 0.276980 0.000204
O O12 0.750000 0.621348 0.750000
O O13 0.850976 0.631315 0.945762
O O14 0.750000 0.250000 0.422771
O O15 0.750000 0.367846 0.250000
O O16 0.694746 0.695333 0.336253
O O17 0.454075 0.337682 0.623987
O O18 0.451053 0.750000 0.250000
#
# Coordination Sequence:
#
# PCOD8201285 Si02
#       8
#     8   8   8   8   8   2   8   8
#     4  10  17  31  56  85 113 145 201 249 279 342
#     4  11  24  37  60  88 123 168 198 243 301 358
#     4   8  17  33  59  84 101 140 192 250 280 328
#     4  10  21  40  59  84 117 151 205 246 296 360
#     4  11  19  33  56  86 117 157 198 244 290 343
#     4  12  20  36  58  84 110 148 190 238 320 348
#     4  10  21  36  61  87 111 149 196 250 301 356
#     4  11  21  36  57  91 124 147 197 252 300 352
#
# _framework density 18.819932999999999
#
# number of rings (size 3 to 8) (size 9 to 14) (size 15 to 20)
#    0.000    1.793    3.448    2.483    0.000    2.483 
#    1.241    0.000    0.000    4.966    0.000    0.000 
#    0.000    0.000    0.000    0.000    0.000    0.000 
#
# Total GULP energy -718823.661197 kJ/mol
# GULP energy per Si atom -12393.511400 kJ/mol
# Density = 1.877710 g / cm^3
# Si number density = 18.819933 Si / 1000 Ang^3
#
#
#
# Elastic Constant Matrix: (Units=GPa)
#
#
# Indices 1 2 3 4 5 6 
#
# 1 171.2135 50.0004 47.0495 0.0000 0.0000 0.0000
# 2 50.0004 69.4026 33.5296 0.0000 0.0000 0.0000
# 3 47.0495 33.5296 83.3574 0.0000 0.0000 0.0000
# 4 0.0000 0.0000 0.0000 20.9997 0.0000 0.0000
# 5 0.0000 0.0000 0.0000 0.0000 103.8701 0.0000
# 6 0.0000 0.0000 0.0000 0.0000 0.0000 35.5818
#
#
#
# Elastic Compliance Matrix: (Units=1/GPa)
#
#
# Indices 1 2 3 4 5 6 
#
# 1 0.007850 -0.004363 -0.002676 0.000000 0.000000 0.000000
# 2 -0.004363 0.020309 -0.005706 0.000000 0.000000 0.000000
# 3 -0.002676 -0.005706 0.015802 0.000000 0.000000 0.000000
# 4 0.000000 0.000000 0.000000 0.047620 0.000000 0.000000
# 5 0.000000 0.000000 0.000000 0.000000 0.009627 0.000000
# 6 0.000000 0.000000 0.000000 0.000000 0.000000 0.028104
#
#
# Mechanical properties :
#
#
# Convention : Reuss Voigt Hill
#
# Bulk Modulus (GPa) = 54.13980 65.01474 59.57727
# Shear Modulus (GPa) = 31.06366 44.98324 38.02345
#
# Velocity S-wave (km/s) = 4.06713 4.89426 4.49974
# Velocity P-wave (km/s) = 7.13338 8.15838 7.66303
#
# Compressibility (1/GPa) = 0.01847070
#
# Stress axis : x y z
#
# Youngs Moduli (GPa) = 127.38713 49.24007 63.28186
#
# Poissons Ratio (x) = 0.21482 0.16934
# Poissons Ratio (y) = 0.55575 0.36112
# Poissons Ratio (z) = 0.34089 0.28099
#
# Static dielectric constant tensor:
#      x y z
#    x 4.076660 0.000000 0.000000 
#    y 0.000000 3.485790 0.000000 
#    z 0.000000 0.000000 3.840070 
# 
# 
# High freq. dielectric constant tensor:
#      x y z
#    x 1.761050 0.000000 0.000000 
#    y 0.000000 1.678030 0.000000 
#    z 0.000000 0.000000 1.739540 
# 
# From -- ./inp_files/14437.got.cif
#   From: 2010.06.25/outbox.cif.g09.slc.cpg/sg48_8_cif.got.tgz:14437.got - 2010.06.26 18:06:46.
