data_PCOD8201531
_publ_section_title
;
Structure prediction by ZEFSAII (Michael W. Deem and Ramdas Pophale) SiO2 
 PCOD8201531
Probable space group: P N N N
;
_chemical_formula_sum "Si O2"
_cell_formula_units_Z 64
_cell_length_a 31.681012
_cell_length_b 12.423923
_cell_length_c 8.786029
_cell_angle_alpha 90.000000
_cell_angle_beta 90.000000
_cell_angle_gamma 90.000000
_cell_volume 3458.202572
_symmetry_space_group_name_H-M "P N N N"
_symmetry_group_IT_number 48
_space_group.IT_coordinate_system_code '2'
_symmetry_cell_setting 'orthorhombic'
loop_
_space_group_symop_operation_xyz
x,y,z
1/2-x,1/2-y,z
x,1/2-y,1/2-z
1/2-x,y,1/2-z
-x,-y,-z
1/2+x,1/2+y,-z
-x,1/2+y,1/2+z
1/2+x,-y,1/2+z
loop_
_atom_site_type_symbol
_atom_site_label
_atom_site_fract_x
_atom_site_fract_y
_atom_site_fract_z
Si Si1 0.833200 0.041187 0.429295
Si Si2 0.335546 0.899653 0.583989
Si Si3 0.750734 0.375761 0.569720
Si Si4 0.418682 0.481613 0.921504
Si Si5 0.380330 0.783167 0.077986
Si Si6 0.055165 0.226201 0.077781
Si Si7 0.387305 0.149559 0.848269
Si Si8 0.958494 0.207192 0.085261
O O1 0.831474 0.097551 0.265100
O O2 0.787628 0.054284 0.504365
O O3 0.868368 0.093710 0.541618
O O4 0.846975 0.915795 0.413595
O O5 0.292180 0.931441 0.501032
O O6 0.349025 0.780574 0.534197
O O7 0.372213 0.980078 0.527251
O O8 0.750000 0.250000 0.520708
O O9 0.750000 0.386807 0.750000
O O10 0.416327 0.428097 0.754967
O O11 0.452228 0.578622 0.916430
O O12 0.433620 0.397288 0.046835
O O13 0.369797 0.750000 0.250000
O O14 0.429257 0.762093 0.042446
O O15 0.066403 0.250000 0.250000
O O16 0.005679 0.242039 0.043756
O O17 0.082048 0.309175 0.979584
O O18 0.369587 0.250000 0.750000
O O19 0.944521 0.250000 0.250000
#
# Coordination Sequence:
#
# PCOD8201531 Si02
#       8
#     8   8   8   8   8   8   8   8
#     4  11  21  36  59  79 111 156 187 221 278 333
#     4  10  20  35  55  80 109 150 185 220 268 337
#     4  11  22  34  53  87 124 147 177 224 274 339
#     4   9  19  37  58  76 107 145 185 229 278 327
#     4  11  21  32  50  82 117 147 182 225 280 338
#     4  10  21  36  56  81 108 142 187 236 279 327
#     4   9  20  38  58  80 105 144 193 236 273 326
#     4  10  20  36  54  79 110 143 185 230 276 338
#
# _framework density 18.506722
#
# number of rings (size 3 to 8) (size 9 to 14) (size 15 to 20)
#    0.000    1.875    1.250    4.125    0.000    5.000 
#    0.000    5.625    0.000   12.750    0.000    8.750 
#    0.000    0.000    0.000    0.000    0.000    0.000 
#
# Total GULP energy -793621.852166 kJ/mol
# GULP energy per Si atom -12400.341440 kJ/mol
# Density = 1.846460 g / cm^3
# Si number density = 18.506722 Si / 1000 Ang^3
#
#
#
# Elastic Constant Matrix: (Units=GPa)
#
#
# Indices 1 2 3 4 5 6 
#
# 1 112.9102 51.0473 59.9317 0.0000 0.0000 0.0000
# 2 51.0473 97.9123 48.2517 0.0000 0.0000 0.0000
# 3 59.9317 48.2517 102.9749 0.0000 0.0000 0.0000
# 4 0.0000 0.0000 0.0000 24.5093 0.0000 0.0000
# 5 0.0000 0.0000 0.0000 0.0000 29.0688 0.0000
# 6 0.0000 0.0000 0.0000 0.0000 0.0000 24.6476
#
#
#
# Elastic Compliance Matrix: (Units=1/GPa)
#
#
# Indices 1 2 3 4 5 6 
#
# 1 0.014079 -0.004294 -0.006182 0.000000 0.000000 0.000000
# 2 -0.004294 0.014589 -0.004337 0.000000 0.000000 0.000000
# 3 -0.006182 -0.004337 0.015342 0.000000 0.000000 0.000000
# 4 0.000000 0.000000 0.000000 0.040801 0.000000 0.000000
# 5 0.000000 0.000000 0.000000 0.000000 0.034401 0.000000
# 6 0.000000 0.000000 0.000000 0.000000 0.000000 0.040572
#
#
# Mechanical properties :
#
#
# Convention : Reuss Voigt Hill
#
# Bulk Modulus (GPa) = 69.52339 70.25096 69.88718
# Shear Modulus (GPa) = 25.74602 25.94958 25.84780
#
# Velocity S-wave (km/s) = 3.73389 3.74862 3.74126
# Velocity P-wave (km/s) = 7.49916 7.53514 7.51717
#
# Compressibility (1/GPa) = 0.01438365
#
# Stress axis : x y z
#
# Youngs Moduli (GPa) = 71.02635 68.54395 65.18255
#
# Poissons Ratio (x) = 0.29431 0.40298
# Poissons Ratio (y) = 0.30496 0.28271
# Poissons Ratio (z) = 0.43910 0.29729
#
# Static dielectric constant tensor:
#      x y z
#    x 3.429480 0.000000 0.000000 
#    y 0.000000 3.456980 0.000000 
#    z 0.000000 0.000000 3.420490 
# 
# 
# High freq. dielectric constant tensor:
#      x y z
#    x 1.718370 0.000000 0.000000 
#    y 0.000000 1.705260 0.000000 
#    z 0.000000 0.000000 1.722540 
# 
# From -- ./inp_files/16967.got.cif
#   From: 2010.06.25/outbox.cif.g09.slc.cpg/sg48_9_cif.got.tgz:16967.got - 2010.06.26 18:06:46.
