data_PCOD8201490
_publ_section_title
;
Structure prediction by ZEFSAII (Michael W. Deem and Ramdas Pophale) SiO2 
 PCOD8201490
Probable space group: P N N N
;
_chemical_formula_sum "Si O2"
_cell_formula_units_Z 58
_cell_length_a 14.135293
_cell_length_b 22.342289
_cell_length_c 8.573511
_cell_angle_alpha 90.000000
_cell_angle_beta 90.000000
_cell_angle_gamma 90.000000
_cell_volume 2707.641673
_symmetry_space_group_name_H-M "P N N N"
_symmetry_group_IT_number 48
_space_group.IT_coordinate_system_code '2'
_symmetry_cell_setting 'orthorhombic'
loop_
_space_group_symop_operation_xyz
x,y,z
1/2-x,1/2-y,z
x,1/2-y,1/2-z
1/2-x,y,1/2-z
-x,-y,-z
1/2+x,1/2+y,-z
-x,1/2+y,1/2+z
1/2+x,-y,1/2+z
loop_
_atom_site_type_symbol
_atom_site_label
_atom_site_fract_x
_atom_site_fract_y
_atom_site_fract_z
Si Si1 0.147398 0.353794 0.421354
Si Si2 0.302907 0.083035 0.906790
Si Si3 0.840938 0.363898 0.851708
Si Si4 0.750000 0.750000 0.750000
Si Si5 0.599087 0.227867 0.086672
Si Si6 0.496679 0.806294 0.349341
Si Si7 0.538599 0.871233 0.877524
Si Si8 0.403980 0.533671 0.539626
O O1 0.227759 0.402522 0.458437
O O2 0.188106 0.290281 0.365763
O O3 0.095091 0.385232 0.278407
O O4 0.081878 0.343225 0.572691
O O5 0.250000 0.106377 0.750000
O O6 0.328587 0.012527 0.885418
O O7 0.399524 0.116525 0.963886
O O8 0.750000 0.352300 0.750000
O O9 0.939288 0.349877 0.764952
O O10 0.830777 0.318350 0.998985
O O11 0.848544 0.433974 0.897361
O O12 0.644258 0.250000 0.250000
O O13 0.496224 0.197140 0.117536
O O14 0.578012 0.285414 0.980473
O O15 0.536481 0.750000 0.250000
O O16 0.442892 0.911232 0.857089
O O17 0.500000 0.500000 0.500000
#
# Coordination Sequence:
#
# PCOD8201490 Si02
#       8
#     8   8   8   2   8   8   8   8
#     4  12  23  38  67  95 138 173 219 262 336 406
#     4  11  25  40  64  99 130 166 224 281 332 395
#     4  10  23  44  68  95 133 173 229 286 343 394
#     4  12  24  40  62 100 136 182 206 268 322 420
#     4  10  19  38  68  97 133 174 218 263 333 410
#     4  10  23  37  64  99 137 175 221 268 337 409
#     4  10  20  42  66  91 130 182 217 269 334 398
#     4   9  22  43  68  84 125 173 223 281 338 385
#
# _framework density 21.420856000000001
#
# number of rings (size 3 to 8) (size 9 to 14) (size 15 to 20)
#    0.000    1.655    2.759    0.828    7.724    4.690 
#    2.483    2.069    0.000    0.000    0.000    0.000 
#    0.000    0.000    0.000    0.000    0.000    0.000 
#
# Total GULP energy -718564.651737 kJ/mol
# GULP energy per Si atom -12389.045720 kJ/mol
# Density = 2.137210 g / cm^3
# Si number density = 21.420856 Si / 1000 Ang^3
#
#
#
# Elastic Constant Matrix: (Units=GPa)
#
#
# Indices 1 2 3 4 5 6 
#
# 1 105.0087 37.3320 44.9258 0.0000 0.0000 0.0000
# 2 37.3320 74.8671 28.2292 0.0000 0.0000 0.0000
# 3 44.9258 28.2292 110.5556 0.0000 0.0000 0.0000
# 4 0.0000 0.0000 0.0000 29.4818 0.0000 0.0000
# 5 0.0000 0.0000 0.0000 0.0000 40.6859 0.0000
# 6 0.0000 0.0000 0.0000 0.0000 0.0000 32.6878
#
#
#
# Elastic Compliance Matrix: (Units=1/GPa)
#
#
# Indices 1 2 3 4 5 6 
#
# 1 0.013009 -0.004972 -0.004017 0.000000 0.000000 0.000000
# 2 -0.004972 0.016681 -0.002239 0.000000 0.000000 0.000000
# 3 -0.004017 -0.002239 0.011249 0.000000 0.000000 0.000000
# 4 0.000000 0.000000 0.000000 0.033919 0.000000 0.000000
# 5 0.000000 0.000000 0.000000 0.000000 0.024579 0.000000
# 6 0.000000 0.000000 0.000000 0.000000 0.000000 0.030592
#
#
# Mechanical properties :
#
#
# Convention : Reuss Voigt Hill
#
# Bulk Modulus (GPa) = 54.10305 56.82281 55.46293
# Shear Modulus (GPa) = 31.51672 32.56740 32.04206
#
# Velocity S-wave (km/s) = 3.83993 3.90341 3.87180
# Velocity P-wave (km/s) = 6.70612 6.84835 6.77761
#
# Compressibility (1/GPa) = 0.01848325
#
# Stress axis : x y z
#
# Youngs Moduli (GPa) = 76.86807 59.95014 88.89576
#
# Poissons Ratio (x) = 0.29810 0.35708
# Poissons Ratio (y) = 0.38222 0.19900
# Poissons Ratio (z) = 0.30877 0.13420
#
# Static dielectric constant tensor:
#      x y z
#    x 3.880180 0.000000 0.000000 
#    y 0.000000 4.380200 0.000000 
#    z 0.000000 0.000000 3.928520 
# 
# 
# High freq. dielectric constant tensor:
#      x y z
#    x 1.839320 0.000000 0.000000 
#    y 0.000000 1.833260 0.000000 
#    z 0.000000 0.000000 1.835220 
# 
# From -- ./inp_files/13239.got.cif
#   From: 2010.06.25/outbox.cif.g09.slc.cpg/sg48_7_cif.got.tgz:13239.got - 2010.06.26 18:06:46.
