data_PCOD8201660
_publ_section_title
;
Structure prediction by ZEFSAII (Michael W. Deem and Ramdas Pophale) SiO2 
 PCOD8201660
Probable space group: P N N N
;
_chemical_formula_sum "Si O2"
_cell_formula_units_Z 32
_cell_length_a 13.936100
_cell_length_b 9.525036
_cell_length_c 10.593381
_cell_angle_alpha 90.000000
_cell_angle_beta 90.000000
_cell_angle_gamma 90.000000
_cell_volume 1406.185036
_symmetry_space_group_name_H-M "P N N N"
_symmetry_group_IT_number 48
_space_group.IT_coordinate_system_code '2'
_symmetry_cell_setting 'orthorhombic'
loop_
_space_group_symop_operation_xyz
x,y,z
1/2-x,1/2-y,z
x,1/2-y,1/2-z
1/2-x,y,1/2-z
-x,-y,-z
1/2+x,1/2+y,-z
-x,1/2+y,1/2+z
1/2+x,-y,1/2+z
loop_
_atom_site_type_symbol
_atom_site_label
_atom_site_fract_x
_atom_site_fract_y
_atom_site_fract_z
Si Si1 0.045952 0.839452 0.863284
Si Si2 0.671249 0.643073 0.896767
Si Si3 0.344676 0.108780 0.682202
Si Si4 0.152402 0.675010 0.374874
O O1 0.094587 0.750000 0.750000
O O2 0.934545 0.799878 0.866581
O O3 0.065901 0.001504 0.825811
O O4 0.084392 0.807951 0.003505
O O5 0.750000 0.750000 0.836397
O O6 0.677642 0.485979 0.841102
O O7 0.691837 0.642308 0.044043
O O8 0.381269 0.250000 0.750000
O O9 0.250000 0.044711 0.750000
O O10 0.250000 0.750000 0.413472
O O11 0.107481 0.750000 0.250000
#
# Coordination Sequence:
#
# PCOD8201660 Si02
#       4
#     8   8   8   8
#     4  11  27  41  69 108 141 182 234 296 350 426
#     4  11  24  46  67 100 143 191 235 293 352 422
#     4  10  20  41  73 104 136 186 240 294 353 418
#     4  10  24  46  70  98 137 187 228 294 357 416
#
# _framework density 22.756606999999999
#
# number of rings (size 3 to 8) (size 9 to 14) (size 15 to 20)
#    0.000    1.500    2.500    3.000    7.000    8.500 
#    0.000    3.750    0.000    0.000    0.000    0.000 
#    0.000    0.000    0.000    0.000    0.000    0.000 
#
# Total GULP energy -396562.537553 kJ/mol
# GULP energy per Si atom -12392.579299 kJ/mol
# Density = 2.270481 g / cm^3
# Si number density = 22.756607 Si / 1000 Ang^3
#
#
#
# Elastic Constant Matrix: (Units=GPa)
#
#
# Indices 1 2 3 4 5 6 
#
# 1 140.1247 45.3755 43.0741 0.0000 0.0000 0.0000
# 2 45.3755 151.5843 78.8998 0.0000 0.0000 0.0000
# 3 43.0741 78.8998 185.6030 0.0000 0.0000 0.0000
# 4 0.0000 0.0000 0.0000 48.7213 0.0000 0.0000
# 5 0.0000 0.0000 0.0000 0.0000 11.0238 0.0000
# 6 0.0000 0.0000 0.0000 0.0000 0.0000 39.7149
#
#
#
# Elastic Compliance Matrix: (Units=1/GPa)
#
#
# Indices 1 2 3 4 5 6 
#
# 1 0.008070 -0.001850 -0.001086 0.000000 0.000000 0.000000
# 2 -0.001850 0.008896 -0.003352 0.000000 0.000000 0.000000
# 3 -0.001086 -0.003352 0.007065 0.000000 0.000000 0.000000
# 4 0.000000 0.000000 0.000000 0.020525 0.000000 0.000000
# 5 0.000000 0.000000 0.000000 0.000000 0.090713 0.000000
# 6 0.000000 0.000000 0.000000 0.000000 0.000000 0.025179
#
#
# Mechanical properties :
#
#
# Convention : Reuss Voigt Hill
#
# Bulk Modulus (GPa) = 87.31351 90.22343 88.76847
# Shear Modulus (GPa) = 28.27378 40.55618 34.41498
#
# Velocity S-wave (km/s) = 3.52865 4.22616 3.89306
# Velocity P-wave (km/s) = 7.41981 7.97164 7.70067
#
# Compressibility (1/GPa) = 0.01145298
#
# Stress axis : x y z
#
# Youngs Moduli (GPa) = 123.92295 112.41499 141.54417
#
# Poissons Ratio (x) = 0.20798 0.15375
# Poissons Ratio (y) = 0.22928 0.47448
# Poissons Ratio (z) = 0.13461 0.37683
#
# Static dielectric constant tensor:
#      x y z
#    x 3.925500 0.000000 0.000000 
#    y 0.000000 3.682450 0.000000 
#    z 0.000000 0.000000 4.418200 
# 
# 
# High freq. dielectric constant tensor:
#      x y z
#    x 1.893530 0.000000 0.000000 
#    y 0.000000 1.893760 0.000000 
#    z 0.000000 0.000000 1.927920 
# 
# From -- ./inp_files/20772.got.cif
#   From: 2010.06.25/outbox.cif.g09.slc.cpg/sg48_11_cif.got.tgz:20772.got - 2010.06.26 18:06:46.
