data_PCOD8201381
_publ_section_title
;
Structure prediction by ZEFSAII (Michael W. Deem and Ramdas Pophale) SiO2 
 PCOD8201381
Probable space group: P N N N
;
_chemical_formula_sum "Si O2"
_cell_formula_units_Z 64
_cell_length_a 10.785062
_cell_length_b 33.001280
_cell_length_c 9.347125
_cell_angle_alpha 90.000000
_cell_angle_beta 90.000000
_cell_angle_gamma 90.000000
_cell_volume 3326.836683
_symmetry_space_group_name_H-M "P N N N"
_symmetry_group_IT_number 48
_space_group.IT_coordinate_system_code '2'
_symmetry_cell_setting 'orthorhombic'
loop_
_space_group_symop_operation_xyz
x,y,z
1/2-x,1/2-y,z
x,1/2-y,1/2-z
1/2-x,y,1/2-z
-x,-y,-z
1/2+x,1/2+y,-z
-x,1/2+y,1/2+z
1/2+x,-y,1/2+z
loop_
_atom_site_type_symbol
_atom_site_label
_atom_site_fract_x
_atom_site_fract_y
_atom_site_fract_z
Si Si1 0.750000 0.533393 0.416058
Si Si2 0.891583 0.750000 0.594989
Si Si3 0.486632 0.088207 0.917052
Si Si4 0.503423 0.668498 0.580569
Si Si5 0.996577 0.831502 0.919431
Si Si6 0.986632 0.588207 0.417052
Si Si7 0.250000 0.704730 0.917350
Si Si8 0.250000 0.950118 0.418691
O O1 0.750000 0.521606 0.250000
O O2 0.623406 0.557068 0.454872
O O3 0.750000 0.493347 0.508414
O O4 0.876594 0.557068 0.454872
O O5 0.750000 0.750000 0.626261
O O6 0.963650 0.750000 0.750000
O O7 0.926083 0.791863 0.516804
O O8 0.926083 0.708137 0.516804
O O9 0.487670 0.098190 0.750000
O O10 0.623234 0.072761 0.966445
O O11 0.449856 0.128648 0.001584
O O12 0.525669 0.662790 0.750000
O O13 0.363096 0.676844 0.535227
O O14 0.136904 0.823156 0.964773
O O15 0.949856 0.871352 0.998416
O O16 0.123234 0.572761 0.466445
O O17 0.250000 0.750000 0.988529
O O18 0.250000 0.711622 0.750000
O O19 0.250000 0.956990 0.250000
#
# Coordination Sequence:
#
# PCOD8201381 Si02
#       8
#     8   8   8   8   8   8   8   8
#     4  10  22  39  59  81 109 142 174 216 269 321
#     4   9  18  31  48  74 107 139 178 228 267 296
#     4  10  22  38  55  80 114 144 171 216 272 319
#     4  10  19  32  54  79 104 140 183 223 262 310
#     4  10  19  32  54  79 104 140 183 223 262 310
#     4  10  22  38  55  80 114 144 171 216 272 319
#     4   9  15  28  49  74 101 131 173 224 269 300
#     4  10  21  39  61  82 107 140 176 217 267 320
#
# _framework density 19.237493000000001
#
# number of rings (size 3 to 8) (size 9 to 14) (size 15 to 20)
#    0.000    2.250    1.250    1.500    1.750    2.000 
#    0.000    0.625    0.000    1.500    0.000    0.000 
#    0.000    0.000    0.000    0.000    0.000    0.000 
#
# Total GULP energy -793101.461829 kJ/mol
# GULP energy per Si atom -12392.210341 kJ/mol
# Density = 1.919371 g / cm^3
# Si number density = 19.237493 Si / 1000 Ang^3
#
#
#
# Elastic Constant Matrix: (Units=GPa)
#
#
# Indices 1 2 3 4 5 6 
#
# 1 115.7846 47.5056 20.2529 0.0000 0.0000 0.0000
# 2 47.5056 160.8077 52.0666 0.0000 0.0000 0.0000
# 3 20.2529 52.0666 34.1540 0.0000 0.0000 0.0000
# 4 0.0000 0.0000 0.0000 22.8561 0.0000 0.0000
# 5 0.0000 0.0000 0.0000 0.0000 10.3174 0.0000
# 6 0.0000 0.0000 0.0000 0.0000 0.0000 17.6087
#
#
#
# Elastic Compliance Matrix: (Units=1/GPa)
#
#
# Indices 1 2 3 4 5 6 
#
# 1 0.009962 -0.002035 -0.002806 0.000000 0.000000 0.000000
# 2 -0.002035 0.012695 -0.018147 0.000000 0.000000 0.000000
# 3 -0.002806 -0.018147 0.058608 0.000000 0.000000 0.000000
# 4 0.000000 0.000000 0.000000 0.043752 0.000000 0.000000
# 5 0.000000 0.000000 0.000000 0.000000 0.096923 0.000000
# 6 0.000000 0.000000 0.000000 0.000000 0.000000 0.056790
#
#
# Mechanical properties :
#
#
# Convention : Reuss Voigt Hill
#
# Bulk Modulus (GPa) = 28.33654 61.15514 44.74584
# Shear Modulus (GPa) = 14.86018 22.88454 18.87236
#
# Velocity S-wave (km/s) = 2.78233 3.45277 3.13552
# Velocity P-wave (km/s) = 5.00836 6.91043 6.03480
#
# Compressibility (1/GPa) = 0.03529013
#
# Stress axis : x y z
#
# Youngs Moduli (GPa) = 100.37851 78.76888 17.06259
#
# Poissons Ratio (x) = 0.16026 0.04788
# Poissons Ratio (y) = 0.20422 0.30964
# Poissons Ratio (z) = 0.28165 1.42943
#
# Static dielectric constant tensor:
#      x y z
#    x 3.550830 0.000000 0.000000 
#    y 0.000000 3.534970 0.000000 
#    z 0.000000 0.000000 3.100270 
# 
# 
# High freq. dielectric constant tensor:
#      x y z
#    x 1.766610 0.000000 0.000000 
#    y 0.000000 1.761080 0.000000 
#    z 0.000000 0.000000 1.703750 
# 
# From -- ./inp_files/11568.got.cif
#   From: 2010.06.25/outbox.cif.g09.slc.cpg/sg48_6_cif.got.tgz:11568.got - 2010.06.26 18:06:46.
