data_PCOD8201031
_publ_section_title
;
Structure prediction by ZEFSAII (Michael W. Deem and Ramdas Pophale) SiO2 
 PCOD8201031
Probable space group: P M M M
;
_chemical_formula_sum "Si O2"
_cell_formula_units_Z 64
_cell_length_a 26.669969
_cell_length_b 9.398201
_cell_length_c 18.067264
_cell_angle_alpha 90.000000
_cell_angle_beta 90.000000
_cell_angle_gamma 90.000000
_cell_volume 4528.554831
_symmetry_space_group_name_H-M "P M M M"
_symmetry_group_IT_number 47
_symmetry_cell_setting 'orthorhombic'
loop_
_space_group_symop_operation_xyz
x,y,z
-x,-y,z
x,-y,-z
-x,y,-z
-x,-y,-z
x,y,-z
-x,y,z
x,-y,z
loop_
_atom_site_type_symbol
_atom_site_label
_atom_site_fract_x
_atom_site_fract_y
_atom_site_fract_z
Si Si1 0.444979 0.339828 0.912092
Si Si2 0.896345 0.660328 0.797622
Si Si3 0.204752 0.338791 0.704395
Si Si4 0.351088 0.166966 0.084805
Si Si5 0.848183 0.833936 0.585216
Si Si6 0.154329 0.835867 0.084979
Si Si7 0.055976 0.162661 0.322787
Si Si8 0.254023 0.165175 0.174938
O O1 0.500000 0.289314 0.883198
O O2 0.434506 0.500000 0.884777
O O3 0.400996 0.239205 0.881374
O O4 0.445070 0.333383 0.000000
O O5 0.914294 0.500000 0.813796
O O6 0.845206 0.663010 0.752281
O O7 0.887911 0.741533 0.874861
O O8 0.938425 0.740407 0.749936
O O9 0.222087 0.500000 0.687255
O O10 0.194151 0.256005 0.627970
O O11 0.247880 0.257497 0.750425
O O12 0.304341 0.216144 0.134222
O O13 0.359273 0.000000 0.089414
O O14 0.341156 0.214375 0.000000
O O15 0.845763 0.789563 0.500000
O O16 0.903981 0.795442 0.614181
O O17 0.836564 0.000000 0.597069
O O18 0.209010 0.806432 0.118180
O O19 0.139316 0.000000 0.094846
O O20 0.155732 0.789620 0.000000
O O21 0.000000 0.184990 0.355249
O O22 0.064647 0.000000 0.297976
O O23 0.256360 0.000000 0.197672
#
# Coordination Sequence:
#
# PCOD8201031 Si02
#       8
#     8   8   8   8   8   8   8   8
#     4   8  14  24  35  46  64  94 131 168 205 243
#     4   9  17  28  41  57  77 100 125 152 182 219
#     4   9  17  28  41  57  77 102 130 155 180 216
#     4   9  16  24  35  53  75  98 128 168 209 242
#     4   9  17  29  45  64  84 104 125 149 178 213
#     4   9  16  26  41  58  75  97 124 154 190 231
#     4   9  17  29  45  63  81 101 124 149 178 214
#     4   9  16  26  39  55  77 102 127 157 194 234
#
# _framework density 14.132545
#
# number of rings (size 3 to 8) (size 9 to 14) (size 15 to 20)
#    0.000    3.125    0.000    1.500    0.000    6.250 
#    0.000    2.500    0.000    2.625    0.000    6.125 
#    0.000    0.000    0.000    0.000    0.000    0.625 
#
# Total GULP energy -793394.178627 kJ/mol
# GULP energy per Si atom -12396.784041 kJ/mol
# Density = 1.410038 g / cm^3
# Si number density = 14.132545 Si / 1000 Ang^3
#
#
#
# Elastic Constant Matrix: (Units=GPa)
#
#
# Indices 1 2 3 4 5 6 
#
# 1 68.2843 37.6280 42.2193 0.0000 0.0000 0.0000
# 2 37.6280 70.9685 49.4788 0.0000 0.0000 0.0000
# 3 42.2193 49.4788 89.9428 0.0000 0.0000 0.0000
# 4 0.0000 0.0000 0.0000 15.0260 0.0000 0.0000
# 5 0.0000 0.0000 0.0000 0.0000 11.7138 0.0000
# 6 0.0000 0.0000 0.0000 0.0000 0.0000 18.7753
#
#
#
# Elastic Compliance Matrix: (Units=1/GPa)
#
#
# Indices 1 2 3 4 5 6 
#
# 1 0.022870 -0.007529 -0.006593 0.000000 0.000000 0.000000
# 2 -0.007529 0.025336 -0.010404 0.000000 0.000000 0.000000
# 3 -0.006593 -0.010404 0.019936 0.000000 0.000000 0.000000
# 4 0.000000 0.000000 0.000000 0.066551 0.000000 0.000000
# 5 0.000000 0.000000 0.000000 0.000000 0.085370 0.000000
# 6 0.000000 0.000000 0.000000 0.000000 0.000000 0.053261
#
#
# Mechanical properties :
#
#
# Convention : Reuss Voigt Hill
#
# Bulk Modulus (GPa) = 52.38239 54.20530 53.29385
# Shear Modulus (GPa) = 15.20958 15.76100 15.48529
#
# Velocity S-wave (km/s) = 3.28412 3.34312 3.31375
# Velocity P-wave (km/s) = 7.17817 7.30344 7.24108
#
# Compressibility (1/GPa) = 0.01909039
#
# Stress axis : x y z
#
# Youngs Moduli (GPa) = 43.72513 39.46953 50.15976
#
# Poissons Ratio (x) = 0.29717 0.33073
# Poissons Ratio (y) = 0.32921 0.52184
# Poissons Ratio (z) = 0.28830 0.41062
#
# Static dielectric constant tensor:
#      x y z
#    x 2.745920 0.000000 0.000000 
#    y 0.000000 2.882990 0.000000 
#    z 0.000000 0.000000 2.593920 
# 
# 
# High freq. dielectric constant tensor:
#      x y z
#    x 1.514980 0.000000 0.000000 
#    y 0.000000 1.544780 0.000000 
#    z 0.000000 0.000000 1.507470 
# 
# From -- ./inp_files/10252.got.cif
#   From: 2010.03.12/outbox.cif.g09.slc.cpg/sg47_6_cif.got.tgz:10252.got - 2010.04.14 03:12:58.
