data_PCOD8201467
_publ_section_title
;
Structure prediction by ZEFSAII (Michael W. Deem and Ramdas Pophale) SiO2 
 PCOD8201467
Probable space group: P N N N
;
_chemical_formula_sum "Si O2"
_cell_formula_units_Z 34
_cell_length_a 9.308629
_cell_length_b 9.286097
_cell_length_c 17.129122
_cell_angle_alpha 90.000000
_cell_angle_beta 90.000000
_cell_angle_gamma 90.000000
_cell_volume 1480.655554
_symmetry_space_group_name_H-M "P N N N"
_symmetry_group_IT_number 48
_space_group.IT_coordinate_system_code '2'
_symmetry_cell_setting 'orthorhombic'
loop_
_space_group_symop_operation_xyz
x,y,z
1/2-x,1/2-y,z
x,1/2-y,1/2-z
1/2-x,y,1/2-z
-x,-y,-z
1/2+x,1/2+y,-z
-x,1/2+y,1/2+z
1/2+x,-y,1/2+z
loop_
_atom_site_type_symbol
_atom_site_label
_atom_site_fract_x
_atom_site_fract_y
_atom_site_fract_z
Si Si1 0.250000 0.250000 0.250000
Si Si2 0.394922 0.043814 0.371620
Si Si3 0.908416 0.918540 0.244535
Si Si4 0.906528 0.447260 0.892942
Si Si5 0.910874 0.771414 0.502328
O O1 0.350521 0.158355 0.306447
O O2 0.446224 0.124979 0.450627
O O3 0.531892 0.956700 0.341161
O O4 0.265080 0.928138 0.383126
O O5 0.896416 0.750000 0.250000
O O6 0.750000 0.988985 0.250000
O O7 0.015544 0.977497 0.310855
O O8 0.923937 0.593624 0.940671
O O9 0.976088 0.304727 0.933112
O O10 0.750000 0.750000 0.467718
#
# Coordination Sequence:
#
# PCOD8201467 Si02
#       5
#     2   8   8   8   8
#     4  12  16  36  64 100 124 164 228 266 328 380
#     4  11  19  39  68  97 126 173 224 271 326 406
#     4  11  25  41  63  92 130 169 217 279 334 385
#     4  10  19  37  65  94 126 170 213 264 326 396
#     4   9  19  35  66  95 129 170 210 265 336 389
#
# _framework density 22.962800999999999
#
# number of rings (size 3 to 8) (size 9 to 14) (size 15 to 20)
#    0.000    1.647    5.882    0.000    3.294    1.882 
#    0.000    6.471   10.353    0.000    0.000    0.000 
#    0.000    0.000    0.000    0.000    0.000    0.000 
#
# Total GULP energy -421439.420548 kJ/mol
# GULP energy per Si atom -12395.277075 kJ/mol
# Density = 2.291054 g / cm^3
# Si number density = 22.962801 Si / 1000 Ang^3
#
#
#
# Elastic Constant Matrix: (Units=GPa)
#
#
# Indices 1 2 3 4 5 6 
#
# 1 169.6603 68.1469 63.6229 0.0000 0.0000 0.0000
# 2 68.1469 64.1694 38.0430 0.0000 0.0000 0.0000
# 3 63.6229 38.0430 80.2470 0.0000 0.0000 0.0000
# 4 0.0000 0.0000 0.0000 38.7354 0.0000 0.0000
# 5 0.0000 0.0000 0.0000 0.0000 27.8613 0.0000
# 6 0.0000 0.0000 0.0000 0.0000 0.0000 29.3430
#
#
#
# Elastic Compliance Matrix: (Units=1/GPa)
#
#
# Indices 1 2 3 4 5 6 
#
# 1 0.011371 -0.009362 -0.004577 0.000000 0.000000 0.000000
# 2 -0.009362 0.029385 -0.006507 0.000000 0.000000 0.000000
# 3 -0.004577 -0.006507 0.019175 0.000000 0.000000 0.000000
# 4 0.000000 0.000000 0.000000 0.025816 0.000000 0.000000
# 5 0.000000 0.000000 0.000000 0.000000 0.035892 0.000000
# 6 0.000000 0.000000 0.000000 0.000000 0.000000 0.034080
#
#
# Mechanical properties :
#
#
# Convention : Reuss Voigt Hill
#
# Bulk Modulus (GPa) = 52.52892 72.63360 62.58126
# Shear Modulus (GPa) = 24.63560 28.80554 26.72057
#
# Velocity S-wave (km/s) = 3.27899 3.54565 3.41493
# Velocity P-wave (km/s) = 6.10418 6.96146 6.54687
#
# Compressibility (1/GPa) = 0.01903713
#
# Stress axis : x y z
#
# Youngs Moduli (GPa) = 87.94240 34.03153 52.15037
#
# Poissons Ratio (x) = 0.31862 0.23869
# Poissons Ratio (y) = 0.82336 0.33937
# Poissons Ratio (z) = 0.40251 0.22146
#
# Static dielectric constant tensor:
#      x y z
#    x 4.568350 0.000000 0.000000 
#    y 0.000000 4.205470 0.000000 
#    z 0.000000 0.000000 4.592740 
# 
# 
# High freq. dielectric constant tensor:
#      x y z
#    x 1.900650 0.000000 0.000000 
#    y 0.000000 1.902360 0.000000 
#    z 0.000000 0.000000 1.915270 
# 
# From -- ./inp_files/8732.got.cif
#   From: 2010.06.25/outbox.cif.g09.slc.cpg/sg48_5_cif.got.tgz:8732.got - 2010.06.26 18:06:46.
