data_PCOD8201988
_publ_section_title
;
Structure prediction by ZEFSAII (Michael W. Deem and Ramdas Pophale) SiO2 
 PCOD8201988
Probable space group: P N N N
;
_chemical_formula_sum "Si O2"
_cell_formula_units_Z 22
_cell_length_a 5.321445
_cell_length_b 5.287192
_cell_length_c 30.844751
_cell_angle_alpha 90.000000
_cell_angle_beta 90.000000
_cell_angle_gamma 90.000000
_cell_volume 867.832536
_symmetry_space_group_name_H-M "P N N N"
_symmetry_group_IT_number 48
_space_group.IT_coordinate_system_code '2'
_symmetry_cell_setting 'orthorhombic'
loop_
_space_group_symop_operation_xyz
x,y,z
1/2-x,1/2-y,z
x,1/2-y,1/2-z
1/2-x,y,1/2-z
-x,-y,-z
1/2+x,1/2+y,-z
-x,1/2+y,1/2+z
1/2+x,-y,1/2+z
loop_
_atom_site_type_symbol
_atom_site_label
_atom_site_fract_x
_atom_site_fract_y
_atom_site_fract_z
Si Si1 0.250000 0.750000 0.388915
Si Si2 0.000282 0.907733 0.548941
Si Si3 0.750000 0.250000 0.250000
Si Si4 0.894403 0.487905 0.332491
O O1 0.479669 0.649700 0.419069
O O2 0.342551 0.977806 0.357420
O O3 0.250000 0.750000 0.559188
O O4 0.750000 0.750000 0.557678
O O5 0.000000 0.000000 0.500000
O O6 0.927988 0.423309 0.281082
O O7 0.750000 0.750000 0.337983
O O8 0.750000 0.250000 0.354830
#
# Coordination Sequence:
#
# PCOD8201988 Si02
#       4
#     4   8   2   8
#     4  12  30  46  83 121 166 214 297 347 432 504
#     4  12  29  51  81 120 167 230 283 351 428 510
#     4   8  22  52  84 114 172 212 282 340 452 504
#     4  10  25  48  81 118 165 219 271 356 424 516
#
# _framework density 25.350512999999999
#
# number of rings (size 3 to 8) (size 9 to 14) (size 15 to 20)
#    1.091    0.000    1.818    1.636   10.182    0.000 
#    0.000    5.455    8.000    0.000    0.000    0.000 
#    0.000    0.000    0.000    0.000    0.000    0.000 
#
# Total GULP energy -272669.253103 kJ/mol
# GULP energy per Si atom -12394.056959 kJ/mol
# Density = 2.529281 g / cm^3
# Si number density = 25.350513 Si / 1000 Ang^3
#
#
#
# Elastic Constant Matrix: (Units=GPa)
#
#
# Indices 1 2 3 4 5 6 
#
# 1 152.3925 63.7066 67.4554 0.0000 0.0000 0.0000
# 2 63.7066 164.8392 69.6340 0.0000 0.0000 0.0000
# 3 67.4554 69.6340 215.5783 0.0000 0.0000 0.0000
# 4 0.0000 0.0000 0.0000 66.5133 0.0000 0.0000
# 5 0.0000 0.0000 0.0000 0.0000 32.7879 0.0000
# 6 0.0000 0.0000 0.0000 0.0000 0.0000 58.5651
#
#
#
# Elastic Compliance Matrix: (Units=1/GPa)
#
#
# Indices 1 2 3 4 5 6 
#
# 1 0.008407 -0.002476 -0.001831 0.000000 0.000000 0.000000
# 2 -0.002476 0.007754 -0.001730 0.000000 0.000000 0.000000
# 3 -0.001831 -0.001730 0.005770 0.000000 0.000000 0.000000
# 4 0.000000 0.000000 0.000000 0.015035 0.000000 0.000000
# 5 0.000000 0.000000 0.000000 0.000000 0.030499 0.000000
# 6 0.000000 0.000000 0.000000 0.000000 0.000000 0.017075
#
#
# Mechanical properties :
#
#
# Convention : Reuss Voigt Hill
#
# Bulk Modulus (GPa) = 101.43594 103.82243 102.62918
# Shear Modulus (GPa) = 50.04978 53.70753 51.87865
#
# Velocity S-wave (km/s) = 4.44814 4.60782 4.52868
# Velocity P-wave (km/s) = 8.15362 8.32784 8.24119
#
# Compressibility (1/GPa) = 0.00985844
#
# Stress axis : x y z
#
# Youngs Moduli (GPa) = 118.94154 128.96291 173.29743
#
# Poissons Ratio (x) = 0.31929 0.31731
# Poissons Ratio (y) = 0.29448 0.29980
# Poissons Ratio (z) = 0.21779 0.22310
#
# Static dielectric constant tensor:
#      x y z
#    x 4.369050 0.000000 0.000000 
#    y 0.000000 4.834960 0.000000 
#    z 0.000000 0.000000 4.817020 
# 
# 
# High freq. dielectric constant tensor:
#      x y z
#    x 1.984150 0.000000 0.000000 
#    y 0.000000 2.022950 0.000000 
#    z 0.000000 0.000000 2.037570 
# 
# From -- ./inp_files/38141.got.cif
#   From: 2010.06.25/outbox.cif.g09.slc.cpg/sg48_20_cif.got.tgz:38141.got - 2010.06.26 18:06:46.
