data_PCOD8201901
_publ_section_title
;
Structure prediction by ZEFSAII (Michael W. Deem and Ramdas Pophale) SiO2 
 PCOD8201901
Probable space group: P N N N
;
_chemical_formula_sum "Si O2"
_cell_formula_units_Z 36
_cell_length_a 14.506381
_cell_length_b 8.421797
_cell_length_c 15.435073
_cell_angle_alpha 90.000000
_cell_angle_beta 90.000000
_cell_angle_gamma 90.000000
_cell_volume 1885.699719
_symmetry_space_group_name_H-M "P N N N"
_symmetry_group_IT_number 48
_space_group.IT_coordinate_system_code '2'
_symmetry_cell_setting 'orthorhombic'
loop_
_space_group_symop_operation_xyz
x,y,z
1/2-x,1/2-y,z
x,1/2-y,1/2-z
1/2-x,y,1/2-z
-x,-y,-z
1/2+x,1/2+y,-z
-x,1/2+y,1/2+z
1/2+x,-y,1/2+z
loop_
_atom_site_type_symbol
_atom_site_label
_atom_site_fract_x
_atom_site_fract_y
_atom_site_fract_z
Si Si1 0.994427 0.375542 0.422797
Si Si2 0.146619 0.806725 0.485914
Si Si3 0.167826 0.149566 0.423321
Si Si4 0.250000 0.485461 0.250000
Si Si5 0.428974 0.860117 0.323086
O O1 0.077926 0.254559 0.423316
O O2 0.004975 0.485789 0.336812
O O3 0.000000 0.500000 0.500000
O O4 0.900467 0.269818 0.427384
O O5 0.250000 0.750000 0.477745
O O6 0.081733 0.745779 0.408614
O O7 0.147053 0.997023 0.482984
O O8 0.250000 0.250000 0.468113
O O9 0.197772 0.114749 0.324091
O O10 0.174370 0.592962 0.296560
O O11 0.475756 0.750000 0.250000
#
# Coordination Sequence:
#
# PCOD8201901 Si02
#       5
#     8   8   8   4   8
#     4  10  23  36  49  80 122 157 201 233 290 369
#     4  11  20  37  56  80 122 161 197 241 289 362
#     4  12  21  32  55  86 122 154 188 242 308 369
#     4  12  20  30  58  92 122 144 180 242 320 362
#     4  11  19  34  56  84 125 153 186 243 315 367
#
# _framework density 19.091058
#
# number of rings (size 3 to 8) (size 9 to 14) (size 15 to 20)
#    0.000    0.889    6.667    2.667    0.000    0.000 
#    0.000    0.000    0.000    0.000    0.000    3.111 
#   26.667    0.000    0.000    0.000    0.000    0.000 
#
# Total GULP energy -446095.803008 kJ/mol
# GULP energy per Si atom -12391.550084 kJ/mol
# Density = 1.904761 g / cm^3
# Si number density = 19.091058 Si / 1000 Ang^3
#
#
#
# Elastic Constant Matrix: (Units=GPa)
#
#
# Indices 1 2 3 4 5 6 
#
# 1 56.1556 55.4398 36.5490 0.0000 0.0000 0.0000
# 2 55.4398 166.1475 48.0873 0.0000 0.0000 0.0000
# 3 36.5490 48.0873 54.3125 0.0000 0.0000 0.0000
# 4 0.0000 0.0000 0.0000 39.2416 0.0000 0.0000
# 5 0.0000 0.0000 0.0000 0.0000 29.0088 0.0000
# 6 0.0000 0.0000 0.0000 0.0000 0.0000 42.6315
#
#
#
# Elastic Compliance Matrix: (Units=1/GPa)
#
#
# Indices 1 2 3 4 5 6 
#
# 1 0.036698 -0.006854 -0.018627 0.000000 0.000000 0.000000
# 2 -0.006854 0.009373 -0.003686 0.000000 0.000000 0.000000
# 3 -0.018627 -0.003686 0.034210 0.000000 0.000000 0.000000
# 4 0.000000 0.000000 0.000000 0.025483 0.000000 0.000000
# 5 0.000000 0.000000 0.000000 0.000000 0.034472 0.000000
# 6 0.000000 0.000000 0.000000 0.000000 0.000000 0.023457
#
#
# Mechanical properties :
#
#
# Convention : Reuss Voigt Hill
#
# Bulk Modulus (GPa) = 45.56486 61.86307 53.71396
# Shear Modulus (GPa) = 21.80148 31.27902 26.54025
#
# Velocity S-wave (km/s) = 3.38298 4.05212 3.73257
# Velocity P-wave (km/s) = 6.25926 7.37343 6.83907
#
# Compressibility (1/GPa) = 0.02194674
#
# Stress axis : x y z
#
# Youngs Moduli (GPa) = 27.24958 106.69358 29.23111
#
# Poissons Ratio (x) = 0.73130 0.54448
# Poissons Ratio (y) = 0.18677 0.10774
# Poissons Ratio (z) = 0.50757 0.39326
#
# Static dielectric constant tensor:
#      x y z
#    x 3.618740 0.000000 0.000000 
#    y 0.000000 3.949440 0.000000 
#    z 0.000000 0.000000 4.983510 
# 
# 
# High freq. dielectric constant tensor:
#      x y z
#    x 1.721790 0.000000 0.000000 
#    y 0.000000 1.776400 0.000000 
#    z 0.000000 0.000000 1.702290 
# 
# From -- ./inp_files/12229.got.cif
#   From: 2010.06.25/outbox.cif.g09.slc.cpg/sg48_7_cif.got.tgz:12229.got - 2010.06.26 18:06:46.
