data_PCOD8201244
_publ_section_title
;
Structure prediction by ZEFSAII (Michael W. Deem and Ramdas Pophale) SiO2 
 PCOD8201244
Probable space group: P N N N
;
_chemical_formula_sum "Si O2"
_cell_formula_units_Z 40
_cell_length_a 10.563888
_cell_length_b 8.563300
_cell_length_c 22.053714
_cell_angle_alpha 90.000000
_cell_angle_beta 90.000000
_cell_angle_gamma 90.000000
_cell_volume 1995.017388
_symmetry_space_group_name_H-M "P N N N"
_symmetry_group_IT_number 48
_space_group.IT_coordinate_system_code '2'
_symmetry_cell_setting 'orthorhombic'
loop_
_space_group_symop_operation_xyz
x,y,z
1/2-x,1/2-y,z
x,1/2-y,1/2-z
1/2-x,y,1/2-z
-x,-y,-z
1/2+x,1/2+y,-z
-x,1/2+y,1/2+z
1/2+x,-y,1/2+z
loop_
_atom_site_type_symbol
_atom_site_label
_atom_site_fract_x
_atom_site_fract_y
_atom_site_fract_z
Si Si1 0.310211 0.084170 0.536573
Si Si2 0.137621 0.642805 0.901259
Si Si3 0.373061 0.421855 0.220197
Si Si4 0.620224 0.429946 0.271273
Si Si5 0.455238 0.413773 0.084698
O O1 0.250000 0.250000 0.553277
O O2 0.350452 0.066832 0.466936
O O3 0.194544 0.962704 0.545202
O O4 0.432726 0.044591 0.579179
O O5 0.250000 0.750000 0.874924
O O6 0.096379 0.544360 0.842713
O O7 0.020249 0.744546 0.925429
O O8 0.376695 0.250000 0.250000
O O9 0.250000 0.506663 0.250000
O O10 0.500509 0.513496 0.239401
O O11 0.375571 0.419810 0.147044
O O12 0.622293 0.250000 0.250000
O O13 0.750000 0.513319 0.250000
#
# Coordination Sequence:
#
# PCOD8201244 Si02
#       5
#     8   8   8   8   8
#     4  10  23  36  54  83 121 164 196 244 295 365
#     4  10  17  32  55  81 111 150 200 241 297 346
#     4  10  19  30  55  97 115 137 183 273 313 325
#     4  10  14  26  52  87 104 140 187 255 287 337
#     4  10  20  38  58  85 120 150 204 250 301 360
#
# _framework density 20.049951
#
# number of rings (size 3 to 8) (size 9 to 14) (size 15 to 20)
#    0.000    2.000    6.000    1.200    2.800    0.800 
#    0.000    0.000    0.000    5.400    0.000    2.800 
#    0.000    0.000    0.000    0.000    0.000    0.000 
#
# Total GULP energy -495527.653185 kJ/mol
# GULP energy per Si atom -12388.191330 kJ/mol
# Density = 2.000432 g / cm^3
# Si number density = 20.049951 Si / 1000 Ang^3
#
#
#
# Elastic Constant Matrix: (Units=GPa)
#
#
# Indices 1 2 3 4 5 6 
#
# 1 151.0236 34.7929 68.5990 0.0000 0.0000 0.0000
# 2 34.7929 53.8772 37.8219 0.0000 0.0000 0.0000
# 3 68.5990 37.8219 162.2124 0.0000 0.0000 0.0000
# 4 0.0000 0.0000 0.0000 13.6236 0.0000 0.0000
# 5 0.0000 0.0000 0.0000 0.0000 36.4432 0.0000
# 6 0.0000 0.0000 0.0000 0.0000 0.0000 13.1265
#
#
#
# Elastic Compliance Matrix: (Units=1/GPa)
#
#
# Indices 1 2 3 4 5 6 
#
# 1 0.008759 -0.003654 -0.002852 0.000000 0.000000 0.000000
# 2 -0.003654 0.023718 -0.003985 0.000000 0.000000 0.000000
# 3 -0.002852 -0.003985 0.008300 0.000000 0.000000 0.000000
# 4 0.000000 0.000000 0.000000 0.073402 0.000000 0.000000
# 5 0.000000 0.000000 0.000000 0.000000 0.027440 0.000000
# 6 0.000000 0.000000 0.000000 0.000000 0.000000 0.076182
#
#
# Mechanical properties :
#
#
# Convention : Reuss Voigt Hill
#
# Bulk Modulus (GPa) = 50.51871 72.17121 61.34496
# Shear Modulus (GPa) = 20.37648 27.69861 24.03754
#
# Velocity S-wave (km/s) = 3.19138 3.72086 3.46625
# Velocity P-wave (km/s) = 6.23145 7.38468 6.83244
#
# Compressibility (1/GPa) = 0.01979465
#
# Stress axis : x y z
#
# Youngs Moduli (GPa) = 114.17087 42.16244 120.48209
#
# Poissons Ratio (x) = 0.15407 0.34362
# Poissons Ratio (y) = 0.41719 0.48010
# Poissons Ratio (z) = 0.32562 0.16801
#
# Static dielectric constant tensor:
#      x y z
#    x 5.368330 0.000000 0.000000 
#    y 0.000000 3.105990 0.000000 
#    z 0.000000 0.000000 3.558520 
# 
# 
# High freq. dielectric constant tensor:
#      x y z
#    x 1.800510 0.000000 0.000000 
#    y 0.000000 1.708500 0.000000 
#    z 0.000000 0.000000 1.786560 
# 
# From -- ./inp_files/10978.got.cif
#   From: 2010.06.25/outbox.cif.g09.slc.cpg/sg48_6_cif.got.tgz:10978.got - 2010.06.26 18:06:46.
