data_PCOD8201060
_publ_section_title
;
Structure prediction by ZEFSAII (Michael W. Deem and Ramdas Pophale) SiO2 
 PCOD8201060
Probable space group: P M M M
;
_chemical_formula_sum "Si O2"
_cell_formula_units_Z 64
_cell_length_a 9.581122
_cell_length_b 14.499727
_cell_length_c 28.929579
_cell_angle_alpha 90.000000
_cell_angle_beta 90.000000
_cell_angle_gamma 90.000000
_cell_volume 4019.002805
_symmetry_space_group_name_H-M "P M M M"
_symmetry_group_IT_number 47
_symmetry_cell_setting 'orthorhombic'
loop_
_space_group_symop_operation_xyz
x,y,z
-x,-y,z
x,-y,-z
-x,y,-z
-x,-y,-z
x,y,-z
-x,y,z
x,-y,z
loop_
_atom_site_type_symbol
_atom_site_label
_atom_site_fract_x
_atom_site_fract_y
_atom_site_fract_z
Si Si1 0.339427 0.896874 0.100524
Si Si2 0.343780 0.890589 0.550936
Si Si3 0.660680 0.392670 0.137520
Si Si4 0.836563 0.784361 0.275670
Si Si5 0.839773 0.107101 0.188010
Si Si6 0.162469 0.604238 0.227063
Si Si7 0.336992 0.718014 0.050297
Si Si8 0.163871 0.107398 0.363794
O O1 0.500000 0.892726 0.116204
O O2 0.248771 0.863779 0.143741
O O3 0.310168 0.826818 0.058697
O O4 0.297853 0.000000 0.084252
O O5 0.297950 0.854056 0.500000
O O6 0.500000 0.855415 0.562397
O O7 0.237644 0.854975 0.589871
O O8 0.341711 0.000000 0.550323
O O9 0.500000 0.363397 0.146551
O O10 0.673418 0.500000 0.127073
O O11 0.750153 0.365255 0.182290
O O12 0.725605 0.341502 0.092568
O O13 0.776239 0.837970 0.231382
O O14 0.803093 0.674978 0.269195
O O15 0.774555 0.828307 0.322575
O O16 0.000000 0.803633 0.277630
O O17 0.000000 0.134112 0.178283
O O18 0.823757 0.000000 0.199439
O O19 0.201247 0.500000 0.242891
O O20 0.000000 0.611433 0.213566
O O21 0.500000 0.695982 0.048243
O O22 0.270411 0.692937 0.000000
O O23 0.000000 0.121069 0.371055
O O24 0.198946 0.000000 0.353312
#
# Coordination Sequence:
#
# PCOD8201060 Si02
#       8
#     8   8   8   8   8   8   8   8
#     4   9  17  28  41  57  76  97 124 158 189 217
#     4   8  14  25  39  54  77 111 145 173 201 233
#     4   9  17  29  45  63  80  97 120 154 193 229
#     4   9  16  26  40  58  81 106 131 161 195 230
#     4   9  16  26  41  58  76 102 132 156 184 227
#     4   9  17  29  45  62  79 103 133 159 187 230
#     4   9  17  28  42  60  79  98 122 152 187 229
#     4   9  16  25  38  57  81 108 138 170 200 230
#
# _framework density 15.924348999999999
#
# number of rings (size 3 to 8) (size 9 to 14) (size 15 to 20)
#    0.000    3.125    0.000    1.500    0.000    2.250 
#    0.000    5.000    0.000    4.500    0.000    3.500 
#    0.000    0.500    0.000    6.250    0.000    1.250 
#
# Total GULP energy -793148.573778 kJ/mol
# GULP energy per Si atom -12392.946465 kJ/mol
# Density = 1.588810 g / cm^3
# Si number density = 15.924349 Si / 1000 Ang^3
#
#
#
# Elastic Constant Matrix: (Units=GPa)
#
#
# Indices 1 2 3 4 5 6 
#
# 1 37.2706 19.7885 38.8884 0.0000 0.0000 0.0000
# 2 19.7885 62.4759 51.6073 0.0000 0.0000 0.0000
# 3 38.8884 51.6073 117.9307 0.0000 0.0000 0.0000
# 4 0.0000 0.0000 0.0000 17.6023 0.0000 0.0000
# 5 0.0000 0.0000 0.0000 0.0000 21.0441 0.0000
# 6 0.0000 0.0000 0.0000 0.0000 0.0000 12.1822
#
#
#
# Elastic Compliance Matrix: (Units=1/GPa)
#
#
# Indices 1 2 3 4 5 6 
#
# 1 0.041230 -0.002864 -0.012343 0.000000 0.000000 0.000000
# 2 -0.002864 0.025266 -0.010113 0.000000 0.000000 0.000000
# 3 -0.012343 -0.010113 0.016975 0.000000 0.000000 0.000000
# 4 0.000000 0.000000 0.000000 0.056811 0.000000 0.000000
# 5 0.000000 0.000000 0.000000 0.000000 0.047519 0.000000
# 6 0.000000 0.000000 0.000000 0.000000 0.000000 0.082087
#
#
# Mechanical properties :
#
#
# Convention : Reuss Voigt Hill
#
# Bulk Modulus (GPa) = 30.45661 48.69395 39.57528
# Shear Modulus (GPa) = 15.08436 17.32527 16.20481
#
# Velocity S-wave (km/s) = 3.08108 3.30202 3.19346
# Velocity P-wave (km/s) = 5.64134 6.72179 6.20513
#
# Compressibility (1/GPa) = 0.03283359
#
# Stress axis : x y z
#
# Youngs Moduli (GPa) = 24.25448 39.57818 58.91048
#
# Poissons Ratio (x) = 0.11333 0.72711
# Poissons Ratio (y) = 0.06945 0.59573
# Poissons Ratio (z) = 0.29936 0.40023
#
# Static dielectric constant tensor:
#      x y z
#    x 2.894140 0.000000 0.000000 
#    y 0.000000 3.020060 0.000000 
#    z 0.000000 0.000000 3.194740 
# 
# 
# High freq. dielectric constant tensor:
#      x y z
#    x 1.585690 0.000000 0.000000 
#    y 0.000000 1.598580 0.000000 
#    z 0.000000 0.000000 1.600500 
# 
# From -- ./inp_files/8253.got.cif
#   From: 2010.03.12/outbox.cif.g09.slc.cpg/sg47_5_cif.got.tgz:8253.got - 2010.04.14 03:12:58.
