data_PCOD8201567
_publ_section_title
;
Structure prediction by ZEFSAII (Michael W. Deem and Ramdas Pophale) SiO2 
 PCOD8201567
Probable space group: P N N N
;
_chemical_formula_sum "Si O2"
_cell_formula_units_Z 48
_cell_length_a 23.982049
_cell_length_b 6.042526
_cell_length_c 14.920053
_cell_angle_alpha 90.000000
_cell_angle_beta 90.000000
_cell_angle_gamma 90.000000
_cell_volume 2162.097027
_symmetry_space_group_name_H-M "P N N N"
_symmetry_group_IT_number 48
_space_group.IT_coordinate_system_code '2'
_symmetry_cell_setting 'orthorhombic'
loop_
_space_group_symop_operation_xyz
x,y,z
1/2-x,1/2-y,z
x,1/2-y,1/2-z
1/2-x,y,1/2-z
-x,-y,-z
1/2+x,1/2+y,-z
-x,1/2+y,1/2+z
1/2+x,-y,1/2+z
loop_
_atom_site_type_symbol
_atom_site_label
_atom_site_fract_x
_atom_site_fract_y
_atom_site_fract_z
Si Si1 0.455114 0.426671 0.390298
Si Si2 0.250000 0.750000 0.873943
Si Si3 0.074981 0.817027 0.564976
Si Si4 0.576055 0.250000 0.750000
Si Si5 0.337004 0.463510 0.974316
Si Si6 0.357031 0.124315 0.331590
Si Si7 0.338600 0.088269 0.833528
O O1 0.427762 0.514365 0.481933
O O2 0.511425 0.284708 0.403509
O O3 0.464912 0.624643 0.319185
O O4 0.411720 0.267451 0.345881
O O5 0.216223 0.566501 0.814610
O O6 0.293406 0.641206 0.940775
O O7 0.101673 0.578828 0.537279
O O8 0.109177 0.927360 0.647417
O O9 0.620826 0.386266 0.806486
O O10 0.322155 0.400744 0.076863
O O11 0.329783 0.237223 0.920587
O O12 0.323442 0.250000 0.250000
O O13 0.349763 0.250000 0.750000
#
# Coordination Sequence:
#
# PCOD8201567 Si02
#       7
#     8   4   8   4   8   8   8
#     4  10  20  37  58  96 132 178 219 260 317 393
#     4  10  26  43  70  91 118 162 222 269 346 401
#     4  10  22  37  62  94 135 170 219 264 325 389
#     4  10  20  36  58  91 130 180 215 258 308 388
#     4  11  22  43  65  92 125 166 214 276 331 387
#     4  10  21  37  64  93 127 173 216 255 320 392
#     4  11  25  45  67  95 127 169 216 277 336 402
#
# _framework density 22.200669999999999
#
# number of rings (size 3 to 8) (size 9 to 14) (size 15 to 20)
#    0.000    1.667    3.333    0.500    1.167    6.667 
#    6.000    0.000    0.000    7.500    0.000    0.000 
#    0.000    0.000    0.000    0.000    0.000    0.000 
#
# Total GULP energy -594939.168704 kJ/mol
# GULP energy per Si atom -12394.566015 kJ/mol
# Density = 2.215014 g / cm^3
# Si number density = 22.200670 Si / 1000 Ang^3
#
#
#
# Elastic Constant Matrix: (Units=GPa)
#
#
# Indices 1 2 3 4 5 6 
#
# 1 57.0999 6.6755 4.5223 0.0000 0.0000 0.0000
# 2 6.6755 69.5365 6.0631 0.0000 0.0000 0.0000
# 3 4.5223 6.0631 105.9838 0.0000 0.0000 0.0000
# 4 0.0000 0.0000 0.0000 42.2546 0.0000 0.0000
# 5 0.0000 0.0000 0.0000 0.0000 18.4055 0.0000
# 6 0.0000 0.0000 0.0000 0.0000 0.0000 25.7479
#
#
#
# Elastic Compliance Matrix: (Units=1/GPa)
#
#
# Indices 1 2 3 4 5 6 
#
# 1 0.017758 -0.001647 -0.000664 0.000000 0.000000 0.000000
# 2 -0.001647 0.014606 -0.000765 0.000000 0.000000 0.000000
# 3 -0.000664 -0.000765 0.009507 0.000000 0.000000 0.000000
# 4 0.000000 0.000000 0.000000 0.023666 0.000000 0.000000
# 5 0.000000 0.000000 0.000000 0.000000 0.054332 0.000000
# 6 0.000000 0.000000 0.000000 0.000000 0.000000 0.038838
#
#
# Mechanical properties :
#
#
# Convention : Reuss Voigt Hill
#
# Bulk Modulus (GPa) = 27.99550 29.68245 28.83898
# Shear Modulus (GPa) = 28.28605 31.63887 29.96246
#
# Velocity S-wave (km/s) = 3.57334 3.77919 3.67770
# Velocity P-wave (km/s) = 5.44634 5.69580 5.57246
#
# Compressibility (1/GPa) = 0.03572002
#
# Stress axis : x y z
#
# Youngs Moduli (GPa) = 56.31186 68.46609 105.18015
#
# Poissons Ratio (x) = 0.11276 0.06979
# Poissons Ratio (y) = 0.09274 0.08049
# Poissons Ratio (z) = 0.03736 0.05240
#
# Static dielectric constant tensor:
#      x y z
#    x 3.811320 0.000000 0.000000 
#    y 0.000000 4.388370 0.000000 
#    z 0.000000 0.000000 4.397760 
# 
# 
# High freq. dielectric constant tensor:
#      x y z
#    x 1.844880 0.000000 0.000000 
#    y 0.000000 1.885470 0.000000 
#    z 0.000000 0.000000 1.890410 
# 
# From -- ./inp_files/28796.got.cif
#   From: 2010.06.25/outbox.cif.g09.slc.cpg/sg48_15_cif.got.tgz:28796.got - 2010.06.26 18:06:46.
