data_PCOD8201482
_publ_section_title
;
Structure prediction by ZEFSAII (Michael W. Deem and Ramdas Pophale) SiO2 
 PCOD8201482
Probable space group: P N N N
;
_chemical_formula_sum "Si O2"
_cell_formula_units_Z 52
_cell_length_a 15.743238
_cell_length_b 9.953569
_cell_length_c 16.419551
_cell_angle_alpha 90.000000
_cell_angle_beta 90.000000
_cell_angle_gamma 90.000000
_cell_volume 2572.966723
_symmetry_space_group_name_H-M "P N N N"
_symmetry_group_IT_number 48
_space_group.IT_coordinate_system_code '2'
_symmetry_cell_setting 'orthorhombic'
loop_
_space_group_symop_operation_xyz
x,y,z
1/2-x,1/2-y,z
x,1/2-y,1/2-z
1/2-x,y,1/2-z
-x,-y,-z
1/2+x,1/2+y,-z
-x,1/2+y,1/2+z
1/2+x,-y,1/2+z
loop_
_atom_site_type_symbol
_atom_site_label
_atom_site_fract_x
_atom_site_fract_y
_atom_site_fract_z
Si Si1 0.936002 0.439081 0.065588
Si Si2 0.583995 0.366873 0.068287
Si Si3 0.530975 0.410037 0.890678
Si Si4 0.254520 0.520219 0.988414
Si Si5 0.750000 0.750000 0.093622
Si Si6 0.575783 0.685701 0.335436
Si Si7 0.211236 0.897869 0.167617
O O1 0.951552 0.282396 0.085224
O O2 0.945222 0.527880 0.148871
O O3 0.842374 0.448767 0.030050
O O4 0.000000 0.500000 0.000000
O O5 0.533020 0.465355 0.130611
O O6 0.570325 0.429348 0.979062
O O7 0.687198 0.379720 0.068525
O O8 0.478692 0.271723 0.899227
O O9 0.608087 0.398685 0.825375
O O10 0.262750 0.525408 0.085921
O O11 0.280509 0.369819 0.964169
O O12 0.675444 0.795711 0.153088
O O13 0.547185 0.750000 0.250000
O O14 0.250000 0.750000 0.160404
O O15 0.250000 0.965871 0.250000
#
# Coordination Sequence:
#
# PCOD8201482 Si02
#       7
#     8   8   8   8   4   8   8
#     4  11  22  35  60  95 123 161 217 263 298 378
#     4  10  19  38  61  91 120 157 216 256 311 361
#     4  10  20  35  63  86 120 162 197 257 305 372
#     4  10  20  36  63  85 123 160 208 261 308 375
#     4  10  21  40  61  90 110 162 212 256 313 380
#     4  11  23  38  60  90 125 159 204 263 321 366
#     4  10  22  36  58  91 122 157 198 246 311 378
#
# _framework density 20.210134
#
# number of rings (size 3 to 8) (size 9 to 14) (size 15 to 20)
#    0.000    1.692    3.077    2.538    2.154    0.000 
#    0.000    1.154    0.000    3.692    0.000    0.000 
#    0.000    0.000    0.000    0.000    0.000    0.000 
#
# Total GULP energy -644261.443886 kJ/mol
# GULP energy per Si atom -12389.643152 kJ/mol
# Density = 2.016414 g / cm^3
# Si number density = 20.210134 Si / 1000 Ang^3
#
#
#
# Elastic Constant Matrix: (Units=GPa)
#
#
# Indices 1 2 3 4 5 6 
#
# 1 131.5286 41.1934 22.2488 0.0000 0.0000 0.0000
# 2 41.1934 141.2459 30.2109 0.0000 0.0000 0.0000
# 3 22.2488 30.2109 68.9333 0.0000 0.0000 0.0000
# 4 0.0000 0.0000 0.0000 21.2091 0.0000 0.0000
# 5 0.0000 0.0000 0.0000 0.0000 20.2233 0.0000
# 6 0.0000 0.0000 0.0000 0.0000 0.0000 29.5148
#
#
#
# Elastic Compliance Matrix: (Units=1/GPa)
#
#
# Indices 1 2 3 4 5 6 
#
# 1 0.008575 -0.002106 -0.001844 0.000000 0.000000 0.000000
# 2 -0.002106 0.008330 -0.002971 0.000000 0.000000 0.000000
# 3 -0.001844 -0.002971 0.016404 0.000000 0.000000 0.000000
# 4 0.000000 0.000000 0.000000 0.047149 0.000000 0.000000
# 5 0.000000 0.000000 0.000000 0.000000 0.049448 0.000000
# 6 0.000000 0.000000 0.000000 0.000000 0.000000 0.033881
#
#
# Mechanical properties :
#
#
# Convention : Reuss Voigt Hill
#
# Bulk Modulus (GPa) = 51.37325 58.77934 55.07630
# Shear Modulus (GPa) = 27.15652 30.72643 28.94148
#
# Velocity S-wave (km/s) = 3.66964 3.90339 3.78832
# Velocity P-wave (km/s) = 6.59012 7.03296 6.81514
#
# Compressibility (1/GPa) = 0.01946538
#
# Stress axis : x y z
#
# Youngs Moduli (GPa) = 116.62420 120.05496 60.96055
#
# Poissons Ratio (x) = 0.25286 0.11244
# Poissons Ratio (y) = 0.24563 0.18110
# Poissons Ratio (z) = 0.21511 0.35665
#
# Static dielectric constant tensor:
#      x y z
#    x 4.036910 0.000000 0.000000 
#    y 0.000000 3.817870 0.000000 
#    z 0.000000 0.000000 3.566700 
# 
# 
# High freq. dielectric constant tensor:
#      x y z
#    x 1.812880 0.000000 0.000000 
#    y 0.000000 1.783740 0.000000 
#    z 0.000000 0.000000 1.754070 
# 
# From -- ./inp_files/31961.got.cif
#   From: 2010.06.25/outbox.cif.g09.slc.cpg/sg48_16_cif.got.tgz:31961.got - 2010.06.26 18:06:46.
