data_PCOD8201909
_publ_section_title
;
Structure prediction by ZEFSAII (Michael W. Deem and Ramdas Pophale) SiO2 
 PCOD8201909
Probable space group: P N N N
;
_chemical_formula_sum "Si O2"
_cell_formula_units_Z 30
_cell_length_a 16.194069
_cell_length_b 5.343596
_cell_length_c 16.504266
_cell_angle_alpha 90.000000
_cell_angle_beta 90.000000
_cell_angle_gamma 90.000000
_cell_volume 1428.189435
_symmetry_space_group_name_H-M "P N N N"
_symmetry_group_IT_number 48
_space_group.IT_coordinate_system_code '2'
_symmetry_cell_setting 'orthorhombic'
loop_
_space_group_symop_operation_xyz
x,y,z
1/2-x,1/2-y,z
x,1/2-y,1/2-z
1/2-x,y,1/2-z
-x,-y,-z
1/2+x,1/2+y,-z
-x,1/2+y,1/2+z
1/2+x,-y,1/2+z
loop_
_atom_site_type_symbol
_atom_site_label
_atom_site_fract_x
_atom_site_fract_y
_atom_site_fract_z
Si Si1 0.695770 0.000531 0.956572
Si Si2 0.959985 0.250000 0.250000
Si Si3 0.117849 0.002221 0.288370
Si Si4 0.750000 0.750000 0.250000
Si Si5 0.333689 0.606550 0.629097
O O1 0.750000 0.750000 0.954879
O O2 0.750000 0.250000 0.945936
O O3 0.629263 0.994250 0.884698
O O4 0.642412 0.000722 0.040428
O O5 0.904079 0.283675 0.331366
O O6 0.019968 0.488957 0.234751
O O7 0.156494 0.750000 0.250000
O O8 0.162124 0.250000 0.250000
O O9 0.685237 0.602045 0.304581
O O10 0.250000 0.750000 0.612466
#
# Coordination Sequence:
#
# PCOD8201909 Si02
#       5
#     8   4   8   2   8
#     4  11  24  42  66  96 126 161 222 272 311 372
#     4  10  23  40  63  90 140 164 214 252 325 396
#     4  10  24  43  62  95 124 176 211 252 330 370
#     4  12  18  36  68  90 130 152 224 240 342 356
#     4  11  22  38  64  98 121 169 211 270 315 377
#
# _framework density 21.005617000000001
#
# number of rings (size 3 to 8) (size 9 to 14) (size 15 to 20)
#    0.800    0.533    4.000    1.600    1.867    4.267 
#    0.000    1.333    0.000    0.000    0.000    0.000 
#    0.000    0.000    0.000    0.000    0.000    0.000 
#
# Total GULP energy -371659.507548 kJ/mol
# GULP energy per Si atom -12388.650252 kJ/mol
# Density = 2.095781 g / cm^3
# Si number density = 21.005617 Si / 1000 Ang^3
#
#
#
# Elastic Constant Matrix: (Units=GPa)
#
#
# Indices 1 2 3 4 5 6 
#
# 1 72.8076 26.0904 61.5988 0.0000 0.0000 0.0000
# 2 26.0904 135.9736 63.3340 0.0000 0.0000 0.0000
# 3 61.5988 63.3340 232.2329 0.0000 0.0000 0.0000
# 4 0.0000 0.0000 0.0000 34.5922 0.0000 0.0000
# 5 0.0000 0.0000 0.0000 0.0000 72.0762 0.0000
# 6 0.0000 0.0000 0.0000 0.0000 0.0000 3.4119
#
#
#
# Elastic Compliance Matrix: (Units=1/GPa)
#
#
# Indices 1 2 3 4 5 6 
#
# 1 0.017940 -0.001404 -0.004376 0.000000 0.000000 0.000000
# 2 -0.001404 0.008534 -0.001955 0.000000 0.000000 0.000000
# 3 -0.004376 -0.001955 0.006000 0.000000 0.000000 0.000000
# 4 0.000000 0.000000 0.000000 0.028908 0.000000 0.000000
# 5 0.000000 0.000000 0.000000 0.000000 0.013874 0.000000
# 6 0.000000 0.000000 0.000000 0.000000 0.000000 0.293095
#
#
# Mechanical properties :
#
#
# Convention : Reuss Voigt Hill
#
# Bulk Modulus (GPa) = 58.80775 82.56227 70.68501
# Shear Modulus (GPa) = 12.83732 41.34879 27.09306
#
# Velocity S-wave (km/s) = 2.47480 4.44155 3.59528
# Velocity P-wave (km/s) = 6.01857 8.10514 7.13851
#
# Compressibility (1/GPa) = 0.01700456
#
# Stress axis : x y z
#
# Youngs Moduli (GPa) = 55.74149 117.17253 166.67280
#
# Poissons Ratio (x) = 0.16454 0.72928
# Poissons Ratio (y) = 0.07828 0.32585
# Poissons Ratio (z) = 0.24390 0.22907
#
# Static dielectric constant tensor:
#      x y z
#    x 3.454550 0.000000 0.000000 
#    y 0.000000 4.114650 0.000000 
#    z 0.000000 0.000000 4.304290 
# 
# 
# High freq. dielectric constant tensor:
#      x y z
#    x 1.794120 0.000000 0.000000 
#    y 0.000000 1.822660 0.000000 
#    z 0.000000 0.000000 1.841740 
# 
# From -- ./inp_files/3011.got.cif
#   From: 2010.06.25/outbox.cif.g09.slc.cpg/sg48_2_cif.got.tgz:3011.got - 2010.06.26 18:06:46.
