data_PCOD8201953
_publ_section_title
;
Structure prediction by ZEFSAII (Michael W. Deem and Ramdas Pophale) SiO2 
 PCOD8201953
Probable space group: P N N N
;
_chemical_formula_sum "Si O2"
_cell_formula_units_Z 52
_cell_length_a 21.225235
_cell_length_b 5.111292
_cell_length_c 24.451106
_cell_angle_alpha 90.000000
_cell_angle_beta 90.000000
_cell_angle_gamma 90.000000
_cell_volume 2652.660729
_symmetry_space_group_name_H-M "P N N N"
_symmetry_group_IT_number 48
_space_group.IT_coordinate_system_code '2'
_symmetry_cell_setting 'orthorhombic'
loop_
_space_group_symop_operation_xyz
x,y,z
1/2-x,1/2-y,z
x,1/2-y,1/2-z
1/2-x,y,1/2-z
-x,-y,-z
1/2+x,1/2+y,-z
-x,1/2+y,1/2+z
1/2+x,-y,1/2+z
loop_
_atom_site_type_symbol
_atom_site_label
_atom_site_fract_x
_atom_site_fract_y
_atom_site_fract_z
Si Si1 0.883589 0.228015 0.514513
Si Si2 0.309283 0.375246 0.883138
Si Si3 0.750000 0.250000 0.029373
Si Si4 0.543742 0.221247 0.880089
Si Si5 0.919951 0.751805 0.450422
Si Si6 0.612375 0.019158 0.284567
Si Si7 0.028120 0.195977 0.190083
O O1 0.809171 0.162390 0.508160
O O2 0.897220 0.207450 0.578994
O O3 0.905048 0.502378 0.488433
O O4 0.927891 0.008450 0.486950
O O5 0.250000 0.250000 0.851432
O O6 0.276366 0.524368 0.932650
O O7 0.361207 0.183433 0.909956
O O8 0.346141 0.539683 0.838675
O O9 0.481896 0.300181 0.914701
O O10 0.563032 0.454578 0.838868
O O11 0.531858 0.954165 0.847162
O O12 0.613550 0.750000 0.250000
O O13 0.643133 0.250000 0.250000
O O14 0.542647 0.096383 0.301890
O O15 0.058306 0.250000 0.250000
#
# Coordination Sequence:
#
# PCOD8201953 Si02
#       7
#     8   8   4   8   8   8   8
#     4  11  23  39  59  89 120 153 198 239 296 360
#     4  11  23  39  61  77 119 166 210 242 301 341
#     4  10  24  40  59  84 123 160 194 244 294 366
#     4  12  22  38  63  90 116 154 193 248 301 354
#     4  11  22  37  58  87 116 156 198 248 293 349
#     4  11  25  41  60  82 116 159 213 262 292 337
#     4  11  23  39  62  88 120 153 193 248 304 353
#
# _framework density 19.602959999999999
#
# number of rings (size 3 to 8) (size 9 to 14) (size 15 to 20)
#    0.000    0.923    3.077    5.077    4.308    0.308 
#    0.000    0.000    0.000    0.000    0.000    3.231 
#    0.000    0.000    0.000    0.000    0.000    0.000 
#
# Total GULP energy -644443.973483 kJ/mol
# GULP energy per Si atom -12393.153336 kJ/mol
# Density = 1.955834 g / cm^3
# Si number density = 19.602960 Si / 1000 Ang^3
#
#
#
# Elastic Constant Matrix: (Units=GPa)
#
#
# Indices 1 2 3 4 5 6 
#
# 1 72.9347 19.1128 52.5465 0.0000 0.0000 0.0000
# 2 19.1128 128.0482 55.4829 0.0000 0.0000 0.0000
# 3 52.5465 55.4829 136.9547 0.0000 0.0000 0.0000
# 4 0.0000 0.0000 0.0000 36.7077 0.0000 0.0000
# 5 0.0000 0.0000 0.0000 0.0000 51.6591 0.0000
# 6 0.0000 0.0000 0.0000 0.0000 0.0000 10.3717
#
#
#
# Elastic Compliance Matrix: (Units=1/GPa)
#
#
# Indices 1 2 3 4 5 6 
#
# 1 0.018965 0.000391 -0.007435 0.000000 0.000000 0.000000
# 2 0.000391 0.009480 -0.003991 0.000000 0.000000 0.000000
# 3 -0.007435 -0.003991 0.011771 0.000000 0.000000 0.000000
# 4 0.000000 0.000000 0.000000 0.027242 0.000000 0.000000
# 5 0.000000 0.000000 0.000000 0.000000 0.019358 0.000000
# 6 0.000000 0.000000 0.000000 0.000000 0.000000 0.096416
#
#
# Mechanical properties :
#
#
# Convention : Reuss Voigt Hill
#
# Bulk Modulus (GPa) = 55.10558 65.80244 60.45401
# Shear Modulus (GPa) = 23.65743 33.80073 28.72908
#
# Velocity S-wave (km/s) = 3.47771 4.15693 3.83240
# Velocity P-wave (km/s) = 6.65566 7.52865 7.10558
#
# Compressibility (1/GPa) = 0.01814698
#
# Stress axis : x y z
#
# Youngs Moduli (GPa) = 52.72894 105.48137 84.95555
#
# Poissons Ratio (x) = -0.04121 0.63162
# Poissons Ratio (y) = -0.02060 0.33902
# Poissons Ratio (z) = 0.39202 0.42093
#
# Static dielectric constant tensor:
#      x y z
#    x 3.845810 0.000000 0.000000 
#    y 0.000000 3.645960 0.000000 
#    z 0.000000 0.000000 4.212100 
# 
# 
# High freq. dielectric constant tensor:
#      x y z
#    x 1.738750 0.000000 0.000000 
#    y 0.000000 1.775060 0.000000 
#    z 0.000000 0.000000 1.767980 
# 
# From -- ./inp_files/34815.got.cif
#   From: 2010.06.25/outbox.cif.g09.slc.cpg/sg48_18_cif.got.tgz:34815.got - 2010.06.26 18:06:46.
