data_PCOD8201332
_publ_section_title
;
Structure prediction by ZEFSAII (Michael W. Deem and Ramdas Pophale) SiO2 
 PCOD8201332
Probable space group: P N N N
;
_chemical_formula_sum "Si O2"
_cell_formula_units_Z 54
_cell_length_a 15.626496
_cell_length_b 11.390127
_cell_length_c 16.619071
_cell_angle_alpha 90.000000
_cell_angle_beta 90.000000
_cell_angle_gamma 90.000000
_cell_volume 2957.991453
_symmetry_space_group_name_H-M "P N N N"
_symmetry_group_IT_number 48
_space_group.IT_coordinate_system_code '2'
_symmetry_cell_setting 'orthorhombic'
loop_
_space_group_symop_operation_xyz
x,y,z
1/2-x,1/2-y,z
x,1/2-y,1/2-z
1/2-x,y,1/2-z
-x,-y,-z
1/2+x,1/2+y,-z
-x,1/2+y,1/2+z
1/2+x,-y,1/2+z
loop_
_atom_site_type_symbol
_atom_site_label
_atom_site_fract_x
_atom_site_fract_y
_atom_site_fract_z
Si Si1 0.750000 0.750000 0.418649
Si Si2 0.133079 0.674368 0.111477
Si Si3 0.502384 0.884105 0.226143
Si Si4 0.231187 0.616708 0.954272
Si Si5 0.125176 0.430986 0.522458
Si Si6 0.750000 0.250000 0.750000
Si Si7 0.681248 0.963290 0.181990
Si Si8 0.947081 0.078555 0.892545
O O1 0.817692 0.686325 0.477405
O O2 0.702774 0.658945 0.361007
O O3 0.191864 0.671311 0.191264
O O4 0.110324 0.807382 0.083073
O O5 0.046309 0.608470 0.139884
O O6 0.181263 0.606361 0.039749
O O7 0.520615 0.750000 0.250000
O O8 0.589753 0.955028 0.223656
O O9 0.444322 0.940309 0.296810
O O10 0.250000 0.750000 0.933880
O O11 0.171918 0.566798 0.883328
O O12 0.318391 0.541708 0.949241
O O13 0.091623 0.461618 0.433193
O O14 0.045707 0.406416 0.581113
O O15 0.750000 0.995241 0.250000
#
# Coordination Sequence:
#
# PCOD8201332 Si02
#       8
#     4   8   8   8   8   2   8   8
#     4  10  19  34  56  86 109 146 188 247 282 344
#     4  11  20  33  60  89 121 145 189 250 292 348
#     4  10  19  33  55  88 113 145 192 245 297 335
#     4  11  22  37  56  86 118 155 189 236 289 360
#     4  10  20  33  57  84 115 148 191 236 298 341
#     4  12  16  32  56  92 112 150 180 240 308 320
#     4  11  22  37  59  83 116 154 191 243 292 342
#     4  10  18  34  55  86 109 150 188 241 287 346
#
# _framework density 18.255631999999999
#
# number of rings (size 3 to 8) (size 9 to 14) (size 15 to 20)
#    0.000    1.481    4.444    4.667    0.000    0.889 
#    0.000    0.000    0.000    0.000    0.000    6.222 
#    0.000    0.000    0.000    0.000    0.000    0.000 
#
# Total GULP energy -669399.433264 kJ/mol
# GULP energy per Si atom -12396.285801 kJ/mol
# Density = 1.821408 g / cm^3
# Si number density = 18.255632 Si / 1000 Ang^3
#
#
#
# Elastic Constant Matrix: (Units=GPa)
#
#
# Indices 1 2 3 4 5 6 
#
# 1 83.5494 26.5101 30.9107 0.0000 0.0000 0.0000
# 2 26.5101 71.8210 44.3817 0.0000 0.0000 0.0000
# 3 30.9107 44.3817 110.9009 0.0000 0.0000 0.0000
# 4 0.0000 0.0000 0.0000 31.5020 0.0000 0.0000
# 5 0.0000 0.0000 0.0000 0.0000 32.4637 0.0000
# 6 0.0000 0.0000 0.0000 0.0000 0.0000 23.6185
#
#
#
# Elastic Compliance Matrix: (Units=1/GPa)
#
#
# Indices 1 2 3 4 5 6 
#
# 1 0.014038 -0.003672 -0.002443 0.000000 0.000000 0.000000
# 2 -0.003672 0.019458 -0.006764 0.000000 0.000000 0.000000
# 3 -0.002443 -0.006764 0.012405 0.000000 0.000000 0.000000
# 4 0.000000 0.000000 0.000000 0.031744 0.000000 0.000000
# 5 0.000000 0.000000 0.000000 0.000000 0.030804 0.000000
# 6 0.000000 0.000000 0.000000 0.000000 0.000000 0.042340
#
#
# Mechanical properties :
#
#
# Convention : Reuss Voigt Hill
#
# Bulk Modulus (GPa) = 49.64332 52.20847 50.92589
# Shear Modulus (GPa) = 27.28354 28.48142 27.88248
#
# Velocity S-wave (km/s) = 3.87011 3.95415 3.91235
# Velocity P-wave (km/s) = 6.87188 7.03617 6.95451
#
# Compressibility (1/GPa) = 0.02014370
#
# Stress axis : x y z
#
# Youngs Moduli (GPa) = 71.23540 51.39163 80.61367
#
# Poissons Ratio (x) = 0.18870 0.19696
# Poissons Ratio (y) = 0.26156 0.54525
# Poissons Ratio (z) = 0.17405 0.34760
#
# Static dielectric constant tensor:
#      x y z
#    x 3.617860 0.000000 0.000000 
#    y 0.000000 3.208750 0.000000 
#    z 0.000000 0.000000 3.545250 
# 
# 
# High freq. dielectric constant tensor:
#      x y z
#    x 1.724320 0.000000 0.000000 
#    y 0.000000 1.669740 0.000000 
#    z 0.000000 0.000000 1.709370 
# 
# From -- ./inp_files/32062.got.cif
#   From: 2010.06.25/outbox.cif.g09.slc.cpg/sg48_17_cif.got.tgz:32062.got - 2010.06.26 18:06:46.
