data_PCOD8201962
_publ_section_title
;
Structure prediction by ZEFSAII (Michael W. Deem and Ramdas Pophale) SiO2 
 PCOD8201962
Probable space group: P N N N
;
_chemical_formula_sum "Si O2"
_cell_formula_units_Z 48
_cell_length_a 9.012582
_cell_length_b 7.661390
_cell_length_c 27.580381
_cell_angle_alpha 90.000000
_cell_angle_beta 90.000000
_cell_angle_gamma 90.000000
_cell_volume 1904.395124
_symmetry_space_group_name_H-M "P N N N"
_symmetry_group_IT_number 48
_space_group.IT_coordinate_system_code '2'
_symmetry_cell_setting 'orthorhombic'
loop_
_space_group_symop_operation_xyz
x,y,z
1/2-x,1/2-y,z
x,1/2-y,1/2-z
1/2-x,y,1/2-z
-x,-y,-z
1/2+x,1/2+y,-z
-x,1/2+y,1/2+z
1/2+x,-y,1/2+z
loop_
_atom_site_type_symbol
_atom_site_label
_atom_site_fract_x
_atom_site_fract_y
_atom_site_fract_z
Si Si1 0.381071 0.889989 0.699149
Si Si2 0.580538 0.267895 0.545931
Si Si3 0.083656 0.625463 0.940053
Si Si4 0.096303 0.175587 0.351390
Si Si5 0.658561 0.925917 0.400489
Si Si6 0.906177 0.052954 0.732178
O O1 0.250000 0.750000 0.706661
O O2 0.539189 0.794878 0.692202
O O3 0.349251 0.025830 0.655893
O O4 0.429946 0.988395 0.748518
O O5 0.750000 0.250000 0.561643
O O6 0.522861 0.456641 0.561715
O O7 0.560348 0.258202 0.487717
O O8 0.497991 0.108853 0.573017
O O9 0.257343 0.575852 0.932371
O O10 0.026373 0.723790 0.892388
O O11 0.250000 0.250000 0.371507
O O12 0.095177 0.979714 0.327185
O O13 0.750000 0.750000 0.405402
O O14 0.898602 0.250000 0.750000
O O15 0.750000 0.964603 0.750000
#
# Coordination Sequence:
#
# PCOD8201962 Si02
#       6
#     8   8   8   8   8   8
#     4  12  26  47  76 108 144 195 242 300 378 436
#     4  10  24  42  73 102 142 189 249 296 363 434
#     4  10  24  46  67 104 144 192 237 301 365 438
#     4  12  26  46  74 106 150 189 246 300 370 440
#     4  10  24  47  70 102 151 188 241 308 365 441
#     4  11  27  49  76 110 150 193 245 307 371 450
#
# _framework density 25.204851999999999
#
# number of rings (size 3 to 8) (size 9 to 14) (size 15 to 20)
#    0.000    1.167    3.333    0.500    9.333    5.333 
#    0.000    0.833    0.000    0.000    0.000    0.000 
#    0.000    0.000    0.000    0.000    0.000    0.000 
#
# Total GULP energy -594693.886893 kJ/mol
# GULP energy per Si atom -12389.455977 kJ/mol
# Density = 2.514749 g / cm^3
# Si number density = 25.204852 Si / 1000 Ang^3
#
#
#
# Elastic Constant Matrix: (Units=GPa)
#
#
# Indices 1 2 3 4 5 6 
#
# 1 181.7501 28.1162 48.3313 0.0000 0.0000 0.0000
# 2 28.1162 47.4170 18.5754 0.0000 0.0000 0.0000
# 3 48.3313 18.5754 135.1832 0.0000 0.0000 0.0000
# 4 0.0000 0.0000 0.0000 35.7135 0.0000 0.0000
# 5 0.0000 0.0000 0.0000 0.0000 32.1360 0.0000
# 6 0.0000 0.0000 0.0000 0.0000 0.0000 32.5700
#
#
#
# Elastic Compliance Matrix: (Units=1/GPa)
#
#
# Indices 1 2 3 4 5 6 
#
# 1 0.006485 -0.003104 -0.001892 0.000000 0.000000 0.000000
# 2 -0.003104 0.023775 -0.002157 0.000000 0.000000 0.000000
# 3 -0.001892 -0.002157 0.008370 0.000000 0.000000 0.000000
# 4 0.000000 0.000000 0.000000 0.028001 0.000000 0.000000
# 5 0.000000 0.000000 0.000000 0.000000 0.031118 0.000000
# 6 0.000000 0.000000 0.000000 0.000000 0.000000 0.030703
#
#
# Mechanical properties :
#
#
# Convention : Reuss Voigt Hill
#
# Bulk Modulus (GPa) = 41.11189 61.59957 51.35573
# Shear Modulus (GPa) = 33.14165 38.03904 35.59035
#
# Velocity S-wave (km/s) = 3.63008 3.88905 3.76179
# Velocity P-wave (km/s) = 5.82378 6.68273 6.26799
#
# Compressibility (1/GPa) = 0.02432386
#
# Stress axis : x y z
#
# Youngs Moduli (GPa) = 154.19115 42.06053 119.47060
#
# Poissons Ratio (x) = 0.13057 0.22606
# Poissons Ratio (y) = 0.47866 0.25771
# Poissons Ratio (z) = 0.29175 0.09073
#
# Static dielectric constant tensor:
#      x y z
#    x 4.828850 0.000000 0.000000 
#    y 0.000000 4.602250 0.000000 
#    z 0.000000 0.000000 4.686810 
# 
# 
# High freq. dielectric constant tensor:
#      x y z
#    x 2.025070 0.000000 0.000000 
#    y 0.000000 2.002970 0.000000 
#    z 0.000000 0.000000 2.010120 
# 
# From -- ./inp_files/9486.got.cif
#   From: 2010.06.25/outbox.cif.g09.slc.cpg/sg48_5_cif.got.tgz:9486.got - 2010.06.26 18:06:46.
