data_PCOD8201532
_publ_section_title
;
Structure prediction by ZEFSAII (Michael W. Deem and Ramdas Pophale) SiO2 
 PCOD8201532
Probable space group: P N N N
;
_chemical_formula_sum "Si O2"
_cell_formula_units_Z 64
_cell_length_a 8.402534
_cell_length_b 32.182337
_cell_length_c 11.517792
_cell_angle_alpha 90.000000
_cell_angle_beta 90.000000
_cell_angle_gamma 90.000000
_cell_volume 3114.562771
_symmetry_space_group_name_H-M "P N N N"
_symmetry_group_IT_number 48
_space_group.IT_coordinate_system_code '2'
_symmetry_cell_setting 'orthorhombic'
loop_
_space_group_symop_operation_xyz
x,y,z
1/2-x,1/2-y,z
x,1/2-y,1/2-z
1/2-x,y,1/2-z
-x,-y,-z
1/2+x,1/2+y,-z
-x,1/2+y,1/2+z
1/2+x,-y,1/2+z
loop_
_atom_site_type_symbol
_atom_site_label
_atom_site_fract_x
_atom_site_fract_y
_atom_site_fract_z
Si Si1 0.939019 0.145487 0.240999
Si Si2 0.960859 0.673535 0.500153
Si Si3 0.064718 0.555355 0.769166
Si Si4 0.562230 0.744296 0.379282
Si Si5 0.561077 0.534883 0.249094
Si Si6 0.586004 0.837629 0.988148
Si Si7 0.444372 0.924036 0.027311
Si Si8 0.642504 0.103245 0.636526
O O1 0.750000 0.144110 0.250000
O O2 0.006058 0.098320 0.216823
O O3 0.020050 0.164729 0.356171
O O4 0.980224 0.173109 0.131642
O O5 0.007215 0.719455 0.459409
O O6 0.774810 0.664282 0.504005
O O7 0.049048 0.642793 0.411423
O O8 0.250000 0.555425 0.750000
O O9 0.000173 0.511951 0.715250
O O10 0.020333 0.555536 0.904638
O O11 0.750000 0.750000 0.373472
O O12 0.490457 0.750000 0.250000
O O13 0.513055 0.700173 0.435834
O O14 0.750000 0.538559 0.250000
O O15 0.499471 0.543195 0.378048
O O16 0.486786 0.567532 0.160408
O O17 0.535002 0.880492 0.047703
O O18 0.256073 0.914309 0.035727
O O19 0.750000 0.114011 0.750000
#
# Coordination Sequence:
#
# PCOD8201532 Si02
#       8
#     8   8   8   8   8   8   8   8
#     4  10  21  40  62  85 123 158 191 242 300 349
#     4  11  21  39  62  89 116 153 202 243 288 351
#     4   9  18  35  57  80 107 152 194 238 286 340
#     4   9  21  38  60  90 118 151 191 245 294 339
#     4  10  20  35  55  82 110 149 199 240 282 343
#     4  10  21  38  64  89 114 155 202 242 289 350
#     4  10  20  37  57  79 118 152 186 236 301 346
#     4  10  22  36  55  84 118 156 187 236 306 351
#
# _framework density 20.548631
#
# number of rings (size 3 to 8) (size 9 to 14) (size 15 to 20)
#    0.000    2.125    0.000    3.750    3.500    0.500 
#    0.000   19.375    0.000    0.000    0.000    0.000 
#    0.000    0.000    0.000    0.000    0.000    0.000 
#
# Total GULP energy -793257.231470 kJ/mol
# GULP energy per Si atom -12394.644242 kJ/mol
# Density = 2.050186 g / cm^3
# Si number density = 20.548631 Si / 1000 Ang^3
#
#
#
# Elastic Constant Matrix: (Units=GPa)
#
#
# Indices 1 2 3 4 5 6 
#
# 1 77.3055 31.4950 15.8164 0.0000 0.0000 0.0000
# 2 31.4950 125.9681 47.4784 0.0000 0.0000 0.0000
# 3 15.8164 47.4784 84.7922 0.0000 0.0000 0.0000
# 4 0.0000 0.0000 0.0000 37.8808 0.0000 0.0000
# 5 0.0000 0.0000 0.0000 0.0000 31.8890 0.0000
# 6 0.0000 0.0000 0.0000 0.0000 0.0000 41.1722
#
#
#
# Elastic Compliance Matrix: (Units=1/GPa)
#
#
# Indices 1 2 3 4 5 6 
#
# 1 0.014451 -0.003292 -0.000852 0.000000 0.000000 0.000000
# 2 -0.003292 0.010812 -0.005440 0.000000 0.000000 0.000000
# 3 -0.000852 -0.005440 0.014999 0.000000 0.000000 0.000000
# 4 0.000000 0.000000 0.000000 0.026399 0.000000 0.000000
# 5 0.000000 0.000000 0.000000 0.000000 0.031359 0.000000
# 6 0.000000 0.000000 0.000000 0.000000 0.000000 0.024288
#
#
# Mechanical properties :
#
#
# Convention : Reuss Voigt Hill
#
# Bulk Modulus (GPa) = 47.40843 53.07172 50.24008
# Shear Modulus (GPa) = 33.66848 35.07347 34.37097
#
# Velocity S-wave (km/s) = 4.05220 4.13589 4.09426
# Velocity P-wave (km/s) = 6.70934 6.97788 6.84493
#
# Compressibility (1/GPa) = 0.02109330
#
# Stress axis : x y z
#
# Youngs Moduli (GPa) = 69.19830 92.49035 66.67296
#
# Poissons Ratio (x) = 0.30447 0.05683
# Poissons Ratio (y) = 0.22779 0.36270
# Poissons Ratio (z) = 0.05898 0.50315
#
# Static dielectric constant tensor:
#      x y z
#    x 3.615570 0.000000 0.000000 
#    y 0.000000 4.090250 0.000000 
#    z 0.000000 0.000000 5.977400 
# 
# 
# High freq. dielectric constant tensor:
#      x y z
#    x 1.792180 0.000000 0.000000 
#    y 0.000000 1.813120 0.000000 
#    z 0.000000 0.000000 1.805840 
# 
# From -- ./inp_files/19057.got.cif
#   From: 2010.06.25/outbox.cif.g09.slc.cpg/sg48_10_cif.got.tgz:19057.got - 2010.06.26 18:06:46.
