data_PCOD8201368
_publ_section_title
;
Structure prediction by ZEFSAII (Michael W. Deem and Ramdas Pophale) SiO2 
 PCOD8201368
Probable space group: P N N N
;
_chemical_formula_sum "Si O2"
_cell_formula_units_Z 48
_cell_length_a 13.087319
_cell_length_b 22.806779
_cell_length_c 8.185495
_cell_angle_alpha 90.000000
_cell_angle_beta 90.000000
_cell_angle_gamma 90.000000
_cell_volume 2443.203209
_symmetry_space_group_name_H-M "P N N N"
_symmetry_group_IT_number 48
_space_group.IT_coordinate_system_code '2'
_symmetry_cell_setting 'orthorhombic'
loop_
_space_group_symop_operation_xyz
x,y,z
1/2-x,1/2-y,z
x,1/2-y,1/2-z
1/2-x,y,1/2-z
-x,-y,-z
1/2+x,1/2+y,-z
-x,1/2+y,1/2+z
1/2+x,-y,1/2+z
loop_
_atom_site_type_symbol
_atom_site_label
_atom_site_fract_x
_atom_site_fract_y
_atom_site_fract_z
Si Si1 0.743801 0.315667 0.503668
Si Si2 0.843426 0.072541 0.888263
Si Si3 0.538082 0.590181 0.912423
Si Si4 0.421971 0.814064 0.758634
Si Si5 0.086440 0.490352 0.131943
Si Si6 0.230051 0.041580 0.941255
O O1 0.750000 0.250000 0.584385
O O2 0.774252 0.368648 0.624164
O O3 0.826213 0.318143 0.360509
O O4 0.628055 0.327473 0.436624
O O5 0.850121 0.047371 0.700513
O O6 0.957466 0.089262 0.942258
O O7 0.804669 0.025260 0.022643
O O8 0.515591 0.643934 0.790031
O O9 0.532923 0.533476 0.795511
O O10 0.649175 0.590614 0.998272
O O11 0.471544 0.750000 0.750000
O O12 0.167425 0.446711 0.046917
O O13 0.000000 0.500000 0.000000
O O14 0.250000 0.049150 0.750000
#
# Coordination Sequence:
#
# PCOD8201368 Si02
#       6
#     8   8   8   8   8   8
#     4   8  15  27  48  79 111 147 181 217 271 326
#     4  10  19  31  53  79 111 142 181 218 271 340
#     4  10  19  33  52  81 107 139 177 222 267 332
#     4   8  15  28  49  80 109 142 181 222 264 326
#     4  11  22  35  50  76 107 145 185 225 277 331
#     4  11  22  35  52  73 108 142 183 226 277 324
#
# _framework density 19.646339999999999
#
# number of rings (size 3 to 8) (size 9 to 14) (size 15 to 20)
#    0.000    2.333    0.000    7.000    7.000    0.000 
#    0.000    0.000    0.000    4.000    0.000    4.667 
#    0.000    0.000    0.000    0.000    0.000    0.000 
#
# Total GULP energy -594636.720035 kJ/mol
# GULP energy per Si atom -12388.265001 kJ/mol
# Density = 1.960162 g / cm^3
# Si number density = 19.646340 Si / 1000 Ang^3
#
#
#
# Elastic Constant Matrix: (Units=GPa)
#
#
# Indices 1 2 3 4 5 6 
#
# 1 108.1168 47.9016 51.9407 0.0000 0.0000 0.0000
# 2 47.9016 115.4914 35.9477 0.0000 0.0000 0.0000
# 3 51.9407 35.9477 117.9383 0.0000 0.0000 0.0000
# 4 0.0000 0.0000 0.0000 12.7904 0.0000 0.0000
# 5 0.0000 0.0000 0.0000 0.0000 37.0819 0.0000
# 6 0.0000 0.0000 0.0000 0.0000 0.0000 20.6610
#
#
#
# Elastic Compliance Matrix: (Units=1/GPa)
#
#
# Indices 1 2 3 4 5 6 
#
# 1 0.013262 -0.004069 -0.004601 0.000000 0.000000 0.000000
# 2 -0.004069 0.010814 -0.001504 0.000000 0.000000 0.000000
# 3 -0.004601 -0.001504 0.010964 0.000000 0.000000 0.000000
# 4 0.000000 0.000000 0.000000 0.078184 0.000000 0.000000
# 5 0.000000 0.000000 0.000000 0.000000 0.026967 0.000000
# 6 0.000000 0.000000 0.000000 0.000000 0.000000 0.048400
#
#
# Mechanical properties :
#
#
# Convention : Reuss Voigt Hill
#
# Bulk Modulus (GPa) = 68.05985 68.12517 68.09251
# Shear Modulus (GPa) = 23.38239 27.82377 25.60308
#
# Velocity S-wave (km/s) = 3.45362 3.76737 3.61390
# Velocity P-wave (km/s) = 7.11485 7.32633 7.22136
#
# Compressibility (1/GPa) = 0.01469295
#
# Stress axis : x y z
#
# Youngs Moduli (GPa) = 75.40314 92.46901 91.21041
#
# Poissons Ratio (x) = 0.37622 0.41962
# Poissons Ratio (y) = 0.30679 0.13722
# Poissons Ratio (z) = 0.34690 0.13911
#
# Static dielectric constant tensor:
#      x y z
#    x 3.704340 0.000000 0.000000 
#    y 0.000000 3.945880 0.000000 
#    z 0.000000 0.000000 4.025850 
# 
# 
# High freq. dielectric constant tensor:
#      x y z
#    x 1.760420 0.000000 0.000000 
#    y 0.000000 1.736650 0.000000 
#    z 0.000000 0.000000 1.770760 
# 
# From -- ./inp_files/11223.got.cif
#   From: 2010.06.25/outbox.cif.g09.slc.cpg/sg48_6_cif.got.tgz:11223.got - 2010.06.26 18:06:46.
