data_PCOD8201056
_publ_section_title
;
Structure prediction by ZEFSAII (Michael W. Deem and Ramdas Pophale) SiO2 
 PCOD8201056
Probable space group: P M M M
;
_chemical_formula_sum "Si O2"
_cell_formula_units_Z 52
_cell_length_a 29.367682
_cell_length_b 12.963213
_cell_length_c 8.073022
_cell_angle_alpha 90.000000
_cell_angle_beta 90.000000
_cell_angle_gamma 90.000000
_cell_volume 3073.395577
_symmetry_space_group_name_H-M "P M M M"
_symmetry_group_IT_number 47
_symmetry_cell_setting 'orthorhombic'
loop_
_space_group_symop_operation_xyz
x,y,z
-x,-y,z
x,-y,-z
-x,y,-z
-x,-y,-z
x,y,-z
-x,y,z
x,-y,z
loop_
_atom_site_type_symbol
_atom_site_label
_atom_site_fract_x
_atom_site_fract_y
_atom_site_fract_z
Si Si1 0.619686 0.282937 0.193478
Si Si2 0.616678 0.500000 0.686909
Si Si3 0.721327 0.282657 0.806159
Si Si4 0.550823 0.115188 0.197105
Si Si5 0.948250 0.122977 0.500000
Si Si6 0.210064 0.885697 0.804377
Si Si7 0.275462 0.500000 0.686700
Si Si8 0.892302 0.877623 0.185427
O O1 0.598319 0.396221 0.226053
O O2 0.670471 0.272736 0.272371
O O3 0.586566 0.196938 0.273951
O O4 0.623191 0.263961 0.000000
O O5 0.599300 0.500000 0.500000
O O6 0.670597 0.500000 0.702544
O O7 0.753960 0.195316 0.726332
O O8 0.742824 0.395780 0.772663
O O9 0.718360 0.265247 0.000000
O O10 0.500000 0.140531 0.262946
O O11 0.565176 0.000000 0.253492
O O12 0.550858 0.122259 0.000000
O O13 0.924871 0.166322 0.668919
O O14 0.000000 0.162095 0.500000
O O15 0.945179 0.000000 0.500000
O O16 0.159112 0.846613 0.764491
O O17 0.218666 0.000000 0.728081
O O18 0.216264 0.892050 0.000000
O O19 0.258070 0.500000 0.500000
O O20 0.896068 0.000000 0.177087
O O21 0.905010 0.834323 0.000000
#
# Coordination Sequence:
#
# PCOD8201056 Si02
#       8
#     8   4   8   8   4   8   4   8
#     4   9  16  26  43  65  83 102 135 173 204 243
#     4   9  17  29  44  58  79 110 132 160 209 253
#     4   9  16  26  42  62  82 106 137 173 209 245
#     4   8  14  25  41  62  87 110 131 162 208 255
#     4   9  16  24  36  56  78 105 149 193 220 251
#     4   8  14  25  40  58  82 111 139 167 206 255
#     4   9  17  29  41  56  80 107 138 169 205 252
#     4   8  14  25  38  52  77 112 143 175 219 264
#
# _framework density 16.919398000000001
#
# number of rings (size 3 to 8) (size 9 to 14) (size 15 to 20)
#    0.000    3.462    0.000    1.846    0.000    2.769 
#    1.385    5.000    0.000    3.231    0.000    5.385 
#    0.000    0.000    0.000    1.385    0.000   12.308 
#
# Total GULP energy -644268.576767 kJ/mol
# GULP energy per Si atom -12389.780322 kJ/mol
# Density = 1.688089 g / cm^3
# Si number density = 16.919398 Si / 1000 Ang^3
#
#
#
# Elastic Constant Matrix: (Units=GPa)
#
#
# Indices 1 2 3 4 5 6 
#
# 1 102.1573 70.8756 31.1789 0.0000 0.0000 0.0000
# 2 70.8756 109.3300 19.6344 0.0000 0.0000 0.0000
# 3 31.1789 19.6344 43.6230 0.0000 0.0000 0.0000
# 4 0.0000 0.0000 0.0000 2.2746 0.0000 0.0000
# 5 0.0000 0.0000 0.0000 0.0000 9.9277 0.0000
# 6 0.0000 0.0000 0.0000 0.0000 0.0000 4.9997
#
#
#
# Elastic Compliance Matrix: (Units=1/GPa)
#
#
# Indices 1 2 3 4 5 6 
#
# 1 0.020955 -0.011853 -0.009643 0.000000 0.000000 0.000000
# 2 -0.011853 0.016655 0.000975 0.000000 0.000000 0.000000
# 3 -0.009643 0.000975 0.029377 0.000000 0.000000 0.000000
# 4 0.000000 0.000000 0.000000 0.439639 0.000000 0.000000
# 5 0.000000 0.000000 0.000000 0.000000 0.100728 0.000000
# 6 0.000000 0.000000 0.000000 0.000000 0.000000 0.200012
#
#
# Mechanical properties :
#
#
# Convention : Reuss Voigt Hill
#
# Bulk Modulus (GPa) = 38.54044 55.38755 46.96400
# Shear Modulus (GPa) = 5.83393 12.33516 9.08454
#
# Velocity S-wave (km/s) = 1.85891 2.70303 2.31969
# Velocity P-wave (km/s) = 5.23791 6.52296 5.91543
#
# Compressibility (1/GPa) = 0.02594677
#
# Stress axis : x y z
#
# Youngs Moduli (GPa) = 47.72061 60.04025 34.04076
#
# Poissons Ratio (x) = 0.71166 0.32824
# Poissons Ratio (y) = 0.56564 -0.03320
# Poissons Ratio (z) = 0.46015 -0.05856
#
# Static dielectric constant tensor:
#      x y z
#    x 3.287630 0.000000 0.000000 
#    y 0.000000 3.242580 0.000000 
#    z 0.000000 0.000000 3.008040 
# 
# 
# High freq. dielectric constant tensor:
#      x y z
#    x 1.627180 0.000000 0.000000 
#    y 0.000000 1.625700 0.000000 
#    z 0.000000 0.000000 1.632590 
# 
# From -- ./inp_files/14157.got.cif
#   From: 2010.03.12/outbox.cif.g09.slc.cpg/sg47_8_cif.got.tgz:14157.got - 2010.04.14 03:12:58.
