data_PCOD8201938
_publ_section_title
;
Structure prediction by ZEFSAII (Michael W. Deem and Ramdas Pophale) SiO2 
 PCOD8201938
Probable space group: P N N N
;
_chemical_formula_sum "Si O2"
_cell_formula_units_Z 58
_cell_length_a 11.224365
_cell_length_b 23.007887
_cell_length_c 9.989182
_cell_angle_alpha 90.000000
_cell_angle_beta 90.000000
_cell_angle_gamma 90.000000
_cell_volume 2579.695479
_symmetry_space_group_name_H-M "P N N N"
_symmetry_group_IT_number 48
_space_group.IT_coordinate_system_code '2'
_symmetry_cell_setting 'orthorhombic'
loop_
_space_group_symop_operation_xyz
x,y,z
1/2-x,1/2-y,z
x,1/2-y,1/2-z
1/2-x,y,1/2-z
-x,-y,-z
1/2+x,1/2+y,-z
-x,1/2+y,1/2+z
1/2+x,-y,1/2+z
loop_
_atom_site_type_symbol
_atom_site_label
_atom_site_fract_x
_atom_site_fract_y
_atom_site_fract_z
Si Si1 0.946072 0.419264 0.233583
Si Si2 0.732371 0.873877 0.404742
Si Si3 0.388208 0.025600 0.427122
Si Si4 0.750000 0.750000 0.750000
Si Si5 0.038738 0.220900 0.893236
Si Si6 0.247356 0.926634 0.960175
Si Si7 0.214346 0.687817 0.402069
Si Si8 0.574895 0.823127 0.922814
O O1 0.863928 0.450542 0.120236
O O2 0.863251 0.411478 0.363093
O O3 0.066824 0.454634 0.277998
O O4 0.984497 0.357062 0.174296
O O5 0.750000 0.892610 0.250000
O O6 0.659247 0.921481 0.485272
O O7 0.661686 0.812957 0.418259
O O8 0.862325 0.866620 0.470768
O O9 0.500000 0.000000 0.500000
O O10 0.287516 0.974874 0.427496
O O11 0.674919 0.794315 0.834954
O O12 0.046069 0.250000 0.750000
O O13 0.928078 0.176903 0.907375
O O14 0.009313 0.271854 0.998364
O O15 0.282447 0.865642 0.028281
O O16 0.250000 0.750000 0.467967
O O17 0.250000 0.688912 0.250000
#
# Coordination Sequence:
#
# PCOD8201938 Si02
#       8
#     8   8   8   2   8   8   8   8
#     4  10  23  44  69 100 138 178 234 288 346 424
#     4  12  25  41  70  98 131 181 238 284 351 418
#     4  10  23  45  70  96 134 183 232 293 348 415
#     4  12  24  36  66  90 140 184 216 270 358 402
#     4  12  22  41  65  98 135 178 229 287 347 419
#     4  10  23  46  73  98 136 188 232 285 356 424
#     4  11  23  42  66 100 137 175 225 287 345 414
#     4  12  25  42  65 101 142 178 224 292 344 416
#
# _framework density 22.483274000000002
#
# number of rings (size 3 to 8) (size 9 to 14) (size 15 to 20)
#    0.000    0.966    4.138    3.310    5.793    0.000 
#    2.483    1.379    0.000    0.000    0.000    0.000 
#    0.000    0.000    0.000    0.000    0.000    0.000 
#
# Total GULP energy -718900.540682 kJ/mol
# GULP energy per Si atom -12394.836908 kJ/mol
# Density = 2.243210 g / cm^3
# Si number density = 22.483274 Si / 1000 Ang^3
#
#
#
# Elastic Constant Matrix: (Units=GPa)
#
#
# Indices 1 2 3 4 5 6 
#
# 1 85.4322 36.9879 39.5809 0.0000 0.0000 0.0000
# 2 36.9879 122.0662 57.9244 0.0000 0.0000 0.0000
# 3 39.5809 57.9244 94.6755 0.0000 0.0000 0.0000
# 4 0.0000 0.0000 0.0000 25.6396 0.0000 0.0000
# 5 0.0000 0.0000 0.0000 0.0000 31.5845 0.0000
# 6 0.0000 0.0000 0.0000 0.0000 0.0000 -4.2248
#
#
#
# Elastic Compliance Matrix: (Units=1/GPa)
#
#
# Indices 1 2 3 4 5 6 
#
# 1 0.014925 -0.002200 -0.004893 0.000000 0.000000 0.000000
# 2 -0.002200 0.011868 -0.006341 0.000000 0.000000 0.000000
# 3 -0.004893 -0.006341 0.016488 0.000000 0.000000 0.000000
# 4 0.000000 0.000000 0.000000 0.039002 0.000000 0.000000
# 5 0.000000 0.000000 0.000000 0.000000 0.031661 0.000000
# 6 0.000000 0.000000 0.000000 0.000000 0.000000 -0.236700
#
#
# Mechanical properties :
#
#
# Convention : Reuss Voigt Hill
#
# Bulk Modulus (GPa) = 60.93526 63.46227 62.19876
# Shear Modulus (GPa) = -55.30029 21.77859 -16.76085
#
# Velocity S-wave (km/s) = -4.96484 3.11570 -2.73331
# Velocity P-wave (km/s) = 2.38847 6.42115 4.21464
#
# Compressibility (1/GPa) = 0.01641086
#
# Stress axis : x y z
#
# Youngs Moduli (GPa) = 67.00173 84.25902 60.65049
#
# Poissons Ratio (x) = 0.18540 0.29679
# Poissons Ratio (y) = 0.14743 0.38460
# Poissons Ratio (z) = 0.32787 0.53431
#
# Static dielectric constant tensor:
#      x y z
#    x 4.168790 0.000000 0.000000 
#    y 0.000000 4.287390 0.000000 
#    z 0.000000 0.000000 4.369480 
# 
# 
# High freq. dielectric constant tensor:
#      x y z
#    x 1.894330 0.000000 0.000000 
#    y 0.000000 1.879560 0.000000 
#    z 0.000000 0.000000 1.882800 
# 
# From -- ./inp_files/11475.got.cif
#   From: 2010.06.25/outbox.cif.g09.slc.cpg/sg48_6_cif.got.tgz:11475.got - 2010.06.26 18:06:46.
