data_PCOD8201022
_publ_section_title
;
Structure prediction by ZEFSAII (Michael W. Deem and Ramdas Pophale) SiO2 
 PCOD8201022
Probable space group: P M M M
;
_chemical_formula_sum "Si O2"
_cell_formula_units_Z 40
_cell_length_a 9.612859
_cell_length_b 13.733110
_cell_length_c 18.739684
_cell_angle_alpha 90.000000
_cell_angle_beta 90.000000
_cell_angle_gamma 90.000000
_cell_volume 2473.909078
_symmetry_space_group_name_H-M "P M M M"
_symmetry_group_IT_number 47
_symmetry_cell_setting 'orthorhombic'
loop_
_space_group_symop_operation_xyz
x,y,z
-x,-y,z
x,-y,-z
-x,y,-z
-x,-y,-z
x,y,-z
-x,y,z
x,-y,z
loop_
_atom_site_type_symbol
_atom_site_label
_atom_site_fract_x
_atom_site_fract_y
_atom_site_fract_z
Si Si1 0.160000 0.888874 0.849489
Si Si2 0.659543 0.734863 0.079912
Si Si3 0.834942 0.891329 0.579462
Si Si4 0.662342 0.611818 0.785101
Si Si5 0.838560 0.766354 0.710019
O O1 0.249349 0.830841 0.907417
O O2 0.184617 0.846383 0.770954
O O3 0.000000 0.879906 0.872285
O O4 0.210169 0.000000 0.848987
O O5 0.500000 0.765817 0.090058
O O6 0.699830 0.650068 0.135577
O O7 0.687432 0.695272 0.000000
O O8 0.789451 0.857683 0.500000
O O9 0.779248 0.813684 0.637037
O O10 0.000000 0.895832 0.585576
O O11 0.776015 0.000000 0.595026
O O12 0.500000 0.625553 0.768316
O O13 0.707672 0.500000 0.781289
O O14 0.749704 0.669926 0.725887
O O15 0.000000 0.736296 0.703712
#
# Coordination Sequence:
#
# PCOD8201022 Si02
#       5
#     8   8   8   8   8
#     4   9  17  28  42  61  86 116 145 170 201 246
#     4   9  18  31  45  62  83 106 136 176 218 256
#     4   8  13  22  40  68  97 120 142 170 205 244
#     4   9  18  32  48  64  82 107 140 177 218 261
#     4   9  16  27  45  67  89 112 141 177 211 245
#
# _framework density 16.168742999999999
#
# number of rings (size 3 to 8) (size 9 to 14) (size 15 to 20)
#    0.000    3.200    0.000    1.200    0.000    4.400 
#    0.000    4.000    0.000    3.000    0.000   11.200 
#    0.000    0.000    0.000    0.000    0.000    0.000 
#
# Total GULP energy -495898.140766 kJ/mol
# GULP energy per Si atom -12397.453519 kJ/mol
# Density = 1.613194 g / cm^3
# Si number density = 16.168743 Si / 1000 Ang^3
#
#
#
# Elastic Constant Matrix: (Units=GPa)
#
#
# Indices 1 2 3 4 5 6 
#
# 1 40.0746 47.0806 35.7071 0.0000 0.0000 0.0000
# 2 47.0806 135.6094 65.0677 0.0000 0.0000 0.0000
# 3 35.7071 65.0677 114.1202 0.0000 0.0000 0.0000
# 4 0.0000 0.0000 0.0000 20.3262 0.0000 0.0000
# 5 0.0000 0.0000 0.0000 0.0000 17.1132 0.0000
# 6 0.0000 0.0000 0.0000 0.0000 0.0000 25.5707
#
#
#
# Elastic Compliance Matrix: (Units=1/GPa)
#
#
# Indices 1 2 3 4 5 6 
#
# 1 0.046181 -0.012527 -0.007307 0.000000 0.000000 0.000000
# 2 -0.012527 0.013549 -0.003806 0.000000 0.000000 0.000000
# 3 -0.007307 -0.003806 0.013219 0.000000 0.000000 0.000000
# 4 0.000000 0.000000 0.000000 0.049198 0.000000 0.000000
# 5 0.000000 0.000000 0.000000 0.000000 0.058434 0.000000
# 6 0.000000 0.000000 0.000000 0.000000 0.000000 0.039107
#
#
# Mechanical properties :
#
#
# Convention : Reuss Voigt Hill
#
# Bulk Modulus (GPa) = 38.95657 65.05721 52.00689
# Shear Modulus (GPa) = 18.14715 22.06527 20.10621
#
# Velocity S-wave (km/s) = 3.35380 3.69817 3.53019
# Velocity P-wave (km/s) = 6.25646 7.65239 6.98936
#
# Compressibility (1/GPa) = 0.02566961
#
# Stress axis : x y z
#
# Youngs Moduli (GPa) = 21.65380 73.80447 75.64884
#
# Poissons Ratio (x) = 0.92455 0.55278
# Poissons Ratio (y) = 0.27126 0.28791
# Poissons Ratio (z) = 0.15823 0.28089
#
# Static dielectric constant tensor:
#      x y z
#    x 2.892080 0.000000 0.000000 
#    y 0.000000 3.024090 0.000000 
#    z 0.000000 0.000000 3.176670 
# 
# 
# High freq. dielectric constant tensor:
#      x y z
#    x 1.598770 0.000000 0.000000 
#    y 0.000000 1.611230 0.000000 
#    z 0.000000 0.000000 1.618720 
# 
# From -- ./inp_files/5683.got.cif
#   From: 2010.03.12/outbox.cif.g09.slc.cpg/sg47_3_cif.got.tgz:5683.got - 2010.04.14 03:12:58.
