data_PCOD8201282
_publ_section_title
;
Structure prediction by ZEFSAII (Michael W. Deem and Ramdas Pophale) SiO2 
 PCOD8201282
Probable space group: P N N N
;
_chemical_formula_sum "Si O2"
_cell_formula_units_Z 52
_cell_length_a 13.705118
_cell_length_b 8.394217
_cell_length_c 23.566596
_cell_angle_alpha 90.000000
_cell_angle_beta 90.000000
_cell_angle_gamma 90.000000
_cell_volume 2711.189213
_symmetry_space_group_name_H-M "P N N N"
_symmetry_group_IT_number 48
_space_group.IT_coordinate_system_code '2'
_symmetry_cell_setting 'orthorhombic'
loop_
_space_group_symop_operation_xyz
x,y,z
1/2-x,1/2-y,z
x,1/2-y,1/2-z
1/2-x,y,1/2-z
-x,-y,-z
1/2+x,1/2+y,-z
-x,1/2+y,1/2+z
1/2+x,-y,1/2+z
loop_
_atom_site_type_symbol
_atom_site_label
_atom_site_fract_x
_atom_site_fract_y
_atom_site_fract_z
Si Si1 0.895977 0.989226 0.938204
Si Si2 0.414711 0.250000 0.750000
Si Si3 0.703643 0.454339 0.128319
Si Si4 0.120499 0.063893 0.553190
Si Si5 0.527211 0.694849 0.130914
Si Si6 0.250000 0.250000 0.465969
Si Si7 0.250000 0.996789 0.750000
Si Si8 0.414773 0.788586 0.538944
O O1 0.932552 0.088314 0.884020
O O2 0.799278 0.884710 0.925874
O O3 0.865036 0.112079 0.988046
O O4 0.978864 0.863273 0.955333
O O5 0.486706 0.254621 0.804048
O O6 0.346653 0.098830 0.760416
O O7 0.799091 0.523146 0.099586
O O8 0.628000 0.599304 0.127126
O O9 0.729341 0.395918 0.192535
O O10 0.654855 0.306886 0.094549
O O11 0.034401 0.160819 0.585529
O O12 0.165297 0.172583 0.504028
O O13 0.075725 0.900102 0.526856
#
# Coordination Sequence:
#
# PCOD8201282 Si02
#       8
#     8   4   8   8   8   4   4   8
#     4  10  22  38  50  75 103 146 181 235 270 329
#     4   9  16  28  50  78 102 149 178 218 257 324
#     4  10  17  31  49  76 110 155 184 217 251 326
#     4  12  19  32  53  78 109 150 176 216 268 332
#     4  10  19  33  54  75 111 143 186 219 272 323
#     4  12  22  34  54  73 108 143 188 224 282 320
#     4   9  16  26  51  74 108 150 194 204 250 316
#     4  10  21  35  51  73 113 146 185 219 278 319
#
# _framework density 19.179773999999998
#
# number of rings (size 3 to 8) (size 9 to 14) (size 15 to 20)
#    0.000    1.692    4.615    2.308    0.000    2.462 
#    0.000    1.538    0.000    0.000    0.000    0.000 
#    0.000   19.692    0.000    0.000    0.000    0.000 
#
# Total GULP energy -644514.307150 kJ/mol
# GULP energy per Si atom -12394.505907 kJ/mol
# Density = 1.913612 g / cm^3
# Si number density = 19.179774 Si / 1000 Ang^3
#
#
#
# Elastic Constant Matrix: (Units=GPa)
#
#
# Indices 1 2 3 4 5 6 
#
# 1 53.0103 37.5678 46.5985 0.0000 0.0000 0.0000
# 2 37.5678 113.6605 45.0643 0.0000 0.0000 0.0000
# 3 46.5985 45.0643 98.9491 0.0000 0.0000 0.0000
# 4 0.0000 0.0000 0.0000 10.4111 0.0000 0.0000
# 5 0.0000 0.0000 0.0000 0.0000 17.3384 0.0000
# 6 0.0000 0.0000 0.0000 0.0000 0.0000 27.5922
#
#
#
# Elastic Compliance Matrix: (Units=1/GPa)
#
#
# Indices 1 2 3 4 5 6 
#
# 1 0.035465 -0.006224 -0.013867 0.000000 0.000000 0.000000
# 2 -0.006224 0.011829 -0.002456 0.000000 0.000000 0.000000
# 3 -0.013867 -0.002456 0.017755 0.000000 0.000000 0.000000
# 4 0.000000 0.000000 0.000000 0.096052 0.000000 0.000000
# 5 0.000000 0.000000 0.000000 0.000000 0.057675 0.000000
# 6 0.000000 0.000000 0.000000 0.000000 0.000000 0.036242
#
#
# Mechanical properties :
#
#
# Convention : Reuss Voigt Hill
#
# Bulk Modulus (GPa) = 50.11332 58.23124 54.17228
# Shear Modulus (GPa) = 16.29914 20.16097 18.23005
#
# Velocity S-wave (km/s) = 2.91831 3.24567 3.08634
# Velocity P-wave (km/s) = 6.12702 6.66877 6.40363
#
# Compressibility (1/GPa) = 0.01995477
#
# Stress axis : x y z
#
# Youngs Moduli (GPa) = 28.19691 84.53651 56.32133
#
# Poissons Ratio (x) = 0.52616 0.78101
# Poissons Ratio (y) = 0.17550 0.13834
# Poissons Ratio (z) = 0.39101 0.20764
#
# Static dielectric constant tensor:
#      x y z
#    x 3.243500 0.000000 0.000000 
#    y 0.000000 3.703080 0.000000 
#    z 0.000000 0.000000 3.583160 
# 
# 
# High freq. dielectric constant tensor:
#      x y z
#    x 1.714810 0.000000 0.000000 
#    y 0.000000 1.757650 0.000000 
#    z 0.000000 0.000000 1.723720 
# 
# From -- ./inp_files/15998.got.cif
#   From: 2010.06.25/outbox.cif.g09.slc.cpg/sg48_8_cif.got.tgz:15998.got - 2010.06.26 18:06:46.
