data_PCOD8201292
_publ_section_title
;
Structure prediction by ZEFSAII (Michael W. Deem and Ramdas Pophale) SiO2 
 PCOD8201292
Probable space group: P N N N
;
_chemical_formula_sum "Si O2"
_cell_formula_units_Z 48
_cell_length_a 14.261042
_cell_length_b 9.091026
_cell_length_c 18.790988
_cell_angle_alpha 90.000000
_cell_angle_beta 90.000000
_cell_angle_gamma 90.000000
_cell_volume 2436.204685
_symmetry_space_group_name_H-M "P N N N"
_symmetry_group_IT_number 48
_space_group.IT_coordinate_system_code '2'
_symmetry_cell_setting 'orthorhombic'
loop_
_space_group_symop_operation_xyz
x,y,z
1/2-x,1/2-y,z
x,1/2-y,1/2-z
1/2-x,y,1/2-z
-x,-y,-z
1/2+x,1/2+y,-z
-x,1/2+y,1/2+z
1/2+x,-y,1/2+z
loop_
_atom_site_type_symbol
_atom_site_label
_atom_site_fract_x
_atom_site_fract_y
_atom_site_fract_z
Si Si1 0.608603 0.250000 0.750000
Si Si2 0.553756 0.953976 0.232987
Si Si3 0.034756 0.250000 0.250000
Si Si4 0.473968 0.336691 0.983373
Si Si5 0.857139 0.717112 0.353239
Si Si6 0.350874 0.170419 0.388683
Si Si7 0.841395 0.179602 0.903603
O O1 0.547259 0.103399 0.742388
O O2 0.664608 0.248871 0.824069
O O3 0.627986 0.909412 0.294093
O O4 0.586574 0.869394 0.161946
O O5 0.539265 0.126891 0.222916
O O6 0.103236 0.302672 0.312202
O O7 0.390277 0.345047 0.927479
O O8 0.567363 0.262584 0.948503
O O9 0.500000 0.500000 0.000000
O O10 0.426956 0.264059 0.053988
O O11 0.750000 0.750000 0.358594
O O12 0.250000 0.250000 0.394705
O O13 0.335670 0.996956 0.401439
O O14 0.750000 0.250000 0.942220
#
# Coordination Sequence:
#
# PCOD8201292 Si02
#       7
#     4   8   4   8   8   8   8
#     4  10  17  36  61  92 110 152 201 244 293 352
#     4  10  19  35  61  90 118 158 199 244 310 351
#     4  12  23  40  59  86 130 162 189 256 323 370
#     4  10  20  40  60  85 119 158 199 253 304 356
#     4  10  19  38  66  89 117 161 215 252 291 368
#     4  11  25  39  57  88 122 160 193 244 315 370
#     4  11  22  38  65  88 118 155 206 254 294 359
#
# _framework density 19.702779
#
# number of rings (size 3 to 8) (size 9 to 14) (size 15 to 20)
#    0.000    1.667    5.000    3.000    2.333    1.333 
#    0.000    8.333    0.000    0.000    0.000    0.000 
#    0.000    0.000    0.000    0.000    0.000    0.000 
#
# Total GULP energy -594644.926376 kJ/mol
# GULP energy per Si atom -12388.435966 kJ/mol
# Density = 1.965793 g / cm^3
# Si number density = 19.702779 Si / 1000 Ang^3
#
#
#
# Elastic Constant Matrix: (Units=GPa)
#
#
# Indices 1 2 3 4 5 6 
#
# 1 150.4025 43.3778 50.4426 0.0000 0.0000 0.0000
# 2 43.3778 99.3137 22.0080 0.0000 0.0000 0.0000
# 3 50.4426 22.0080 110.8559 0.0000 0.0000 0.0000
# 4 0.0000 0.0000 0.0000 18.9773 0.0000 0.0000
# 5 0.0000 0.0000 0.0000 0.0000 38.3224 0.0000
# 6 0.0000 0.0000 0.0000 0.0000 0.0000 26.8867
#
#
#
# Elastic Compliance Matrix: (Units=1/GPa)
#
#
# Indices 1 2 3 4 5 6 
#
# 1 0.008641 -0.003036 -0.003329 0.000000 0.000000 0.000000
# 2 -0.003036 0.011599 -0.000921 0.000000 0.000000 0.000000
# 3 -0.003329 -0.000921 0.010718 0.000000 0.000000 0.000000
# 4 0.000000 0.000000 0.000000 0.052695 0.000000 0.000000
# 5 0.000000 0.000000 0.000000 0.000000 0.026094 0.000000
# 6 0.000000 0.000000 0.000000 0.000000 0.000000 0.037193
#
#
# Mechanical properties :
#
#
# Convention : Reuss Voigt Hill
#
# Bulk Modulus (GPa) = 61.02941 65.80322 63.41631
# Shear Modulus (GPa) = 29.94435 33.15353 31.54894
#
# Velocity S-wave (km/s) = 3.90269 4.10650 4.00589
# Velocity P-wave (km/s) = 7.16591 7.48030 7.32479
#
# Compressibility (1/GPa) = 0.01638554
#
# Stress axis : x y z
#
# Youngs Moduli (GPa) = 115.72579 86.21066 93.29723
#
# Poissons Ratio (x) = 0.26178 0.31060
# Poissons Ratio (y) = 0.35140 0.08594
# Poissons Ratio (z) = 0.38527 0.07941
#
# Static dielectric constant tensor:
#      x y z
#    x 3.867660 0.000000 0.000000 
#    y 0.000000 3.378400 0.000000 
#    z 0.000000 0.000000 3.766560 
# 
# 
# High freq. dielectric constant tensor:
#      x y z
#    x 1.779410 0.000000 0.000000 
#    y 0.000000 1.742820 0.000000 
#    z 0.000000 0.000000 1.767500 
# 
# From -- ./inp_files/31588.got.cif
#   From: 2010.06.25/outbox.cif.g09.slc.cpg/sg48_16_cif.got.tgz:31588.got - 2010.06.26 18:06:46.
