data_PCOD8201417
_publ_section_title
;
Structure prediction by ZEFSAII (Michael W. Deem and Ramdas Pophale) SiO2 
 PCOD8201417
Probable space group: P N N N
;
_chemical_formula_sum "Si O2"
_cell_formula_units_Z 64
_cell_length_a 24.169078
_cell_length_b 9.094964
_cell_length_c 14.702987
_cell_angle_alpha 90.000000
_cell_angle_beta 90.000000
_cell_angle_gamma 90.000000
_cell_volume 3231.964940
_symmetry_space_group_name_H-M "P N N N"
_symmetry_group_IT_number 48
_space_group.IT_coordinate_system_code '2'
_symmetry_cell_setting 'orthorhombic'
loop_
_space_group_symop_operation_xyz
x,y,z
1/2-x,1/2-y,z
x,1/2-y,1/2-z
1/2-x,y,1/2-z
-x,-y,-z
1/2+x,1/2+y,-z
-x,1/2+y,1/2+z
1/2+x,-y,1/2+z
loop_
_atom_site_type_symbol
_atom_site_label
_atom_site_fract_x
_atom_site_fract_y
_atom_site_fract_z
Si Si1 0.460589 0.583010 0.432631
Si Si2 0.807234 0.655428 0.359680
Si Si3 0.249883 0.923042 0.149053
Si Si4 0.356112 0.440330 0.681560
Si Si5 0.977618 0.577075 0.241652
Si Si6 0.843542 0.053006 0.977684
Si Si7 0.658904 0.398762 0.502788
Si Si8 0.534625 0.071172 0.575707
O O1 0.500000 0.500000 0.500000
O O2 0.477065 0.529761 0.332583
O O3 0.398395 0.541181 0.457255
O O4 0.468703 0.756004 0.436604
O O5 0.750000 0.750000 0.368356
O O6 0.857720 0.773648 0.358151
O O7 0.811755 0.561181 0.265414
O O8 0.819616 0.545750 0.441336
O O9 0.250000 0.750000 0.161314
O O10 0.250000 0.995776 0.250000
O O11 0.192922 0.981665 0.109603
O O12 0.297547 0.964621 0.075750
O O13 0.417144 0.490827 0.716542
O O14 0.332812 0.543925 0.600620
O O15 0.970059 0.750000 0.250000
O O16 0.005732 0.513623 0.332227
O O17 0.903703 0.011784 0.940629
O O18 0.838085 0.223177 0.006316
O O19 0.500000 0.000000 0.500000
#
# Coordination Sequence:
#
# PCOD8201417 Si02
#       8
#     8   8   8   8   8   8   8   8
#     4  10  20  35  57  86 118 155 200 237 291 353
#     4  11  23  38  60  87 115 155 206 244 292 367
#     4   9  19  36  59  81 111 146 190 241 296 351
#     4  11  20  35  61  85 117 157 198 237 292 355
#     4  10  19  34  56  83 117 159 201 241 284 356
#     4  10  22  39  58  89 118 151 197 248 303 348
#     4  10  21  36  59  90 118 153 191 249 303 350
#     4  10  22  36  57  84 119 157 198 244 293 348
#
# _framework density 19.802195999999999
#
# number of rings (size 3 to 8) (size 9 to 14) (size 15 to 20)
#    0.000    1.875    2.500    2.250    3.500    0.500 
#    0.000    0.625    0.000    8.625    0.000    0.000 
#    0.000    0.000    0.000    0.000    0.000    0.000 
#
# Total GULP energy -792871.787631 kJ/mol
# GULP energy per Si atom -12388.621682 kJ/mol
# Density = 1.975713 g / cm^3
# Si number density = 19.802196 Si / 1000 Ang^3
#
#
#
# Elastic Constant Matrix: (Units=GPa)
#
#
# Indices 1 2 3 4 5 6 
#
# 1 167.5164 33.7326 92.8675 0.0000 0.0000 0.0000
# 2 33.7326 27.5232 47.8476 0.0000 0.0000 0.0000
# 3 92.8675 47.8476 201.2366 0.0000 0.0000 0.0000
# 4 0.0000 0.0000 0.0000 23.9264 0.0000 0.0000
# 5 0.0000 0.0000 0.0000 0.0000 52.6746 0.0000
# 6 0.0000 0.0000 0.0000 0.0000 0.0000 25.5685
#
#
#
# Elastic Compliance Matrix: (Units=1/GPa)
#
#
# Indices 1 2 3 4 5 6 
#
# 1 0.008602 -0.006207 -0.002494 0.000000 0.000000 0.000000
# 2 -0.006207 0.066412 -0.012926 0.000000 0.000000 0.000000
# 3 -0.002494 -0.012926 0.009194 0.000000 0.000000 0.000000
# 4 0.000000 0.000000 0.000000 0.041795 0.000000 0.000000
# 5 0.000000 0.000000 0.000000 0.000000 0.018984 0.000000
# 6 0.000000 0.000000 0.000000 0.000000 0.000000 0.039111
#
#
# Mechanical properties :
#
#
# Convention : Reuss Voigt Hill
#
# Bulk Modulus (GPa) = 24.41811 82.79685 53.60748
# Shear Modulus (GPa) = 20.74662 35.22248 27.98455
#
# Velocity S-wave (km/s) = 3.24032 4.22206 3.76334
# Velocity P-wave (km/s) = 5.13394 8.10373 6.78335
#
# Compressibility (1/GPa) = 0.04095321
#
# Stress axis : x y z
#
# Youngs Moduli (GPa) = 116.25144 15.05749 108.77215
#
# Poissons Ratio (x) = 0.09347 0.27125
# Poissons Ratio (y) = 0.72162 1.40600
# Poissons Ratio (z) = 0.28991 0.19463
#
# Static dielectric constant tensor:
#      x y z
#    x 3.789870 0.000000 0.000000 
#    y 0.000000 3.298930 0.000000 
#    z 0.000000 0.000000 3.886390 
# 
# 
# High freq. dielectric constant tensor:
#      x y z
#    x 1.787500 0.000000 0.000000 
#    y 0.000000 1.731980 0.000000 
#    z 0.000000 0.000000 1.789070 
# 
# From -- ./inp_files/28661.got.cif
#   From: 2010.06.25/outbox.cif.g09.slc.cpg/sg48_15_cif.got.tgz:28661.got - 2010.06.26 18:06:46.
