data_PCOD8201634
_publ_section_title
;
Structure prediction by ZEFSAII (Michael W. Deem and Ramdas Pophale) SiO2 
 PCOD8201634
Probable space group: P N N N
;
_chemical_formula_sum "Si O2"
_cell_formula_units_Z 56
_cell_length_a 11.042114
_cell_length_b 15.085072
_cell_length_c 15.820169
_cell_angle_alpha 90.000000
_cell_angle_beta 90.000000
_cell_angle_gamma 90.000000
_cell_volume 2635.182711
_symmetry_space_group_name_H-M "P N N N"
_symmetry_group_IT_number 48
_space_group.IT_coordinate_system_code '2'
_symmetry_cell_setting 'orthorhombic'
loop_
_space_group_symop_operation_xyz
x,y,z
1/2-x,1/2-y,z
x,1/2-y,1/2-z
1/2-x,y,1/2-z
-x,-y,-z
1/2+x,1/2+y,-z
-x,1/2+y,1/2+z
1/2+x,-y,1/2+z
loop_
_atom_site_type_symbol
_atom_site_label
_atom_site_fract_x
_atom_site_fract_y
_atom_site_fract_z
Si Si1 0.696420 0.582649 0.085350
Si Si2 0.622985 0.833021 0.703155
Si Si3 0.404753 0.624577 0.516324
Si Si4 0.846548 0.423412 0.530612
Si Si5 0.444223 0.303862 0.022792
Si Si6 0.017655 0.979352 0.191546
Si Si7 0.953574 0.967299 0.375607
O O1 0.617028 0.537850 0.158249
O O2 0.832815 0.592738 0.117868
O O3 0.690228 0.520676 0.001788
O O4 0.645701 0.679550 0.057068
O O5 0.558851 0.750000 0.750000
O O6 0.750000 0.853618 0.750000
O O7 0.639533 0.804103 0.605779
O O8 0.535640 0.916211 0.703363
O O9 0.264890 0.643254 0.489997
O O10 0.481562 0.713709 0.515459
O O11 0.448860 0.558915 0.444140
O O12 0.417907 0.571393 0.606102
O O13 0.881315 0.432896 0.630895
O O14 0.961790 0.386841 0.478672
O O15 0.019216 0.944448 0.287381
#
# Coordination Sequence:
#
# PCOD8201634 Si02
#       7
#     8   8   8   8   8   8   8
#     4  10  20  39  64  87 120 173 212 247 318 381
#     4  11  24  35  58  98 128 157 195 257 328 375
#     4  10  23  39  61  92 127 168 209 260 325 374
#     4  10  20  39  65  90 118 172 215 254 314 377
#     4  11  20  41  63  88 125 162 213 259 311 388
#     4  11  20  39  63  89 124 164 217 262 308 379
#     4  10  23  37  58  91 129 164 208 263 318 379
#
# _framework density 21.250897999999999
#
# number of rings (size 3 to 8) (size 9 to 14) (size 15 to 20)
#    0.000    1.571    2.857    2.571    2.000    4.000 
#    0.000    2.857    0.000    6.857    0.000    0.000 
#    0.000    0.000    0.000    0.000    0.000    0.000 
#
# Total GULP energy -693941.687730 kJ/mol
# GULP energy per Si atom -12391.815852 kJ/mol
# Density = 2.120253 g / cm^3
# Si number density = 21.250898 Si / 1000 Ang^3
#
#
#
# Elastic Constant Matrix: (Units=GPa)
#
#
# Indices 1 2 3 4 5 6 
#
# 1 58.6195 21.3178 35.9819 0.0000 0.0000 0.0000
# 2 21.3178 57.9926 27.8684 0.0000 0.0000 0.0000
# 3 35.9819 27.8684 137.8262 0.0000 0.0000 0.0000
# 4 0.0000 0.0000 0.0000 24.9758 0.0000 0.0000
# 5 0.0000 0.0000 0.0000 0.0000 36.2640 0.0000
# 6 0.0000 0.0000 0.0000 0.0000 0.0000 28.1281
#
#
#
# Elastic Compliance Matrix: (Units=1/GPa)
#
#
# Indices 1 2 3 4 5 6 
#
# 1 0.021998 -0.005900 -0.004550 0.000000 0.000000 0.000000
# 2 -0.005900 0.020682 -0.002642 0.000000 0.000000 0.000000
# 3 -0.004550 -0.002642 0.008977 0.000000 0.000000 0.000000
# 4 0.000000 0.000000 0.000000 0.040039 0.000000 0.000000
# 5 0.000000 0.000000 0.000000 0.000000 0.027576 0.000000
# 6 0.000000 0.000000 0.000000 0.000000 0.000000 0.035552
#
#
# Mechanical properties :
#
#
# Convention : Reuss Voigt Hill
#
# Bulk Modulus (GPa) = 39.25532 47.19715 43.22623
# Shear Modulus (GPa) = 26.38571 29.15826 27.77198
#
# Velocity S-wave (km/s) = 3.52750 3.70820 3.61898
# Velocity P-wave (km/s) = 5.92481 6.37119 6.15205
#
# Compressibility (1/GPa) = 0.02547426
#
# Stress axis : x y z
#
# Youngs Moduli (GPa) = 45.45968 48.35189 111.38987
#
# Poissons Ratio (x) = 0.28526 0.50681
# Poissons Ratio (y) = 0.26820 0.29425
# Poissons Ratio (z) = 0.20684 0.12773
#
# Static dielectric constant tensor:
#      x y z
#    x 3.907090 0.000000 0.000000 
#    y 0.000000 3.753930 0.000000 
#    z 0.000000 0.000000 3.935560 
# 
# 
# High freq. dielectric constant tensor:
#      x y z
#    x 1.837070 0.000000 0.000000 
#    y 0.000000 1.816010 0.000000 
#    z 0.000000 0.000000 1.827860 
# 
# From -- ./inp_files/21348.got.cif
#   From: 2010.06.25/outbox.cif.g09.slc.cpg/sg48_11_cif.got.tgz:21348.got - 2010.06.26 18:06:46.
