data_PCOD8201627
_publ_section_title
;
Structure prediction by ZEFSAII (Michael W. Deem and Ramdas Pophale) SiO2 
 PCOD8201627
Probable space group: P N N N
;
_chemical_formula_sum "Si O2"
_cell_formula_units_Z 58
_cell_length_a 9.409387
_cell_length_b 16.921912
_cell_length_c 17.404032
_cell_angle_alpha 90.000000
_cell_angle_beta 90.000000
_cell_angle_gamma 90.000000
_cell_volume 2771.153841
_symmetry_space_group_name_H-M "P N N N"
_symmetry_group_IT_number 48
_space_group.IT_coordinate_system_code '2'
_symmetry_cell_setting 'orthorhombic'
loop_
_space_group_symop_operation_xyz
x,y,z
1/2-x,1/2-y,z
x,1/2-y,1/2-z
1/2-x,y,1/2-z
-x,-y,-z
1/2+x,1/2+y,-z
-x,1/2+y,1/2+z
1/2+x,-y,1/2+z
loop_
_atom_site_type_symbol
_atom_site_label
_atom_site_fract_x
_atom_site_fract_y
_atom_site_fract_z
Si Si1 0.750000 0.750000 0.250000
Si Si2 0.347385 0.000429 0.588810
Si Si3 0.575478 0.620312 0.964459
Si Si4 0.469431 0.503906 0.589955
Si Si5 0.734592 0.923266 0.834104
Si Si6 0.892536 0.216272 0.937885
Si Si7 0.915056 0.421489 0.673175
Si Si8 0.505841 0.843193 0.175154
O O1 0.658213 0.807842 0.197043
O O2 0.333385 0.067361 0.523212
O O3 0.190962 0.968098 0.608916
O O4 0.427865 0.040036 0.661682
O O5 0.433076 0.925133 0.559317
O O6 0.678227 0.633871 0.891630
O O7 0.521860 0.704400 0.000591
O O8 0.500000 0.500000 0.500000
O O9 0.573453 0.563941 0.635791
O O10 0.478928 0.414774 0.617878
O O11 0.750000 0.882953 0.750000
O O12 0.799390 0.010405 0.825778
O O13 0.750000 0.250000 0.979045
O O14 0.869936 0.129931 0.900577
O O15 0.923596 0.274467 0.868082
O O16 0.915707 0.369714 0.750370
#
# Coordination Sequence:
#
# PCOD8201627 Si02
#       8
#     2   8   8   8   8   8   8   8
#     4  12  24  40  50  84 132 180 194 248 304 388
#     4   9  19  36  59  78 122 166 202 252 298 361
#     4   9  20  39  57  84 120 163 206 247 314 361
#     4  12  24  35  59  89 123 158 209 263 299 362
#     4  11  21  38  64  90 123 156 204 272 314 356
#     4  11  23  35  59  85 123 170 202 242 298 389
#     4  10  20  39  57  85 126 169 201 240 315 376
#     4  12  24  37  57  87 131 166 205 242 305 375
#
# _framework density 20.92991
#
# number of rings (size 3 to 8) (size 9 to 14) (size 15 to 20)
#    0.000    1.379    4.138    2.483    3.862    0.552 
#    0.000    0.000    0.000    0.000    0.000    1.931 
#    0.000    0.000    0.000    0.000    0.000    0.000 
#
# Total GULP energy -719007.175468 kJ/mol
# GULP energy per Si atom -12396.675439 kJ/mol
# Density = 2.088227 g / cm^3
# Si number density = 20.929910 Si / 1000 Ang^3
#
#
#
# Elastic Constant Matrix: (Units=GPa)
#
#
# Indices 1 2 3 4 5 6 
#
# 1 142.0385 19.4138 44.0128 0.0000 0.0000 0.0000
# 2 19.4138 40.8372 27.3544 0.0000 0.0000 0.0000
# 3 44.0128 27.3544 116.2515 0.0000 0.0000 0.0000
# 4 0.0000 0.0000 0.0000 37.5355 0.0000 0.0000
# 5 0.0000 0.0000 0.0000 0.0000 26.2514 0.0000
# 6 0.0000 0.0000 0.0000 0.0000 0.0000 27.2530
#
#
#
# Elastic Compliance Matrix: (Units=1/GPa)
#
#
# Indices 1 2 3 4 5 6 
#
# 1 0.008131 -0.002141 -0.002575 0.000000 0.000000 0.000000
# 2 -0.002141 0.029633 -0.006162 0.000000 0.000000 0.000000
# 3 -0.002575 -0.006162 0.011027 0.000000 0.000000 0.000000
# 4 0.000000 0.000000 0.000000 0.026641 0.000000 0.000000
# 5 0.000000 0.000000 0.000000 0.000000 0.038093 0.000000
# 6 0.000000 0.000000 0.000000 0.000000 0.000000 0.036693
#
#
# Mechanical properties :
#
#
# Convention : Reuss Voigt Hill
#
# Bulk Modulus (GPa) = 36.98872 53.40992 45.19932
# Shear Modulus (GPa) = 27.62657 32.09771 29.86214
#
# Velocity S-wave (km/s) = 3.63706 3.92034 3.78136
# Velocity P-wave (km/s) = 5.94547 6.78719 6.38023
#
# Compressibility (1/GPa) = 0.02703527
#
# Stress axis : x y z
#
# Youngs Moduli (GPa) = 122.99051 33.74625 90.68839
#
# Poissons Ratio (x) = 0.07224 0.23348
# Poissons Ratio (y) = 0.26329 0.55885
# Poissons Ratio (z) = 0.31665 0.20795
#
# Static dielectric constant tensor:
#      x y z
#    x 0.276510 0.000000 0.000000 
#    y 0.000000 3.529670 0.000000 
#    z 0.000000 0.000000 4.028500 
# 
# 
# High freq. dielectric constant tensor:
#      x y z
#    x 1.829960 0.000000 0.000000 
#    y 0.000000 1.780000 0.000000 
#    z 0.000000 0.000000 1.816530 
# 
# From -- ./inp_files/30495.got.cif
#   From: 2010.06.25/outbox.cif.g09.slc.cpg/sg48_16_cif.got.tgz:30495.got - 2010.06.26 18:06:46.
