data_PCOD8201905
_publ_section_title
;
Structure prediction by ZEFSAII (Michael W. Deem and Ramdas Pophale) SiO2 
 PCOD8201905
Probable space group: P N N N
;
_chemical_formula_sum "Si O2"
_cell_formula_units_Z 54
_cell_length_a 10.386373
_cell_length_b 14.575495
_cell_length_c 17.352241
_cell_angle_alpha 90.000000
_cell_angle_beta 90.000000
_cell_angle_gamma 90.000000
_cell_volume 2626.895513
_symmetry_space_group_name_H-M "P N N N"
_symmetry_group_IT_number 48
_space_group.IT_coordinate_system_code '2'
_symmetry_cell_setting 'orthorhombic'
loop_
_space_group_symop_operation_xyz
x,y,z
1/2-x,1/2-y,z
x,1/2-y,1/2-z
1/2-x,y,1/2-z
-x,-y,-z
1/2+x,1/2+y,-z
-x,1/2+y,1/2+z
1/2+x,-y,1/2+z
loop_
_atom_site_type_symbol
_atom_site_label
_atom_site_fract_x
_atom_site_fract_y
_atom_site_fract_z
Si Si1 0.250000 0.750000 0.934424
Si Si2 0.441110 0.490730 0.211543
Si Si3 0.137317 0.843521 0.796662
Si Si4 0.750000 0.750000 0.250000
Si Si5 0.943890 0.186982 0.558865
Si Si6 0.581102 0.650093 0.127454
Si Si7 0.828378 0.490795 0.867798
Si Si8 0.716695 0.648971 0.506206
O O1 0.190003 0.830030 0.882613
O O2 0.130592 0.711162 0.981677
O O3 0.499697 0.391141 0.195298
O O4 0.530365 0.558009 0.163985
O O5 0.301099 0.506752 0.179614
O O6 0.442497 0.497451 0.304979
O O7 0.113506 0.750000 0.750000
O O8 0.250000 0.899442 0.750000
O O9 0.665950 0.688547 0.195155
O O10 0.855040 0.108877 0.596711
O O11 0.962536 0.279502 0.609722
O O12 0.087357 0.150902 0.544027
O O13 0.664397 0.625280 0.050839
O O14 0.812968 0.572214 0.929908
O O15 0.750000 0.750000 0.542512
#
# Coordination Sequence:
#
# PCOD8201905 Si02
#       8
#     4   8   8   2   8   8   8   8
#     4  10  23  38  70  93 124 176 218 268 346 387
#     4  11  26  41  68  96 134 176 225 271 337 408
#     4   9  23  43  63  96 131 176 225 273 334 403
#     4  12  20  44  64  98 122 166 228 256 350 388
#     4  11  22  44  64  95 134 169 219 281 336 401
#     4  11  24  42  69  98 130 178 222 287 334 408
#     4  11  26  42  62 102 133 181 218 274 348 400
#     4  10  24  42  67  99 133 178 227 278 340 397
#
# _framework density 20.556584000000001
#
# number of rings (size 3 to 8) (size 9 to 14) (size 15 to 20)
#    0.000    1.630    2.222    2.222   11.407    0.593 
#    0.000    2.963    0.000    0.000    0.000    0.000 
#    0.000    0.000    0.000    0.000    0.000    0.000 
#
# Total GULP energy -668993.253768 kJ/mol
# GULP energy per Si atom -12388.763959 kJ/mol
# Density = 2.050980 g / cm^3
# Si number density = 20.556584 Si / 1000 Ang^3
#
#
#
# Elastic Constant Matrix: (Units=GPa)
#
#
# Indices 1 2 3 4 5 6 
#
# 1 96.6907 51.1766 46.0743 0.0000 0.0000 0.0000
# 2 51.1766 104.3796 61.9540 0.0000 0.0000 0.0000
# 3 46.0743 61.9540 134.0228 0.0000 0.0000 0.0000
# 4 0.0000 0.0000 0.0000 14.6527 0.0000 0.0000
# 5 0.0000 0.0000 0.0000 0.0000 40.4673 0.0000
# 6 0.0000 0.0000 0.0000 0.0000 0.0000 47.7303
#
#
#
# Elastic Compliance Matrix: (Units=1/GPa)
#
#
# Indices 1 2 3 4 5 6 
#
# 1 0.014479 -0.005712 -0.002337 0.000000 0.000000 0.000000
# 2 -0.005712 0.015456 -0.005181 0.000000 0.000000 0.000000
# 3 -0.002337 -0.005181 0.010660 0.000000 0.000000 0.000000
# 4 0.000000 0.000000 0.000000 0.068247 0.000000 0.000000
# 5 0.000000 0.000000 0.000000 0.000000 0.024711 0.000000
# 6 0.000000 0.000000 0.000000 0.000000 0.000000 0.020951
#
#
# Mechanical properties :
#
#
# Convention : Reuss Voigt Hill
#
# Bulk Modulus (GPa) = 70.74761 72.61145 71.67953
# Shear Modulus (GPa) = 26.92851 32.29593 29.61222
#
# Velocity S-wave (km/s) = 3.62328 3.96798 3.79954
# Velocity P-wave (km/s) = 7.21075 7.50950 7.36164
#
# Compressibility (1/GPa) = 0.01413475
#
# Stress axis : x y z
#
# Youngs Moduli (GPa) = 69.06496 64.69924 93.80819
#
# Poissons Ratio (x) = 0.36954 0.21926
# Poissons Ratio (y) = 0.39448 0.48604
# Poissons Ratio (z) = 0.16143 0.33522
#
# Static dielectric constant tensor:
#      x y z
#    x 4.037740 0.000000 0.000000 
#    y 0.000000 3.677280 0.000000 
#    z 0.000000 0.000000 4.148000 
# 
# 
# High freq. dielectric constant tensor:
#      x y z
#    x 1.815620 0.000000 0.000000 
#    y 0.000000 1.796810 0.000000 
#    z 0.000000 0.000000 1.816530 
# 
# From -- ./inp_files/26573.got.cif
#   From: 2010.06.25/outbox.cif.g09.slc.cpg/sg48_14_cif.got.tgz:26573.got - 2010.06.26 18:06:46.
