data_PCOD8201044
_publ_section_title
;
Structure prediction by ZEFSAII (Michael W. Deem and Ramdas Pophale) SiO2 
 PCOD8201044
Probable space group: P M M M
;
_chemical_formula_sum "Si O2"
_cell_formula_units_Z 40
_cell_length_a 7.770719
_cell_length_b 19.797293
_cell_length_c 19.606390
_cell_angle_alpha 90.000000
_cell_angle_beta 90.000000
_cell_angle_gamma 90.000000
_cell_volume 3016.231369
_symmetry_space_group_name_H-M "P M M M"
_symmetry_group_IT_number 47
_symmetry_cell_setting 'orthorhombic'
loop_
_space_group_symop_operation_xyz
x,y,z
-x,-y,z
x,-y,-z
-x,y,-z
-x,-y,-z
x,y,-z
-x,y,z
x,-y,z
loop_
_atom_site_type_symbol
_atom_site_label
_atom_site_fract_x
_atom_site_fract_y
_atom_site_fract_z
Si Si1 0.204504 0.312794 0.077162
Si Si2 0.309219 0.166591 0.919129
Si Si3 0.500000 0.580677 0.422965
Si Si4 0.203874 0.425124 0.179299
Si Si5 0.191032 0.580249 0.668629
Si Si6 0.000000 0.076095 0.081512
O O1 0.274544 0.242319 0.107426
O O2 0.279630 0.372902 0.124035
O O3 0.000000 0.310272 0.079271
O O4 0.270038 0.325132 0.000000
O O5 0.500000 0.143060 0.896393
O O6 0.169368 0.114093 0.889635
O O7 0.291113 0.167994 0.000000
O O8 0.500000 0.500000 0.421432
O O9 0.500000 0.608255 0.500000
O O10 0.670787 0.608858 0.385365
O O11 0.281808 0.500000 0.165705
O O12 0.251684 0.399308 0.255208
O O13 0.000000 0.429210 0.172681
O O14 0.182303 0.500000 0.664714
O O15 0.000000 0.609614 0.652034
O O16 0.000000 0.000000 0.110162
O O17 0.000000 0.075809 0.000000
#
# Coordination Sequence:
#
# PCOD8201044 Si02
#       6
#     8   8   4   8   8   4
#     4   9  15  24  38  52  69  94 122 155 193 225
#     4   9  16  26  38  51  70  92 112 139 177 219
#     4   9  16  24  36  54  69  83 107 135 171 222
#     4   8  14  24  37  52  69  92 123 156 191 228
#     4   8  14  25  37  48  67  90 109 137 177 217
#     4   9  16  26  40  56  71  87 109 137 175 222
#
# _framework density 13.261581
#
# number of rings (size 3 to 8) (size 9 to 14) (size 15 to 20)
#    0.000    3.400    1.000    1.200    0.000    1.200 
#    1.800    6.000    0.000    0.000    0.000    2.800 
#    0.000    0.000    0.000    0.000    0.000    0.000 
#
# Total GULP energy -495692.244094 kJ/mol
# GULP energy per Si atom -12392.306102 kJ/mol
# Density = 1.323140 g / cm^3
# Si number density = 13.261581 Si / 1000 Ang^3
#
#
#
# Elastic Constant Matrix: (Units=GPa)
#
#
# Indices 1 2 3 4 5 6 
#
# 1 75.3863 37.4415 33.3033 0.0000 0.0000 0.0000
# 2 37.4415 74.6701 33.8584 0.0000 0.0000 0.0000
# 3 33.3033 33.8584 64.8900 0.0000 0.0000 0.0000
# 4 0.0000 0.0000 0.0000 0.8501 0.0000 0.0000
# 5 0.0000 0.0000 0.0000 0.0000 11.0800 0.0000
# 6 0.0000 0.0000 0.0000 0.0000 0.0000 5.7972
#
#
#
# Elastic Compliance Matrix: (Units=1/GPa)
#
#
# Indices 1 2 3 4 5 6 
#
# 1 0.019519 -0.006870 -0.006433 0.000000 0.000000 0.000000
# 2 -0.006870 0.019961 -0.006889 0.000000 0.000000 0.000000
# 3 -0.006433 -0.006889 0.022307 0.000000 0.000000 0.000000
# 4 0.000000 0.000000 0.000000 1.176288 0.000000 0.000000
# 5 0.000000 0.000000 0.000000 0.000000 0.090253 0.000000
# 6 0.000000 0.000000 0.000000 0.000000 0.000000 0.172498
#
#
# Mechanical properties :
#
#
# Convention : Reuss Voigt Hill
#
# Bulk Modulus (GPa) = 46.72456 47.12807 46.92631
# Shear Modulus (GPa) = 3.22925 10.90167 7.06546
#
# Velocity S-wave (km/s) = 1.56216 2.87025 2.31070
# Velocity P-wave (km/s) = 6.20993 6.82634 6.52542
#
# Compressibility (1/GPa) = 0.02140202
#
# Stress axis : x y z
#
# Youngs Moduli (GPa) = 51.23172 50.09735 44.82922
#
# Poissons Ratio (x) = 0.34419 0.28838
# Poissons Ratio (y) = 0.35199 0.30884
# Poissons Ratio (z) = 0.32957 0.34513
#
# Static dielectric constant tensor:
#      x y z
#    x 2.800160 0.000000 0.000000 
#    y 0.000000 2.544900 0.000000 
#    z 0.000000 0.000000 2.517630 
# 
# 
# High freq. dielectric constant tensor:
#      x y z
#    x 1.513660 0.000000 0.000000 
#    y 0.000000 1.463360 0.000000 
#    z 0.000000 0.000000 1.459810 
# 
# From -- ./inp_files/21234.got.cif
#   From: 2010.03.12/outbox.cif.g09.slc.cpg/sg47_11_cif.got.tgz:21234.got - 2010.04.14 03:12:58.
