data_PCOD8201066
_publ_section_title
;
Structure prediction by ZEFSAII (Michael W. Deem and Ramdas Pophale) SiO2 
 PCOD8201066
Probable space group: P M M M
;
_chemical_formula_sum "Si O2"
_cell_formula_units_Z 52
_cell_length_a 9.714647
_cell_length_b 9.649131
_cell_length_c 33.279553
_cell_angle_alpha 90.000000
_cell_angle_beta 90.000000
_cell_angle_gamma 90.000000
_cell_volume 3119.555462
_symmetry_space_group_name_H-M "P M M M"
_symmetry_group_IT_number 47
_symmetry_cell_setting 'orthorhombic'
loop_
_space_group_symop_operation_xyz
x,y,z
-x,-y,z
x,-y,-z
-x,y,-z
-x,-y,-z
x,y,-z
-x,y,z
x,-y,z
loop_
_atom_site_type_symbol
_atom_site_label
_atom_site_fract_x
_atom_site_fract_y
_atom_site_fract_z
Si Si1 0.341282 0.337742 0.221272
Si Si2 0.663436 0.346759 0.688988
Si Si3 0.339776 0.838449 0.616433
Si Si4 0.845552 0.835364 0.455575
Si Si5 0.158836 0.838338 0.838412
Si Si6 0.163435 0.846352 0.928743
Si Si7 0.835561 0.343777 0.000000
O O1 0.500000 0.294982 0.215532
O O2 0.321390 0.500000 0.212764
O O3 0.289811 0.301284 0.266413
O O4 0.250257 0.251095 0.191033
O O5 0.500000 0.351522 0.688569
O O6 0.721364 0.500000 0.678838
O O7 0.718085 0.238776 0.655906
O O8 0.500000 0.808256 0.609165
O O9 0.259599 0.777909 0.577761
O O10 0.310560 0.000000 0.623047
O O11 0.802758 0.780624 0.500000
O O12 0.000000 0.784972 0.445187
O O13 0.839955 0.000000 0.455754
O O14 0.207320 0.803207 0.883787
O O15 0.000000 0.797116 0.832269
O O16 0.180953 0.000000 0.829302
O O17 0.000000 0.851975 0.931130
O O18 0.220989 0.000000 0.939156
O O19 0.221675 0.735149 0.960543
O O20 0.777289 0.500000 0.000000
O O21 0.000000 0.344972 0.000000
#
# Coordination Sequence:
#
# PCOD8201066 Si02
#       7
#     8   8   8   8   8   8   4
#     4   9  18  32  49  68  89 117 154 189 222 267
#     4   8  15  29  46  62  84 114 143 172 211 259
#     4   9  16  25  41  66  87 102 131 176 215 244
#     4   8  14  25  40  58  83 114 141 165 202 252
#     4   9  18  31  46  67  94 121 150 185 226 270
#     4   8  14  25  39  55  81 116 146 174 215 265
#     4   9  15  21  33  57  84 109 144 185 218 254
#
# _framework density 16.669042000000001
#
# number of rings (size 3 to 8) (size 9 to 14) (size 15 to 20)
#    0.000    3.462    0.000    2.538    0.000    3.077 
#    0.000    5.385    0.000    3.692    0.000    3.769 
#    0.000    4.308    0.000    0.000    0.000    0.000 
#
# Total GULP energy -644459.242704 kJ/mol
# GULP energy per Si atom -12393.446975 kJ/mol
# Density = 1.663110 g / cm^3
# Si number density = 16.669042 Si / 1000 Ang^3
#
#
#
# Elastic Constant Matrix: (Units=GPa)
#
#
# Indices 1 2 3 4 5 6 
#
# 1 46.5596 37.0753 56.8070 0.0000 0.0000 0.0000
# 2 37.0753 79.7967 82.8605 0.0000 0.0000 0.0000
# 3 56.8070 82.8605 168.1178 0.0000 0.0000 0.0000
# 4 0.0000 0.0000 0.0000 8.9514 0.0000 0.0000
# 5 0.0000 0.0000 0.0000 0.0000 -448.1110 0.0000
# 6 0.0000 0.0000 0.0000 0.0000 0.0000 17.5543
#
#
#
# Elastic Compliance Matrix: (Units=1/GPa)
#
#
# Indices 1 2 3 4 5 6 
#
# 1 0.039605 -0.009228 -0.008834 0.000000 0.000000 0.000000
# 2 -0.009228 0.027819 -0.010593 0.000000 0.000000 0.000000
# 3 -0.008834 -0.010593 0.014154 0.000000 0.000000 0.000000
# 4 0.000000 0.000000 0.000000 0.111714 0.000000 0.000000
# 5 0.000000 0.000000 0.000000 0.000000 -0.002232 0.000000
# 6 0.000000 0.000000 0.000000 0.000000 0.000000 0.056966
#
#
# Mechanical properties :
#
#
# Convention : Reuss Voigt Hill
#
# Bulk Modulus (GPa) = 41.20700 71.99554 56.60127
# Shear Modulus (GPa) = 15.95271 -76.47230 -30.25980
#
# Velocity S-wave (km/s) = 3.09694 -6.78059 -4.26529
# Velocity P-wave (km/s) = 6.12882 4.24464 3.12613
#
# Compressibility (1/GPa) = 0.02426772
#
# Stress axis : x y z
#
# Youngs Moduli (GPa) = 25.24963 35.94636 70.64901
#
# Poissons Ratio (x) = 0.33170 0.62414
# Poissons Ratio (y) = 0.23299 0.74841
# Poissons Ratio (z) = 0.22306 0.38079
#
# Static dielectric constant tensor:
#      x y z
#    x 2.788900 0.000000 0.000000 
#    y 0.000000 3.109840 0.000000 
#    z 0.000000 0.000000 3.486070 
# 
# 
# High freq. dielectric constant tensor:
#      x y z
#    x 1.597320 0.000000 0.000000 
#    y 0.000000 1.625620 0.000000 
#    z 0.000000 0.000000 1.655910 
# 
# From -- ./inp_files/34526.got.cif
#   From: 2010.03.12/outbox.cif.g09.slc.cpg/sg47_18_cif.got.tgz:34526.got - 2010.04.14 03:12:58.
