data_PCOD8201973
_publ_section_title
;
Structure prediction by ZEFSAII (Michael W. Deem and Ramdas Pophale) SiO2 
 PCOD8201973
Probable space group: P N N N
;
_chemical_formula_sum "Si O2"
_cell_formula_units_Z 40
_cell_length_a 8.116179
_cell_length_b 11.919964
_cell_length_c 18.392509
_cell_angle_alpha 90.000000
_cell_angle_beta 90.000000
_cell_angle_gamma 90.000000
_cell_volume 1779.375218
_symmetry_space_group_name_H-M "P N N N"
_symmetry_group_IT_number 48
_space_group.IT_coordinate_system_code '2'
_symmetry_cell_setting 'orthorhombic'
loop_
_space_group_symop_operation_xyz
x,y,z
1/2-x,1/2-y,z
x,1/2-y,1/2-z
1/2-x,y,1/2-z
-x,-y,-z
1/2+x,1/2+y,-z
-x,1/2+y,1/2+z
1/2+x,-y,1/2+z
loop_
_atom_site_type_symbol
_atom_site_label
_atom_site_fract_x
_atom_site_fract_y
_atom_site_fract_z
Si Si1 0.127710 0.892869 0.087259
Si Si2 0.443813 0.698173 0.326827
Si Si3 0.428647 0.218108 0.167348
Si Si4 0.355890 0.985604 0.820508
Si Si5 0.593039 0.400238 0.079626
O O1 0.297005 0.869974 0.131522
O O2 0.999202 0.802887 0.122264
O O3 0.136291 0.866173 0.002091
O O4 0.068236 0.021578 0.093415
O O5 0.385234 0.750000 0.250000
O O6 0.595031 0.615191 0.313125
O O7 0.250000 0.250000 0.133368
O O8 0.431270 0.250000 0.250000
O O9 0.567804 0.285093 0.123082
O O10 0.477548 0.087110 0.167163
O O11 0.250000 0.947955 0.750000
O O12 0.247209 0.970620 0.891898
#
# Coordination Sequence:
#
# PCOD8201973 Si02
#       5
#     8   8   8   8   8
#     4  10  24  46  67 100 135 186 224 275 344 411
#     4  11  25  45  70  96 135 186 240 282 337 412
#     4  11  24  43  69  99 136 182 228 278 345 415
#     4  12  25  42  71 103 136 175 229 292 346 394
#     4  11  24  44  69 102 144 172 227 282 344 414
#
# _framework density 22.479800999999998
#
# number of rings (size 3 to 8) (size 9 to 14) (size 15 to 20)
#    0.000    1.000    2.000    4.200    5.600    3.600 
#   10.800    0.000    0.000    0.000    0.000    0.000 
#    0.000    0.000    0.000    0.000    0.000    0.000 
#
# Total GULP energy -495699.735377 kJ/mol
# GULP energy per Si atom -12392.493384 kJ/mol
# Density = 2.242864 g / cm^3
# Si number density = 22.479801 Si / 1000 Ang^3
#
#
#
# Elastic Constant Matrix: (Units=GPa)
#
#
# Indices 1 2 3 4 5 6 
#
# 1 79.3385 23.9926 46.1598 0.0000 0.0000 0.0000
# 2 23.9926 105.7071 51.2913 0.0000 0.0000 0.0000
# 3 46.1598 51.2913 155.5581 0.0000 0.0000 0.0000
# 4 0.0000 0.0000 0.0000 35.4251 0.0000 0.0000
# 5 0.0000 0.0000 0.0000 0.0000 46.2229 0.0000
# 6 0.0000 0.0000 0.0000 0.0000 0.0000 39.1170
#
#
#
# Elastic Compliance Matrix: (Units=1/GPa)
#
#
# Indices 1 2 3 4 5 6 
#
# 1 0.015438 -0.001525 -0.004078 0.000000 0.000000 0.000000
# 2 -0.001525 0.011413 -0.003310 0.000000 0.000000 0.000000
# 3 -0.004078 -0.003310 0.008730 0.000000 0.000000 0.000000
# 4 0.000000 0.000000 0.000000 0.028229 0.000000 0.000000
# 5 0.000000 0.000000 0.000000 0.000000 0.021634 0.000000
# 6 0.000000 0.000000 0.000000 0.000000 0.000000 0.025564
#
#
# Mechanical properties :
#
#
# Convention : Reuss Voigt Hill
#
# Bulk Modulus (GPa) = 56.32767 64.83233 60.58000
# Shear Modulus (GPa) = 37.10483 38.76369 37.93426
#
# Velocity S-wave (km/s) = 4.06715 4.15707 4.11235
# Velocity P-wave (km/s) = 6.86782 7.20725 7.03958
#
# Compressibility (1/GPa) = 0.01775326
#
# Stress axis : x y z
#
# Youngs Moduli (GPa) = 64.77454 87.62268 114.54579
#
# Poissons Ratio (x) = 0.13364 0.46714
# Poissons Ratio (y) = 0.09880 0.37919
# Poissons Ratio (z) = 0.26416 0.29007
#
# Static dielectric constant tensor:
#      x y z
#    x 4.218740 0.000000 0.000000 
#    y 0.000000 3.627590 0.000000 
#    z 0.000000 0.000000 4.021070 
# 
# 
# High freq. dielectric constant tensor:
#      x y z
#    x 1.873760 0.000000 0.000000 
#    y 0.000000 1.897630 0.000000 
#    z 0.000000 0.000000 1.890060 
# 
# From -- ./inp_files/30006.got.cif
#   From: 2010.06.25/outbox.cif.g09.slc.cpg/sg48_16_cif.got.tgz:30006.got - 2010.06.26 18:06:46.
