data_PCOD8201309
_publ_section_title
;
Structure prediction by ZEFSAII (Michael W. Deem and Ramdas Pophale) SiO2 
 PCOD8201309
Probable space group: P N N N
;
_chemical_formula_sum "Si O2"
_cell_formula_units_Z 64
_cell_length_a 13.651552
_cell_length_b 13.838965
_cell_length_c 20.089051
_cell_angle_alpha 90.000000
_cell_angle_beta 90.000000
_cell_angle_gamma 90.000000
_cell_volume 3795.290820
_symmetry_space_group_name_H-M "P N N N"
_symmetry_group_IT_number 48
_space_group.IT_coordinate_system_code '2'
_symmetry_cell_setting 'orthorhombic'
loop_
_space_group_symop_operation_xyz
x,y,z
1/2-x,1/2-y,z
x,1/2-y,1/2-z
1/2-x,y,1/2-z
-x,-y,-z
1/2+x,1/2+y,-z
-x,1/2+y,1/2+z
1/2+x,-y,1/2+z
loop_
_atom_site_type_symbol
_atom_site_label
_atom_site_fract_x
_atom_site_fract_y
_atom_site_fract_z
Si Si1 0.356078 0.799562 0.422421
Si Si2 0.027755 0.635229 0.669177
Si Si3 0.696644 0.352688 0.066184
Si Si4 0.869946 0.027090 0.823148
Si Si5 0.465399 0.887834 0.065811
Si Si6 0.649254 0.998729 0.824170
Si Si7 0.113911 0.959698 0.570495
Si Si8 0.993463 0.348615 0.180578
O O1 0.250000 0.750000 0.409013
O O2 0.357355 0.848159 0.495099
O O3 0.381336 0.875985 0.365592
O O4 0.447452 0.724714 0.419194
O O5 0.123336 0.618140 0.624674
O O6 0.055425 0.640384 0.746825
O O7 0.986653 0.741526 0.652653
O O8 0.949752 0.551270 0.653505
O O9 0.750000 0.250000 0.081084
O O10 0.770376 0.444474 0.062178
O O11 0.763671 0.980952 0.834984
O O12 0.878019 0.054737 0.744722
O O13 0.390796 0.944621 0.112802
O O14 0.577204 0.927774 0.076584
O O15 0.440125 0.906915 0.989706
O O16 0.601614 0.893405 0.820298
O O17 0.084231 0.904416 0.636580
#
# Coordination Sequence:
#
# PCOD8201309 Si02
#       8
#     8   8   8   8   8   8   8   8
#     4  11  19  33  51  76 102 128 170 217 255 301
#     4  10  20  32  48  72 103 135 166 206 256 306
#     4  11  19  33  51  76 102 128 170 217 255 301
#     4  10  20  32  48  72 103 135 166 206 256 306
#     4  10  18  31  51  72  98 132 166 208 256 300
#     4   9  18  32  48  73 103 130 167 204 248 312
#     4  10  18  31  51  72  98 132 166 208 256 300
#     4   9  18  32  48  73 103 130 167 204 248 312
#
# _framework density 16.863002999999999
#
# number of rings (size 3 to 8) (size 9 to 14) (size 15 to 20)
#    0.000    2.000    5.000    0.000    0.000    2.000 
#    0.000    2.500    0.000    0.750    0.000    0.000 
#    0.000    6.000    0.000    0.250    0.000    0.000 
#
# Total GULP energy -793084.603501 kJ/mol
# GULP energy per Si atom -12391.946930 kJ/mol
# Density = 1.682462 g / cm^3
# Si number density = 16.863003 Si / 1000 Ang^3
#
#
#
# Elastic Constant Matrix: (Units=GPa)
#
#
# Indices 1 2 3 4 5 6 
#
# 1 78.5575 53.5661 33.6015 0.0000 0.0000 0.0000
# 2 53.5661 99.2194 37.4710 0.0000 0.0000 0.0000
# 3 33.6015 37.4710 64.5225 0.0000 0.0000 0.0000
# 4 0.0000 0.0000 0.0000 26.5036 0.0000 0.0000
# 5 0.0000 0.0000 0.0000 0.0000 23.6822 0.0000
# 6 0.0000 0.0000 0.0000 0.0000 0.0000 29.0850
#
#
#
# Elastic Compliance Matrix: (Units=1/GPa)
#
#
# Indices 1 2 3 4 5 6 
#
# 1 0.021697 -0.009539 -0.005760 0.000000 0.000000 0.000000
# 2 -0.009539 0.017103 -0.004965 0.000000 0.000000 0.000000
# 3 -0.005760 -0.004965 0.021382 0.000000 0.000000 0.000000
# 4 0.000000 0.000000 0.000000 0.037731 0.000000 0.000000
# 5 0.000000 0.000000 0.000000 0.000000 0.042226 0.000000
# 6 0.000000 0.000000 0.000000 0.000000 0.000000 0.034382
#
#
# Mechanical properties :
#
#
# Convention : Reuss Voigt Hill
#
# Bulk Modulus (GPa) = 50.87796 54.61962 52.74879
# Shear Modulus (GPa) = 22.56318 23.69823 23.13071
#
# Velocity S-wave (km/s) = 3.66188 3.75285 3.70764
# Velocity P-wave (km/s) = 6.93657 7.15815 7.04823
#
# Compressibility (1/GPa) = 0.01965488
#
# Stress axis : x y z
#
# Youngs Moduli (GPa) = 46.08872 58.46761 46.76914
#
# Poissons Ratio (x) = 0.55770 0.26938
# Poissons Ratio (y) = 0.43962 0.23222
# Poissons Ratio (z) = 0.26547 0.29031
#
# Static dielectric constant tensor:
#      x y z
#    x 3.131040 0.000000 0.000000 
#    y 0.000000 3.228580 0.000000 
#    z 0.000000 0.000000 3.371930 
# 
# 
# High freq. dielectric constant tensor:
#      x y z
#    x 1.628120 0.000000 0.000000 
#    y 0.000000 1.633110 0.000000 
#    z 0.000000 0.000000 1.667710 
# 
# From -- ./inp_files/31744.got.cif
#   From: 2010.06.25/outbox.cif.g09.slc.cpg/sg48_16_cif.got.tgz:31744.got - 2010.06.26 18:06:46.
