data_PCOD8201149
_publ_section_title
;
Structure prediction by ZEFSAII (Michael W. Deem and Ramdas Pophale) SiO2 
 PCOD8201149
Probable space group: P M M M
;
_chemical_formula_sum "Si O2"
_cell_formula_units_Z 44
_cell_length_a 9.478892
_cell_length_b 28.222734
_cell_length_c 9.450185
_cell_angle_alpha 90.000000
_cell_angle_beta 90.000000
_cell_angle_gamma 90.000000
_cell_volume 2528.115830
_symmetry_space_group_name_H-M "P M M M"
_symmetry_group_IT_number 47
_symmetry_cell_setting 'orthorhombic'
loop_
_space_group_symop_operation_xyz
x,y,z
-x,-y,z
x,-y,-z
-x,y,-z
-x,-y,-z
x,y,-z
-x,y,z
x,-y,z
loop_
_atom_site_type_symbol
_atom_site_label
_atom_site_fract_x
_atom_site_fract_y
_atom_site_fract_z
Si Si1 0.341205 0.819068 0.168262
Si Si2 0.157164 0.733111 0.168539
Si Si3 0.339639 0.553583 0.334222
Si Si4 0.835429 0.090338 0.164589
Si Si5 0.833503 0.627871 0.840220
Si Si6 0.832588 0.000000 0.340015
O O1 0.500000 0.821772 0.229135
O O2 0.265585 0.772014 0.229686
O O3 0.253197 0.864674 0.217758
O O4 0.343749 0.816770 0.000000
O O5 0.207079 0.680585 0.214968
O O6 0.000000 0.743933 0.227496
O O7 0.151731 0.735229 0.000000
O O8 0.316810 0.559467 0.500000
O O9 0.500000 0.565623 0.292444
O O10 0.302962 0.500000 0.287708
O O11 0.236424 0.589128 0.257483
O O12 0.000000 0.101051 0.191126
O O13 0.779579 0.046245 0.256409
O O14 0.807953 0.078852 0.000000
O O15 0.000000 0.621178 0.833349
O O16 0.778798 0.620767 0.000000
O O17 0.772004 0.000000 0.500000
O O18 0.000000 0.000000 0.341991
#
# Coordination Sequence:
#
# PCOD8201149 Si02
#       6
#     8   8   8   8   8   4
#     4   9  16  25  40  65  93 118 147 183 220 259
#     4   8  14  26  43  64  93 124 149 178 222 272
#     4   9  19  35  51  67  91 125 163 199 235 279
#     4   9  16  27  45  67  89 114 145 181 220 260
#     4   9  18  31  48  73 101 125 153 193 238 282
#     4   9  17  29  46  67  88 112 146 185 220 258
#
# _framework density 17.404266
#
# number of rings (size 3 to 8) (size 9 to 14) (size 15 to 20)
#    0.000    3.182    0.000    2.455    0.000    5.455 
#    0.000    5.000    0.000    4.364    0.000    2.545 
#    0.000    0.000    0.000    0.000    0.000    0.000 
#
# Total GULP energy -545442.380040 kJ/mol
# GULP energy per Si atom -12396.417728 kJ/mol
# Density = 1.736465 g / cm^3
# Si number density = 17.404266 Si / 1000 Ang^3
#
#
#
# Elastic Constant Matrix: (Units=GPa)
#
#
# Indices 1 2 3 4 5 6 
#
# 1 76.6829 71.3417 25.1640 0.0000 0.0000 0.0000
# 2 71.3417 160.0630 46.5996 0.0000 0.0000 0.0000
# 3 25.1640 46.5996 39.6000 0.0000 0.0000 0.0000
# 4 0.0000 0.0000 0.0000 -3.6360 0.0000 0.0000
# 5 0.0000 0.0000 0.0000 0.0000 17.8866 0.0000
# 6 0.0000 0.0000 0.0000 0.0000 0.0000 10.1230
#
#
#
# Elastic Compliance Matrix: (Units=1/GPa)
#
#
# Indices 1 2 3 4 5 6 
#
# 1 0.022653 -0.008984 -0.003824 0.000000 0.000000 0.000000
# 2 -0.008984 0.013066 -0.009667 0.000000 0.000000 0.000000
# 3 -0.003824 -0.009667 0.039058 0.000000 0.000000 0.000000
# 4 0.000000 0.000000 0.000000 -0.275026 0.000000 0.000000
# 5 0.000000 0.000000 0.000000 0.000000 0.055908 0.000000
# 6 0.000000 0.000000 0.000000 0.000000 0.000000 0.098785
#
#
# Mechanical properties :
#
#
# Convention : Reuss Voigt Hill
#
# Bulk Modulus (GPa) = 33.52447 62.50627 48.01537
# Shear Modulus (GPa) = 535.64822 13.75743 274.70282
#
# Velocity S-wave (km/s) = 17.56236 2.81457 12.57693
# Velocity P-wave (km/s) = 20.74976 6.82310 15.44518
#
# Compressibility (1/GPa) = 0.02982896
#
# Stress axis : x y z
#
# Youngs Moduli (GPa) = 44.14356 76.53477 25.60320
#
# Poissons Ratio (x) = 0.68756 0.09790
# Poissons Ratio (y) = 0.39657 0.24750
# Poissons Ratio (z) = 0.16879 0.73984
#
# Static dielectric constant tensor:
#      x y z
#    x 3.235650 0.000000 0.000000 
#    y 0.000000 3.449670 0.000000 
#    z 0.000000 0.000000 2.881590 
# 
# 
# High freq. dielectric constant tensor:
#      x y z
#    x 1.661080 0.000000 0.000000 
#    y 0.000000 1.687380 0.000000 
#    z 0.000000 0.000000 1.626110 
# 
# From -- ./inp_files/2228.got.cif
#   From: 2010.03.12/outbox.cif.g09.slc.cpg/sg47_2_cif.got.tgz:2228.got - 2010.04.14 03:12:58.
