data_PCOD8201429
_publ_section_title
;
Structure prediction by ZEFSAII (Michael W. Deem and Ramdas Pophale) SiO2 
 PCOD8201429
Probable space group: P N N N
;
_chemical_formula_sum "Si O2"
_cell_formula_units_Z 58
_cell_length_a 12.302333
_cell_length_b 8.720857
_cell_length_c 26.044879
_cell_angle_alpha 90.000000
_cell_angle_beta 90.000000
_cell_angle_gamma 90.000000
_cell_volume 2794.273987
_symmetry_space_group_name_H-M "P N N N"
_symmetry_group_IT_number 48
_space_group.IT_coordinate_system_code '2'
_symmetry_cell_setting 'orthorhombic'
loop_
_space_group_symop_operation_xyz
x,y,z
1/2-x,1/2-y,z
x,1/2-y,1/2-z
1/2-x,y,1/2-z
-x,-y,-z
1/2+x,1/2+y,-z
-x,1/2+y,1/2+z
1/2+x,-y,1/2+z
loop_
_atom_site_type_symbol
_atom_site_label
_atom_site_fract_x
_atom_site_fract_y
_atom_site_fract_z
Si Si1 0.663427 0.991175 0.818411
Si Si2 0.370134 0.720429 0.399401
Si Si3 0.029226 0.767431 0.693592
Si Si4 0.386617 0.465533 0.142124
Si Si5 0.363111 0.666534 0.591419
Si Si6 0.438652 0.384499 0.535537
Si Si7 0.453837 0.363168 0.034819
Si Si8 0.250000 0.750000 0.250000
O O1 0.576790 0.871922 0.797245
O O2 0.779971 0.908122 0.826951
O O3 0.625298 0.052152 0.874015
O O4 0.671383 0.138889 0.782074
O O5 0.250000 0.750000 0.424645
O O6 0.469123 0.722533 0.438399
O O7 0.390097 0.849848 0.355524
O O8 0.084580 0.750000 0.750000
O O9 0.112190 0.841051 0.652704
O O10 0.991830 0.603933 0.670245
O O11 0.379588 0.423604 0.081431
O O12 0.250000 0.750000 0.581907
O O13 0.360472 0.486492 0.572400
O O14 0.449419 0.764902 0.560065
O O15 0.500000 0.500000 0.500000
O O16 0.380212 0.254263 0.500237
O O17 0.500000 0.500000 0.000000
#
# Coordination Sequence:
#
# PCOD8201429 Si02
#       8
#     8   8   8   8   8   8   8   2
#     4  11  21  35  55  87 123 158 191 240 307 388
#     4  10  19  35  58  83 120 159 187 237 306 372
#     4  11  23  38  61  85 114 156 203 259 312 362
#     4  10  20  37  55  88 129 156 187 253 308 373
#     4  10  23  43  60  81 121 160 210 259 296 354
#     4  10  20  37  59  85 116 159 205 244 295 368
#     4  10  20  37  62  90 119 152 202 246 308 366
#     4  12  20  32  58  92 120 158 206 232 312 404
#
# _framework density 20.756732
#
# number of rings (size 3 to 8) (size 9 to 14) (size 15 to 20)
#    0.000    1.655    4.828    1.241    0.000    3.034 
#    0.000    2.069    0.000    0.000    0.000    0.000 
#    0.000    0.000    0.000    0.000    0.000    0.000 
#
# Total GULP energy -718537.389169 kJ/mol
# GULP energy per Si atom -12388.575675 kJ/mol
# Density = 2.070949 g / cm^3
# Si number density = 20.756732 Si / 1000 Ang^3
#
#
#
# Elastic Constant Matrix: (Units=GPa)
#
#
# Indices 1 2 3 4 5 6 
#
# 1 53.6667 19.2120 16.5367 0.0000 0.0000 0.0000
# 2 19.2120 87.0065 30.8472 0.0000 0.0000 0.0000
# 3 16.5367 30.8472 108.7897 0.0000 0.0000 0.0000
# 4 0.0000 0.0000 0.0000 32.7603 0.0000 0.0000
# 5 0.0000 0.0000 0.0000 0.0000 11.9977 0.0000
# 6 0.0000 0.0000 0.0000 0.0000 0.0000 27.9454
#
#
#
# Elastic Compliance Matrix: (Units=1/GPa)
#
#
# Indices 1 2 3 4 5 6 
#
# 1 0.020636 -0.003830 -0.002051 0.000000 0.000000 0.000000
# 2 -0.003830 0.013489 -0.003243 0.000000 0.000000 0.000000
# 3 -0.002051 -0.003243 0.010423 0.000000 0.000000 0.000000
# 4 0.000000 0.000000 0.000000 0.030525 0.000000 0.000000
# 5 0.000000 0.000000 0.000000 0.000000 0.083349 0.000000
# 6 0.000000 0.000000 0.000000 0.000000 0.000000 0.035784
#
#
# Mechanical properties :
#
#
# Convention : Reuss Voigt Hill
#
# Bulk Modulus (GPa) = 38.01989 42.51718 40.26854
# Shear Modulus (GPa) = 22.60196 26.73182 24.66689
#
# Velocity S-wave (km/s) = 3.30342 3.59257 3.45103
# Velocity P-wave (km/s) = 5.73645 6.14303 5.94322
#
# Compressibility (1/GPa) = 0.02630202
#
# Stress axis : x y z
#
# Youngs Moduli (GPa) = 48.45788 74.13650 95.93949
#
# Poissons Ratio (x) = 0.28391 0.19677
# Poissons Ratio (y) = 0.18557 0.31109
# Poissons Ratio (z) = 0.09939 0.24039
#
# Static dielectric constant tensor:
#      x y z
#    x 3.290330 0.000000 0.000000 
#    y 0.000000 4.195370 0.000000 
#    z 0.000000 0.000000 4.041890 
# 
# 
# High freq. dielectric constant tensor:
#      x y z
#    x 1.758480 0.000000 0.000000 
#    y 0.000000 1.829540 0.000000 
#    z 0.000000 0.000000 1.821870 
# 
# From -- ./inp_files/11548.got.cif
#   From: 2010.06.25/outbox.cif.g09.slc.cpg/sg48_6_cif.got.tgz:11548.got - 2010.06.26 18:06:46.
