data_PCOD8201504
_publ_section_title
;
Structure prediction by ZEFSAII (Michael W. Deem and Ramdas Pophale) SiO2 
 PCOD8201504
Probable space group: P N N N
;
_chemical_formula_sum "Si O2"
_cell_formula_units_Z 44
_cell_length_a 11.720050
_cell_length_b 9.004351
_cell_length_c 21.904790
_cell_angle_alpha 90.000000
_cell_angle_beta 90.000000
_cell_angle_gamma 90.000000
_cell_volume 2311.644118
_symmetry_space_group_name_H-M "P N N N"
_symmetry_group_IT_number 48
_space_group.IT_coordinate_system_code '2'
_symmetry_cell_setting 'orthorhombic'
loop_
_space_group_symop_operation_xyz
x,y,z
1/2-x,1/2-y,z
x,1/2-y,1/2-z
1/2-x,y,1/2-z
-x,-y,-z
1/2+x,1/2+y,-z
-x,1/2+y,1/2+z
1/2+x,-y,1/2+z
loop_
_atom_site_type_symbol
_atom_site_label
_atom_site_fract_x
_atom_site_fract_y
_atom_site_fract_z
Si Si1 0.934978 0.525335 0.400960
Si Si2 0.377480 0.577060 0.764240
Si Si3 0.446805 0.041918 0.854026
Si Si4 0.120132 0.736087 0.082631
Si Si5 0.750000 0.750000 0.390651
Si Si6 0.121768 0.780339 0.556347
O O1 0.913056 0.476641 0.331037
O O2 0.829619 0.629354 0.426919
O O3 0.946274 0.374859 0.439439
O O4 0.055344 0.607346 0.409594
O O5 0.385845 0.750000 0.750000
O O6 0.250000 0.521698 0.750000
O O7 0.464376 0.505784 0.715607
O O8 0.564090 0.116219 0.873428
O O9 0.341767 0.157403 0.852293
O O10 0.427043 0.905468 0.899796
O O11 0.250000 0.750000 0.103745
O O12 0.114335 0.670672 0.013921
O O13 0.250000 0.750000 0.578718
#
# Coordination Sequence:
#
# PCOD8201504 Si02
#       6
#     8   8   8   8   4   8
#     4  11  21  37  60  91 124 152 193 243 303 358
#     4  11  20  34  62  95 123 147 182 247 317 370
#     4  11  21  37  60  91 124 152 193 243 303 358
#     4  10  25  41  58  81 122 165 209 238 281 343
#     4  10  20  31  52  94 122 148 180 235 302 352
#     4  11  19  38  64  89 122 154 194 249 302 356
#
# _framework density 19.034071000000001
#
# number of rings (size 3 to 8) (size 9 to 14) (size 15 to 20)
#    0.000    1.273    5.455    1.091    0.000    3.636 
#    0.000    2.727    0.000    1.091    0.000    0.000 
#    0.000    0.000    0.000    0.000    0.000    0.000 
#
# Total GULP energy -545290.187033 kJ/mol
# GULP energy per Si atom -12392.958796 kJ/mol
# Density = 1.899075 g / cm^3
# Si number density = 19.034071 Si / 1000 Ang^3
#
#
#
# Elastic Constant Matrix: (Units=GPa)
#
#
# Indices 1 2 3 4 5 6 
#
# 1 120.4121 42.6473 29.7552 0.0000 0.0000 0.0000
# 2 42.6473 98.0366 19.7354 0.0000 0.0000 0.0000
# 3 29.7552 19.7354 69.7415 0.0000 0.0000 0.0000
# 4 0.0000 0.0000 0.0000 28.2299 0.0000 0.0000
# 5 0.0000 0.0000 0.0000 0.0000 17.8581 0.0000
# 6 0.0000 0.0000 0.0000 0.0000 0.0000 22.9063
#
#
#
# Elastic Compliance Matrix: (Units=1/GPa)
#
#
# Indices 1 2 3 4 5 6 
#
# 1 0.010521 -0.003895 -0.003387 0.000000 0.000000 0.000000
# 2 -0.003895 0.012258 -0.001807 0.000000 0.000000 0.000000
# 3 -0.003387 -0.001807 0.016295 0.000000 0.000000 0.000000
# 4 0.000000 0.000000 0.000000 0.035423 0.000000 0.000000
# 5 0.000000 0.000000 0.000000 0.000000 0.055997 0.000000
# 6 0.000000 0.000000 0.000000 0.000000 0.000000 0.043656
#
#
# Mechanical properties :
#
#
# Convention : Reuss Voigt Hill
#
# Bulk Modulus (GPa) = 47.85371 52.49622 50.17496
# Shear Modulus (GPa) = 25.08847 26.86900 25.97874
#
# Velocity S-wave (km/s) = 3.63448 3.76124 3.69840
# Velocity P-wave (km/s) = 6.54280 6.81928 6.68247
#
# Compressibility (1/GPa) = 0.02089702
#
# Stress axis : x y z
#
# Youngs Moduli (GPa) = 95.04552 81.57612 61.36881
#
# Poissons Ratio (x) = 0.31775 0.20783
# Poissons Ratio (y) = 0.37022 0.11090
# Poissons Ratio (z) = 0.32189 0.14741
#
# Static dielectric constant tensor:
#      x y z
#    x 3.368380 0.000000 0.000000 
#    y 0.000000 3.844950 0.000000 
#    z 0.000000 0.000000 3.422330 
# 
# 
# High freq. dielectric constant tensor:
#      x y z
#    x 1.715140 0.000000 0.000000 
#    y 0.000000 1.760630 0.000000 
#    z 0.000000 0.000000 1.730310 
# 
# From -- ./inp_files/36206.got.cif
#   From: 2010.06.25/outbox.cif.g09.slc.cpg/sg48_19_cif.got.tgz:36206.got - 2010.06.26 18:06:46.
