data_PCOD8201778
_publ_section_title
;
Structure prediction by ZEFSAII (Michael W. Deem and Ramdas Pophale) SiO2 
 PCOD8201778
Probable space group: P N N N
;
_chemical_formula_sum "Si O2"
_cell_formula_units_Z 56
_cell_length_a 12.119823
_cell_length_b 16.343465
_cell_length_c 14.018977
_cell_angle_alpha 90.000000
_cell_angle_beta 90.000000
_cell_angle_gamma 90.000000
_cell_volume 2776.877604
_symmetry_space_group_name_H-M "P N N N"
_symmetry_group_IT_number 48
_space_group.IT_coordinate_system_code '2'
_symmetry_cell_setting 'orthorhombic'
loop_
_space_group_symop_operation_xyz
x,y,z
1/2-x,1/2-y,z
x,1/2-y,1/2-z
1/2-x,y,1/2-z
-x,-y,-z
1/2+x,1/2+y,-z
-x,1/2+y,1/2+z
1/2+x,-y,1/2+z
loop_
_atom_site_type_symbol
_atom_site_label
_atom_site_fract_x
_atom_site_fract_y
_atom_site_fract_z
Si Si1 0.009134 0.266638 0.969439
Si Si2 0.364216 0.924128 0.020553
Si Si3 0.630752 0.719294 0.853472
Si Si4 0.392313 0.900970 0.464243
Si Si5 0.969837 0.503665 0.157221
Si Si6 0.369303 0.324680 0.698193
Si Si7 0.526964 0.946442 0.643673
O O1 0.121347 0.291584 0.911251
O O2 0.924034 0.339276 0.964046
O O3 0.948070 0.184399 0.932877
O O4 0.040466 0.259093 0.079041
O O5 0.238594 0.901432 0.036892
O O6 0.413760 0.985338 0.101260
O O7 0.381449 0.964639 0.916137
O O8 0.750000 0.750000 0.884284
O O9 0.597997 0.750000 0.750000
O O10 0.624715 0.620792 0.863311
O O11 0.428454 0.925215 0.571066
O O12 0.427285 0.965279 0.383697
O O13 0.925711 0.587674 0.203809
O O14 0.984733 0.444159 0.247324
O O15 0.435679 0.250000 0.750000
O O16 0.250000 0.330418 0.750000
#
# Coordination Sequence:
#
# PCOD8201778 Si02
#       7
#     8   8   8   8   8   8   8
#     4  10  21  41  59  86 125 154 209 257 301 385
#     4  10  22  38  61  90 119 165 200 254 314 370
#     4  10  22  37  59  86 115 162 201 248 311 367
#     4  10  22  39  62  87 118 163 204 253 318 366
#     4  10  22  39  59  91 127 156 209 260 306 377
#     4  10  22  36  58  90 120 163 202 256 318 365
#     4  10  22  39  59  86 122 154 205 258 300 376
#
# _framework density 20.166536000000001
#
# number of rings (size 3 to 8) (size 9 to 14) (size 15 to 20)
#    0.000    2.000    0.000    2.143    4.000    6.286 
#    2.571    0.000    0.000    5.143    0.000    0.000 
#    0.000    0.000    0.000    0.000    0.000    0.000 
#
# Total GULP energy -693858.429796 kJ/mol
# GULP energy per Si atom -12390.329103 kJ/mol
# Density = 2.012064 g / cm^3
# Si number density = 20.166536 Si / 1000 Ang^3
#
#
#
# Elastic Constant Matrix: (Units=GPa)
#
#
# Indices 1 2 3 4 5 6 
#
# 1 110.5325 27.8376 33.3392 0.0000 0.0000 0.0000
# 2 27.8376 89.1967 24.5246 0.0000 0.0000 0.0000
# 3 33.3392 24.5246 80.1241 0.0000 0.0000 0.0000
# 4 0.0000 0.0000 0.0000 33.2894 0.0000 0.0000
# 5 0.0000 0.0000 0.0000 0.0000 15.5572 0.0000
# 6 0.0000 0.0000 0.0000 0.0000 0.0000 24.2480
#
#
#
# Elastic Compliance Matrix: (Units=1/GPa)
#
#
# Indices 1 2 3 4 5 6 
#
# 1 0.010770 -0.002325 -0.003770 0.000000 0.000000 0.000000
# 2 -0.002325 0.012743 -0.002933 0.000000 0.000000 0.000000
# 3 -0.003770 -0.002933 0.014947 0.000000 0.000000 0.000000
# 4 0.000000 0.000000 0.000000 0.030040 0.000000 0.000000
# 5 0.000000 0.000000 0.000000 0.000000 0.064279 0.000000
# 6 0.000000 0.000000 0.000000 0.000000 0.000000 0.041240
#
#
# Mechanical properties :
#
#
# Convention : Reuss Voigt Hill
#
# Bulk Modulus (GPa) = 49.00815 50.13957 49.57386
# Shear Modulus (GPa) = 25.14139 27.56237 26.35188
#
# Velocity S-wave (km/s) = 3.53468 3.70095 3.61877
# Velocity P-wave (km/s) = 6.40415 6.57111 6.48816
#
# Compressibility (1/GPa) = 0.02040477
#
# Stress axis : x y z
#
# Youngs Moduli (GPa) = 92.85402 78.47344 66.90319
#
# Poissons Ratio (x) = 0.18242 0.25220
# Poissons Ratio (y) = 0.21585 0.19624
# Poissons Ratio (z) = 0.35003 0.23018
#
# Static dielectric constant tensor:
#      x y z
#    x 3.445150 0.000000 0.000000 
#    y 0.000000 3.942650 0.000000 
#    z 0.000000 0.000000 3.851410 
# 
# 
# High freq. dielectric constant tensor:
#      x y z
#    x 1.764610 0.000000 0.000000 
#    y 0.000000 1.805810 0.000000 
#    z 0.000000 0.000000 1.798700 
# 
# From -- ./inp_files/26523.got.cif
#   From: 2010.06.25/outbox.cif.g09.slc.cpg/sg48_14_cif.got.tgz:26523.got - 2010.06.26 18:06:46.
