data_PCOD8201733
_publ_section_title
;
Structure prediction by ZEFSAII (Michael W. Deem and Ramdas Pophale) SiO2 
 PCOD8201733
Probable space group: P N N N
;
_chemical_formula_sum "Si O2"
_cell_formula_units_Z 64
_cell_length_a 17.000617
_cell_length_b 12.460655
_cell_length_c 15.199015
_cell_angle_alpha 90.000000
_cell_angle_beta 90.000000
_cell_angle_gamma 90.000000
_cell_volume 3219.741452
_symmetry_space_group_name_H-M "P N N N"
_symmetry_group_IT_number 48
_space_group.IT_coordinate_system_code '2'
_symmetry_cell_setting 'orthorhombic'
loop_
_space_group_symop_operation_xyz
x,y,z
1/2-x,1/2-y,z
x,1/2-y,1/2-z
1/2-x,y,1/2-z
-x,-y,-z
1/2+x,1/2+y,-z
-x,1/2+y,1/2+z
1/2+x,-y,1/2+z
loop_
_atom_site_type_symbol
_atom_site_label
_atom_site_fract_x
_atom_site_fract_y
_atom_site_fract_z
Si Si1 0.931373 0.461272 0.402372
Si Si2 0.945491 0.722682 0.646718
Si Si3 0.644054 0.955702 0.576899
Si Si4 0.068668 0.827667 0.378091
Si Si5 0.452551 0.391136 0.490734
Si Si6 0.687632 0.028320 0.988041
Si Si7 0.948779 0.402155 0.689745
Si Si8 0.236924 0.876518 0.847593
O O1 0.919191 0.500849 0.503628
O O2 0.848267 0.418757 0.370975
O O3 0.987458 0.360577 0.383103
O O4 0.965201 0.563579 0.347993
O O5 0.939090 0.750000 0.750000
O O6 0.866258 0.671588 0.600660
O O7 0.964407 0.837472 0.604191
O O8 0.732237 0.989480 0.556742
O O9 0.617539 0.010667 0.667757
O O10 0.142292 0.882461 0.428880
O O11 0.087703 0.707155 0.349957
O O12 0.045414 0.899139 0.294523
O O13 0.989018 0.814325 0.435330
O O14 0.500000 0.500000 0.500000
O O15 0.361253 0.419335 0.502796
O O16 0.700280 0.076558 0.084290
O O17 0.250000 0.750000 0.851356
O O18 0.250000 0.920999 0.750000
#
# Coordination Sequence:
#
# PCOD8201733 Si02
#       8
#     8   8   8   8   8   8   8   8
#     4  10  22  39  67  87 131 164 210 260 322 386
#     4  11  24  39  66  94 122 167 218 265 314 381
#     4  10  22  42  61  89 126 171 213 248 330 387
#     4  10  22  38  63  91 125 158 217 257 319 369
#     4  10  23  38  60  87 125 160 204 258 319 367
#     4  10  24  39  62  87 130 167 196 264 321 376
#     4  10  21  38  63  93 118 167 211 259 303 392
#     4  10  24  39  61  95 124 160 205 259 322 384
#
# _framework density 19.877372000000001
#
# number of rings (size 3 to 8) (size 9 to 14) (size 15 to 20)
#    0.000    1.875    0.000    3.000   17.500    1.000 
#    0.000    1.875    0.000    0.000    0.000    0.000 
#    0.000    0.000    0.000    0.000    0.000    0.000 
#
# Total GULP energy -792869.960335 kJ/mol
# GULP energy per Si atom -12388.593130 kJ/mol
# Density = 1.983213 g / cm^3
# Si number density = 19.877372 Si / 1000 Ang^3
#
#
#
# Elastic Constant Matrix: (Units=GPa)
#
#
# Indices 1 2 3 4 5 6 
#
# 1 105.2698 38.8743 52.9527 0.0000 0.0000 0.0000
# 2 38.8743 95.9336 59.0901 0.0000 0.0000 0.0000
# 3 52.9527 59.0901 155.1058 0.0000 0.0000 0.0000
# 4 0.0000 0.0000 0.0000 34.9600 0.0000 0.0000
# 5 0.0000 0.0000 0.0000 0.0000 19.7953 0.0000
# 6 0.0000 0.0000 0.0000 0.0000 0.0000 27.5312
#
#
#
# Elastic Compliance Matrix: (Units=1/GPa)
#
#
# Indices 1 2 3 4 5 6 
#
# 1 0.012132 -0.003090 -0.002965 0.000000 0.000000 0.000000
# 2 -0.003090 0.014407 -0.004434 0.000000 0.000000 0.000000
# 3 -0.002965 -0.004434 0.009148 0.000000 0.000000 0.000000
# 4 0.000000 0.000000 0.000000 0.028604 0.000000 0.000000
# 5 0.000000 0.000000 0.000000 0.000000 0.050517 0.000000
# 6 0.000000 0.000000 0.000000 0.000000 0.000000 0.036322
#
#
# Mechanical properties :
#
#
# Convention : Reuss Voigt Hill
#
# Bulk Modulus (GPa) = 67.97815 73.12703 70.55259
# Shear Modulus (GPa) = 28.24692 30.15011 29.19851
#
# Velocity S-wave (km/s) = 3.77378 3.89884 3.83682
# Velocity P-wave (km/s) = 7.29805 7.55890 7.42962
#
# Compressibility (1/GPa) = 0.01471061
#
# Stress axis : x y z
#
# Youngs Moduli (GPa) = 82.42864 69.41119 109.30931
#
# Poissons Ratio (x) = 0.21448 0.32405
# Poissons Ratio (y) = 0.25471 0.48464
# Poissons Ratio (z) = 0.24436 0.30774
#
# Static dielectric constant tensor:
#      x y z
#    x 3.946520 0.000000 0.000000 
#    y 0.000000 3.943450 0.000000 
#    z 0.000000 0.000000 4.019740 
# 
# 
# High freq. dielectric constant tensor:
#      x y z
#    x 1.769320 0.000000 0.000000 
#    y 0.000000 1.781070 0.000000 
#    z 0.000000 0.000000 1.786830 
# 
# From -- ./inp_files/28054.got.cif
#   From: 2010.06.25/outbox.cif.g09.slc.cpg/sg48_15_cif.got.tgz:28054.got - 2010.06.26 18:06:46.
