data_PCOD8201286
_publ_section_title
;
Structure prediction by ZEFSAII (Michael W. Deem and Ramdas Pophale) SiO2 
 PCOD8201286
Probable space group: P N N N
;
_chemical_formula_sum "Si O2"
_cell_formula_units_Z 42
_cell_length_a 5.127346
_cell_length_b 18.230416
_cell_length_c 23.649900
_cell_angle_alpha 90.000000
_cell_angle_beta 90.000000
_cell_angle_gamma 90.000000
_cell_volume 2210.642488
_symmetry_space_group_name_H-M "P N N N"
_symmetry_group_IT_number 48
_space_group.IT_coordinate_system_code '2'
_symmetry_cell_setting 'orthorhombic'
loop_
_space_group_symop_operation_xyz
x,y,z
1/2-x,1/2-y,z
x,1/2-y,1/2-z
1/2-x,y,1/2-z
-x,-y,-z
1/2+x,1/2+y,-z
-x,1/2+y,1/2+z
1/2+x,-y,1/2+z
loop_
_atom_site_type_symbol
_atom_site_label
_atom_site_fract_x
_atom_site_fract_y
_atom_site_fract_z
Si Si1 0.431724 0.818171 0.346403
Si Si2 0.746524 0.477064 0.683270
Si Si3 0.761067 0.022247 0.122036
Si Si4 0.622949 0.616604 0.048519
Si Si5 0.750000 0.750000 0.250000
Si Si6 0.905528 0.081904 0.485533
O O1 0.250000 0.750000 0.357735
O O2 0.275505 0.894179 0.339797
O O3 0.618966 0.822835 0.401311
O O4 0.585994 0.805392 0.288389
O O5 0.750000 0.479167 0.750000
O O6 0.465656 0.506207 0.666107
O O7 0.970283 0.530770 0.657374
O O8 0.798916 0.959089 0.076793
O O9 0.675487 0.090214 0.081132
O O10 0.338376 0.608468 0.022009
O O11 0.847392 0.634716 0.001768
O O12 0.000000 0.000000 0.500000
#
# Coordination Sequence:
#
# PCOD8201286 Si02
#       6
#     8   8   8   8   2   8
#     4  11  25  36  48  66  91 132 178 221 255 281
#     4  11  22  33  49  69  98 130 168 204 247 289
#     4  10  19  32  50  70  93 119 154 203 256 303
#     4  10  20  31  52  67  90 114 160 210 260 292
#     4  12  26  36  52  58  96 136 186 220 252 268
#     4  10  17  32  50  72  88 111 148 207 261 305
#
# _framework density 18.998999999999999
#
# number of rings (size 3 to 8) (size 9 to 14) (size 15 to 20)
#    0.000    1.524    0.000   10.000   13.333    0.000 
#    0.000    0.000    0.000    0.000    0.000    0.000 
#    0.000    0.000    0.000    0.000    0.000   26.667 
#
# Total GULP energy -520382.712144 kJ/mol
# GULP energy per Si atom -12390.064575 kJ/mol
# Density = 1.895576 g / cm^3
# Si number density = 18.999000 Si / 1000 Ang^3
#
#
#
# Elastic Constant Matrix: (Units=GPa)
#
#
# Indices 1 2 3 4 5 6 
#
# 1 117.2257 16.9942 31.3511 0.0000 0.0000 0.0000
# 2 16.9942 22.8934 32.7962 0.0000 0.0000 0.0000
# 3 31.3511 32.7962 107.0190 0.0000 0.0000 0.0000
# 4 0.0000 0.0000 0.0000 23.0356 0.0000 0.0000
# 5 0.0000 0.0000 0.0000 0.0000 52.1415 0.0000
# 6 0.0000 0.0000 0.0000 0.0000 0.0000 -3.4973
#
#
#
# Elastic Compliance Matrix: (Units=1/GPa)
#
#
# Indices 1 2 3 4 5 6 
#
# 1 0.009635 -0.005541 -0.001124 0.000000 0.000000 0.000000
# 2 -0.005541 0.081051 -0.023215 0.000000 0.000000 0.000000
# 3 -0.001124 -0.023215 0.016788 0.000000 0.000000 0.000000
# 4 0.000000 0.000000 0.000000 0.043411 0.000000 0.000000
# 5 0.000000 0.000000 0.000000 0.000000 0.019179 0.000000
# 6 0.000000 0.000000 0.000000 0.000000 0.000000 -0.285931
#
#
# Mechanical properties :
#
#
# Convention : Reuss Voigt Hill
#
# Bulk Modulus (GPa) = 20.95905 45.49123 33.22514
# Shear Modulus (GPa) = -124.36548 25.40238 -49.48155
#
# Velocity S-wave (km/s) = -8.09945 3.66052 -5.10890
# Velocity P-wave (km/s) = 8.74142 6.47007 4.15636
#
# Compressibility (1/GPa) = 0.04771209
#
# Stress axis : x y z
#
# Youngs Moduli (GPa) = 103.79297 12.33798 59.56740
#
# Poissons Ratio (x) = 0.06837 0.06697
# Poissons Ratio (y) = 0.57515 1.38284
# Poissons Ratio (z) = 0.11669 0.28642
#
# Static dielectric constant tensor:
#      x y z
#    x 4.218650 0.000000 0.000000 
#    y 0.000000 3.116190 0.000000 
#    z 0.000000 0.000000 3.970330 
# 
# 
# High freq. dielectric constant tensor:
#      x y z
#    x 1.765530 0.000000 0.000000 
#    y 0.000000 1.653830 0.000000 
#    z 0.000000 0.000000 1.753160 
# 
# From -- ./inp_files/5859.got.cif
#   From: 2010.06.25/outbox.cif.g09.slc.cpg/sg48_3_cif.got.tgz:5859.got - 2010.06.26 18:06:46.
