data_PCOD8201887
_publ_section_title
;
Structure prediction by ZEFSAII (Michael W. Deem and Ramdas Pophale) SiO2 
 PCOD8201887
Probable space group: P N N N
;
_chemical_formula_sum "Si O2"
_cell_formula_units_Z 34
_cell_length_a 8.531127
_cell_length_b 13.234710
_cell_length_c 13.275944
_cell_angle_alpha 90.000000
_cell_angle_beta 90.000000
_cell_angle_gamma 90.000000
_cell_volume 1498.946901
_symmetry_space_group_name_H-M "P N N N"
_symmetry_group_IT_number 48
_space_group.IT_coordinate_system_code '2'
_symmetry_cell_setting 'orthorhombic'
loop_
_space_group_symop_operation_xyz
x,y,z
1/2-x,1/2-y,z
x,1/2-y,1/2-z
1/2-x,y,1/2-z
-x,-y,-z
1/2+x,1/2+y,-z
-x,1/2+y,1/2+z
1/2+x,-y,1/2+z
loop_
_atom_site_type_symbol
_atom_site_label
_atom_site_fract_x
_atom_site_fract_y
_atom_site_fract_z
Si Si1 0.995435 0.750000 0.250000
Si Si2 0.402712 0.537375 0.303762
Si Si3 0.759366 0.552384 0.519436
Si Si4 0.750000 0.250000 0.250000
Si Si5 0.250000 0.250000 0.911353
Si Si6 0.424247 0.574275 0.855639
O O1 0.890890 0.791960 0.157863
O O2 0.098618 0.841335 0.293241
O O3 0.250000 0.493248 0.250000
O O4 0.381397 0.502011 0.419038
O O5 0.553891 0.489175 0.248661
O O6 0.688188 0.656853 0.477648
O O7 0.797143 0.479168 0.426462
O O8 0.913005 0.581410 0.583766
O O9 0.639049 0.316242 0.176863
#
# Coordination Sequence:
#
# PCOD8201887 Si02
#       6
#     4   8   8   2   4   8
#     4  11  23  40  66  98 137 171 222 274 336 399
#     4  10  22  43  67  95 131 178 221 281 332 396
#     4  10  23  44  69  93 134 172 224 275 332 408
#     4  12  28  40  70  90 134 176 212 282 344 398
#     4  11  24  38  67 100 130 176 211 280 334 399
#     4  10  24  46  61  96 133 168 225 277 328 405
#
# _framework density 22.682590999999999
#
# number of rings (size 3 to 8) (size 9 to 14) (size 15 to 20)
#    0.000    1.647    2.353    0.353    6.588    2.824 
#    0.000    0.000    0.000    0.000    0.000    0.000 
#    0.000    0.000    0.000    0.000    0.000    0.000 
#
# Total GULP energy -421518.080429 kJ/mol
# GULP energy per Si atom -12397.590601 kJ/mol
# Density = 2.263096 g / cm^3
# Si number density = 22.682591 Si / 1000 Ang^3
#
#
#
# Elastic Constant Matrix: (Units=GPa)
#
#
# Indices 1 2 3 4 5 6 
#
# 1 43.5012 36.1252 57.8917 0.0000 0.0000 0.0000
# 2 36.1252 175.7431 86.9814 0.0000 0.0000 0.0000
# 3 57.8917 86.9814 160.0295 0.0000 0.0000 0.0000
# 4 0.0000 0.0000 0.0000 49.6415 0.0000 0.0000
# 5 0.0000 0.0000 0.0000 0.0000 34.4601 0.0000
# 6 0.0000 0.0000 0.0000 0.0000 0.0000 39.5087
#
#
#
# Elastic Compliance Matrix: (Units=1/GPa)
#
#
# Indices 1 2 3 4 5 6 
#
# 1 0.044664 -0.001620 -0.015277 0.000000 0.000000 0.000000
# 2 -0.001620 0.007843 -0.003677 0.000000 0.000000 0.000000
# 3 -0.015277 -0.003677 0.013774 0.000000 0.000000 0.000000
# 4 0.000000 0.000000 0.000000 0.020144 0.000000 0.000000
# 5 0.000000 0.000000 0.000000 0.000000 0.029019 0.000000
# 6 0.000000 0.000000 0.000000 0.000000 0.000000 0.025311
#
#
# Mechanical properties :
#
#
# Convention : Reuss Voigt Hill
#
# Bulk Modulus (GPa) = 39.78810 82.36339 61.07575
# Shear Modulus (GPa) = 26.27706 37.94041 32.10874
#
# Velocity S-wave (km/s) = 3.40732 4.09426 3.76648
# Velocity P-wave (km/s) = 5.74971 7.66425 6.77495
#
# Compressibility (1/GPa) = 0.02513314
#
# Stress axis : x y z
#
# Youngs Moduli (GPa) = 22.38956 127.50349 72.60100
#
# Poissons Ratio (x) = 0.20653 1.10912
# Poissons Ratio (y) = 0.03627 0.26695
# Poissons Ratio (z) = 0.34204 0.46882
#
# Static dielectric constant tensor:
#      x y z
#    x 3.869400 0.000000 0.000000 
#    y 0.000000 3.820530 0.000000 
#    z 0.000000 0.000000 4.384250 
# 
# 
# High freq. dielectric constant tensor:
#      x y z
#    x 1.886930 0.000000 0.000000 
#    y 0.000000 1.889120 0.000000 
#    z 0.000000 0.000000 1.908030 
# 
# From -- ./inp_files/10363.got.cif
#   From: 2010.06.25/outbox.cif.g09.slc.cpg/sg48_6_cif.got.tgz:10363.got - 2010.06.26 18:06:46.
