data_PCOD8201533
_publ_section_title
;
Structure prediction by ZEFSAII (Michael W. Deem and Ramdas Pophale) SiO2 
 PCOD8201533
Probable space group: P N N N
;
_chemical_formula_sum "Si O2"
_cell_formula_units_Z 64
_cell_length_a 18.344590
_cell_length_b 12.228720
_cell_length_c 14.789856
_cell_angle_alpha 90.000000
_cell_angle_beta 90.000000
_cell_angle_gamma 90.000000
_cell_volume 3317.821036
_symmetry_space_group_name_H-M "P N N N"
_symmetry_group_IT_number 48
_space_group.IT_coordinate_system_code '2'
_symmetry_cell_setting 'orthorhombic'
loop_
_space_group_symop_operation_xyz
x,y,z
1/2-x,1/2-y,z
x,1/2-y,1/2-z
1/2-x,y,1/2-z
-x,-y,-z
1/2+x,1/2+y,-z
-x,1/2+y,1/2+z
1/2+x,-y,1/2+z
loop_
_atom_site_type_symbol
_atom_site_label
_atom_site_fract_x
_atom_site_fract_y
_atom_site_fract_z
Si Si1 0.924987 0.375052 0.150580
Si Si2 0.075013 0.875052 0.849420
Si Si3 0.163836 0.750000 0.146041
Si Si4 0.577462 0.878406 0.578364
Si Si5 0.577462 0.621594 0.578364
Si Si6 0.335321 0.562249 0.007729
Si Si7 0.335321 0.562249 0.492271
Si Si8 0.670443 0.877617 0.750000
O O1 0.943849 0.250000 0.168880
O O2 0.914740 0.431176 0.250000
O O3 0.995503 0.420687 0.096425
O O4 0.852320 0.384291 0.089958
O O5 0.004497 0.920687 0.903575
O O6 0.147680 0.884291 0.910042
O O7 0.250000 0.750000 0.150088
O O8 0.132491 0.750000 0.250000
O O9 0.138728 0.857318 0.089428
O O10 0.138728 0.642682 0.089428
O O11 0.582109 0.750000 0.553046
O O12 0.625553 0.913113 0.663886
O O13 0.616406 0.951344 0.502126
O O14 0.616406 0.548656 0.502126
O O15 0.625553 0.586887 0.663886
O O16 0.250000 0.535622 0.014316
O O17 0.682986 0.750000 0.750000
O O18 0.750000 0.936799 0.750000
#
# Coordination Sequence:
#
# PCOD8201533 Si02
#       8
#     8   8   8   8   8   8   8   8
#     4  10  20  37  59  82 113 150 192 240 283 330
#     4  10  20  37  59  82 113 150 192 240 283 330
#     4   9  20  36  51  75 113 151 182 223 284 340
#     4  10  20  35  55  82 112 144 184 231 290 341
#     4  10  20  35  55  82 112 144 184 231 290 341
#     4  11  22  36  56  83 115 151 192 235 281 339
#     4  11  22  36  56  83 115 151 192 235 281 339
#     4   9  16  28  48  77 108 136 174 220 271 333
#
# _framework density 19.289769
#
# number of rings (size 3 to 8) (size 9 to 14) (size 15 to 20)
#    0.000    2.000    2.500    1.500    1.750    2.000 
#    0.000    1.250    0.000    0.750    0.000    1.750 
#    0.000    0.000    0.000    0.000    0.000    0.000 
#
# Total GULP energy -792998.986824 kJ/mol
# GULP energy per Si atom -12390.609169 kJ/mol
# Density = 1.924586 g / cm^3
# Si number density = 19.289769 Si / 1000 Ang^3
#
#
#
# Elastic Constant Matrix: (Units=GPa)
#
#
# Indices 1 2 3 4 5 6 
#
# 1 67.5530 23.2231 39.2566 0.0000 0.0000 0.0000
# 2 23.2231 71.7650 32.3128 0.0000 0.0000 0.0000
# 3 39.2566 32.3128 98.9640 0.0000 0.0000 0.0000
# 4 0.0000 0.0000 0.0000 8.8112 0.0000 0.0000
# 5 0.0000 0.0000 0.0000 0.0000 38.3242 0.0000
# 6 0.0000 0.0000 0.0000 0.0000 0.0000 24.7166
#
#
#
# Elastic Compliance Matrix: (Units=1/GPa)
#
#
# Indices 1 2 3 4 5 6 
#
# 1 0.019916 -0.003385 -0.006795 0.000000 0.000000 0.000000
# 2 -0.003385 0.016911 -0.004179 0.000000 0.000000 0.000000
# 3 -0.006795 -0.004179 0.014164 0.000000 0.000000 0.000000
# 4 0.000000 0.000000 0.000000 0.113492 0.000000 0.000000
# 5 0.000000 0.000000 0.000000 0.000000 0.026093 0.000000
# 6 0.000000 0.000000 0.000000 0.000000 0.000000 0.040459
#
#
# Mechanical properties :
#
#
# Convention : Reuss Voigt Hill
#
# Bulk Modulus (GPa) = 44.89612 47.54080 46.21846
# Shear Modulus (GPa) = 18.71415 23.93635 21.32525
#
# Velocity S-wave (km/s) = 3.11812 3.52644 3.32855
# Velocity P-wave (km/s) = 6.02401 6.42496 6.22771
#
# Compressibility (1/GPa) = 0.02227364
#
# Stress axis : x y z
#
# Youngs Moduli (GPa) = 50.21212 59.13159 70.59945
#
# Poissons Ratio (x) = 0.20018 0.47970
# Poissons Ratio (y) = 0.16998 0.29503
# Poissons Ratio (z) = 0.34117 0.24711
#
# Static dielectric constant tensor:
#      x y z
#    x 3.467220 0.000000 0.000000 
#    y 0.000000 3.297210 0.000000 
#    z 0.000000 0.000000 3.587010 
# 
# 
# High freq. dielectric constant tensor:
#      x y z
#    x 1.745280 0.000000 0.000000 
#    y 0.000000 1.730060 0.000000 
#    z 0.000000 0.000000 1.741100 
# 
# From -- ./inp_files/28082.got.cif
#   From: 2010.06.25/outbox.cif.g09.slc.cpg/sg48_15_cif.got.tgz:28082.got - 2010.06.26 18:06:46.
