data_PCOD8201329
_publ_section_title
;
Structure prediction by ZEFSAII (Michael W. Deem and Ramdas Pophale) SiO2 
 PCOD8201329
Probable space group: P N N N
;
_chemical_formula_sum "Si O2"
_cell_formula_units_Z 64
_cell_length_a 12.017171
_cell_length_b 9.060455
_cell_length_c 28.416362
_cell_angle_alpha 90.000000
_cell_angle_beta 90.000000
_cell_angle_gamma 90.000000
_cell_volume 3094.002964
_symmetry_space_group_name_H-M "P N N N"
_symmetry_group_IT_number 48
_space_group.IT_coordinate_system_code '2'
_symmetry_cell_setting 'orthorhombic'
loop_
_space_group_symop_operation_xyz
x,y,z
1/2-x,1/2-y,z
x,1/2-y,1/2-z
1/2-x,y,1/2-z
-x,-y,-z
1/2+x,1/2+y,-z
-x,1/2+y,1/2+z
1/2+x,-y,1/2+z
loop_
_atom_site_type_symbol
_atom_site_label
_atom_site_fract_x
_atom_site_fract_y
_atom_site_fract_z
Si Si1 0.387051 0.394002 0.087368
Si Si2 0.747038 0.412959 0.425159
Si Si3 0.141017 0.345109 0.515314
Si Si4 0.354127 0.067359 0.116156
Si Si5 0.477435 0.345871 0.294139
Si Si6 0.024516 0.068583 0.550764
Si Si7 0.085913 0.915042 0.847997
Si Si8 0.121440 0.081140 0.757735
O O1 0.384735 0.217955 0.090475
O O2 0.276447 0.467660 0.109893
O O3 0.491344 0.460551 0.114739
O O4 0.404437 0.422869 0.031999
O O5 0.750000 0.250000 0.448729
O O6 0.830746 0.519181 0.451856
O O7 0.623683 0.478300 0.424373
O O8 0.793885 0.399085 0.372236
O O9 0.250000 0.250000 0.501981
O O10 0.053293 0.240525 0.542569
O O11 0.381339 0.086264 0.171980
O O12 0.422475 0.941072 0.087790
O O13 0.427272 0.250000 0.250000
O O14 0.558723 0.240485 0.323561
O O15 0.549170 0.483459 0.277335
O O16 0.000000 0.000000 0.500000
O O17 0.090205 0.047603 0.811274
O O18 0.091195 0.250000 0.750000
O O19 0.250000 0.044973 0.750000
#
# Coordination Sequence:
#
# PCOD8201329 Si02
#       8
#     8   8   8   8   8   8   8   8
#     4  10  18  38  61  88 125 164 208 255 311 359
#     4  11  24  38  59  91 124 162 206 259 313 370
#     4  10  20  38  60  86 124 167 210 260 305 364
#     4  10  18  33  64  89 122 162 209 264 302 376
#     4   9  20  38  61  93 119 155 205 255 317 371
#     4  11  21  38  61  89 119 167 218 253 314 372
#     4  10  23  39  62  93 120 160 202 255 314 375
#     4  10  23  42  64  87 124 158 195 256 318 382
#
# _framework density 20.685178000000001
#
# number of rings (size 3 to 8) (size 9 to 14) (size 15 to 20)
#    0.000    1.875    2.500    2.250    3.500    3.250 
#    4.500   10.625    2.750    0.750    0.000    0.000 
#    0.000    0.000    0.000    0.000    0.000    0.000 
#
# Total GULP energy -793535.643581 kJ/mol
# GULP energy per Si atom -12398.994431 kJ/mol
# Density = 2.063810 g / cm^3
# Si number density = 20.685178 Si / 1000 Ang^3
#
#
#
# Elastic Constant Matrix: (Units=GPa)
#
#
# Indices 1 2 3 4 5 6 
#
# 1 102.8181 39.8852 51.0874 0.0000 0.0000 0.0000
# 2 39.8852 107.2143 45.2021 0.0000 0.0000 0.0000
# 3 51.0874 45.2021 128.2395 0.0000 0.0000 0.0000
# 4 0.0000 0.0000 0.0000 22.2089 0.0000 0.0000
# 5 0.0000 0.0000 0.0000 0.0000 32.5749 0.0000
# 6 0.0000 0.0000 0.0000 0.0000 0.0000 26.5846
#
#
#
# Elastic Compliance Matrix: (Units=1/GPa)
#
#
# Indices 1 2 3 4 5 6 
#
# 1 0.012950 -0.003104 -0.004065 0.000000 0.000000 0.000000
# 2 -0.003104 0.011699 -0.002887 0.000000 0.000000 0.000000
# 3 -0.004065 -0.002887 0.010435 0.000000 0.000000 0.000000
# 4 0.000000 0.000000 0.000000 0.045027 0.000000 0.000000
# 5 0.000000 0.000000 0.000000 0.000000 0.030698 0.000000
# 6 0.000000 0.000000 0.000000 0.000000 0.000000 0.037616
#
#
# Mechanical properties :
#
#
# Convention : Reuss Voigt Hill
#
# Bulk Modulus (GPa) = 66.79118 67.84682 67.31900
# Shear Modulus (GPa) = 28.81398 29.74683 29.28041
#
# Velocity S-wave (km/s) = 3.73631 3.79631 3.76643
# Velocity P-wave (km/s) = 7.13953 7.21712 7.17843
#
# Compressibility (1/GPa) = 0.01497204
#
# Stress axis : x y z
#
# Youngs Moduli (GPa) = 77.22254 85.47735 95.83195
#
# Poissons Ratio (x) = 0.26530 0.38954
# Poissons Ratio (y) = 0.23967 0.27669
# Poissons Ratio (z) = 0.31389 0.24679
#
# Static dielectric constant tensor:
#      x y z
#    x 3.819790 0.000000 0.000000 
#    y 0.000000 3.613890 0.000000 
#    z 0.000000 0.000000 3.908120 
# 
# 
# High freq. dielectric constant tensor:
#      x y z
#    x 1.805820 0.000000 0.000000 
#    y 0.000000 1.792040 0.000000 
#    z 0.000000 0.000000 1.817840 
# 
# From -- ./inp_files/38988.got.cif
#   From: 2010.06.25/outbox.cif.g09.slc.cpg/sg48_20_cif.got.tgz:38988.got - 2010.06.26 18:06:46.
