data_PCOD8201105
_publ_section_title
;
Structure prediction by ZEFSAII (Michael W. Deem and Ramdas Pophale) SiO2 
 PCOD8201105
Probable space group: P M M M
;
_chemical_formula_sum "Si O2"
_cell_formula_units_Z 52
_cell_length_a 33.656560
_cell_length_b 9.587333
_cell_length_c 9.542907
_cell_angle_alpha 90.000000
_cell_angle_beta 90.000000
_cell_angle_gamma 90.000000
_cell_volume 3079.273246
_symmetry_space_group_name_H-M "P M M M"
_symmetry_group_IT_number 47
_symmetry_cell_setting 'orthorhombic'
loop_
_space_group_symop_operation_xyz
x,y,z
-x,-y,z
x,-y,-z
-x,y,-z
-x,-y,-z
x,y,-z
-x,y,z
x,-y,z
loop_
_atom_site_type_symbol
_atom_site_label
_atom_site_fract_x
_atom_site_fract_y
_atom_site_fract_z
Si Si1 0.574424 0.661684 0.164279
Si Si2 0.500000 0.158670 0.166497
Si Si3 0.264905 0.655271 0.666723
Si Si4 0.956231 0.656627 0.833542
Si Si5 0.807857 0.162003 0.337143
Si Si6 0.116295 0.162223 0.837305
Si Si7 0.351724 0.665748 0.344226
O O1 0.565146 0.500000 0.200601
O O2 0.538492 0.757285 0.220269
O O3 0.613972 0.717826 0.240263
O O4 0.581204 0.680817 0.000000
O O5 0.500000 0.000000 0.225389
O O6 0.500000 0.156921 0.000000
O O7 0.264674 0.649723 0.500000
O O8 0.257321 0.500000 0.727526
O O9 0.230456 0.756693 0.722235
O O10 0.308336 0.713642 0.713363
O O11 0.947039 0.500000 0.781534
O O12 0.922240 0.758815 0.775642
O O13 0.000000 0.703548 0.778922
O O14 0.956260 0.661957 0.000000
O O15 0.815711 0.194775 0.500000
O O16 0.845773 0.213932 0.249922
O O17 0.799595 0.000000 0.311298
O O18 0.108302 0.000000 0.813413
O O19 0.123891 0.197228 0.000000
O O20 0.359849 0.726573 0.500000
O O21 0.351192 0.500000 0.351575
#
# Coordination Sequence:
#
# PCOD8201105 Si02
#       7
#     8   4   8   8   8   8   8
#     4   9  16  27  45  66  84 105 138 175 204 235
#     4   9  17  29  44  61  84 114 142 167 200 244
#     4   8  14  26  44  63  82 107 139 170 200 240
#     4   8  14  25  41  61  84 108 134 166 204 244
#     4   9  17  29  44  61  82 109 140 171 202 239
#     4   9  17  28  42  61  84 108 135 169 206 241
#     4   8  14  26  44  64  85 108 134 167 207 246
#
# _framework density 16.887101999999999
#
# number of rings (size 3 to 8) (size 9 to 14) (size 15 to 20)
#    0.000    3.462    0.000    1.615    0.000    1.846 
#    0.000    3.462    0.000    5.077    0.000    3.231 
#    0.000    0.000    0.000    0.000    0.000    0.000 
#
# Total GULP energy -644488.326986 kJ/mol
# GULP energy per Si atom -12394.006288 kJ/mol
# Density = 1.684867 g / cm^3
# Si number density = 16.887102 Si / 1000 Ang^3
#
#
#
# Elastic Constant Matrix: (Units=GPa)
#
#
# Indices 1 2 3 4 5 6 
#
# 1 196.7024 79.1271 48.3004 0.0000 0.0000 0.0000
# 2 79.1271 68.6497 24.6015 0.0000 0.0000 0.0000
# 3 48.3004 24.6015 32.7637 0.0000 0.0000 0.0000
# 4 0.0000 0.0000 0.0000 11.1403 0.0000 0.0000
# 5 0.0000 0.0000 0.0000 0.0000 21.4076 0.0000
# 6 0.0000 0.0000 0.0000 0.0000 0.0000 19.1206
#
#
#
# Elastic Compliance Matrix: (Units=1/GPa)
#
#
# Indices 1 2 3 4 5 6 
#
# 1 0.011250 -0.009609 -0.009369 0.000000 0.000000 0.000000
# 2 -0.009609 0.028137 -0.006962 0.000000 0.000000 0.000000
# 3 -0.009369 -0.006962 0.049561 0.000000 0.000000 0.000000
# 4 0.000000 0.000000 0.000000 0.089764 0.000000 0.000000
# 5 0.000000 0.000000 0.000000 0.000000 0.046712 0.000000
# 6 0.000000 0.000000 0.000000 0.000000 0.000000 0.052300
#
#
# Mechanical properties :
#
#
# Convention : Reuss Voigt Hill
#
# Bulk Modulus (GPa) = 26.97737 66.90821 46.94279
# Shear Modulus (GPa) = 14.62151 20.07282 17.34716
#
# Velocity S-wave (km/s) = 2.94571 3.45142 3.20854
# Velocity P-wave (km/s) = 5.25161 7.45587 6.44862
#
# Compressibility (1/GPa) = 0.03706811
#
# Stress axis : x y z
#
# Youngs Moduli (GPa) = 88.88864 35.53977 20.17701
#
# Poissons Ratio (x) = 0.34152 0.18905
# Poissons Ratio (y) = 0.85417 0.14046
# Poissons Ratio (z) = 0.83283 0.24741
#
# Static dielectric constant tensor:
#      x y z
#    x 3.614650 0.000000 0.000000 
#    y 0.000000 3.118800 0.000000 
#    z 0.000000 0.000000 2.832040 
# 
# 
# High freq. dielectric constant tensor:
#      x y z
#    x 1.666690 0.000000 0.000000 
#    y 0.000000 1.632070 0.000000 
#    z 0.000000 0.000000 1.605340 
# 
# From -- ./inp_files/4791.got.cif
#   From: 2010.03.12/outbox.cif.g09.slc.cpg/sg47_3_cif.got.tgz:4791.got - 2010.04.14 03:12:58.
