data_PCOD8201064
_publ_section_title
;
Structure prediction by ZEFSAII (Michael W. Deem and Ramdas Pophale) SiO2 
 PCOD8201064
Probable space group: P M M M
;
_chemical_formula_sum "Si O2"
_cell_formula_units_Z 52
_cell_length_a 8.066802
_cell_length_b 9.941402
_cell_length_c 35.371941
_cell_angle_alpha 90.000000
_cell_angle_beta 90.000000
_cell_angle_gamma 90.000000
_cell_volume 2836.664182
_symmetry_space_group_name_H-M "P M M M"
_symmetry_group_IT_number 47
_symmetry_cell_setting 'orthorhombic'
loop_
_space_group_symop_operation_xyz
x,y,z
-x,-y,z
x,-y,-z
-x,y,-z
-x,-y,-z
x,y,-z
-x,y,z
x,-y,z
loop_
_atom_site_type_symbol
_atom_site_label
_atom_site_fract_x
_atom_site_fract_y
_atom_site_fract_z
Si Si1 0.185323 0.340035 0.910476
Si Si2 0.687220 0.840735 0.684234
Si Si3 0.193898 0.150070 0.395345
Si Si4 0.195111 0.350978 0.174293
Si Si5 0.193426 0.149981 0.763802
Si Si6 0.500000 0.339619 0.957100
Si Si7 0.197241 0.349721 0.457846
O O1 0.179605 0.500000 0.912349
O O2 0.230971 0.295530 0.867829
O O3 0.331273 0.283486 0.937538
O O4 0.000000 0.285773 0.921965
O O5 0.500000 0.790070 0.684865
O O6 0.772028 0.785613 0.646001
O O7 0.775432 0.786864 0.722203
O O8 0.704057 0.000000 0.683853
O O9 0.274022 0.245955 0.427381
O O10 0.000000 0.140156 0.401888
O O11 0.272735 0.000000 0.398803
O O12 0.273980 0.500000 0.179752
O O13 0.274442 0.247821 0.204668
O O14 0.000000 0.362292 0.180754
O O15 0.000000 0.138869 0.771167
O O16 0.273246 0.000000 0.767208
O O17 0.500000 0.500000 0.954984
O O18 0.500000 0.287668 0.000000
O O19 0.253364 0.305705 0.500000
O O20 0.263421 0.500000 0.449034
O O21 0.000000 0.349742 0.455258
#
# Coordination Sequence:
#
# PCOD8201064 Si02
#       7
#     8   8   8   8   8   4   8
#     4   8  14  25  39  55  80 114 146 178 222 272
#     4   9  17  29  43  59  83 113 139 166 207 254
#     4   9  16  26  43  65  83 102 134 171 202 237
#     4   8  14  26  43  61  84 114 142 169 211 264
#     4   9  16  27  45  66  85 107 140 181 216 248
#     4   9  16  24  36  58  85 113 149 187 223 269
#     4   8  14  25  41  62  87 110 131 161 205 251
#
# _framework density 18.331391
#
# number of rings (size 3 to 8) (size 9 to 14) (size 15 to 20)
#    0.000    3.462    0.000    1.846    0.000    2.462 
#    1.385    3.846    0.000    5.538    0.000    3.231 
#    0.000    1.231    0.000    6.000    0.000    6.154 
#
# Total GULP energy -644289.217937 kJ/mol
# GULP energy per Si atom -12390.177268 kJ/mol
# Density = 1.828967 g / cm^3
# Si number density = 18.331391 Si / 1000 Ang^3
#
#
#
# Elastic Constant Matrix: (Units=GPa)
#
#
# Indices 1 2 3 4 5 6 
#
# 1 49.0001 17.2094 41.2417 0.0000 0.0000 0.0000
# 2 17.2094 56.1050 64.5611 0.0000 0.0000 0.0000
# 3 41.2417 64.5611 177.2145 0.0000 0.0000 0.0000
# 4 0.0000 0.0000 0.0000 20.8971 0.0000 0.0000
# 5 0.0000 0.0000 0.0000 0.0000 5.8001 0.0000
# 6 0.0000 0.0000 0.0000 0.0000 0.0000 5.0800
#
#
#
# Elastic Compliance Matrix: (Units=1/GPa)
#
#
# Indices 1 2 3 4 5 6 
#
# 1 0.025474 -0.001708 -0.005306 0.000000 0.000000 0.000000
# 2 -0.001708 0.030804 -0.010825 0.000000 0.000000 0.000000
# 3 -0.005306 -0.010825 0.010821 0.000000 0.000000 0.000000
# 4 0.000000 0.000000 0.000000 0.047853 0.000000 0.000000
# 5 0.000000 0.000000 0.000000 0.000000 0.172410 0.000000
# 6 0.000000 0.000000 0.000000 0.000000 0.000000 0.196852
#
#
# Mechanical properties :
#
#
# Convention : Reuss Voigt Hill
#
# Bulk Modulus (GPa) = 31.82532 58.70489 45.26510
# Shear Modulus (GPa) = 9.42746 16.97594 13.20170
#
# Velocity S-wave (km/s) = 2.27023 3.04642 2.68651
# Velocity P-wave (km/s) = 4.92653 6.66843 5.86254
#
# Compressibility (1/GPa) = 0.03142152
#
# Stress axis : x y z
#
# Youngs Moduli (GPa) = 39.25582 32.46363 92.41073
#
# Poissons Ratio (x) = 0.05545 0.49034
# Poissons Ratio (y) = 0.06705 1.00031
# Poissons Ratio (z) = 0.20830 0.35141
#
# Static dielectric constant tensor:
#      x y z
#    x 3.156870 0.000000 0.000000 
#    y 0.000000 3.350630 0.000000 
#    z 0.000000 0.000000 3.670560 
# 
# 
# High freq. dielectric constant tensor:
#      x y z
#    x 1.684850 0.000000 0.000000 
#    y 0.000000 1.656540 0.000000 
#    z 0.000000 0.000000 1.719590 
# 
# From -- ./inp_files/33240.got.cif
#   From: 2010.03.12/outbox.cif.g09.slc.cpg/sg47_17_cif.got.tgz:33240.got - 2010.04.14 03:12:58.
