data_PCOD8201691
_publ_section_title
;
Structure prediction by ZEFSAII (Michael W. Deem and Ramdas Pophale) SiO2 
 PCOD8201691
Probable space group: P N N N
;
_chemical_formula_sum "Si O2"
_cell_formula_units_Z 58
_cell_length_a 18.622505
_cell_length_b 8.525491
_cell_length_c 18.150890
_cell_angle_alpha 90.000000
_cell_angle_beta 90.000000
_cell_angle_gamma 90.000000
_cell_volume 2881.744180
_symmetry_space_group_name_H-M "P N N N"
_symmetry_group_IT_number 48
_space_group.IT_coordinate_system_code '2'
_symmetry_cell_setting 'orthorhombic'
loop_
_space_group_symop_operation_xyz
x,y,z
1/2-x,1/2-y,z
x,1/2-y,1/2-z
1/2-x,y,1/2-z
-x,-y,-z
1/2+x,1/2+y,-z
-x,1/2+y,1/2+z
1/2+x,-y,1/2+z
loop_
_atom_site_type_symbol
_atom_site_label
_atom_site_fract_x
_atom_site_fract_y
_atom_site_fract_z
Si Si1 0.949215 0.159817 0.675366
Si Si2 0.250000 0.750000 0.750000
Si Si3 0.305648 0.463144 0.689810
Si Si4 0.449158 0.173225 0.562681
Si Si5 0.190874 0.136108 0.529525
Si Si6 0.174296 0.822175 0.440177
Si Si7 0.552287 0.390757 0.308574
Si Si8 0.071880 0.826191 0.947003
O O1 0.932069 0.250000 0.750000
O O2 0.874975 0.153127 0.630975
O O3 0.009471 0.255963 0.631622
O O4 0.975923 0.980890 0.689970
O O5 0.298047 0.651558 0.693738
O O6 0.250000 0.385946 0.750000
O O7 0.280511 0.404926 0.611114
O O8 0.391392 0.461974 0.706898
O O9 0.385274 0.284337 0.538462
O O10 0.497399 0.170071 0.490287
O O11 0.419344 0.001194 0.586896
O O12 0.250000 0.250000 0.493411
O O13 0.185174 0.989062 0.477261
O O14 0.250000 0.750000 0.414897
O O15 0.138047 0.703906 0.498305
O O16 0.550756 0.250000 0.250000
O O17 0.569060 0.312555 0.387459
#
# Coordination Sequence:
#
# PCOD8201691 Si02
#       8
#     8   2   8   8   8   8   8   8
#     4  11  24  42  65  92 122 159 216 278 332 381
#     4   8  20  36  50  80 124 176 208 230 292 356
#     4  10  21  36  52  83 130 170 210 248 293 375
#     4  10  21  40  61  93 124 159 205 262 307 379
#     4  12  24  38  60  93 129 172 210 264 313 386
#     4  11  24  42  67  89 119 166 215 274 332 391
#     4  12  21  38  62  92 126 175 211 255 313 394
#     4  10  21  39  65  89 123 161 209 253 313 379
#
# _framework density 20.126698999999999
#
# number of rings (size 3 to 8) (size 9 to 14) (size 15 to 20)
#    0.414    0.828    3.448    2.483    0.966    7.172 
#    0.000    1.379    0.000    0.000    0.000    0.000 
#    0.000    0.000    0.000    0.000    0.000    0.000 
#
# Total GULP energy -718816.575317 kJ/mol
# GULP energy per Si atom -12393.389230 kJ/mol
# Density = 2.008089 g / cm^3
# Si number density = 20.126699 Si / 1000 Ang^3
#
#
#
# Elastic Constant Matrix: (Units=GPa)
#
#
# Indices 1 2 3 4 5 6 
#
# 1 134.1330 50.9974 52.2294 0.0000 0.0000 0.0000
# 2 50.9974 104.9243 41.8170 0.0000 0.0000 0.0000
# 3 52.2294 41.8170 98.3711 0.0000 0.0000 0.0000
# 4 0.0000 0.0000 0.0000 15.9396 0.0000 0.0000
# 5 0.0000 0.0000 0.0000 0.0000 10.2921 0.0000
# 6 0.0000 0.0000 0.0000 0.0000 0.0000 38.4666
#
#
#
# Elastic Compliance Matrix: (Units=1/GPa)
#
#
# Indices 1 2 3 4 5 6 
#
# 1 0.010321 -0.003410 -0.004030 0.000000 0.000000 0.000000
# 2 -0.003410 0.012602 -0.003546 0.000000 0.000000 0.000000
# 3 -0.004030 -0.003546 0.013813 0.000000 0.000000 0.000000
# 4 0.000000 0.000000 0.000000 0.062737 0.000000 0.000000
# 5 0.000000 0.000000 0.000000 0.000000 0.097162 0.000000
# 6 0.000000 0.000000 0.000000 0.000000 0.000000 0.025997
#
#
# Mechanical properties :
#
#
# Convention : Reuss Voigt Hill
#
# Bulk Modulus (GPa) = 67.74075 69.72399 68.73237
# Shear Modulus (GPa) = 20.03804 25.76530 22.90167
#
# Velocity S-wave (km/s) = 3.15873 3.58181 3.37690
# Velocity P-wave (km/s) = 6.85811 7.19886 7.03055
#
# Compressibility (1/GPa) = 0.01476216
#
# Stress axis : x y z
#
# Youngs Moduli (GPa) = 96.88790 79.35552 72.39608
#
# Poissons Ratio (x) = 0.27062 0.29178
# Poissons Ratio (y) = 0.33041 0.25673
# Poissons Ratio (z) = 0.39049 0.28141
#
# Static dielectric constant tensor:
#      x y z
#    x 3.825530 0.000000 0.000000 
#    y 0.000000 4.369760 0.000000 
#    z 0.000000 0.000000 3.463500 
# 
# 
# High freq. dielectric constant tensor:
#      x y z
#    x 1.789350 0.000000 0.000000 
#    y 0.000000 1.799770 0.000000 
#    z 0.000000 0.000000 1.770920 
# 
# From -- ./inp_files/32010.got.cif
#   From: 2010.06.25/outbox.cif.g09.slc.cpg/sg48_17_cif.got.tgz:32010.got - 2010.06.26 18:06:46.
