data_PCOD8201087
_publ_section_title
;
Structure prediction by ZEFSAII (Michael W. Deem and Ramdas Pophale) SiO2 
 PCOD8201087
Probable space group: P M M M
;
_chemical_formula_sum "Si O2"
_cell_formula_units_Z 52
_cell_length_a 12.457989
_cell_length_b 9.433816
_cell_length_c 27.685619
_cell_angle_alpha 90.000000
_cell_angle_beta 90.000000
_cell_angle_gamma 90.000000
_cell_volume 3253.790467
_symmetry_space_group_name_H-M "P M M M"
_symmetry_group_IT_number 47
_symmetry_cell_setting 'orthorhombic'
loop_
_space_group_symop_operation_xyz
x,y,z
-x,-y,z
x,-y,-z
-x,y,-z
-x,-y,-z
x,y,-z
-x,y,z
x,-y,z
loop_
_atom_site_type_symbol
_atom_site_label
_atom_site_fract_x
_atom_site_fract_y
_atom_site_fract_z
Si Si1 0.296515 0.835614 0.219775
Si Si2 0.500000 0.339529 0.218090
Si Si3 0.702640 0.836568 0.330820
Si Si4 0.127605 0.660358 0.500000
Si Si5 0.876818 0.163519 0.408817
Si Si6 0.122048 0.835093 0.857394
Si Si7 0.500000 0.660271 0.332911
Si Si8 0.872468 0.340387 0.052994
O O1 0.394667 0.742242 0.199462
O O2 0.270723 0.799530 0.275378
O O3 0.191003 0.795199 0.189559
O O4 0.327806 0.000000 0.213566
O O5 0.500000 0.500000 0.198016
O O6 0.500000 0.337403 0.275517
O O7 0.809082 0.801931 0.361069
O O8 0.605762 0.741396 0.351530
O O9 0.667853 0.000000 0.336110
O O10 0.172245 0.500000 0.500000
O O11 0.169147 0.741433 0.452451
O O12 0.000000 0.663097 0.500000
O O13 0.000000 0.201227 0.396782
O O14 0.865428 0.000000 0.424401
O O15 0.172484 0.758503 0.904379
O O16 0.000000 0.785842 0.846941
O O17 0.127008 0.000000 0.868920
O O18 0.500000 0.500000 0.353118
O O19 0.832869 0.500000 0.062784
O O20 0.000000 0.333385 0.053151
O O21 0.830832 0.289619 0.000000
#
# Coordination Sequence:
#
# PCOD8201087 Si02
#       8
#     8   4   8   4   8   8   4   8
#     4   9  17  29  44  63  89 118 145 175 213 255
#     4   9  17  29  45  63  81 107 149 191 217 244
#     4   9  17  29  46  66  88 116 147 177 211 254
#     4   9  17  29  45  64  87 116 147 179 215 253
#     4   9  17  29  46  68  91 115 145 179 213 251
#     4   9  17  27  40  62  91 119 144 172 210 256
#     4   9  17  29  45  64  86 112 144 183 220 251
#     4   8  14  25  40  57  79 110 147 182 213 248
#
# _framework density 15.98136
#
# number of rings (size 3 to 8) (size 9 to 14) (size 15 to 20)
#    0.000    3.154    0.000    1.154    0.000    4.923 
#    0.000    4.615    0.000    0.462    0.000   12.385 
#    0.000    4.308    0.000    0.000    0.000    0.000 
#
# Total GULP energy -644646.397437 kJ/mol
# GULP energy per Si atom -12397.046105 kJ/mol
# Density = 1.594499 g / cm^3
# Si number density = 15.981360 Si / 1000 Ang^3
#
#
#
# Elastic Constant Matrix: (Units=GPa)
#
#
# Indices 1 2 3 4 5 6 
#
# 1 82.3613 49.6975 53.1228 0.0000 0.0000 0.0000
# 2 49.6975 81.7178 53.3604 0.0000 0.0000 0.0000
# 3 53.1228 53.3604 97.0486 0.0000 0.0000 0.0000
# 4 0.0000 0.0000 0.0000 21.5509 0.0000 0.0000
# 5 0.0000 0.0000 0.0000 0.0000 4.1729 0.0000
# 6 0.0000 0.0000 0.0000 0.0000 0.0000 17.0066
#
#
#
# Elastic Compliance Matrix: (Units=1/GPa)
#
#
# Indices 1 2 3 4 5 6 
#
# 1 0.022091 -0.008641 -0.007341 0.000000 0.000000 0.000000
# 2 -0.008641 0.022472 -0.007626 0.000000 0.000000 0.000000
# 3 -0.007341 -0.007626 0.018515 0.000000 0.000000 0.000000
# 4 0.000000 0.000000 0.000000 0.046402 0.000000 0.000000
# 5 0.000000 0.000000 0.000000 0.000000 0.239640 0.000000
# 6 0.000000 0.000000 0.000000 0.000000 0.000000 0.058801
#
#
# Mechanical properties :
#
#
# Convention : Reuss Voigt Hill
#
# Bulk Modulus (GPa) = 63.04270 63.72102 63.38186
# Shear Modulus (GPa) = 10.85956 15.54254 13.20105
#
# Velocity S-wave (km/s) = 2.60958 3.12194 2.87719
# Velocity P-wave (km/s) = 6.97231 7.27695 7.12626
#
# Compressibility (1/GPa) = 0.01586226
#
# Stress axis : x y z
#
# Youngs Moduli (GPa) = 45.26807 44.49986 54.00953
#
# Poissons Ratio (x) = 0.38453 0.39648
# Poissons Ratio (y) = 0.39117 0.41186
# Poissons Ratio (z) = 0.33231 0.33935
#
# Static dielectric constant tensor:
#      x y z
#    x 2.860330 0.000000 0.000000 
#    y 0.000000 3.164520 0.000000 
#    z 0.000000 0.000000 3.057900 
# 
# 
# High freq. dielectric constant tensor:
#      x y z
#    x 1.585470 0.000000 0.000000 
#    y 0.000000 1.616620 0.000000 
#    z 0.000000 0.000000 1.599860 
# 
# From -- ./inp_files/34326.got.cif
#   From: 2010.03.12/outbox.cif.g09.slc.cpg/sg47_18_cif.got.tgz:34326.got - 2010.04.14 03:12:58.
