data_PCOD8201008
_publ_section_title
;
Structure prediction by ZEFSAII (Michael W. Deem and Ramdas Pophale) SiO2 
 PCOD8201008
Probable space group: P M M M
;
_chemical_formula_sum "Si O2"
_cell_formula_units_Z 52
_cell_length_a 9.458808
_cell_length_b 33.767197
_cell_length_c 9.507481
_cell_angle_alpha 90.000000
_cell_angle_beta 90.000000
_cell_angle_gamma 90.000000
_cell_volume 3036.665027
_symmetry_space_group_name_H-M "P M M M"
_symmetry_group_IT_number 47
_symmetry_cell_setting 'orthorhombic'
loop_
_space_group_symop_operation_xyz
x,y,z
-x,-y,z
x,-y,-z
-x,y,-z
-x,-y,-z
x,y,-z
-x,y,z
x,-y,z
loop_
_atom_site_type_symbol
_atom_site_label
_atom_site_fract_x
_atom_site_fract_y
_atom_site_fract_z
Si Si1 0.168113 0.151036 0.841501
Si Si2 0.168332 0.222806 0.341710
Si Si3 0.164488 0.924520 0.335984
Si Si4 0.167959 0.689609 0.342323
Si Si5 0.659080 0.456442 0.167178
Si Si6 0.835100 0.383078 0.836455
Si Si7 0.659820 0.000000 0.333141
O O1 0.230478 0.190220 0.765521
O O2 0.217113 0.112919 0.753521
O O3 0.000000 0.153081 0.844231
O O4 0.228719 0.148785 0.000000
O O5 0.221960 0.213654 0.500000
O O6 0.220248 0.266661 0.294287
O O7 0.000000 0.221119 0.340540
O O8 0.191328 0.915360 0.500000
O O9 0.256415 0.961363 0.280567
O O10 0.000000 0.934235 0.309316
O O11 0.221474 0.680827 0.500000
O O12 0.228308 0.655760 0.239811
O O13 0.000000 0.688971 0.337426
O O14 0.500000 0.448077 0.219278
O O15 0.708808 0.500000 0.220970
O O16 0.760341 0.422157 0.227073
O O17 0.665128 0.456079 0.000000
O O18 0.000000 0.388344 0.806570
O O19 0.801979 0.377584 0.000000
O O20 0.500000 0.000000 0.272488
O O21 0.657348 0.000000 0.500000
#
# Coordination Sequence:
#
# PCOD8201008 Si02
#       7
#     8   8   8   8   8   8   4
#     4   9  16  24  36  58  86 112 138 170 207 243
#     4   8  13  22  36  54  78 109 141 168 197 238
#     4   9  16  27  44  64  86 112 140 170 206 247
#     4   8  14  24  37  54  80 113 140 161 195 245
#     4   8  14  25  40  57  78 105 135 165 200 244
#     4   9  16  24  37  60  84 103 130 170 207 235
#     4   9  17  29  46  67  86 106 140 181 210 236
#
# _framework density 17.124047999999998
#
# number of rings (size 3 to 8) (size 9 to 14) (size 15 to 20)
#    0.000    3.462    0.000    2.077    0.000    3.692 
#    0.000    5.000    0.000    3.692    0.000    4.308 
#    0.000    1.231    0.000    0.000    0.000    0.000 
#
# Total GULP energy -644426.633515 kJ/mol
# GULP energy per Si atom -12392.819875 kJ/mol
# Density = 1.708507 g / cm^3
# Si number density = 17.124048 Si / 1000 Ang^3
#
#
#
# Elastic Constant Matrix: (Units=GPa)
#
#
# Indices 1 2 3 4 5 6 
#
# 1 36.1018 48.6854 23.4951 0.0000 0.0000 0.0000
# 2 48.6854 195.5764 77.9511 0.0000 0.0000 0.0000
# 3 23.4951 77.9511 74.1782 0.0000 0.0000 0.0000
# 4 0.0000 0.0000 0.0000 26.6825 0.0000 0.0000
# 5 0.0000 0.0000 0.0000 0.0000 5.8796 0.0000
# 6 0.0000 0.0000 0.0000 0.0000 0.0000 3.3012
#
#
#
# Elastic Compliance Matrix: (Units=1/GPa)
#
#
# Indices 1 2 3 4 5 6 
#
# 1 0.042383 -0.008948 -0.004022 0.000000 0.000000 0.000000
# 2 -0.008948 0.010687 -0.008397 0.000000 0.000000 0.000000
# 3 -0.004022 -0.008397 0.023578 0.000000 0.000000 0.000000
# 4 0.000000 0.000000 0.000000 0.037478 0.000000 0.000000
# 5 0.000000 0.000000 0.000000 0.000000 0.170081 0.000000
# 6 0.000000 0.000000 0.000000 0.000000 0.000000 0.302922
#
#
# Mechanical properties :
#
#
# Convention : Reuss Voigt Hill
#
# Bulk Modulus (GPa) = 29.48366 67.34662 48.41514
# Shear Modulus (GPa) = 7.79829 17.55430 12.67629
#
# Velocity S-wave (km/s) = 2.13632 3.20523 2.72373
# Velocity P-wave (km/s) = 4.83117 7.28780 6.18273
#
# Compressibility (1/GPa) = 0.03391709
#
# Stress axis : x y z
#
# Youngs Moduli (GPa) = 23.59422 93.57065 42.41152
#
# Poissons Ratio (x) = 0.83724 0.17056
# Poissons Ratio (y) = 0.21111 0.35611
# Poissons Ratio (z) = 0.09489 0.78568
#
# Static dielectric constant tensor:
#      x y z
#    x 2.767440 0.000000 0.000000 
#    y 0.000000 3.662270 0.000000 
#    z 0.000000 0.000000 3.091540 
# 
# 
# High freq. dielectric constant tensor:
#      x y z
#    x 1.602340 0.000000 0.000000 
#    y 0.000000 1.680320 0.000000 
#    z 0.000000 0.000000 1.633180 
# 
# From -- ./inp_files/4778.got.cif
#   From: 2010.03.12/outbox.cif.g09.slc.cpg/sg47_3_cif.got.tgz:4778.got - 2010.04.14 03:12:58.
