data_PCOD8201096
_publ_section_title
;
Structure prediction by ZEFSAII (Michael W. Deem and Ramdas Pophale) SiO2 
 PCOD8201096
Probable space group: P M M M
;
_chemical_formula_sum "Si O2"
_cell_formula_units_Z 48
_cell_length_a 14.859578
_cell_length_b 10.066418
_cell_length_c 23.991964
_cell_angle_alpha 90.000000
_cell_angle_beta 90.000000
_cell_angle_gamma 90.000000
_cell_volume 3588.783316
_symmetry_space_group_name_H-M "P M M M"
_symmetry_group_IT_number 47
_symmetry_cell_setting 'orthorhombic'
loop_
_space_group_symop_operation_xyz
x,y,z
-x,-y,z
x,-y,-z
-x,y,-z
-x,-y,-z
x,y,-z
-x,y,z
x,-y,z
loop_
_atom_site_type_symbol
_atom_site_label
_atom_site_fract_x
_atom_site_fract_y
_atom_site_fract_z
Si Si1 0.249973 0.651571 0.435897
Si Si2 0.400040 0.851243 0.566158
Si Si3 0.107162 0.246470 0.130149
Si Si4 0.107446 0.500000 0.935992
Si Si5 0.892997 0.151908 0.751218
Si Si6 0.896007 0.651560 0.654447
Si Si7 0.892670 0.000000 0.938440
O O1 0.228525 0.686877 0.500000
O O2 0.283184 0.500000 0.429872
O O3 0.328384 0.745067 0.410661
O O4 0.158740 0.676824 0.402024
O O5 0.402139 0.842721 0.500000
O O6 0.500000 0.817297 0.589248
O O7 0.372031 0.000000 0.585071
O O8 0.145036 0.376718 0.099696
O O9 0.143702 0.223799 0.192825
O O10 0.000000 0.250667 0.131178
O O11 0.144472 0.127104 0.093238
O O12 0.000000 0.500000 0.938328
O O13 0.143967 0.500000 0.000000
O O14 0.860273 0.244066 0.700333
O O15 0.000000 0.147004 0.753441
O O16 0.856188 0.000000 0.745708
O O17 0.882431 0.500000 0.676225
O O18 0.000000 0.678140 0.640234
O O19 0.000000 0.000000 0.939884
O O20 0.851907 0.000000 0.000000
#
# Coordination Sequence:
#
# PCOD8201096 Si02
#       7
#     8   8   8   4   8   8   4
#     4   9  17  28  41  58  78  97 119 149 186 226
#     4   8  14  25  41  60  80 100 119 138 167 213
#     4   9  15  22  31  43  58  78 103 133 171 215
#     4   9  16  22  28  42  62  80  99 127 168 217
#     4   9  16  26  37  48  61  80 112 151 186 218
#     4   9  18  29  40  53  69  93 124 157 192 226
#     4   9  14  20  30  42  58  78  99 127 168 215
#
# _framework density 13.375006000000001
#
# number of rings (size 3 to 8) (size 9 to 14) (size 15 to 20)
#    0.000    3.167    0.833    1.000    1.167    3.333 
#    0.000    3.333    0.000    0.000    0.000    4.667 
#    0.000    0.000    0.000    0.000    0.000    0.000 
#
# Total GULP energy -594823.893905 kJ/mol
# GULP energy per Si atom -12392.164456 kJ/mol
# Density = 1.334456 g / cm^3
# Si number density = 13.375006 Si / 1000 Ang^3
#
#
#
# Elastic Constant Matrix: (Units=GPa)
#
#
# Indices 1 2 3 4 5 6 
#
# 1 36.7280 32.6294 26.9298 0.0000 0.0000 0.0000
# 2 32.6294 114.6502 56.3823 0.0000 0.0000 0.0000
# 3 26.9298 56.3823 83.0139 0.0000 0.0000 0.0000
# 4 0.0000 0.0000 0.0000 24.0926 0.0000 0.0000
# 5 0.0000 0.0000 0.0000 0.0000 0.9126 0.0000
# 6 0.0000 0.0000 0.0000 0.0000 0.0000 13.5598
#
#
#
# Elastic Compliance Matrix: (Units=1/GPa)
#
#
# Indices 1 2 3 4 5 6 
#
# 1 0.039527 -0.007423 -0.007781 0.000000 0.000000 0.000000
# 2 -0.007423 0.014490 -0.007434 0.000000 0.000000 0.000000
# 3 -0.007781 -0.007434 0.019619 0.000000 0.000000 0.000000
# 4 0.000000 0.000000 0.000000 0.041506 0.000000 0.000000
# 5 0.000000 0.000000 0.000000 0.000000 1.095805 0.000000
# 6 0.000000 0.000000 0.000000 0.000000 0.000000 0.073747
#
#
# Mechanical properties :
#
#
# Convention : Reuss Voigt Hill
#
# Bulk Modulus (GPa) = 35.25929 51.80835 43.53382
# Shear Modulus (GPa) = 3.73295 15.60972 9.67133
#
# Velocity S-wave (km/s) = 1.67244 3.41996 2.69195
# Velocity P-wave (km/s) = 5.49078 7.37659 6.50242
#
# Compressibility (1/GPa) = 0.02836132
#
# Stress axis : x y z
#
# Youngs Moduli (GPa) = 25.29921 69.01080 50.97002
#
# Poissons Ratio (x) = 0.51225 0.39660
# Poissons Ratio (y) = 0.18779 0.37890
# Poissons Ratio (z) = 0.19686 0.51302
#
# Static dielectric constant tensor:
#      x y z
#    x 2.254560 0.000000 0.000000 
#    y 0.000000 2.828120 0.000000 
#    z 0.000000 0.000000 2.672220 
# 
# 
# High freq. dielectric constant tensor:
#      x y z
#    x 1.436810 0.000000 0.000000 
#    y 0.000000 1.527590 0.000000 
#    z 0.000000 0.000000 1.500360 
# 
# From -- ./inp_files/31228.got.cif
#   From: 2010.03.12/outbox.cif.g09.slc.cpg/sg47_16_cif.got.tgz:31228.got - 2010.04.14 03:12:58.
