data_PCOD8201618
_publ_section_title
;
Structure prediction by ZEFSAII (Michael W. Deem and Ramdas Pophale) SiO2 
 PCOD8201618
Probable space group: P N N N
;
_chemical_formula_sum "Si O2"
_cell_formula_units_Z 64
_cell_length_a 31.432337
_cell_length_b 11.724877
_cell_length_c 8.325058
_cell_angle_alpha 90.000000
_cell_angle_beta 90.000000
_cell_angle_gamma 90.000000
_cell_volume 3068.119249
_symmetry_space_group_name_H-M "P N N N"
_symmetry_group_IT_number 48
_space_group.IT_coordinate_system_code '2'
_symmetry_cell_setting 'orthorhombic'
loop_
_space_group_symop_operation_xyz
x,y,z
1/2-x,1/2-y,z
x,1/2-y,1/2-z
1/2-x,y,1/2-z
-x,-y,-z
1/2+x,1/2+y,-z
-x,1/2+y,1/2+z
1/2+x,-y,1/2+z
loop_
_atom_site_type_symbol
_atom_site_label
_atom_site_fract_x
_atom_site_fract_y
_atom_site_fract_z
Si Si1 0.343998 0.331163 0.468829
Si Si2 0.430042 0.437288 0.580427
Si Si3 0.077892 0.830656 0.440183
Si Si4 0.608495 0.097324 0.595276
Si Si5 0.756266 0.883765 0.425025
Si Si6 0.542030 0.560558 0.064326
Si Si7 0.009965 0.278946 0.070584
Si Si8 0.174894 0.411049 0.388261
O O1 0.386717 0.368099 0.558306
O O2 0.305494 0.406410 0.539035
O O3 0.340373 0.194171 0.502928
O O4 0.339739 0.363185 0.282714
O O5 0.418796 0.571131 0.572555
O O6 0.454855 0.417675 0.746003
O O7 0.464055 0.398381 0.442374
O O8 0.111112 0.726908 0.474526
O O9 0.086792 0.890354 0.269796
O O10 0.030573 0.776914 0.451660
O O11 0.581560 0.015340 0.483590
O O12 0.654245 0.036412 0.593385
O O13 0.750000 0.750000 0.418057
O O14 0.750000 0.941201 0.250000
O O15 0.724792 0.931519 0.566398
O O16 0.500000 0.500000 0.000000
O O17 0.544189 0.684609 0.983909
O O18 0.994377 0.250000 0.250000
#
# Coordination Sequence:
#
# PCOD8201618 Si02
#       8
#     8   8   8   8   8   8   8   8
#     4  10  21  38  61  95 130 159 204 254 324 392
#     4  12  25  39  63  93 123 163 217 276 321 380
#     4  11  24  43  61  84 124 170 222 267 319 381
#     4  11  23  40  64  85 123 166 217 264 315 381
#     4   9  19  36  61  94 132 162 193 249 324 397
#     4  12  24  41  62  88 124 165 216 269 329 381
#     4  12  25  42  63  87 125 169 216 271 331 388
#     4  10  20  38  64  93 127 166 202 251 323 395
#
# _framework density 20.859684999999999
#
# number of rings (size 3 to 8) (size 9 to 14) (size 15 to 20)
#    0.000    1.125    2.500    4.125    5.250    1.500 
#    2.250    0.000    0.000    0.750    0.000    0.875 
#    0.000    0.000    0.000    0.000    0.000    0.000 
#
# Total GULP energy -792902.571728 kJ/mol
# GULP energy per Si atom -12389.102683 kJ/mol
# Density = 2.081221 g / cm^3
# Si number density = 20.859685 Si / 1000 Ang^3
#
#
#
# Elastic Constant Matrix: (Units=GPa)
#
#
# Indices 1 2 3 4 5 6 
#
# 1 111.2773 33.7495 42.7101 0.0000 0.0000 0.0000
# 2 33.7495 116.8091 27.7194 0.0000 0.0000 0.0000
# 3 42.7101 27.7194 85.3027 0.0000 0.0000 0.0000
# 4 0.0000 0.0000 0.0000 26.0149 0.0000 0.0000
# 5 0.0000 0.0000 0.0000 0.0000 27.1747 0.0000
# 6 0.0000 0.0000 0.0000 0.0000 0.0000 21.9561
#
#
#
# Elastic Compliance Matrix: (Units=1/GPa)
#
#
# Indices 1 2 3 4 5 6 
#
# 1 0.011597 -0.002138 -0.005112 0.000000 0.000000 0.000000
# 2 -0.002138 0.009670 -0.002072 0.000000 0.000000 0.000000
# 3 -0.005112 -0.002072 0.014956 0.000000 0.000000 0.000000
# 4 0.000000 0.000000 0.000000 0.038439 0.000000 0.000000
# 5 0.000000 0.000000 0.000000 0.000000 0.036799 0.000000
# 6 0.000000 0.000000 0.000000 0.000000 0.000000 0.045545
#
#
# Mechanical properties :
#
#
# Convention : Reuss Voigt Hill
#
# Bulk Modulus (GPa) = 56.88333 57.97191 57.42762
# Shear Modulus (GPa) = 27.54673 28.97648 28.26161
#
# Velocity S-wave (km/s) = 3.63791 3.73113 3.68481
# Velocity P-wave (km/s) = 6.70631 6.81274 6.75973
#
# Compressibility (1/GPa) = 0.01757984
#
# Stress axis : x y z
#
# Youngs Moduli (GPa) = 86.23014 103.40912 66.86403
#
# Poissons Ratio (x) = 0.22105 0.34180
# Poissons Ratio (y) = 0.18433 0.13855
# Poissons Ratio (z) = 0.44079 0.21428
#
# Static dielectric constant tensor:
#      x y z
#    x 3.978470 0.000000 0.000000 
#    y 0.000000 4.092860 0.000000 
#    z 0.000000 0.000000 3.839130 
# 
# 
# High freq. dielectric constant tensor:
#      x y z
#    x 1.803020 0.000000 0.000000 
#    y 0.000000 1.807340 0.000000 
#    z 0.000000 0.000000 1.814580 
# 
# From -- ./inp_files/16944.got.cif
#   From: 2010.06.25/outbox.cif.g09.slc.cpg/sg48_9_cif.got.tgz:16944.got - 2010.06.26 18:06:46.
