data_PCOD8201400
_publ_section_title
;
Structure prediction by ZEFSAII (Michael W. Deem and Ramdas Pophale) SiO2 
 PCOD8201400
Probable space group: P N N N
;
_chemical_formula_sum "Si O2"
_cell_formula_units_Z 64
_cell_length_a 19.453882
_cell_length_b 9.814089
_cell_length_c 17.334100
_cell_angle_alpha 90.000000
_cell_angle_beta 90.000000
_cell_angle_gamma 90.000000
_cell_volume 3309.463282
_symmetry_space_group_name_H-M "P N N N"
_symmetry_group_IT_number 48
_space_group.IT_coordinate_system_code '2'
_symmetry_cell_setting 'orthorhombic'
loop_
_space_group_symop_operation_xyz
x,y,z
1/2-x,1/2-y,z
x,1/2-y,1/2-z
1/2-x,y,1/2-z
-x,-y,-z
1/2+x,1/2+y,-z
-x,1/2+y,1/2+z
1/2+x,-y,1/2+z
loop_
_atom_site_type_symbol
_atom_site_label
_atom_site_fract_x
_atom_site_fract_y
_atom_site_fract_z
Si Si1 0.129442 0.723483 0.662012
Si Si2 0.586096 0.425312 0.950277
Si Si3 0.817971 0.973115 0.079504
Si Si4 0.938061 0.529661 0.942123
Si Si5 0.556057 0.219071 0.836074
Si Si6 0.161026 0.505393 0.924995
Si Si7 0.102510 0.237379 0.662027
Si Si8 0.991902 0.819151 0.916322
O O1 0.145993 0.750000 0.750000
O O2 0.170753 0.586703 0.644123
O O3 0.157829 0.840874 0.605930
O O4 0.047981 0.700558 0.650867
O O5 0.606763 0.309772 0.889024
O O6 0.555404 0.550238 0.900511
O O7 0.651509 0.475519 0.998290
O O8 0.529936 0.348601 0.003134
O O9 0.855930 0.836069 0.105273
O O10 0.737570 0.945878 0.070887
O O11 0.939598 0.438059 0.864228
O O12 0.943013 0.687452 0.918699
O O13 0.867881 0.501009 0.988159
O O14 0.000000 0.500000 0.000000
O O15 0.581896 0.250000 0.750000
O O16 0.477760 0.273039 0.843918
O O17 0.115222 0.416060 0.866550
O O18 0.128754 0.250000 0.750000
#
# Coordination Sequence:
#
# PCOD8201400 Si02
#       8
#     8   8   8   8   8   8   8   8
#     4  11  22  35  51  77 112 146 182 222 266 324
#     4  10  19  36  55  78 112 141 189 240 284 325
#     4  11  24  36  53  78 112 156 189 219 271 339
#     4  12  19  37  61  80 108 145 190 241 283 327
#     4  11  22  37  60  88 113 143 188 243 301 337
#     4  12  23  36  55  80 108 152 194 220 268 340
#     4  11  22  36  55  85 121 151 184 229 276 337
#     4  10  19  33  57  81 102 145 187 232 279 322
#
# _framework density 19.338481999999999
#
# number of rings (size 3 to 8) (size 9 to 14) (size 15 to 20)
#    0.000    1.000    3.750    5.250    0.000    6.000 
#    0.000    0.000    0.000    1.500    0.000    0.000 
#    0.000    5.000    0.000    0.000    0.000    0.000 
#
# Total GULP energy -793705.672939 kJ/mol
# GULP energy per Si atom -12401.651140 kJ/mol
# Density = 1.929447 g / cm^3
# Si number density = 19.338482 Si / 1000 Ang^3
#
#
#
# Elastic Constant Matrix: (Units=GPa)
#
#
# Indices 1 2 3 4 5 6 
#
# 1 58.4010 3.2807 27.1694 0.0000 0.0000 0.0000
# 2 3.2807 93.8863 24.0244 0.0000 0.0000 0.0000
# 3 27.1694 24.0244 86.5385 0.0000 0.0000 0.0000
# 4 0.0000 0.0000 0.0000 31.9429 0.0000 0.0000
# 5 0.0000 0.0000 0.0000 0.0000 14.5989 0.0000
# 6 0.0000 0.0000 0.0000 0.0000 0.0000 16.2859
#
#
#
# Elastic Compliance Matrix: (Units=1/GPa)
#
#
# Indices 1 2 3 4 5 6 
#
# 1 0.020136 0.000984 -0.006595 0.000000 0.000000 0.000000
# 2 0.000984 0.011514 -0.003505 0.000000 0.000000 0.000000
# 3 -0.006595 -0.003505 0.014599 0.000000 0.000000 0.000000
# 4 0.000000 0.000000 0.000000 0.031306 0.000000 0.000000
# 5 0.000000 0.000000 0.000000 0.000000 0.068499 0.000000
# 6 0.000000 0.000000 0.000000 0.000000 0.000000 0.061403
#
#
# Mechanical properties :
#
#
# Convention : Reuss Voigt Hill
#
# Bulk Modulus (GPa) = 35.69365 38.64166 37.16766
# Shear Modulus (GPa) = 21.27411 24.85562 23.06487
#
# Velocity S-wave (km/s) = 3.32036 3.58899 3.45729
# Velocity P-wave (km/s) = 5.76169 6.09914 5.93282
#
# Compressibility (1/GPa) = 0.02801618
#
# Stress axis : x y z
#
# Youngs Moduli (GPa) = 49.66266 86.85254 68.49683
#
# Poissons Ratio (x) = -0.08546 0.45173
# Poissons Ratio (y) = -0.04887 0.24010
# Poissons Ratio (z) = 0.32752 0.30445
#
# Static dielectric constant tensor:
#      x y z
#    x 3.322170 0.000000 0.000000 
#    y 0.000000 3.756470 0.000000 
#    z 0.000000 0.000000 3.474380 
# 
# 
# High freq. dielectric constant tensor:
#      x y z
#    x 1.719090 0.000000 0.000000 
#    y 0.000000 1.774530 0.000000 
#    z 0.000000 0.000000 1.735970 
# 
# From -- ./inp_files/30576.got.cif
#   From: 2010.06.25/outbox.cif.g09.slc.cpg/sg48_16_cif.got.tgz:30576.got - 2010.06.26 18:06:46.
