data_PCOD8201743
_publ_section_title
;
Structure prediction by ZEFSAII (Michael W. Deem and Ramdas Pophale) SiO2 
 PCOD8201743
Probable space group: P N N N
;
_chemical_formula_sum "Si O2"
_cell_formula_units_Z 44
_cell_length_a 11.006244
_cell_length_b 14.587390
_cell_length_c 13.433795
_cell_angle_alpha 90.000000
_cell_angle_beta 90.000000
_cell_angle_gamma 90.000000
_cell_volume 2156.827675
_symmetry_space_group_name_H-M "P N N N"
_symmetry_group_IT_number 48
_space_group.IT_coordinate_system_code '2'
_symmetry_cell_setting 'orthorhombic'
loop_
_space_group_symop_operation_xyz
x,y,z
1/2-x,1/2-y,z
x,1/2-y,1/2-z
1/2-x,y,1/2-z
-x,-y,-z
1/2+x,1/2+y,-z
-x,1/2+y,1/2+z
1/2+x,-y,1/2+z
loop_
_atom_site_type_symbol
_atom_site_label
_atom_site_fract_x
_atom_site_fract_y
_atom_site_fract_z
Si Si1 0.250000 0.499744 0.250000
Si Si2 0.896330 0.903803 0.589134
Si Si3 0.250000 0.022386 0.750000
Si Si4 0.585996 0.670932 0.168615
Si Si5 0.183269 0.840683 0.107551
Si Si6 0.750000 0.750000 0.492128
Si Si7 0.168108 0.932235 0.555951
O O1 0.353217 0.436361 0.301053
O O2 0.307423 0.566567 0.169630
O O3 0.837982 0.806386 0.563726
O O4 0.040004 0.886354 0.584596
O O5 0.855037 0.977825 0.508633
O O6 0.126443 0.081521 0.768511
O O7 0.235975 0.957451 0.656145
O O8 0.586595 0.750000 0.250000
O O9 0.460373 0.673694 0.108057
O O10 0.682018 0.679974 0.080442
O O11 0.250000 0.750000 0.153011
O O12 0.245579 0.859174 0.000606
#
# Coordination Sequence:
#
# PCOD8201743 Si02
#       7
#     4   8   4   8   8   4   8
#     4  10  21  39  60  96 118 166 218 259 329 378
#     4  10  21  40  64  90 132 166 214 268 320 395
#     4  12  21  40  65  96 128 168 214 276 327 395
#     4  12  21  37  63  97 127 160 217 270 322 386
#     4  11  23  39  64  92 126 167 214 269 324 391
#     4  12  21  39  62  92 126 168 210 262 332 386
#     4  10  22  41  62  93 127 171 210 263 334 385
#
# _framework density 20.400333
#
# number of rings (size 3 to 8) (size 9 to 14) (size 15 to 20)
#    0.000    1.091    3.636    3.545    0.000    4.000 
#    3.273    0.455    4.000    0.000    0.000    0.000 
#    0.000    0.000    0.000    0.000    0.000    0.000 
#
# Total GULP energy -545394.983028 kJ/mol
# GULP energy per Si atom -12395.340523 kJ/mol
# Density = 2.035390 g / cm^3
# Si number density = 20.400333 Si / 1000 Ang^3
#
#
#
# Elastic Constant Matrix: (Units=GPa)
#
#
# Indices 1 2 3 4 5 6 
#
# 1 131.3053 34.1002 54.5570 0.0000 0.0000 0.0000
# 2 34.1002 70.8403 41.5941 0.0000 0.0000 0.0000
# 3 54.5570 41.5941 120.5976 0.0000 0.0000 0.0000
# 4 0.0000 0.0000 0.0000 2.1333 0.0000 0.0000
# 5 0.0000 0.0000 0.0000 0.0000 -59.2733 0.0000
# 6 0.0000 0.0000 0.0000 0.0000 0.0000 19.0701
#
#
#
# Elastic Compliance Matrix: (Units=1/GPa)
#
#
# Indices 1 2 3 4 5 6 
#
# 1 0.009757 -0.002640 -0.003504 0.000000 0.000000 0.000000
# 2 -0.002640 0.018415 -0.005157 0.000000 0.000000 0.000000
# 3 -0.003504 -0.005157 0.011656 0.000000 0.000000 0.000000
# 4 0.000000 0.000000 0.000000 0.468749 0.000000 0.000000
# 5 0.000000 0.000000 0.000000 0.000000 -0.016871 0.000000
# 6 0.000000 0.000000 0.000000 0.000000 0.000000 0.052438
#
#
# Mechanical properties :
#
#
# Convention : Reuss Voigt Hill
#
# Bulk Modulus (GPa) = 58.04841 64.80509 61.42675
# Shear Modulus (GPa) = 8.73382 5.21882 6.97632
#
# Velocity S-wave (km/s) = 2.07135 1.60117 1.85125
# Velocity P-wave (km/s) = 5.85125 5.93751 5.89453
#
# Compressibility (1/GPa) = 0.01722700
#
# Stress axis : x y z
#
# Youngs Moduli (GPa) = 102.48964 54.30374 85.79454
#
# Poissons Ratio (x) = 0.14334 0.30059
# Poissons Ratio (y) = 0.27053 0.44246
# Poissons Ratio (z) = 0.35908 0.28006
#
# Static dielectric constant tensor:
#      x y z
#    x 3.913520 0.000000 0.000000 
#    y 0.000000 3.599950 0.000000 
#    z 0.000000 0.000000 3.769930 
# 
# 
# High freq. dielectric constant tensor:
#      x y z
#    x 1.801810 0.000000 0.000000 
#    y 0.000000 1.785550 0.000000 
#    z 0.000000 0.000000 1.793810 
# 
# From -- ./inp_files/26409.got.cif
#   From: 2010.06.25/outbox.cif.g09.slc.cpg/sg48_14_cif.got.tgz:26409.got - 2010.06.26 18:06:46.
