data_PCOD8201107
_publ_section_title
;
Structure prediction by ZEFSAII (Michael W. Deem and Ramdas Pophale) SiO2 
 PCOD8201107
Probable space group: P M M M
;
_chemical_formula_sum "Si O2"
_cell_formula_units_Z 48
_cell_length_a 9.842216
_cell_length_b 30.636041
_cell_length_c 9.432089
_cell_angle_alpha 90.000000
_cell_angle_beta 90.000000
_cell_angle_gamma 90.000000
_cell_volume 2844.025094
_symmetry_space_group_name_H-M "P M M M"
_symmetry_group_IT_number 47
_symmetry_cell_setting 'orthorhombic'
loop_
_space_group_symop_operation_xyz
x,y,z
-x,-y,z
x,-y,-z
-x,y,-z
-x,-y,-z
x,y,-z
-x,y,z
x,-y,z
loop_
_atom_site_type_symbol
_atom_site_label
_atom_site_fract_x
_atom_site_fract_y
_atom_site_fract_z
Si Si1 0.661655 0.791009 0.159479
Si Si2 0.843998 0.550242 0.163131
Si Si3 0.847877 0.951652 0.668330
Si Si4 0.338449 0.288541 0.657671
Si Si5 0.657640 0.874778 0.665775
Si Si6 0.654120 0.385779 0.667428
O O1 0.500000 0.789097 0.157414
O O2 0.720657 0.747419 0.234042
O O3 0.710135 0.832830 0.248471
O O4 0.719882 0.793712 0.000000
O O5 0.808254 0.500000 0.193182
O O6 0.750060 0.579485 0.260091
O O7 0.000000 0.559614 0.202157
O O8 0.816182 0.561775 0.000000
O O9 0.843098 0.952117 0.500000
O O10 0.741244 0.916134 0.725560
O O11 0.000000 0.939532 0.719952
O O12 0.807939 0.000000 0.725068
O O13 0.280200 0.279224 0.500000
O O14 0.500000 0.285722 0.650726
O O15 0.296503 0.336962 0.709366
O O16 0.684641 0.866018 0.500000
O O17 0.500000 0.884474 0.694846
O O18 0.663197 0.391879 0.500000
O O19 0.500000 0.393478 0.719716
#
# Coordination Sequence:
#
# PCOD8201107 Si02
#       6
#     8   8   8   8   8   8
#     4   9  16  25  39  61  88 116 145 176 211 254
#     4   9  19  35  51  67  91 125 162 195 228 271
#     4   8  14  25  41  61  84 109 138 173 212 253
#     4   8  14  26  43  63  90 120 146 176 217 263
#     4   9  16  25  40  63  87 110 138 174 214 251
#     4   9  18  31  48  73 100 122 149 190 236 277
#
# _framework density 16.877489000000001
#
# number of rings (size 3 to 8) (size 9 to 14) (size 15 to 20)
#    0.000    3.333    0.000    2.500    0.000    4.333 
#    0.000    5.833    0.000    2.000    0.000    5.833 
#    0.000    0.000    0.000    0.000    0.000    0.000 
#
# Total GULP energy -594961.356112 kJ/mol
# GULP energy per Si atom -12395.028252 kJ/mol
# Density = 1.683908 g / cm^3
# Si number density = 16.877489 Si / 1000 Ang^3
#
#
#
# Elastic Constant Matrix: (Units=GPa)
#
#
# Indices 1 2 3 4 5 6 
#
# 1 53.9460 61.1729 31.9022 0.0000 0.0000 0.0000
# 2 61.1729 145.3508 61.3367 0.0000 0.0000 0.0000
# 3 31.9022 61.3367 65.0356 0.0000 0.0000 0.0000
# 4 0.0000 0.0000 0.0000 6.2281 0.0000 0.0000
# 5 0.0000 0.0000 0.0000 0.0000 17.0662 0.0000
# 6 0.0000 0.0000 0.0000 0.0000 0.0000 -1.0093
#
#
#
# Elastic Compliance Matrix: (Units=1/GPa)
#
#
# Indices 1 2 3 4 5 6 
#
# 1 0.036692 -0.013035 -0.005705 0.000000 0.000000 0.000000
# 2 -0.013035 0.016059 -0.008751 0.000000 0.000000 0.000000
# 3 -0.005705 -0.008751 0.026429 0.000000 0.000000 0.000000
# 4 0.000000 0.000000 0.000000 0.160562 0.000000 0.000000
# 5 0.000000 0.000000 0.000000 0.000000 0.058595 0.000000
# 6 0.000000 0.000000 0.000000 0.000000 0.000000 -0.990767
#
#
# Mechanical properties :
#
#
# Convention : Reuss Voigt Hill
#
# Bulk Modulus (GPa) = 41.32852 63.68399 52.50625
# Shear Modulus (GPa) = -7.94431 11.78503 1.92036
#
# Velocity S-wave (km/s) = -2.17193 2.64535 1.06785
# Velocity P-wave (km/s) = 4.27210 6.86626 5.71823
#
# Compressibility (1/GPa) = 0.02419636
#
# Stress axis : x y z
#
# Youngs Moduli (GPa) = 27.25389 62.27108 37.83790
#
# Poissons Ratio (x) = 0.81169 0.21587
# Poissons Ratio (y) = 0.35525 0.33114
# Poissons Ratio (z) = 0.15549 0.54496
#
# Static dielectric constant tensor:
#      x y z
#    x 2.885890 0.000000 0.000000 
#    y 0.000000 3.449460 0.000000 
#    z 0.000000 0.000000 3.064320 
# 
# 
# High freq. dielectric constant tensor:
#      x y z
#    x 1.610960 0.000000 0.000000 
#    y 0.000000 1.663780 0.000000 
#    z 0.000000 0.000000 1.631450 
# 
# From -- ./inp_files/4444.got.cif
#   From: 2010.03.12/outbox.cif.g09.slc.cpg/sg47_3_cif.got.tgz:4444.got - 2010.04.14 03:12:58.
