data_PCOD8201886
_publ_section_title
;
Structure prediction by ZEFSAII (Michael W. Deem and Ramdas Pophale) SiO2 
 PCOD8201886
Probable space group: P N N N
;
_chemical_formula_sum "Si O2"
_cell_formula_units_Z 48
_cell_length_a 17.916163
_cell_length_b 7.579576
_cell_length_c 14.214262
_cell_angle_alpha 90.000000
_cell_angle_beta 90.000000
_cell_angle_gamma 90.000000
_cell_volume 1930.252987
_symmetry_space_group_name_H-M "P N N N"
_symmetry_group_IT_number 48
_space_group.IT_coordinate_system_code '2'
_symmetry_cell_setting 'orthorhombic'
loop_
_space_group_symop_operation_xyz
x,y,z
1/2-x,1/2-y,z
x,1/2-y,1/2-z
1/2-x,y,1/2-z
-x,-y,-z
1/2+x,1/2+y,-z
-x,1/2+y,1/2+z
1/2+x,-y,1/2+z
loop_
_atom_site_type_symbol
_atom_site_label
_atom_site_fract_x
_atom_site_fract_y
_atom_site_fract_z
Si Si1 0.417904 0.590049 0.820458
Si Si2 0.159694 0.397296 0.528415
Si Si3 0.920276 0.421005 0.861100
Si Si4 0.579138 0.494757 0.845686
Si Si5 0.087570 0.069825 0.636923
Si Si6 0.197859 0.918628 0.516451
O O1 0.401438 0.750000 0.750000
O O2 0.363121 0.571953 0.909874
O O3 0.501043 0.593733 0.862632
O O4 0.409551 0.416381 0.751020
O O5 0.135696 0.417684 0.419615
O O6 0.118890 0.237092 0.580350
O O7 0.249908 0.406716 0.530386
O O8 0.928420 0.211906 0.861398
O O9 0.895970 0.514444 0.763104
O O10 0.854163 0.475044 0.929771
O O11 0.003073 0.484873 0.892374
O O12 0.141731 0.904586 0.605748
O O13 0.250000 0.750000 0.496262
#
# Coordination Sequence:
#
# PCOD8201886 Si02
#       6
#     8   8   8   8   8   8
#     4  11  24  43  71 107 140 185 243 299 348 423
#     4  12  24  43  71 105 145 184 232 290 370 420
#     4  10  22  45  72 104 143 187 243 284 359 419
#     4  10  22  42  73 106 138 188 238 292 349 426
#     4  11  25  45  72 100 145 187 234 296 352 428
#     4  12  25  43  68 108 140 187 233 293 362 428
#
# _framework density 24.867208000000002
#
# number of rings (size 3 to 8) (size 9 to 14) (size 15 to 20)
#    0.000    1.000    3.333    3.000    0.000    4.000 
#    0.000    3.333    0.000    2.000    0.000    0.000 
#    0.000    0.000    0.000    0.000    0.000    0.000 
#
# Total GULP energy -594703.594262 kJ/mol
# GULP energy per Si atom -12389.658214 kJ/mol
# Density = 2.481061 g / cm^3
# Si number density = 24.867208 Si / 1000 Ang^3
#
#
#
# Elastic Constant Matrix: (Units=GPa)
#
#
# Indices 1 2 3 4 5 6 
#
# 1 160.8052 2.8060 73.6483 0.0000 0.0000 0.0000
# 2 2.8060 51.4302 -8.7590 0.0000 0.0000 0.0000
# 3 73.6483 -8.7590 126.4075 0.0000 0.0000 0.0000
# 4 0.0000 0.0000 0.0000 30.0646 0.0000 0.0000
# 5 0.0000 0.0000 0.0000 0.0000 -7.3685 0.0000
# 6 0.0000 0.0000 0.0000 0.0000 0.0000 20.9995
#
#
#
# Elastic Compliance Matrix: (Units=1/GPa)
#
#
# Indices 1 2 3 4 5 6 
#
# 1 0.008572 -0.001334 -0.005086 0.000000 0.000000 0.000000
# 2 -0.001334 0.019884 0.002155 0.000000 0.000000 0.000000
# 3 -0.005086 0.002155 0.011024 0.000000 0.000000 0.000000
# 4 0.000000 0.000000 0.000000 0.033262 0.000000 0.000000
# 5 0.000000 0.000000 0.000000 0.000000 -0.135713 0.000000
# 6 0.000000 0.000000 0.000000 0.000000 0.000000 0.047620
#
#
# Mechanical properties :
#
#
# Convention : Reuss Voigt Hill
#
# Bulk Modulus (GPa) = 32.31219 52.67040 42.49130
# Shear Modulus (GPa) = 1430.70191 26.80228 728.75209
#
# Velocity S-wave (km/s) = 24.01220 3.28657 17.13749
# Velocity P-wave (km/s) = 27.96074 5.96898 20.21672
#
# Compressibility (1/GPa) = 0.03094807
#
# Stress axis : x y z
#
# Youngs Moduli (GPa) = 116.66488 50.29268 90.71329
#
# Poissons Ratio (x) = 0.06709 0.46141
# Poissons Ratio (y) = 0.15562 -0.19548
# Poissons Ratio (z) = 0.59341 -0.10838
#
# Static dielectric constant tensor:
#      x y z
#    x 4.636350 0.000000 0.000000 
#    y 0.000000 4.764490 0.000000 
#    z 0.000000 0.000000 5.115930 
# 
# 
# High freq. dielectric constant tensor:
#      x y z
#    x 1.985290 0.000000 0.000000 
#    y 0.000000 2.005210 0.000000 
#    z 0.000000 0.000000 1.998840 
# 
# From -- ./inp_files/27862.got.cif
#   From: 2010.06.25/outbox.cif.g09.slc.cpg/sg48_14_cif.got.tgz:27862.got - 2010.06.26 18:06:46.
