data_PCOD8201469
_publ_section_title
;
Structure prediction by ZEFSAII (Michael W. Deem and Ramdas Pophale) SiO2 
 PCOD8201469
Probable space group: P N N N
;
_chemical_formula_sum "Si O2"
_cell_formula_units_Z 46
_cell_length_a 16.070204
_cell_length_b 16.321693
_cell_length_c 8.498664
_cell_angle_alpha 90.000000
_cell_angle_beta 90.000000
_cell_angle_gamma 90.000000
_cell_volume 2229.139534
_symmetry_space_group_name_H-M "P N N N"
_symmetry_group_IT_number 48
_space_group.IT_coordinate_system_code '2'
_symmetry_cell_setting 'orthorhombic'
loop_
_space_group_symop_operation_xyz
x,y,z
1/2-x,1/2-y,z
x,1/2-y,1/2-z
1/2-x,y,1/2-z
-x,-y,-z
1/2+x,1/2+y,-z
-x,1/2+y,1/2+z
1/2+x,-y,1/2+z
loop_
_atom_site_type_symbol
_atom_site_label
_atom_site_fract_x
_atom_site_fract_y
_atom_site_fract_z
Si Si1 0.250000 0.750000 0.250000
Si Si2 0.307631 0.024541 0.611174
Si Si3 0.857342 0.138859 0.981559
Si Si4 0.964509 0.868479 0.160141
Si Si5 0.720521 0.840646 0.918026
Si Si6 0.955164 0.798840 0.493394
Si Si7 0.583824 0.250000 0.250000
O O1 0.190329 0.695001 0.357134
O O2 0.250000 0.991606 0.750000
O O3 0.400969 0.054953 0.654354
O O4 0.257052 0.100925 0.547525
O O5 0.310619 0.947522 0.494491
O O6 0.860906 0.184642 0.152070
O O7 0.948523 0.113159 0.923021
O O8 0.985012 0.849520 0.341957
O O9 0.925802 0.791061 0.065904
O O10 0.750000 0.750000 0.955300
O O11 0.750000 0.872596 0.750000
O O12 0.620918 0.843928 0.922013
O O13 0.028679 0.797612 0.620758
#
# Coordination Sequence:
#
# PCOD8201469 Si02
#       7
#     2   8   8   8   8   8   4
#     4  12  28  54  76  92 124 186 228 300 344 394
#     4  12  25  42  66 103 144 180 218 282 337 405
#     4  11  27  46  72  96 130 177 235 285 346 399
#     4  10  21  43  66  97 138 182 222 275 334 406
#     4  11  22  36  62  98 141 181 214 267 324 410
#     4  10  19  37  67  96 132 181 231 256 337 400
#     4  10  22  43  69  98 126 174 236 296 319 401
#
# _framework density 20.635766
#
# number of rings (size 3 to 8) (size 9 to 14) (size 15 to 20)
#    0.000    1.217    3.478    3.652    6.087    0.348 
#    0.000    0.870    0.000    0.000    0.000    0.000 
#    0.000    0.000    0.000    0.000    0.000    0.000 
#
# Total GULP energy -570318.977286 kJ/mol
# GULP energy per Si atom -12398.238637 kJ/mol
# Density = 2.058880 g / cm^3
# Si number density = 20.635766 Si / 1000 Ang^3
#
#
#
# Elastic Constant Matrix: (Units=GPa)
#
#
# Indices 1 2 3 4 5 6 
#
# 1 82.8416 25.7890 27.2708 0.0000 0.0000 0.0000
# 2 25.7890 67.8155 33.7039 0.0000 0.0000 0.0000
# 3 27.2708 33.7039 110.3391 0.0000 0.0000 0.0000
# 4 0.0000 0.0000 0.0000 28.8783 0.0000 0.0000
# 5 0.0000 0.0000 0.0000 0.0000 38.3455 0.0000
# 6 0.0000 0.0000 0.0000 0.0000 0.0000 25.0669
#
#
#
# Elastic Compliance Matrix: (Units=1/GPa)
#
#
# Indices 1 2 3 4 5 6 
#
# 1 0.014124 -0.004287 -0.002181 0.000000 0.000000 0.000000
# 2 -0.004287 0.018686 -0.004648 0.000000 0.000000 0.000000
# 3 -0.002181 -0.004648 0.011022 0.000000 0.000000 0.000000
# 4 0.000000 0.000000 0.000000 0.034628 0.000000 0.000000
# 5 0.000000 0.000000 0.000000 0.000000 0.026079 0.000000
# 6 0.000000 0.000000 0.000000 0.000000 0.000000 0.039893
#
#
# Mechanical properties :
#
#
# Convention : Reuss Voigt Hill
#
# Bulk Modulus (GPa) = 46.29851 48.28041 47.28946
# Shear Modulus (GPa) = 28.75793 30.07363 29.41578
#
# Velocity S-wave (km/s) = 3.73714 3.82167 3.77964
# Velocity P-wave (km/s) = 6.41143 6.55140 6.48179
#
# Compressibility (1/GPa) = 0.02159897
#
# Stress axis : x y z
#
# Youngs Moduli (GPa) = 70.80224 53.51496 90.72796
#
# Poissons Ratio (x) = 0.22942 0.19790
# Poissons Ratio (y) = 0.30353 0.42174
# Poissons Ratio (z) = 0.15444 0.24876
#
# Static dielectric constant tensor:
#      x y z
#    x 3.754820 0.000000 0.000000 
#    y 0.000000 3.600090 0.000000 
#    z 0.000000 0.000000 3.688910 
# 
# 
# High freq. dielectric constant tensor:
#      x y z
#    x 1.811690 0.000000 0.000000 
#    y 0.000000 1.791420 0.000000 
#    z 0.000000 0.000000 1.817230 
# 
# From -- ./inp_files/12692.got.cif
#   From: 2010.06.25/outbox.cif.g09.slc.cpg/sg48_7_cif.got.tgz:12692.got - 2010.06.26 18:06:46.
