data_PCOD8201759
_publ_section_title
;
Structure prediction by ZEFSAII (Michael W. Deem and Ramdas Pophale) SiO2 
 PCOD8201759
Probable space group: P N N N
;
_chemical_formula_sum "Si O2"
_cell_formula_units_Z 34
_cell_length_a 22.977737
_cell_length_b 9.646543
_cell_length_c 8.309142
_cell_angle_alpha 90.000000
_cell_angle_beta 90.000000
_cell_angle_gamma 90.000000
_cell_volume 1841.768919
_symmetry_space_group_name_H-M "P N N N"
_symmetry_group_IT_number 48
_space_group.IT_coordinate_system_code '2'
_symmetry_cell_setting 'orthorhombic'
loop_
_space_group_symop_operation_xyz
x,y,z
1/2-x,1/2-y,z
x,1/2-y,1/2-z
1/2-x,y,1/2-z
-x,-y,-z
1/2+x,1/2+y,-z
-x,1/2+y,1/2+z
1/2+x,-y,1/2+z
loop_
_atom_site_type_symbol
_atom_site_label
_atom_site_fract_x
_atom_site_fract_y
_atom_site_fract_z
Si Si1 0.563875 0.530210 0.067302
Si Si2 0.361134 0.810676 0.410721
Si Si3 0.576091 0.416444 0.424624
Si Si4 0.449749 0.192267 0.073107
Si Si5 0.250000 0.750000 0.250000
O O1 0.572971 0.476141 0.246120
O O2 0.500000 0.500000 0.000000
O O3 0.611678 0.456805 0.956139
O O4 0.573927 0.695273 0.055583
O O5 0.392672 0.750000 0.250000
O O6 0.370850 0.691772 0.548754
O O7 0.292534 0.837382 0.369659
O O8 0.518213 0.328002 0.459427
O O9 0.582854 0.546012 0.546773
O O10 0.437137 0.250000 0.250000
#
# Coordination Sequence:
#
# PCOD8201759 Si02
#       5
#     8   8   8   8   2
#     4  12  21  34  54  89 126 158 191 246 307 373
#     4  10  21  40  61  83 116 156 212 246 298 364
#     4  11  22  33  55  83 123 161 196 244 298 364
#     4  11  21  33  51  86 125 165 188 231 308 375
#     4   8  24  40  66  86 108 168 214 262 298 352
#
# _framework density 18.460514
#
# number of rings (size 3 to 8) (size 9 to 14) (size 15 to 20)
#    0.706    0.471    4.706    2.824    3.294    0.000 
#    0.000    2.353    0.000    2.824    0.000    3.294 
#    0.000    0.000    0.000    0.000    0.000    0.000 
#
# Total GULP energy -421319.302555 kJ/mol
# GULP energy per Si atom -12391.744193 kJ/mol
# Density = 1.841850 g / cm^3
# Si number density = 18.460514 Si / 1000 Ang^3
#
#
#
# Elastic Constant Matrix: (Units=GPa)
#
#
# Indices 1 2 3 4 5 6 
#
# 1 94.6986 41.4520 27.1844 0.0000 0.0000 0.0000
# 2 41.4520 127.4534 46.2571 0.0000 0.0000 0.0000
# 3 27.1844 46.2571 97.4774 0.0000 0.0000 0.0000
# 4 0.0000 0.0000 0.0000 37.3066 0.0000 0.0000
# 5 0.0000 0.0000 0.0000 0.0000 30.5646 0.0000
# 6 0.0000 0.0000 0.0000 0.0000 0.0000 19.7800
#
#
#
# Elastic Compliance Matrix: (Units=1/GPa)
#
#
# Indices 1 2 3 4 5 6 
#
# 1 0.012596 -0.003409 -0.001895 0.000000 0.000000 0.000000
# 2 -0.003409 0.010401 -0.003985 0.000000 0.000000 0.000000
# 3 -0.001895 -0.003985 0.012678 0.000000 0.000000 0.000000
# 4 0.000000 0.000000 0.000000 0.026805 0.000000 0.000000
# 5 0.000000 0.000000 0.000000 0.000000 0.032718 0.000000
# 6 0.000000 0.000000 0.000000 0.000000 0.000000 0.050556
#
#
# Mechanical properties :
#
#
# Convention : Reuss Voigt Hill
#
# Bulk Modulus (GPa) = 58.48865 61.04625 59.76745
# Shear Modulus (GPa) = 29.40637 31.17928 30.29282
#
# Velocity S-wave (km/s) = 3.99549 4.11417 4.05526
# Velocity P-wave (km/s) = 7.28266 7.46384 7.37380
#
# Compressibility (1/GPa) = 0.01709734
#
# Stress axis : x y z
#
# Youngs Moduli (GPa) = 79.39050 96.14483 78.87447
#
# Poissons Ratio (x) = 0.32774 0.14948
# Poissons Ratio (y) = 0.27063 0.31432
# Poissons Ratio (z) = 0.15045 0.38314
#
# Static dielectric constant tensor:
#      x y z
#    x 2.940670 0.000000 0.000000 
#    y 0.000000 3.789330 0.000000 
#    z 0.000000 0.000000 3.582370 
# 
# 
# High freq. dielectric constant tensor:
#      x y z
#    x 1.652320 0.000000 0.000000 
#    y 0.000000 1.728750 0.000000 
#    z 0.000000 0.000000 1.729900 
# 
# From -- ./inp_files/8762.got.cif
#   From: 2010.06.25/outbox.cif.g09.slc.cpg/sg48_5_cif.got.tgz:8762.got - 2010.06.26 18:06:46.
