data_PCOD8201557
_publ_section_title
;
Structure prediction by ZEFSAII (Michael W. Deem and Ramdas Pophale) SiO2 
 PCOD8201557
Probable space group: P N N N
;
_chemical_formula_sum "Si O2"
_cell_formula_units_Z 56
_cell_length_a 25.057905
_cell_length_b 8.706498
_cell_length_c 14.491450
_cell_angle_alpha 90.000000
_cell_angle_beta 90.000000
_cell_angle_gamma 90.000000
_cell_volume 3161.550372
_symmetry_space_group_name_H-M "P N N N"
_symmetry_group_IT_number 48
_space_group.IT_coordinate_system_code '2'
_symmetry_cell_setting 'orthorhombic'
loop_
_space_group_symop_operation_xyz
x,y,z
1/2-x,1/2-y,z
x,1/2-y,1/2-z
1/2-x,y,1/2-z
-x,-y,-z
1/2+x,1/2+y,-z
-x,1/2+y,1/2+z
1/2+x,-y,1/2+z
loop_
_atom_site_type_symbol
_atom_site_label
_atom_site_fract_x
_atom_site_fract_y
_atom_site_fract_z
Si Si1 0.535416 0.432587 0.243991
Si Si2 0.141764 0.434328 0.073804
Si Si3 0.948437 0.932029 0.052890
Si Si4 0.147764 0.074617 0.079868
Si Si5 0.082611 0.068455 0.249839
Si Si6 0.248210 0.930410 0.356314
Si Si7 0.450582 0.069803 0.941411
O O1 0.541214 0.250000 0.250000
O O2 0.564475 0.495641 0.152961
O O3 0.475704 0.494328 0.228845
O O4 0.555676 0.505281 0.338756
O O5 0.156724 0.256277 0.083458
O O6 0.101463 0.492614 0.152351
O O7 0.195808 0.527841 0.085349
O O8 0.108080 0.470286 0.982026
O O9 0.959049 0.751517 0.058987
O O10 0.893090 0.970275 0.000896
O O11 0.000000 0.000000 0.000000
O O12 0.122858 0.007741 0.173553
O O13 0.205050 0.993326 0.076832
O O14 0.079580 0.250000 0.250000
O O15 0.250000 0.750000 0.349207
O O16 0.250000 0.998272 0.250000
O O17 0.500000 0.000000 0.000000
#
# Coordination Sequence:
#
# PCOD8201557 Si02
#       7
#     8   8   8   8   8   8   8
#     4  11  21  37  56  81 116 152 189 229 279 336
#     4  10  20  36  56  77 109 151 189 222 268 335
#     4  11  22  36  56  84 114 149 190 232 280 334
#     4  10  20  36  56  77 109 151 189 222 268 335
#     4   9  16  30  52  79 109 145 185 218 257 329
#     4  11  23  35  51  82 115 142 181 233 282 326
#     4  11  22  36  56  84 114 149 190 232 280 334
#
# _framework density 17.712828999999999
#
# number of rings (size 3 to 8) (size 9 to 14) (size 15 to 20)
#    0.000    1.571    4.286    1.714    0.000    2.857 
#    0.000    0.000    0.000    0.857    0.000    6.000 
#    0.000    0.000    0.000    0.000    0.000    0.000 
#
# Total GULP energy -693999.271708 kJ/mol
# GULP energy per Si atom -12392.844138 kJ/mol
# Density = 1.767251 g / cm^3
# Si number density = 17.712829 Si / 1000 Ang^3
#
#
#
# Elastic Constant Matrix: (Units=GPa)
#
#
# Indices 1 2 3 4 5 6 
#
# 1 110.4441 44.1518 44.4841 0.0000 0.0000 0.0000
# 2 44.1518 75.2096 43.2343 0.0000 0.0000 0.0000
# 3 44.4841 43.2343 122.3179 0.0000 0.0000 0.0000
# 4 0.0000 0.0000 0.0000 29.1880 0.0000 0.0000
# 5 0.0000 0.0000 0.0000 0.0000 21.2468 0.0000
# 6 0.0000 0.0000 0.0000 0.0000 0.0000 26.3628
#
#
#
# Elastic Compliance Matrix: (Units=1/GPa)
#
#
# Indices 1 2 3 4 5 6 
#
# 1 0.012379 -0.005872 -0.002426 0.000000 0.000000 0.000000
# 2 -0.005872 0.019472 -0.004747 0.000000 0.000000 0.000000
# 3 -0.002426 -0.004747 0.010736 0.000000 0.000000 0.000000
# 4 0.000000 0.000000 0.000000 0.034261 0.000000 0.000000
# 5 0.000000 0.000000 0.000000 0.000000 0.047066 0.000000
# 6 0.000000 0.000000 0.000000 0.000000 0.000000 0.037932
#
#
# Mechanical properties :
#
#
# Convention : Reuss Voigt Hill
#
# Bulk Modulus (GPa) = 60.62186 63.52356 62.07271
# Shear Modulus (GPa) = 25.84829 27.09962 26.47395
#
# Velocity S-wave (km/s) = 3.82422 3.91569 3.87023
# Velocity P-wave (km/s) = 7.33476 7.50895 7.42237
#
# Compressibility (1/GPa) = 0.01649570
#
# Stress axis : x y z
#
# Youngs Moduli (GPa) = 80.78047 51.35470 93.14711
#
# Poissons Ratio (x) = 0.30158 0.22601
# Poissons Ratio (y) = 0.47438 0.44217
# Poissons Ratio (z) = 0.19600 0.24378
#
# Static dielectric constant tensor:
#      x y z
#    x 3.323630 0.000000 0.000000 
#    y 0.000000 3.209980 0.000000 
#    z 0.000000 0.000000 3.379420 
# 
# 
# High freq. dielectric constant tensor:
#      x y z
#    x 1.679160 0.000000 0.000000 
#    y 0.000000 1.680320 0.000000 
#    z 0.000000 0.000000 1.680320 
# 
# From -- ./inp_files/28374.got.cif
#   From: 2010.06.25/outbox.cif.g09.slc.cpg/sg48_15_cif.got.tgz:28374.got - 2010.06.26 18:06:46.
