data_PCOD8201186
_publ_section_title
;
Structure prediction by ZEFSAII (Michael W. Deem and Ramdas Pophale) SiO2 
 PCOD8201186
Probable space group: P M M M
;
_chemical_formula_sum "Si O2"
_cell_formula_units_Z 48
_cell_length_a 8.195813
_cell_length_b 9.244400
_cell_length_c 33.215645
_cell_angle_alpha 90.000000
_cell_angle_beta 90.000000
_cell_angle_gamma 90.000000
_cell_volume 2516.595756
_symmetry_space_group_name_H-M "P M M M"
_symmetry_group_IT_number 47
_symmetry_cell_setting 'orthorhombic'
loop_
_space_group_symop_operation_xyz
x,y,z
-x,-y,z
x,-y,-z
-x,y,-z
-x,-y,-z
x,y,-z
-x,y,z
x,-y,z
loop_
_atom_site_type_symbol
_atom_site_label
_atom_site_fract_x
_atom_site_fract_y
_atom_site_fract_z
Si Si1 0.308757 0.335858 0.500000
Si Si2 0.812361 0.329409 0.096642
Si Si3 0.809222 0.336231 0.417367
Si Si4 0.688767 0.666298 0.334874
Si Si5 0.809551 0.338247 0.748301
Si Si6 0.500000 0.328648 0.045050
Si Si7 0.192169 0.839196 0.822679
O O1 0.239430 0.500000 0.500000
O O2 0.500000 0.330648 0.500000
O O3 0.244979 0.257634 0.540934
O O4 0.802273 0.500000 0.103879
O O5 0.670894 0.277322 0.065649
O O6 0.764939 0.252310 0.137988
O O7 0.000000 0.288874 0.082654
O O8 0.738751 0.500000 0.418958
O O9 0.738624 0.257456 0.377231
O O10 0.000000 0.333462 0.413662
O O11 0.500000 0.685023 0.327604
O O12 0.745740 0.500000 0.338105
O O13 0.775880 0.734114 0.295514
O O14 0.731779 0.500000 0.750095
O O15 0.731092 0.240289 0.783559
O O16 0.000000 0.349599 0.755903
O O17 0.500000 0.500000 0.043998
O O18 0.500000 0.264022 0.000000
O O19 0.000000 0.851693 0.817372
O O20 0.268418 0.000000 0.826315
#
# Coordination Sequence:
#
# PCOD8201186 Si02
#       7
#     4   8   8   8   8   4   8
#     4   9  15  21  29  43  65  95 130 169 214 263
#     4   9  17  31  52  76 102 134 169 204 244 289
#     4   9  15  22  32  46  66  95 133 174 215 262
#     4   9  16  25  36  52  75 103 137 178 222 268
#     4   9  16  27  44  64  86 114 149 188 230 278
#     4   9  18  32  51  79 109 133 165 209 249 286
#     4   9  17  30  49  71  95 124 158 197 240 285
#
# _framework density 19.073385999999999
#
# number of rings (size 3 to 8) (size 9 to 14) (size 15 to 20)
#    0.000    3.000    0.000    1.750    0.000    7.333 
#    1.500    2.083    0.000    1.000    0.000    2.333 
#    0.000    0.000    0.000    0.750    0.000   16.333 
#
# Total GULP energy -594686.651241 kJ/mol
# GULP energy per Si atom -12389.305234 kJ/mol
# Density = 1.902997 g / cm^3
# Si number density = 19.073386 Si / 1000 Ang^3
#
#
#
# Elastic Constant Matrix: (Units=GPa)
#
#
# Indices 1 2 3 4 5 6 
#
# 1 66.7623 15.5401 54.7490 0.0000 0.0000 0.0000
# 2 15.5401 36.3609 40.4798 0.0000 0.0000 0.0000
# 3 54.7490 40.4798 196.7980 0.0000 0.0000 0.0000
# 4 0.0000 0.0000 0.0000 1.1086 0.0000 0.0000
# 5 0.0000 0.0000 0.0000 0.0000 27.6766 0.0000
# 6 0.0000 0.0000 0.0000 0.0000 0.0000 5.3622
#
#
#
# Elastic Compliance Matrix: (Units=1/GPa)
#
#
# Indices 1 2 3 4 5 6 
#
# 1 0.019655 -0.003000 -0.004851 0.000000 0.000000 0.000000
# 2 -0.003000 0.036128 -0.006597 0.000000 0.000000 0.000000
# 3 -0.004851 -0.006597 0.007788 0.000000 0.000000 0.000000
# 4 0.000000 0.000000 0.000000 0.902044 0.000000 0.000000
# 5 0.000000 0.000000 0.000000 0.000000 0.036132 0.000000
# 6 0.000000 0.000000 0.000000 0.000000 0.000000 0.186490
#
#
# Mechanical properties :
#
#
# Convention : Reuss Voigt Hill
#
# Bulk Modulus (GPa) = 28.83848 57.93989 43.38919
# Shear Modulus (GPa) = 4.06938 19.43964 11.75451
#
# Velocity S-wave (km/s) = 1.46225 3.19596 2.48519
# Velocity P-wave (km/s) = 4.24305 6.63793 5.57071
#
# Compressibility (1/GPa) = 0.03467589
#
# Stress axis : x y z
#
# Youngs Moduli (GPa) = 50.87817 27.67924 128.40642
#
# Poissons Ratio (x) = 0.08303 0.62289
# Poissons Ratio (y) = 0.15262 0.84707
# Poissons Ratio (z) = 0.24681 0.18259
#
# Static dielectric constant tensor:
#      x y z
#    x 3.321940 0.000000 0.000000 
#    y 0.000000 3.043200 0.000000 
#    z 0.000000 0.000000 4.003080 
# 
# 
# High freq. dielectric constant tensor:
#      x y z
#    x 1.732940 0.000000 0.000000 
#    y 0.000000 1.661280 0.000000 
#    z 0.000000 0.000000 1.762790 
# 
# From -- ./inp_files/34136.got.cif
#   From: 2010.03.12/outbox.cif.g09.slc.cpg/sg47_18_cif.got.tgz:34136.got - 2010.04.14 03:12:58.
