data_PCOD8201564
_publ_section_title
;
Structure prediction by ZEFSAII (Michael W. Deem and Ramdas Pophale) SiO2 
 PCOD8201564
Probable space group: P N N N
;
_chemical_formula_sum "Si O2"
_cell_formula_units_Z 48
_cell_length_a 13.514090
_cell_length_b 14.989504
_cell_length_c 11.516829
_cell_angle_alpha 90.000000
_cell_angle_beta 90.000000
_cell_angle_gamma 90.000000
_cell_volume 2332.958362
_symmetry_space_group_name_H-M "P N N N"
_symmetry_group_IT_number 48
_space_group.IT_coordinate_system_code '2'
_symmetry_cell_setting 'orthorhombic'
loop_
_space_group_symop_operation_xyz
x,y,z
1/2-x,1/2-y,z
x,1/2-y,1/2-z
1/2-x,y,1/2-z
-x,-y,-z
1/2+x,1/2+y,-z
-x,1/2+y,1/2+z
1/2+x,-y,1/2+z
loop_
_atom_site_type_symbol
_atom_site_label
_atom_site_fract_x
_atom_site_fract_y
_atom_site_fract_z
Si Si1 0.501953 0.024365 0.328686
Si Si2 0.494062 0.413325 0.419661
Si Si3 0.727510 0.646388 0.623251
Si Si4 0.362204 0.626225 0.210599
Si Si5 0.545456 0.269392 0.584945
Si Si6 0.907593 0.621324 0.471970
O O1 0.395585 0.974304 0.314300
O O2 0.583143 0.953020 0.371412
O O3 0.537473 0.066435 0.207490
O O4 0.485655 0.101740 0.423213
O O5 0.500000 0.500000 0.500000
O O6 0.382444 0.378418 0.412974
O O7 0.559775 0.332957 0.473142
O O8 0.750000 0.750000 0.633725
O O9 0.750000 0.603309 0.750000
O O10 0.797163 0.611641 0.519735
O O11 0.250000 0.628183 0.250000
O O12 0.440938 0.666074 0.303714
O O13 0.372795 0.689587 0.095985
O O14 0.437522 0.219502 0.577538
#
# Coordination Sequence:
#
# PCOD8201564 Si02
#       6
#     8   8   8   8   8   8
#     4  10  22  37  61  91 128 157 201 265 329 366
#     4  12  23  38  61  94 128 164 205 260 318 380
#     4  11  22  38  64  93 119 160 219 265 310 384
#     4  10  21  39  65  92 117 165 226 264 301 375
#     4  10  20  36  58  88 127 161 202 258 321 370
#     4  10  21  39  59  90 125 161 203 261 318 380
#
# _framework density 20.574735
#
# number of rings (size 3 to 8) (size 9 to 14) (size 15 to 20)
#    0.000    1.500    5.000    1.000    2.333    0.667 
#    0.000    0.833    0.000    5.000    0.000   14.000 
#    0.000    0.000    0.000    0.000    0.000    0.000 
#
# Total GULP energy -594706.137085 kJ/mol
# GULP energy per Si atom -12389.711189 kJ/mol
# Density = 2.052791 g / cm^3
# Si number density = 20.574735 Si / 1000 Ang^3
#
#
#
# Elastic Constant Matrix: (Units=GPa)
#
#
# Indices 1 2 3 4 5 6 
#
# 1 84.1032 25.7603 50.6234 0.0000 0.0000 0.0000
# 2 25.7603 84.4118 48.3058 0.0000 0.0000 0.0000
# 3 50.6234 48.3058 130.9421 0.0000 0.0000 0.0000
# 4 0.0000 0.0000 0.0000 43.7034 0.0000 0.0000
# 5 0.0000 0.0000 0.0000 0.0000 33.7474 0.0000
# 6 0.0000 0.0000 0.0000 0.0000 0.0000 26.8875
#
#
#
# Elastic Compliance Matrix: (Units=1/GPa)
#
#
# Indices 1 2 3 4 5 6 
#
# 1 0.015679 -0.001668 -0.005446 0.000000 0.000000 0.000000
# 2 -0.001668 0.015194 -0.004960 0.000000 0.000000 0.000000
# 3 -0.005446 -0.004960 0.011573 0.000000 0.000000 0.000000
# 4 0.000000 0.000000 0.000000 0.022882 0.000000 0.000000
# 5 0.000000 0.000000 0.000000 0.000000 0.029632 0.000000
# 6 0.000000 0.000000 0.000000 0.000000 0.000000 0.037192
#
#
# Mechanical properties :
#
#
# Convention : Reuss Voigt Hill
#
# Bulk Modulus (GPa) = 54.65568 60.98179 57.81873
# Shear Modulus (GPa) = 30.78807 32.51885 31.65346
#
# Velocity S-wave (km/s) = 3.87253 3.97989 3.92658
# Velocity P-wave (km/s) = 6.82770 7.12902 6.97998
#
# Compressibility (1/GPa) = 0.01829636
#
# Stress axis : x y z
#
# Youngs Moduli (GPa) = 63.77802 65.81344 86.41150
#
# Poissons Ratio (x) = 0.10979 0.47063
# Poissons Ratio (y) = 0.10639 0.42864
# Poissons Ratio (z) = 0.34736 0.32646
#
# Static dielectric constant tensor:
#      x y z
#    x 3.240610 0.000000 0.000000 
#    y 0.000000 4.017150 0.000000 
#    z 0.000000 0.000000 4.098640 
# 
# 
# High freq. dielectric constant tensor:
#      x y z
#    x 1.760530 0.000000 0.000000 
#    y 0.000000 1.826530 0.000000 
#    z 0.000000 0.000000 1.804190 
# 
# From -- ./inp_files/21262.got.cif
#   From: 2010.06.25/outbox.cif.g09.slc.cpg/sg48_11_cif.got.tgz:21262.got - 2010.06.26 18:06:46.
