data_PCOD8201257
_publ_section_title
;
Structure prediction by ZEFSAII (Michael W. Deem and Ramdas Pophale) SiO2 
 PCOD8201257
Probable space group: P N N N
;
_chemical_formula_sum "Si O2"
_cell_formula_units_Z 48
_cell_length_a 32.749364
_cell_length_b 5.294066
_cell_length_c 15.981397
_cell_angle_alpha 90.000000
_cell_angle_beta 90.000000
_cell_angle_gamma 90.000000
_cell_volume 2770.811374
_symmetry_space_group_name_H-M "P N N N"
_symmetry_group_IT_number 48
_space_group.IT_coordinate_system_code '2'
_symmetry_cell_setting 'orthorhombic'
loop_
_space_group_symop_operation_xyz
x,y,z
1/2-x,1/2-y,z
x,1/2-y,1/2-z
1/2-x,y,1/2-z
-x,-y,-z
1/2+x,1/2+y,-z
-x,1/2+y,1/2+z
1/2+x,-y,1/2+z
loop_
_atom_site_type_symbol
_atom_site_label
_atom_site_fract_x
_atom_site_fract_y
_atom_site_fract_z
Si Si1 0.232553 0.500000 0.656406
Si Si2 0.570150 0.000000 0.443255
Si Si3 0.046897 1.000000 0.470152
Si Si4 0.360582 0.500000 0.804737
Si Si5 0.518426 0.500000 0.207901
Si Si6 0.068696 0.500000 0.222007
O O1 0.250000 0.250000 0.609912
O O2 0.250000 0.500001 0.750000
O O3 0.184014 0.500000 0.654734
O O4 0.250000 0.750000 0.609912
O O5 0.570871 0.252192 0.498767
O O6 0.608226 0.000000 0.381105
O O7 0.570871 0.747808 0.498767
O O8 0.528106 0.000000 0.390342
O O9 0.050413 0.000000 0.370343
O O10 0.000000 0.000000 0.500000
O O11 0.367238 0.750000 0.750000
O O12 0.367238 0.250000 0.750000
O O13 0.538253 0.750000 0.250000
O O14 0.469859 0.500001 0.214532
O O15 0.538253 0.250000 0.250000
O O16 0.094225 0.250000 0.250000
O O17 0.094225 0.750000 0.250000
#
# Coordination Sequence:
#
# PCOD8201257 Si02
#       6
#     8   8   8   8   8   8
#     4  10  16  30  49  73  99 132 181 216 224 284
#     4  12  24  35  48  74  99 127 163 213 280 301
#     4  12  23  37  52  68  95 127 162 214 271 323
#     4  12  21  33  52  74 105 141 175 222 253 292
#     4  10  18  32  46  62  86 113 155 203 243 293
#     4  10  19  33  52  67  80 112 160 205 243 291
#
# _framework density 17.323447000000002
#
# number of rings (size 3 to 8) (size 9 to 14) (size 15 to 20)
#    0.000    1.000    3.333    8.500    0.000    0.000 
#    0.000    0.000    0.000    0.000    0.000    0.000 
#    0.000    0.000    0.000    0.000    0.000   58.333 
#
# Total GULP energy -594928.424794 kJ/mol
# GULP energy per Si atom -12394.342183 kJ/mol
# Density = 1.728402 g / cm^3
# Si number density = 17.323447 Si / 1000 Ang^3
#
#
#
# Elastic Constant Matrix: (Units=GPa)
#
#
# Indices 1 2 3 4 5 6 
#
# 1 71.7303 26.8794 9.9615 0.0000 0.0000 0.0000
# 2 26.8794 206.7015 42.1972 0.0000 0.0000 0.0000
# 3 9.9615 42.1972 60.3118 0.0000 0.0000 0.0000
# 4 0.0000 0.0000 0.0000 22.0700 0.0000 0.0000
# 5 0.0000 0.0000 0.0000 0.0000 5.7868 0.0000
# 6 0.0000 0.0000 0.0000 0.0000 0.0000 -3.5700
#
#
#
# Elastic Compliance Matrix: (Units=1/GPa)
#
#
# Indices 1 2 3 4 5 6 
#
# 1 0.014739 -0.001656 -0.001276 0.000000 0.000000 0.000000
# 2 -0.001656 0.005830 -0.003806 0.000000 0.000000 0.000000
# 3 -0.001276 -0.003806 0.019454 0.000000 0.000000 0.000000
# 4 0.000000 0.000000 0.000000 0.045310 0.000000 0.000000
# 5 0.000000 0.000000 0.000000 0.000000 0.172808 0.000000
# 6 0.000000 0.000000 0.000000 0.000000 0.000000 -0.280116
#
#
# Mechanical properties :
#
#
# Convention : Reuss Voigt Hill
#
# Bulk Modulus (GPa) = 37.66748 55.20220 46.43484
# Shear Modulus (GPa) = 14333.06744 22.17108 7177.61926
#
# Velocity S-wave (km/s) = 91.05909 3.58135 64.43828
# Velocity P-wave (km/s) = 105.24955 7.00259 74.58721
#
# Compressibility (1/GPa) = 0.02654810
#
# Stress axis : x y z
#
# Youngs Moduli (GPa) = 67.84774 171.52222 51.40405
#
# Poissons Ratio (x) = 0.28408 0.06557
# Poissons Ratio (y) = 0.11237 0.19562
# Poissons Ratio (z) = 0.08654 0.65273
#
# Static dielectric constant tensor:
#      x y z
#    x 2.852960 0.000000 0.000000 
#    y 0.000000 9.903370 0.000000 
#    z 0.000000 0.000000 3.039560 
# 
# 
# High freq. dielectric constant tensor:
#      x y z
#    x 1.610310 0.000000 0.000000 
#    y 0.000000 1.719100 0.000000 
#    z 0.000000 0.000000 1.637280 
# 
# From -- ./inp_files/28875.got.cif
#   From: 2010.06.25/outbox.cif.g09.slc.cpg/sg48_15_cif.got.tgz:28875.got - 2010.06.26 18:06:46.
