data_PCOD8201812
_publ_section_title
;
Structure prediction by ZEFSAII (Michael W. Deem and Ramdas Pophale) SiO2 
 PCOD8201812
Probable space group: P N N N
;
_chemical_formula_sum "Si O2"
_cell_formula_units_Z 64
_cell_length_a 10.938983
_cell_length_b 26.942948
_cell_length_c 11.282266
_cell_angle_alpha 90.000000
_cell_angle_beta 90.000000
_cell_angle_gamma 90.000000
_cell_volume 3325.204772
_symmetry_space_group_name_H-M "P N N N"
_symmetry_group_IT_number 48
_space_group.IT_coordinate_system_code '2'
_symmetry_cell_setting 'orthorhombic'
loop_
_space_group_symop_operation_xyz
x,y,z
1/2-x,1/2-y,z
x,1/2-y,1/2-z
1/2-x,y,1/2-z
-x,-y,-z
1/2+x,1/2+y,-z
-x,1/2+y,1/2+z
1/2+x,-y,1/2+z
loop_
_atom_site_type_symbol
_atom_site_label
_atom_site_fract_x
_atom_site_fract_y
_atom_site_fract_z
Si Si1 0.448785 0.693943 0.246369
Si Si2 0.763311 0.304863 0.943704
Si Si3 0.607768 0.499314 0.231213
Si Si4 0.690798 0.386276 0.378147
Si Si5 0.044612 0.097669 0.856788
Si Si6 0.310219 0.430523 0.080761
Si Si7 0.156089 0.539451 0.488221
Si Si8 0.943149 0.581260 0.818989
O O1 0.505848 0.750000 0.250000
O O2 0.344837 0.688800 0.148823
O O3 0.391074 0.683717 0.375829
O O4 0.545559 0.651354 0.208004
O O5 0.750000 0.250000 0.995563
O O6 0.751349 0.338785 0.058703
O O7 0.750000 0.487687 0.250000
O O8 0.582785 0.557844 0.243597
O O9 0.571420 0.479990 0.098063
O O10 0.520346 0.470422 0.321918
O O11 0.750000 0.393546 0.250000
O O12 0.722536 0.434042 0.460404
O O13 0.544816 0.378557 0.359474
O O14 0.144922 0.095582 0.960871
O O15 0.913659 0.080615 0.909540
O O16 0.167045 0.417167 0.088505
O O17 0.388655 0.407944 0.188619
O O18 0.310951 0.490668 0.087182
#
# Coordination Sequence:
#
# PCOD8201812 Si02
#       8
#     8   8   8   8   8   8   8   8
#     4   9  19  38  63  86 110 147 187 251 304 351
#     4   9  20  38  58  89 118 137 186 247 308 359
#     4  11  19  34  51  76 118 156 192 240 282 338
#     4  12  21  34  60  86 120 155 185 243 307 355
#     4  11  19  35  58  81 111 156 201 232 296 353
#     4  10  22  34  53  81 121 165 201 237 275 349
#     4  11  18  34  54  80 111 160 201 227 289 343
#     4  11  20  36  51  82 125 154 197 240 285 343
#
# _framework density 19.246935000000001
#
# number of rings (size 3 to 8) (size 9 to 14) (size 15 to 20)
#    0.000    1.500    6.250    1.500    0.000    1.750 
#    4.500    0.000    0.000    0.375    0.000    0.000 
#    0.000    0.000    0.000    0.000    0.000    0.000 
#
# Total GULP energy -793050.422603 kJ/mol
# GULP energy per Si atom -12391.412853 kJ/mol
# Density = 1.920313 g / cm^3
# Si number density = 19.246935 Si / 1000 Ang^3
#
#
#
# Elastic Constant Matrix: (Units=GPa)
#
#
# Indices 1 2 3 4 5 6 
#
# 1 99.1606 20.4583 19.4735 0.0000 0.0000 0.0000
# 2 20.4583 112.7732 32.6669 0.0000 0.0000 0.0000
# 3 19.4735 32.6669 52.7078 0.0000 0.0000 0.0000
# 4 0.0000 0.0000 0.0000 28.2805 0.0000 0.0000
# 5 0.0000 0.0000 0.0000 0.0000 22.4187 0.0000
# 6 0.0000 0.0000 0.0000 0.0000 0.0000 24.7970
#
#
#
# Elastic Compliance Matrix: (Units=1/GPa)
#
#
# Indices 1 2 3 4 5 6 
#
# 1 0.010964 -0.000994 -0.003435 0.000000 0.000000 0.000000
# 2 -0.000994 0.010898 -0.006387 0.000000 0.000000 0.000000
# 3 -0.003435 -0.006387 0.024200 0.000000 0.000000 0.000000
# 4 0.000000 0.000000 0.000000 0.035360 0.000000 0.000000
# 5 0.000000 0.000000 0.000000 0.000000 0.044606 0.000000
# 6 0.000000 0.000000 0.000000 0.000000 0.000000 0.040327
#
#
# Mechanical properties :
#
#
# Convention : Reuss Voigt Hill
#
# Bulk Modulus (GPa) = 40.93237 45.53765 43.23501
# Shear Modulus (GPa) = 25.49330 27.90212 26.69771
#
# Velocity S-wave (km/s) = 3.64337 3.81161 3.72844
# Velocity P-wave (km/s) = 6.24596 6.56371 6.40680
#
# Compressibility (1/GPa) = 0.02443054
#
# Stress axis : x y z
#
# Youngs Moduli (GPa) = 91.20532 91.76192 41.32245
#
# Poissons Ratio (x) = 0.09122 0.14193
# Poissons Ratio (y) = 0.09067 0.26392
# Poissons Ratio (z) = 0.31327 0.58607
#
# Static dielectric constant tensor:
#      x y z
#    x 3.497310 0.000000 0.000000 
#    y 0.000000 3.557840 0.000000 
#    z 0.000000 0.000000 3.492870 
# 
# 
# High freq. dielectric constant tensor:
#      x y z
#    x 1.737770 0.000000 0.000000 
#    y 0.000000 1.722460 0.000000 
#    z 0.000000 0.000000 1.740510 
# 
# From -- ./inp_files/20486.got.cif
#   From: 2010.06.25/outbox.cif.g09.slc.cpg/sg48_11_cif.got.tgz:20486.got - 2010.06.26 18:06:46.
