data_PCOD8201134
_publ_section_title
;
Structure prediction by ZEFSAII (Michael W. Deem and Ramdas Pophale) SiO2 
 PCOD8201134
Probable space group: P M M M
;
_chemical_formula_sum "Si O2"
_cell_formula_units_Z 52
_cell_length_a 9.298409
_cell_length_b 9.518358
_cell_length_c 33.590228
_cell_angle_alpha 90.000000
_cell_angle_beta 90.000000
_cell_angle_gamma 90.000000
_cell_volume 2972.922803
_symmetry_space_group_name_H-M "P M M M"
_symmetry_group_IT_number 47
_symmetry_cell_setting 'orthorhombic'
loop_
_space_group_symop_operation_xyz
x,y,z
-x,-y,z
x,-y,-z
-x,y,-z
-x,-y,-z
x,y,-z
-x,y,z
x,-y,z
loop_
_atom_site_type_symbol
_atom_site_label
_atom_site_fract_x
_atom_site_fract_y
_atom_site_fract_z
Si Si1 0.170739 0.659277 0.000000
Si Si2 0.329049 0.158040 0.543800
Si Si3 0.662191 0.833139 0.847298
Si Si4 0.832680 0.662150 0.694542
Si Si5 0.166961 0.836439 0.770726
Si Si6 0.168492 0.163111 0.924701
Si Si7 0.332170 0.662598 0.616756
O O1 0.225142 0.743154 0.038711
O O2 0.232027 0.500000 0.000000
O O3 0.000000 0.657108 0.000000
O O4 0.274505 0.207742 0.500000
O O5 0.500000 0.164201 0.544325
O O6 0.267224 0.257637 0.578372
O O7 0.275617 0.000000 0.552082
O O8 0.500000 0.773622 0.847999
O O9 0.743000 0.777552 0.808045
O O10 0.746684 0.780844 0.886222
O O11 0.662876 0.000000 0.846734
O O12 0.796767 0.500000 0.703343
O O13 0.780365 0.752094 0.732137
O O14 0.747509 0.717580 0.656103
O O15 0.000000 0.685833 0.686148
O O16 0.000000 0.808382 0.779901
O O17 0.197023 0.000000 0.762954
O O18 0.000000 0.184740 0.916661
O O19 0.201898 0.000000 0.934093
O O20 0.500000 0.693494 0.622503
O O21 0.299935 0.500000 0.609564
#
# Coordination Sequence:
#
# PCOD8201134 Si02
#       7
#     4   8   8   8   8   8   8
#     4   9  17  29  46  69  94 118 148 187 224 256
#     4   8  14  25  41  62  88 115 142 175 216 259
#     4   9  17  29  46  69  94 117 144 181 222 261
#     4   9  18  32  47  63  87 118 147 176 215 262
#     4   9  17  30  48  68  88 112 145 182 217 255
#     4   9  16  28  48  70  90 116 151 186 218 256
#     4   9  17  28  43  64  87 111 143 182 218 252
#
# _framework density 17.491202999999999
#
# number of rings (size 3 to 8) (size 9 to 14) (size 15 to 20)
#    0.000    3.154    0.000    1.154    0.000    4.308 
#    0.000    2.692    0.000    7.846    0.000    3.231 
#    0.000    0.000    0.000    0.000    0.000    0.000 
#
# Total GULP energy -644702.620824 kJ/mol
# GULP energy per Si atom -12398.127324 kJ/mol
# Density = 1.745139 g / cm^3
# Si number density = 17.491203 Si / 1000 Ang^3
#
#
#
# Elastic Constant Matrix: (Units=GPa)
#
#
# Indices 1 2 3 4 5 6 
#
# 1 53.0594 29.8343 64.3063 0.0000 0.0000 0.0000
# 2 29.8343 66.0193 78.2029 0.0000 0.0000 0.0000
# 3 64.3063 78.2029 205.2292 0.0000 0.0000 0.0000
# 4 0.0000 0.0000 0.0000 16.9589 0.0000 0.0000
# 5 0.0000 0.0000 0.0000 0.0000 26.7180 0.0000
# 6 0.0000 0.0000 0.0000 0.0000 0.0000 12.2686
#
#
#
# Elastic Compliance Matrix: (Units=1/GPa)
#
#
# Indices 1 2 3 4 5 6 
#
# 1 0.031128 -0.004581 -0.008008 0.000000 0.000000 0.000000
# 2 -0.004581 0.028283 -0.009342 0.000000 0.000000 0.000000
# 3 -0.008008 -0.009342 0.010942 0.000000 0.000000 0.000000
# 4 0.000000 0.000000 0.000000 0.058966 0.000000 0.000000
# 5 0.000000 0.000000 0.000000 0.000000 0.037428 0.000000
# 6 0.000000 0.000000 0.000000 0.000000 0.000000 0.081509
#
#
# Mechanical properties :
#
#
# Convention : Reuss Voigt Hill
#
# Bulk Modulus (GPa) = 37.74873 74.33276 56.04074
# Shear Modulus (GPa) = 16.61414 21.32006 18.96710
#
# Velocity S-wave (km/s) = 3.08532 3.49506 3.29656
# Velocity P-wave (km/s) = 5.85838 7.67312 6.82633
#
# Compressibility (1/GPa) = 0.02649096
#
# Stress axis : x y z
#
# Youngs Moduli (GPa) = 32.12530 35.35668 91.39427
#
# Poissons Ratio (x) = 0.16197 0.73189
# Poissons Ratio (y) = 0.14716 0.85380
# Poissons Ratio (z) = 0.25726 0.33030
#
# Static dielectric constant tensor:
#      x y z
#    x 3.033800 0.000000 0.000000 
#    y 0.000000 3.141590 0.000000 
#    z 0.000000 0.000000 3.547670 
# 
# 
# High freq. dielectric constant tensor:
#      x y z
#    x 1.646000 0.000000 0.000000 
#    y 0.000000 1.653920 0.000000 
#    z 0.000000 0.000000 1.690550 
# 
# From -- ./inp_files/33245.got.cif
#   From: 2010.03.12/outbox.cif.g09.slc.cpg/sg47_17_cif.got.tgz:33245.got - 2010.04.14 03:12:58.
