data_PCOD8201587
_publ_section_title
;
Structure prediction by ZEFSAII (Michael W. Deem and Ramdas Pophale) SiO2 
 PCOD8201587
Probable space group: P N N N
;
_chemical_formula_sum "Si O2"
_cell_formula_units_Z 64
_cell_length_a 9.350639
_cell_length_b 31.755031
_cell_length_c 10.545224
_cell_angle_alpha 90.000000
_cell_angle_beta 90.000000
_cell_angle_gamma 90.000000
_cell_volume 3131.191583
_symmetry_space_group_name_H-M "P N N N"
_symmetry_group_IT_number 48
_space_group.IT_coordinate_system_code '2'
_symmetry_cell_setting 'orthorhombic'
loop_
_space_group_symop_operation_xyz
x,y,z
1/2-x,1/2-y,z
x,1/2-y,1/2-z
1/2-x,y,1/2-z
-x,-y,-z
1/2+x,1/2+y,-z
-x,1/2+y,1/2+z
1/2+x,-y,1/2+z
loop_
_atom_site_type_symbol
_atom_site_label
_atom_site_fract_x
_atom_site_fract_y
_atom_site_fract_z
Si Si1 0.732508 0.898270 0.603935
Si Si2 0.777029 0.797621 0.117301
Si Si3 0.920939 0.017017 0.627344
Si Si4 0.232848 0.798308 0.601582
Si Si5 0.032140 0.344708 0.994448
Si Si6 0.880419 0.512112 0.601336
Si Si7 0.489473 0.652442 0.020100
Si Si8 0.583565 0.106370 0.767887
O O1 0.750000 0.900807 0.750000
O O2 0.890514 0.886435 0.550309
O O3 0.686284 0.943996 0.554342
O O4 0.603114 0.866019 0.578749
O O5 0.750000 0.750000 0.142036
O O6 0.750000 0.822409 0.250000
O O7 0.939855 0.805196 0.076022
O O8 0.663612 0.812911 0.015458
O O9 0.977982 0.062814 0.672872
O O10 0.751127 0.021187 0.595773
O O11 0.941166 0.986586 0.752341
O O12 0.000000 0.000000 0.500000
O O13 0.250000 0.750000 0.547022
O O14 0.250000 0.795924 0.750000
O O15 0.342915 0.832063 0.541872
O O16 0.078503 0.819297 0.581259
O O17 0.954884 0.355714 0.862737
O O18 0.000000 0.500000 0.500000
O O19 0.476588 0.616727 0.128488
O O20 0.750000 0.103432 0.750000
#
# Coordination Sequence:
#
# PCOD8201587 Si02
#       8
#     8   8   8   8   8   8   8   8
#     4  11  23  41  65  92 128 167 218 272 318 390
#     4  10  20  37  59  91 129 163 206 262 321 385
#     4  11  24  44  67  94 132 171 213 272 335 402
#     4  11  24  43  64  93 133 177 224 271 322 395
#     4  11  23  39  64  95 126 168 218 262 330 385
#     4  11  23  43  65  94 128 169 218 274 330 396
#     4  11  23  40  65  97 129 171 218 267 331 384
#     4  12  22  40  65  94 131 166 210 270 330 394
#
# _framework density 20.439502999999998
#
# number of rings (size 3 to 8) (size 9 to 14) (size 15 to 20)
#    0.000    1.000    5.000    3.000    0.000    0.500 
#    0.000    3.125    0.000    6.000    0.000    0.000 
#    0.000    0.000    0.000    0.000    0.000    0.000 
#
# Total GULP energy -792882.511168 kJ/mol
# GULP energy per Si atom -12388.789237 kJ/mol
# Density = 2.039298 g / cm^3
# Si number density = 20.439503 Si / 1000 Ang^3
#
#
#
# Elastic Constant Matrix: (Units=GPa)
#
#
# Indices 1 2 3 4 5 6 
#
# 1 119.3888 43.0943 49.7063 0.0000 0.0000 0.0000
# 2 43.0943 108.0179 35.7097 0.0000 0.0000 0.0000
# 3 49.7063 35.7097 77.9932 0.0000 0.0000 0.0000
# 4 0.0000 0.0000 0.0000 159.0895 0.0000 0.0000
# 5 0.0000 0.0000 0.0000 0.0000 53.5371 0.0000
# 6 0.0000 0.0000 0.0000 0.0000 0.0000 1.4853
#
#
#
# Elastic Compliance Matrix: (Units=1/GPa)
#
#
# Indices 1 2 3 4 5 6 
#
# 1 0.012019 -0.002666 -0.006439 0.000000 0.000000 0.000000
# 2 -0.002666 0.011500 -0.003566 0.000000 0.000000 0.000000
# 3 -0.006439 -0.003566 0.018558 0.000000 0.000000 0.000000
# 4 0.000000 0.000000 0.000000 0.006286 0.000000 0.000000
# 5 0.000000 0.000000 0.000000 0.000000 0.018679 0.000000
# 6 0.000000 0.000000 0.000000 0.000000 0.000000 0.673270
#
#
# Mechanical properties :
#
#
# Convention : Reuss Voigt Hill
#
# Bulk Modulus (GPa) = 59.75753 62.49115 61.12434
# Shear Modulus (GPa) = 6.48311 54.61502 30.54907
#
# Velocity S-wave (km/s) = 1.78290 5.17478 3.87021
# Velocity P-wave (km/s) = 5.79121 8.14522 7.06692
#
# Compressibility (1/GPa) = 0.01673429
#
# Stress axis : x y z
#
# Youngs Moduli (GPa) = 83.19876 86.95305 53.88416
#
# Poissons Ratio (x) = 0.23185 0.34698
# Poissons Ratio (y) = 0.22184 0.19216
# Poissons Ratio (z) = 0.53574 0.31009
#
# Static dielectric constant tensor:
#      x y z
#    x 3.413920 0.000000 0.000000 
#    y 0.000000 4.072690 0.000000 
#    z 0.000000 0.000000 2.861000 
# 
# 
# High freq. dielectric constant tensor:
#      x y z
#    x 1.801950 0.000000 0.000000 
#    y 0.000000 1.800480 0.000000 
#    z 0.000000 0.000000 1.802080 
# 
# From -- ./inp_files/19062.got.cif
#   From: 2010.06.25/outbox.cif.g09.slc.cpg/sg48_10_cif.got.tgz:19062.got - 2010.06.26 18:06:46.
