data_PCOD8201229
_publ_section_title
;
Structure prediction by ZEFSAII (Michael W. Deem and Ramdas Pophale) SiO2 
 PCOD8201229
Probable space group: P M M M
;
_chemical_formula_sum "Si O2"
_cell_formula_units_Z 44
_cell_length_a 13.929884
_cell_length_b 7.840348
_cell_length_c 23.089816
_cell_angle_alpha 90.000000
_cell_angle_beta 90.000000
_cell_angle_gamma 90.000000
_cell_volume 2521.757445
_symmetry_space_group_name_H-M "P M M M"
_symmetry_group_IT_number 47
_symmetry_cell_setting 'orthorhombic'
loop_
_space_group_symop_operation_xyz
x,y,z
-x,-y,z
x,-y,-z
-x,y,-z
-x,-y,-z
x,y,-z
-x,y,z
x,-y,z
loop_
_atom_site_type_symbol
_atom_site_label
_atom_site_fract_x
_atom_site_fract_y
_atom_site_fract_z
Si Si1 0.207054 0.202819 0.064728
Si Si2 0.612127 0.695844 0.353633
Si Si3 0.386607 0.000000 0.435709
Si Si4 0.603888 0.196467 0.877419
Si Si5 0.895517 0.698308 0.176195
Si Si6 0.295480 0.299521 0.767093
O O1 0.311210 0.278639 0.083883
O O2 0.126900 0.271170 0.108473
O O3 0.208866 0.000000 0.067993
O O4 0.183174 0.267063 0.000000
O O5 0.500000 0.720534 0.338389
O O6 0.631372 0.500000 0.373396
O O7 0.675973 0.745226 0.298222
O O8 0.646080 0.826518 0.403414
O O9 0.500000 0.000000 0.440711
O O10 0.340520 0.000000 0.500000
O O11 0.500000 0.283807 0.890046
O O12 0.627609 0.214115 0.809468
O O13 0.595619 0.000000 0.893572
O O14 0.902908 0.500000 0.188346
O O15 0.811223 0.774195 0.217461
O O16 0.000000 0.782061 0.190289
O O17 0.298743 0.500000 0.778344
#
# Coordination Sequence:
#
# PCOD8201229 Si02
#       6
#     8   8   4   8   8   8
#     4   9  18  31  44  59  81 109 141 177 218 266
#     4   9  17  28  44  67  94 126 160 191 224 263
#     4   9  18  30  44  66  97 133 166 191 217 251
#     4   9  17  27  41  61  82 108 141 177 218 263
#     4   9  18  32  48  64  83 108 138 178 227 273
#     4   9  17  29  44  63  87 112 141 179 223 270
#
# _framework density 17.448149999999998
#
# number of rings (size 3 to 8) (size 9 to 14) (size 15 to 20)
#    0.000    3.000    0.000    0.545    1.273    2.909 
#    0.000    5.455    0.000    0.000    0.000    5.091 
#    0.000    1.455    0.000    7.091    0.000    0.182 
#
# Total GULP energy -545235.269431 kJ/mol
# GULP energy per Si atom -12391.710669 kJ/mol
# Density = 1.740844 g / cm^3
# Si number density = 17.448150 Si / 1000 Ang^3
#
#
#
# Elastic Constant Matrix: (Units=GPa)
#
#
# Indices 1 2 3 4 5 6 
#
# 1 101.6368 12.1372 36.7067 0.0000 0.0000 0.0000
# 2 12.1372 39.7967 29.1208 0.0000 0.0000 0.0000
# 3 36.7067 29.1208 110.4484 0.0000 0.0000 0.0000
# 4 0.0000 0.0000 0.0000 22.4707 0.0000 0.0000
# 5 0.0000 0.0000 0.0000 0.0000 13.3934 0.0000
# 6 0.0000 0.0000 0.0000 0.0000 0.0000 12.6816
#
#
#
# Elastic Compliance Matrix: (Units=1/GPa)
#
#
# Indices 1 2 3 4 5 6 
#
# 1 0.011205 -0.000858 -0.003498 0.000000 0.000000 0.000000
# 2 -0.000858 0.031200 -0.007941 0.000000 0.000000 0.000000
# 3 -0.003498 -0.007941 0.012310 0.000000 0.000000 0.000000
# 4 0.000000 0.000000 0.000000 0.044502 0.000000 0.000000
# 5 0.000000 0.000000 0.000000 0.000000 0.074663 0.000000
# 6 0.000000 0.000000 0.000000 0.000000 0.000000 0.078854
#
#
# Mechanical properties :
#
#
# Convention : Reuss Voigt Hill
#
# Bulk Modulus (GPa) = 33.19858 45.31239 39.25548
# Shear Modulus (GPa) = 17.39925 21.30363 19.35144
#
# Velocity S-wave (km/s) = 3.16127 3.49803 3.33390
# Velocity P-wave (km/s) = 5.69150 6.50700 6.11286
#
# Compressibility (1/GPa) = 0.03012177
#
# Stress axis : x y z
#
# Youngs Moduli (GPa) = 89.24933 32.05106 81.23368
#
# Poissons Ratio (x) = 0.02750 0.28412
# Poissons Ratio (y) = 0.07656 0.64509
# Poissons Ratio (z) = 0.31216 0.25452
#
# Static dielectric constant tensor:
#      x y z
#    x 3.604230 0.000000 0.000000 
#    y 0.000000 3.171120 0.000000 
#    z 0.000000 0.000000 3.187640 
# 
# 
# High freq. dielectric constant tensor:
#      x y z
#    x 1.658100 0.000000 0.000000 
#    y 0.000000 1.667810 0.000000 
#    z 0.000000 0.000000 1.646500 
# 
# From -- ./inp_files/6770.got.cif
#   From: 2010.03.12/outbox.cif.g09.slc.cpg/sg47_4_cif.got.tgz:6770.got - 2010.04.14 03:12:58.
