data_PCOD8201814
_publ_section_title
;
Structure prediction by ZEFSAII (Michael W. Deem and Ramdas Pophale) SiO2 
 PCOD8201814
Probable space group: P N N N
;
_chemical_formula_sum "Si O2"
_cell_formula_units_Z 24
_cell_length_a 7.315044
_cell_length_b 12.405712
_cell_length_c 12.956684
_cell_angle_alpha 90.000000
_cell_angle_beta 90.000000
_cell_angle_gamma 90.000000
_cell_volume 1175.797424
_symmetry_space_group_name_H-M "P N N N"
_symmetry_group_IT_number 48
_space_group.IT_coordinate_system_code '2'
_symmetry_cell_setting 'orthorhombic'
loop_
_space_group_symop_operation_xyz
x,y,z
1/2-x,1/2-y,z
x,1/2-y,1/2-z
1/2-x,y,1/2-z
-x,-y,-z
1/2+x,1/2+y,-z
-x,1/2+y,1/2+z
1/2+x,-y,1/2+z
loop_
_atom_site_type_symbol
_atom_site_label
_atom_site_fract_x
_atom_site_fract_y
_atom_site_fract_z
Si Si1 0.203025 0.630411 0.981223
Si Si2 0.510299 0.361952 0.193103
Si Si3 0.158876 0.067826 0.387816
O O1 0.250000 0.750000 0.020918
O O2 0.313548 0.604334 0.874565
O O3 0.985226 0.623187 0.964684
O O4 0.245993 0.543684 0.069790
O O5 0.554074 0.250000 0.250000
O O6 0.450162 0.450898 0.279056
O O7 0.330384 0.350249 0.121367
#
# Coordination Sequence:
#
# PCOD8201814 Si02
#       3
#     8   8   8
#     4  11  22  36  59  90 121 159 207 260 314 374
#     4  11  21  37  62  85 120 162 210 259 304 374
#     4  10  22  36  56  90 121 154 207 259 314 366
#
# _framework density 20.411681000000002
#
# number of rings (size 3 to 8) (size 9 to 14) (size 15 to 20)
#    0.000    1.333    3.333    4.000    0.000    0.000 
#    0.000    3.333    0.000    0.000    0.000    9.333 
#    0.000    0.000    0.000    0.000    0.000    0.000 
#
# Total GULP energy -297319.272223 kJ/mol
# GULP energy per Si atom -12388.303009 kJ/mol
# Density = 2.036522 g / cm^3
# Si number density = 20.411681 Si / 1000 Ang^3
#
#
#
# Elastic Constant Matrix: (Units=GPa)
#
#
# Indices 1 2 3 4 5 6 
#
# 1 111.3547 40.6038 22.6310 0.0000 0.0000 0.0000
# 2 40.6038 119.3720 60.9721 0.0000 0.0000 0.0000
# 3 22.6310 60.9721 90.3589 0.0000 0.0000 0.0000
# 4 0.0000 0.0000 0.0000 41.0201 0.0000 0.0000
# 5 0.0000 0.0000 0.0000 0.0000 31.7774 0.0000
# 6 0.0000 0.0000 0.0000 0.0000 0.0000 28.8210
#
#
#
# Elastic Compliance Matrix: (Units=1/GPa)
#
#
# Indices 1 2 3 4 5 6 
#
# 1 0.010258 -0.003322 -0.000328 0.000000 0.000000 0.000000
# 2 -0.003322 0.013859 -0.008520 0.000000 0.000000 0.000000
# 3 -0.000328 -0.008520 0.016898 0.000000 0.000000 0.000000
# 4 0.000000 0.000000 0.000000 0.024378 0.000000 0.000000
# 5 0.000000 0.000000 0.000000 0.000000 0.031469 0.000000
# 6 0.000000 0.000000 0.000000 0.000000 0.000000 0.034697
#
#
# Mechanical properties :
#
#
# Convention : Reuss Voigt Hill
#
# Bulk Modulus (GPa) = 59.96476 63.27772 61.62124
# Shear Modulus (GPa) = 30.96822 33.44894 32.20858
#
# Velocity S-wave (km/s) = 3.89933 4.05250 3.97665
# Velocity P-wave (km/s) = 7.05085 7.27771 7.16517
#
# Compressibility (1/GPa) = 0.01667646
#
# Stress axis : x y z
#
# Youngs Moduli (GPa) = 97.48305 72.15707 59.17922
#
# Poissons Ratio (x) = 0.23970 0.01939
# Poissons Ratio (y) = 0.32383 0.50418
# Poissons Ratio (z) = 0.03194 0.61474
#
# Static dielectric constant tensor:
#      x y z
#    x 4.090620 0.000000 0.000000 
#    y 0.000000 3.691740 0.000000 
#    z 0.000000 0.000000 4.008060 
# 
# 
# High freq. dielectric constant tensor:
#      x y z
#    x 1.829750 0.000000 0.000000 
#    y 0.000000 1.762380 0.000000 
#    z 0.000000 0.000000 1.778480 
# 
# From -- ./inp_files/8118.got.cif
#   From: 2010.06.25/outbox.cif.g09.slc.cpg/sg48_5_cif.got.tgz:8118.got - 2010.06.26 18:06:46.
