data_PCOD8201129
_publ_section_title
;
Structure prediction by ZEFSAII (Michael W. Deem and Ramdas Pophale) SiO2 
 PCOD8201129
Probable space group: P M M M
;
_chemical_formula_sum "Si O2"
_cell_formula_units_Z 44
_cell_length_a 28.682735
_cell_length_b 9.285328
_cell_length_c 9.239777
_cell_angle_alpha 90.000000
_cell_angle_beta 90.000000
_cell_angle_gamma 90.000000
_cell_volume 2460.816895
_symmetry_space_group_name_H-M "P M M M"
_symmetry_group_IT_number 47
_symmetry_cell_setting 'orthorhombic'
loop_
_space_group_symop_operation_xyz
x,y,z
-x,-y,z
x,-y,-z
-x,y,-z
-x,-y,-z
x,y,-z
-x,y,z
x,-y,z
loop_
_atom_site_type_symbol
_atom_site_label
_atom_site_fract_x
_atom_site_fract_y
_atom_site_fract_z
Si Si1 0.000000 0.163587 0.672699
Si Si2 0.820096 0.832789 0.330943
Si Si3 0.089213 0.663010 0.672162
Si Si4 0.639538 0.169052 0.667235
Si Si5 0.551079 0.662250 0.671987
Si Si6 0.270793 0.828680 0.836667
O O1 0.954724 0.247324 0.732499
O O2 0.000000 0.161896 0.500000
O O3 0.000000 0.000000 0.732082
O O4 0.810584 0.808611 0.500000
O O5 0.863890 0.741058 0.274499
O O6 0.775216 0.774035 0.245567
O O7 0.830309 0.000000 0.297946
O O8 0.087562 0.661559 0.500000
O O9 0.087575 0.500000 0.732851
O O10 0.647088 0.210821 0.500000
O O11 0.592416 0.238140 0.733021
O O12 0.683506 0.231234 0.755480
O O13 0.634480 0.000000 0.687693
O O14 0.551527 0.668485 0.500000
O O15 0.500000 0.715747 0.727158
O O16 0.559835 0.500000 0.726028
O O17 0.271729 0.000000 0.833238
O O18 0.270295 0.769272 0.000000
#
# Coordination Sequence:
#
# PCOD8201129 Si02
#       6
#     4   8   8   8   8   8
#     4   9  15  23  37  59  88 119 148 177 212 256
#     4   9  16  27  44  64  85 111 145 181 213 249
#     4   9  16  25  38  59  88 118 145 176 216 258
#     4   9  16  26  43  67  90 111 140 179 217 251
#     4   8  14  25  41  62  88 115 141 171 210 255
#     4   9  17  29  45  64  86 113 144 178 217 259
#
# _framework density 17.880241000000002
#
# number of rings (size 3 to 8) (size 9 to 14) (size 15 to 20)
#    0.000    3.182    0.000    1.909    0.000    5.818 
#    0.000    2.727    0.000    7.091    0.000    4.455 
#    0.000    5.091    0.000    0.000    0.000    0.000 
#
# Total GULP energy -545430.853040 kJ/mol
# GULP energy per Si atom -12396.155751 kJ/mol
# Density = 1.783954 g / cm^3
# Si number density = 17.880241 Si / 1000 Ang^3
#
#
#
# Elastic Constant Matrix: (Units=GPa)
#
#
# Indices 1 2 3 4 5 6 
#
# 1 210.4600 76.5338 52.3228 0.0000 0.0000 0.0000
# 2 76.5338 81.3760 25.0341 0.0000 0.0000 0.0000
# 3 52.3228 25.0341 45.1847 0.0000 0.0000 0.0000
# 4 0.0000 0.0000 0.0000 6.4608 0.0000 0.0000
# 5 0.0000 0.0000 0.0000 0.0000 2.6730 0.0000
# 6 0.0000 0.0000 0.0000 0.0000 0.0000 16.5739
#
#
#
# Elastic Compliance Matrix: (Units=1/GPa)
#
#
# Indices 1 2 3 4 5 6 
#
# 1 0.008592 -0.006051 -0.006597 0.000000 0.000000 0.000000
# 2 -0.006051 0.019076 -0.003561 0.000000 0.000000 0.000000
# 3 -0.006597 -0.003561 0.031743 0.000000 0.000000 0.000000
# 4 0.000000 0.000000 0.000000 0.154779 0.000000 0.000000
# 5 0.000000 0.000000 0.000000 0.000000 0.374105 0.000000
# 6 0.000000 0.000000 0.000000 0.000000 0.000000 0.060336
#
#
# Mechanical properties :
#
#
# Convention : Reuss Voigt Hill
#
# Bulk Modulus (GPa) = 37.04770 71.64469 54.34619
# Shear Modulus (GPa) = 7.24588 17.35022 12.29805
#
# Velocity S-wave (km/s) = 2.01525 3.11843 2.62544
# Velocity P-wave (km/s) = 5.11663 7.28851 6.29691
#
# Compressibility (1/GPa) = 0.02699223
#
# Stress axis : x y z
#
# Youngs Moduli (GPa) = 116.38542 52.42307 31.50276
#
# Poissons Ratio (x) = 0.31724 0.20781
# Poissons Ratio (y) = 0.70431 0.11219
# Poissons Ratio (z) = 0.76776 0.18669
#
# Static dielectric constant tensor:
#      x y z
#    x 3.711530 0.000000 0.000000 
#    y 0.000000 3.200870 0.000000 
#    z 0.000000 0.000000 2.848710 
# 
# 
# High freq. dielectric constant tensor:
#      x y z
#    x 1.712970 0.000000 0.000000 
#    y 0.000000 1.671000 0.000000 
#    z 0.000000 0.000000 1.633380 
# 
# From -- ./inp_files/2276.got.cif
#   From: 2010.03.12/outbox.cif.g09.slc.cpg/sg47_2_cif.got.tgz:2276.got - 2010.04.14 03:12:58.
