data_PCOD8201594
_publ_section_title
;
Structure prediction by ZEFSAII (Michael W. Deem and Ramdas Pophale) SiO2 
 PCOD8201594
Probable space group: P N N N
;
_chemical_formula_sum "Si O2"
_cell_formula_units_Z 64
_cell_length_a 22.899166
_cell_length_b 7.792279
_cell_length_c 16.271806
_cell_angle_alpha 90.000000
_cell_angle_beta 90.000000
_cell_angle_gamma 90.000000
_cell_volume 2903.487208
_symmetry_space_group_name_H-M "P N N N"
_symmetry_group_IT_number 48
_space_group.IT_coordinate_system_code '2'
_symmetry_cell_setting 'orthorhombic'
loop_
_space_group_symop_operation_xyz
x,y,z
1/2-x,1/2-y,z
x,1/2-y,1/2-z
1/2-x,y,1/2-z
-x,-y,-z
1/2+x,1/2+y,-z
-x,1/2+y,1/2+z
1/2+x,-y,1/2+z
loop_
_atom_site_type_symbol
_atom_site_label
_atom_site_fract_x
_atom_site_fract_y
_atom_site_fract_z
Si Si1 0.490559 0.777379 0.479334
Si Si2 0.560500 0.554168 0.745255
Si Si3 0.451685 0.390991 0.815725
Si Si4 0.925547 0.947272 0.558463
Si Si5 0.835772 0.138984 0.824981
Si Si6 0.217352 0.071443 0.049257
Si Si7 0.824299 0.135820 0.514288
Si Si8 0.382293 0.940425 0.554528
O O1 0.510847 0.798847 0.386252
O O2 0.547230 0.740264 0.538068
O O3 0.454526 0.602955 0.491806
O O4 0.448576 0.930786 0.513732
O O5 0.580048 0.750000 0.750000
O O6 0.493239 0.529768 0.771330
O O7 0.570284 0.498718 0.652581
O O8 0.601060 0.433468 0.801052
O O9 0.429976 0.250000 0.750000
O O10 0.394482 0.485622 0.854041
O O11 0.858460 0.954028 0.525550
O O12 0.808174 0.250000 0.750000
O O13 0.842484 0.254905 0.905356
O O14 0.794205 0.980346 0.854724
O O15 0.250000 0.250000 0.045484
O O16 0.256328 0.916487 0.008551
O O17 0.157155 0.074564 0.997472
O O18 0.848474 0.256183 0.439626
#
# Coordination Sequence:
#
# PCOD8201594 Si02
#       8
#     8   8   8   8   8   8   8   8
#     4  10  21  38  66  92 133 172 217 267 321 411
#     4  12  24  38  61  96 144 178 216 272 332 404
#     4  12  23  40  66  97 137 175 216 274 343 401
#     4  10  20  37  62  97 127 174 218 258 330 397
#     4  11  22  41  63  90 137 185 218 266 335 407
#     4  11  26  43  68  97 128 171 239 294 338 395
#     4  10  22  42  67  90 132 178 226 277 333 410
#     4  10  22  41  64  98 126 178 226 269 339 411
#
# _framework density 22.042459999999998
#
# number of rings (size 3 to 8) (size 9 to 14) (size 15 to 20)
#    0.000    1.250    2.500    5.250    3.500    2.000 
#    0.000    0.625    0.000    0.375    0.000    1.750 
#    0.000    0.000    0.000    0.000    0.000    0.000 
#
# Total GULP energy -793122.035434 kJ/mol
# GULP energy per Si atom -12392.531804 kJ/mol
# Density = 2.199229 g / cm^3
# Si number density = 22.042460 Si / 1000 Ang^3
#
#
#
# Elastic Constant Matrix: (Units=GPa)
#
#
# Indices 1 2 3 4 5 6 
#
# 1 112.4569 45.2925 50.8013 0.0000 0.0000 0.0000
# 2 45.2925 102.8682 41.8902 0.0000 0.0000 0.0000
# 3 50.8013 41.8902 87.9261 0.0000 0.0000 0.0000
# 4 0.0000 0.0000 0.0000 31.7039 0.0000 0.0000
# 5 0.0000 0.0000 0.0000 0.0000 19.6569 0.0000
# 6 0.0000 0.0000 0.0000 0.0000 0.0000 41.3732
#
#
#
# Elastic Compliance Matrix: (Units=1/GPa)
#
#
# Indices 1 2 3 4 5 6 
#
# 1 0.012863 -0.003272 -0.005873 0.000000 0.000000 0.000000
# 2 -0.003272 0.012893 -0.004252 0.000000 0.000000 0.000000
# 3 -0.005873 -0.004252 0.016792 0.000000 0.000000 0.000000
# 4 0.000000 0.000000 0.000000 0.031542 0.000000 0.000000
# 5 0.000000 0.000000 0.000000 0.000000 0.050873 0.000000
# 6 0.000000 0.000000 0.000000 0.000000 0.000000 0.024170
#
#
# Mechanical properties :
#
#
# Convention : Reuss Voigt Hill
#
# Bulk Modulus (GPa) = 63.47499 64.35769 63.91634
# Shear Modulus (GPa) = 27.59682 29.56462 28.58072
#
# Velocity S-wave (km/s) = 3.54218 3.66629 3.60477
# Velocity P-wave (km/s) = 6.75193 6.86897 6.81070
#
# Compressibility (1/GPa) = 0.01575424
#
# Stress axis : x y z
#
# Youngs Moduli (GPa) = 77.74088 77.55888 59.55054
#
# Poissons Ratio (x) = 0.25377 0.34975
# Poissons Ratio (y) = 0.25436 0.25323
# Poissons Ratio (z) = 0.45659 0.32980
#
# Static dielectric constant tensor:
#      x y z
#    x 4.217480 0.000000 0.000000 
#    y 0.000000 4.185010 0.000000 
#    z 0.000000 0.000000 3.824390 
# 
# 
# High freq. dielectric constant tensor:
#      x y z
#    x 1.868780 0.000000 0.000000 
#    y 0.000000 1.883460 0.000000 
#    z 0.000000 0.000000 1.826000 
# 
# From -- ./inp_files/28656.got.cif
#   From: 2010.06.25/outbox.cif.g09.slc.cpg/sg48_15_cif.got.tgz:28656.got - 2010.06.26 18:06:46.
