data_PCOD8201036
_publ_section_title
;
Structure prediction by ZEFSAII (Michael W. Deem and Ramdas Pophale) SiO2 
 PCOD8201036
Probable space group: P M M M
;
_chemical_formula_sum "Si O2"
_cell_formula_units_Z 52
_cell_length_a 12.880110
_cell_length_b 27.506850
_cell_length_c 9.752226
_cell_angle_alpha 90.000000
_cell_angle_beta 90.000000
_cell_angle_gamma 90.000000
_cell_volume 3455.128376
_symmetry_space_group_name_H-M "P M M M"
_symmetry_group_IT_number 47
_symmetry_cell_setting 'orthorhombic'
loop_
_space_group_symop_operation_xyz
x,y,z
-x,-y,z
x,-y,-z
-x,y,-z
-x,-y,-z
x,y,-z
-x,y,z
x,-y,z
loop_
_atom_site_type_symbol
_atom_site_label
_atom_site_fract_x
_atom_site_fract_y
_atom_site_fract_z
Si Si1 0.331018 0.870719 0.159973
Si Si2 0.612612 0.783377 0.346992
Si Si3 0.825436 0.257773 0.341230
Si Si4 0.120991 0.636285 0.651795
Si Si5 0.885158 0.831864 0.842582
Si Si6 0.500000 0.053820 0.837886
Si Si7 0.123409 0.553914 0.846893
O O1 0.381356 0.826088 0.238090
O O2 0.206039 0.871411 0.191783
O O3 0.393352 0.918874 0.208971
O O4 0.351544 0.862423 0.000000
O O5 0.626091 0.805719 0.500000
O O6 0.500000 0.757914 0.331821
O O7 0.701102 0.743453 0.321810
O O8 0.859226 0.250866 0.500000
O O9 0.861478 0.310058 0.285296
O O10 0.877864 0.215343 0.253143
O O11 0.171741 0.633244 0.500000
O O12 0.172507 0.594975 0.747724
O O13 0.000000 0.625770 0.640944
O O14 0.000000 0.855442 0.819965
O O15 0.872402 0.814702 0.000000
O O16 0.500000 0.000000 0.770908
O O17 0.500000 0.049092 0.000000
O O18 0.155809 0.500000 0.794924
O O19 0.000000 0.558254 0.849661
O O20 0.166838 0.562620 0.000000
#
# Coordination Sequence:
#
# PCOD8201036 Si02
#       7
#     8   8   8   8   8   4   8
#     4   9  16  27  43  60  79 104 132 162 196 234
#     4   9  16  26  41  59  80 104 129 159 194 232
#     4   9  17  27  38  55  79 106 133 159 190 230
#     4   9  16  24  34  49  71  98 125 153 183 218
#     4   9  17  27  39  57  80 105 133 163 193 228
#     4   9  16  26  43  65  83 101 131 169 204 239
#     4   8  14  24  36  49  66  91 123 156 190 227
#
# _framework density 15.050091999999999
#
# number of rings (size 3 to 8) (size 9 to 14) (size 15 to 20)
#    0.000    3.154    0.769    0.923    0.000    1.846 
#    0.000    3.077    0.000    1.385    0.000    3.231 
#    0.000    0.615    0.000   15.385    0.000    9.538 
#
# Total GULP energy -644192.535125 kJ/mol
# GULP energy per Si atom -12388.317983 kJ/mol
# Density = 1.501584 g / cm^3
# Si number density = 15.050092 Si / 1000 Ang^3
#
#
#
# Elastic Constant Matrix: (Units=GPa)
#
#
# Indices 1 2 3 4 5 6 
#
# 1 85.8150 32.6593 20.6021 0.0000 0.0000 0.0000
# 2 32.6593 94.7596 35.7145 0.0000 0.0000 0.0000
# 3 20.6021 35.7145 44.0948 0.0000 0.0000 0.0000
# 4 0.0000 0.0000 0.0000 8.6709 0.0000 0.0000
# 5 0.0000 0.0000 0.0000 0.0000 12.9570 0.0000
# 6 0.0000 0.0000 0.0000 0.0000 0.0000 14.9668
#
#
#
# Elastic Compliance Matrix: (Units=1/GPa)
#
#
# Indices 1 2 3 4 5 6 
#
# 1 0.013829 -0.003355 -0.003744 0.000000 0.000000 0.000000
# 2 -0.003355 0.016004 -0.011395 0.000000 0.000000 0.000000
# 3 -0.003744 -0.011395 0.033657 0.000000 0.000000 0.000000
# 4 0.000000 0.000000 0.000000 0.115328 0.000000 0.000000
# 5 0.000000 0.000000 0.000000 0.000000 0.077178 0.000000
# 6 0.000000 0.000000 0.000000 0.000000 0.000000 0.066814
#
#
# Mechanical properties :
#
#
# Convention : Reuss Voigt Hill
#
# Bulk Modulus (GPa) = 37.73258 44.73570 41.23414
# Shear Modulus (GPa) = 13.56366 16.36517 14.96442
#
# Velocity S-wave (km/s) = 3.00531 3.30112 3.15668
# Velocity P-wave (km/s) = 6.09658 6.65725 6.38307
#
# Compressibility (1/GPa) = 0.02650230
#
# Stress axis : x y z
#
# Youngs Moduli (GPa) = 72.31386 62.48402 29.71168
#
# Poissons Ratio (x) = 0.20964 0.11123
# Poissons Ratio (y) = 0.24263 0.33856
# Poissons Ratio (z) = 0.27071 0.71200
#
# Static dielectric constant tensor:
#      x y z
#    x 2.981980 0.000000 0.000000 
#    y 0.000000 2.862710 0.000000 
#    z 0.000000 0.000000 3.050020 
# 
# 
# High freq. dielectric constant tensor:
#      x y z
#    x 1.557560 0.000000 0.000000 
#    y 0.000000 1.547840 0.000000 
#    z 0.000000 0.000000 1.575220 
# 
# From -- ./inp_files/8001.got.cif
#   From: 2010.03.12/outbox.cif.g09.slc.cpg/sg47_5_cif.got.tgz:8001.got - 2010.04.14 03:12:58.
