data_PCOD8201831
_publ_section_title
;
Structure prediction by ZEFSAII (Michael W. Deem and Ramdas Pophale) SiO2 
 PCOD8201831
Probable space group: P N N N
;
_chemical_formula_sum "Si O2"
_cell_formula_units_Z 64
_cell_length_a 8.734132
_cell_length_b 23.757530
_cell_length_c 16.789696
_cell_angle_alpha 90.000000
_cell_angle_beta 90.000000
_cell_angle_gamma 90.000000
_cell_volume 3483.885476
_symmetry_space_group_name_H-M "P N N N"
_symmetry_group_IT_number 48
_space_group.IT_coordinate_system_code '2'
_symmetry_cell_setting 'orthorhombic'
loop_
_space_group_symop_operation_xyz
x,y,z
1/2-x,1/2-y,z
x,1/2-y,1/2-z
1/2-x,y,1/2-z
-x,-y,-z
1/2+x,1/2+y,-z
-x,1/2+y,1/2+z
1/2+x,-y,1/2+z
loop_
_atom_site_type_symbol
_atom_site_label
_atom_site_fract_x
_atom_site_fract_y
_atom_site_fract_z
Si Si1 0.573180 0.934932 0.233143
Si Si2 0.148328 0.359054 0.325602
Si Si3 0.448708 0.631709 0.411450
Si Si4 0.073896 0.757748 0.080122
Si Si5 0.148328 0.640946 0.325602
Si Si6 0.573180 0.434932 0.266857
Si Si7 0.948708 0.631709 0.911450
Si Si8 0.926104 0.742252 0.580122
O O1 0.750000 0.925423 0.250000
O O2 0.542549 0.906933 0.148374
O O3 0.469239 0.908483 0.303403
O O4 0.528387 0.000000 0.228776
O O5 0.250000 0.341315 0.250000
O O6 0.265457 0.377663 0.396498
O O7 0.050275 0.304120 0.350829
O O8 0.030761 0.408482 0.303403
O O9 0.495245 0.697032 0.395095
O O10 0.265457 0.622337 0.396498
O O11 0.500000 0.613857 0.500000
O O12 0.250000 0.750000 0.060301
O O13 0.050275 0.804120 0.149171
O O14 1.000000 0.781718 0.000000
O O15 0.250000 0.658685 0.250000
O O16 0.750000 0.425423 0.250000
O O17 0.542549 0.406934 0.351626
O O18 0.995245 0.697032 0.895095
O O19 0.750000 0.750000 0.560301
#
# Coordination Sequence:
#
# PCOD8201831 Si02
#       8
#     8   8   8   8   8   8   8   8
#     4  10  22  38  53  73 103 136 175 222 263 301
#     4   9  19  34  55  77 105 139 172 209 256 311
#     4   9  19  35  55  79 105 136 172 207 253 313
#     4   9  18  32  52  80 110 135 164 206 255 306
#     4   9  19  34  55  77 105 139 172 209 256 311
#     4  10  22  38  53  73 103 136 175 222 263 301
#     4   9  19  35  55  79 105 136 172 207 253 313
#     4   9  18  32  52  80 110 135 164 206 255 306
#
# _framework density 18.370294000000001
#
# number of rings (size 3 to 8) (size 9 to 14) (size 15 to 20)
#    0.000    2.750    0.000    0.000    0.000   22.500 
#    0.000    1.250    0.000    3.750    0.000    0.000 
#    0.000    0.000    0.000    0.000    0.000    0.000 
#
# Total GULP energy -793331.097082 kJ/mol
# GULP energy per Si atom -12395.798392 kJ/mol
# Density = 1.832848 g / cm^3
# Si number density = 18.370294 Si / 1000 Ang^3
#
#
#
# Elastic Constant Matrix: (Units=GPa)
#
#
# Indices 1 2 3 4 5 6 
#
# 1 67.0768 68.0924 60.1533 0.0000 0.0000 0.0000
# 2 68.0924 145.8460 78.8645 0.0000 0.0000 0.0000
# 3 60.1533 78.8645 112.7880 0.0000 0.0000 0.0000
# 4 0.0000 0.0000 0.0000 -3.3823 0.0000 0.0000
# 5 0.0000 0.0000 0.0000 0.0000 36.5422 0.0000
# 6 0.0000 0.0000 0.0000 0.0000 0.0000 27.0424
#
#
#
# Elastic Compliance Matrix: (Units=1/GPa)
#
#
# Indices 1 2 3 4 5 6 
#
# 1 0.036332 -0.010427 -0.012086 0.000000 0.000000 0.000000
# 2 -0.010427 0.014018 -0.004240 0.000000 0.000000 0.000000
# 3 -0.012086 -0.004240 0.018277 0.000000 0.000000 0.000000
# 4 0.000000 0.000000 0.000000 -0.295657 0.000000 0.000000
# 5 0.000000 0.000000 0.000000 0.000000 0.027366 0.000000
# 6 0.000000 0.000000 0.000000 0.000000 0.000000 0.036979
#
#
# Mechanical properties :
#
#
# Convention : Reuss Voigt Hill
#
# Bulk Modulus (GPa) = 66.13990 82.21458 74.17724
# Shear Modulus (GPa) = -48.01279 19.94717 -14.03281
#
# Velocity S-wave (km/s) = -5.11789 3.29878 -2.76685
# Velocity P-wave (km/s) = 1.07615 7.70458 5.50085
#
# Compressibility (1/GPa) = 0.01511947
#
# Stress axis : x y z
#
# Youngs Moduli (GPa) = 27.52413 71.33800 54.71361
#
# Poissons Ratio (x) = 0.74386 0.66126
# Poissons Ratio (y) = 0.28700 0.23201
# Poissons Ratio (z) = 0.33265 0.30251
#
# Static dielectric constant tensor:
#      x y z
#    x 3.440680 0.000000 0.000000 
#    y 0.000000 3.535970 0.000000 
#    z 0.000000 0.000000 3.422990 
# 
# 
# High freq. dielectric constant tensor:
#      x y z
#    x 1.705620 0.000000 0.000000 
#    y 0.000000 1.708830 0.000000 
#    z 0.000000 0.000000 1.707910 
# 
# From -- ./inp_files/30599.got.cif
#   From: 2010.06.25/outbox.cif.g09.slc.cpg/sg48_16_cif.got.tgz:30599.got - 2010.06.26 18:06:46.
