data_PCOD8201109
_publ_section_title
;
Structure prediction by ZEFSAII (Michael W. Deem and Ramdas Pophale) SiO2 
 PCOD8201109
Probable space group: P M M M
;
_chemical_formula_sum "Si O2"
_cell_formula_units_Z 64
_cell_length_a 13.836026
_cell_length_b 9.906324
_cell_length_c 28.647328
_cell_angle_alpha 90.000000
_cell_angle_beta 90.000000
_cell_angle_gamma 90.000000
_cell_volume 3926.521846
_symmetry_space_group_name_H-M "P M M M"
_symmetry_group_IT_number 47
_symmetry_cell_setting 'orthorhombic'
loop_
_space_group_symop_operation_xyz
x,y,z
-x,-y,z
x,-y,-z
-x,y,-z
-x,-y,-z
x,y,-z
-x,y,z
x,-y,z
loop_
_atom_site_type_symbol
_atom_site_label
_atom_site_fract_x
_atom_site_fract_y
_atom_site_fract_z
Si Si1 0.230606 0.655538 0.552706
Si Si2 0.296364 0.344170 0.946378
Si Si3 0.891230 0.653865 0.891541
Si Si4 0.113387 0.650327 0.640681
Si Si5 0.606088 0.850997 0.444669
Si Si6 0.390411 0.844891 0.127400
Si Si7 0.201472 0.155134 0.181278
Si Si8 0.111918 0.844986 0.278911
O O1 0.200982 0.700425 0.500000
O O2 0.261160 0.500000 0.552931
O O3 0.143569 0.687101 0.587877
O O4 0.320533 0.738624 0.573415
O O5 0.324439 0.500000 0.937385
O O6 0.184195 0.317964 0.933240
O O7 0.367260 0.250619 0.916379
O O8 0.310353 0.304255 0.000000
O O9 0.881057 0.500000 0.873646
O O10 0.869210 0.751693 0.848623
O O11 0.000000 0.681521 0.909985
O O12 0.150118 0.500000 0.653887
O O13 0.153645 0.755123 0.678753
O O14 0.000000 0.658385 0.641020
O O15 0.600619 0.845067 0.500000
O O16 0.500000 0.820080 0.423748
O O17 0.640508 0.000000 0.428565
O O18 0.500000 0.815629 0.144883
O O19 0.314378 0.814934 0.169307
O O20 0.380349 0.000000 0.110881
O O21 0.180616 0.187796 0.235120
O O22 0.175139 0.000000 0.170087
O O23 0.000000 0.810573 0.266772
O O24 0.121475 0.000000 0.294226
#
# Coordination Sequence:
#
# PCOD8201109 Si02
#       8
#     8   8   8   8   8   8   8   8
#     4   9  17  28  43  64  88 116 151 187 221 256
#     4   9  18  31  45  63  89 121 155 187 219 258
#     4   9  17  28  43  65  91 117 146 181 220 262
#     4   9  18  31  45  63  89 120 151 181 214 254
#     4   8  14  25  41  61  84 109 138 174 216 258
#     4   9  18  32  49  68  89 114 146 185 226 264
#     4   9  17  30  48  68  89 113 142 178 221 267
#     4   9  17  29  46  67  88 111 141 177 218 264
#
# _framework density 16.299413000000001
#
# number of rings (size 3 to 8) (size 9 to 14) (size 15 to 20)
#    0.000    3.125    0.000    0.750    0.000    3.250 
#    0.000    6.250    0.000    0.750    0.000    8.750 
#    0.000    0.000    0.000    0.000    0.000    0.000 
#
# Total GULP energy -793256.711922 kJ/mol
# GULP energy per Si atom -12394.636124 kJ/mol
# Density = 1.626231 g / cm^3
# Si number density = 16.299413 Si / 1000 Ang^3
#
#
#
# Elastic Constant Matrix: (Units=GPa)
#
#
# Indices 1 2 3 4 5 6 
#
# 1 68.5246 33.0129 41.1348 0.0000 0.0000 0.0000
# 2 33.0129 64.7691 53.2478 0.0000 0.0000 0.0000
# 3 41.1348 53.2478 98.6548 0.0000 0.0000 0.0000
# 4 0.0000 0.0000 0.0000 25.3486 0.0000 0.0000
# 5 0.0000 0.0000 0.0000 0.0000 16.6413 0.0000
# 6 0.0000 0.0000 0.0000 0.0000 0.0000 23.6443
#
#
#
# Elastic Compliance Matrix: (Units=1/GPa)
#
#
# Indices 1 2 3 4 5 6 
#
# 1 0.020777 -0.006234 -0.005298 0.000000 0.000000 0.000000
# 2 -0.006234 0.029626 -0.013391 0.000000 0.000000 0.000000
# 3 -0.005298 -0.013391 0.019573 0.000000 0.000000 0.000000
# 4 0.000000 0.000000 0.000000 0.039450 0.000000 0.000000
# 5 0.000000 0.000000 0.000000 0.000000 0.060091 0.000000
# 6 0.000000 0.000000 0.000000 0.000000 0.000000 0.042293
#
#
# Mechanical properties :
#
#
# Convention : Reuss Voigt Hill
#
# Bulk Modulus (GPa) = 49.67872 54.08217 51.88045
# Shear Modulus (GPa) = 18.63113 20.09704 19.36408
#
# Velocity S-wave (km/s) = 3.38458 3.51521 3.45051
# Velocity P-wave (km/s) = 6.76896 7.05181 6.91183
#
# Compressibility (1/GPa) = 0.02012934
#
# Stress axis : x y z
#
# Youngs Moduli (GPa) = 48.12925 33.75416 51.09066
#
# Poissons Ratio (x) = 0.21044 0.27069
# Poissons Ratio (y) = 0.30006 0.68414
# Poissons Ratio (z) = 0.25500 0.45199
#
# Static dielectric constant tensor:
#      x y z
#    x 3.182250 0.000000 0.000000 
#    y 0.000000 3.277840 0.000000 
#    z 0.000000 0.000000 2.933780 
# 
# 
# High freq. dielectric constant tensor:
#      x y z
#    x 1.618860 0.000000 0.000000 
#    y 0.000000 1.634070 0.000000 
#    z 0.000000 0.000000 1.601390 
# 
# From -- ./inp_files/34667.got.cif
#   From: 2010.03.12/outbox.cif.g09.slc.cpg/sg47_18_cif.got.tgz:34667.got - 2010.04.14 03:12:58.
