data_PCOD8201115
_publ_section_title
;
Structure prediction by ZEFSAII (Michael W. Deem and Ramdas Pophale) SiO2 
 PCOD8201115
Probable space group: P M M M
;
_chemical_formula_sum "Si O2"
_cell_formula_units_Z 48
_cell_length_a 31.053623
_cell_length_b 9.622442
_cell_length_c 9.402388
_cell_angle_alpha 90.000000
_cell_angle_beta 90.000000
_cell_angle_gamma 90.000000
_cell_volume 2809.543413
_symmetry_space_group_name_H-M "P M M M"
_symmetry_group_IT_number 47
_symmetry_cell_setting 'orthorhombic'
loop_
_space_group_symop_operation_xyz
x,y,z
-x,-y,z
x,-y,-z
-x,y,-z
-x,-y,-z
x,y,-z
-x,y,z
x,-y,z
loop_
_atom_site_type_symbol
_atom_site_label
_atom_site_fract_x
_atom_site_fract_y
_atom_site_fract_z
Si Si1 0.709308 0.661672 0.165241
Si Si2 0.873963 0.337650 0.834393
Si Si3 0.208245 0.334893 0.660907
Si Si4 0.627771 0.839990 0.166011
Si Si5 0.452765 0.834901 0.659992
Si Si6 0.047502 0.844144 0.168897
O O1 0.699801 0.500000 0.194144
O O2 0.749336 0.717413 0.257281
O O3 0.668247 0.749327 0.216066
O O4 0.720034 0.687933 0.000000
O O5 0.881470 0.500000 0.809558
O O6 0.833514 0.280238 0.745192
O O7 0.916228 0.260481 0.773600
O O8 0.865399 0.304714 0.000000
O O9 0.208084 0.276302 0.500000
O O10 0.207754 0.500000 0.660997
O O11 0.585211 0.777204 0.240571
O O12 0.636321 0.000000 0.209018
O O13 0.619748 0.824314 0.000000
O O14 0.444196 0.782718 0.500000
O O15 0.500000 0.781552 0.711697
O O16 0.452535 0.000000 0.665649
O O17 0.000000 0.798926 0.224828
O O18 0.058076 0.000000 0.221846
O O19 0.047282 0.839822 0.000000
#
# Coordination Sequence:
#
# PCOD8201115 Si02
#       6
#     8   8   8   8   8   8
#     4   9  17  30  47  64  84 112 143 172 206 252
#     4   9  16  26  43  66  87 107 136 175 213 245
#     4   9  17  29  45  64  85 110 141 175 209 247
#     4   9  17  28  43  65  89 109 134 173 215 249
#     4   8  14  25  41  61  85 113 143 173 207 248
#     4   8  14  25  41  62  88 115 141 170 206 248
#
# _framework density 17.084627999999999
#
# number of rings (size 3 to 8) (size 9 to 14) (size 15 to 20)
#    0.000    3.333    0.000    1.500    0.000    3.333 
#    0.000    4.167    0.000    6.500    0.000    7.000 
#    0.000    0.000    0.000    0.000    0.000    0.000 
#
# Total GULP energy -594965.562242 kJ/mol
# GULP energy per Si atom -12395.115880 kJ/mol
# Density = 1.704574 g / cm^3
# Si number density = 17.084628 Si / 1000 Ang^3
#
#
#
# Elastic Constant Matrix: (Units=GPa)
#
#
# Indices 1 2 3 4 5 6 
#
# 1 197.3912 59.0430 75.2334 0.0000 0.0000 0.0000
# 2 59.0430 41.9125 27.4997 0.0000 0.0000 0.0000
# 3 75.2334 27.4997 66.7899 0.0000 0.0000 0.0000
# 4 0.0000 0.0000 0.0000 10.0450 0.0000 0.0000
# 5 0.0000 0.0000 0.0000 0.0000 11.6700 0.0000
# 6 0.0000 0.0000 0.0000 0.0000 0.0000 28.5772
#
#
#
# Elastic Compliance Matrix: (Units=1/GPa)
#
#
# Indices 1 2 3 4 5 6 
#
# 1 0.011508 -0.010559 -0.008616 0.000000 0.000000 0.000000
# 2 -0.010559 0.042379 -0.005555 0.000000 0.000000 0.000000
# 3 -0.008616 -0.005555 0.026964 0.000000 0.000000 0.000000
# 4 0.000000 0.000000 0.000000 0.099552 0.000000 0.000000
# 5 0.000000 0.000000 0.000000 0.000000 0.085690 0.000000
# 6 0.000000 0.000000 0.000000 0.000000 0.000000 0.034993
#
#
# Mechanical properties :
#
#
# Convention : Reuss Voigt Hill
#
# Bulk Modulus (GPa) = 31.85512 69.96063 50.90787
# Shear Modulus (GPa) = 13.85009 19.67961 16.76485
#
# Velocity S-wave (km/s) = 2.85033 3.39763 3.13594
# Velocity P-wave (km/s) = 5.43309 7.51201 6.55548
#
# Compressibility (1/GPa) = 0.03139213
#
# Stress axis : x y z
#
# Youngs Moduli (GPa) = 86.89500 23.59684 37.08629
#
# Poissons Ratio (x) = 0.24916 0.31952
# Poissons Ratio (y) = 0.91752 0.20601
# Poissons Ratio (z) = 0.74864 0.13108
#
# Static dielectric constant tensor:
#      x y z
#    x 3.603300 0.000000 0.000000 
#    y 0.000000 2.904460 0.000000 
#    z 0.000000 0.000000 3.089020 
# 
# 
# High freq. dielectric constant tensor:
#      x y z
#    x 1.674980 0.000000 0.000000 
#    y 0.000000 1.617930 0.000000 
#    z 0.000000 0.000000 1.637710 
# 
# From -- ./inp_files/13173.got.cif
#   From: 2010.03.12/outbox.cif.g09.slc.cpg/sg47_7_cif.got.tgz:13173.got - 2010.04.14 03:12:58.
