data_PCOD8201556
_publ_section_title
;
Structure prediction by ZEFSAII (Michael W. Deem and Ramdas Pophale) SiO2 
 PCOD8201556
Probable space group: P N N N
;
_chemical_formula_sum "Si O2"
_cell_formula_units_Z 64
_cell_length_a 8.426767
_cell_length_b 21.853128
_cell_length_c 17.509260
_cell_angle_alpha 90.000000
_cell_angle_beta 90.000000
_cell_angle_gamma 90.000000
_cell_volume 3224.351553
_symmetry_space_group_name_H-M "P N N N"
_symmetry_group_IT_number 48
_space_group.IT_coordinate_system_code '2'
_symmetry_cell_setting 'orthorhombic'
loop_
_space_group_symop_operation_xyz
x,y,z
1/2-x,1/2-y,z
x,1/2-y,1/2-z
1/2-x,y,1/2-z
-x,-y,-z
1/2+x,1/2+y,-z
-x,1/2+y,1/2+z
1/2+x,-y,1/2+z
loop_
_atom_site_type_symbol
_atom_site_label
_atom_site_fract_x
_atom_site_fract_y
_atom_site_fract_z
Si Si1 0.576490 0.234510 0.395837
Si Si2 0.477552 0.867984 0.898469
Si Si3 0.144443 0.346822 0.946947
Si Si4 0.396572 0.422143 0.701966
Si Si5 0.429779 0.042520 0.228568
Si Si6 0.348214 0.621618 0.823067
Si Si7 0.425019 0.814359 0.280353
Si Si8 0.525056 0.714320 0.058099
O O1 0.750000 0.250000 0.366580
O O2 0.476766 0.296310 0.381850
O O3 0.525547 0.174823 0.346747
O O4 0.585627 0.215641 0.484412
O O5 0.573245 0.906777 0.837229
O O6 0.287602 0.886252 0.890403
O O7 0.547680 0.878816 0.983361
O O8 0.148314 0.397725 0.881307
O O9 0.324262 0.327178 0.966592
O O10 0.063284 0.284246 0.917891
O O11 0.250000 0.448341 0.750000
O O12 0.515586 0.478473 0.692845
O O13 0.463303 0.367506 0.752372
O O14 0.250000 0.032202 0.250000
O O15 0.544586 0.062461 0.300197
O O16 0.250000 0.643573 0.750000
O O17 0.492865 0.750000 0.250000
O O18 0.250000 0.826278 0.250000
O O19 0.427428 0.815454 0.372449
#
# Coordination Sequence:
#
# PCOD8201556 Si02
#       8
#     8   8   8   8   8   8   8   8
#     4   9  19  33  62  91 125 159 193 239 309 367
#     4   9  20  39  61  92 119 159 198 241 309 367
#     4  10  21  36  63  89 124 158 201 253 302 372
#     4  12  23  41  64  85 114 166 212 249 307 360
#     4  11  25  42  61  84 121 158 206 263 306 359
#     4   9  19  39  63  90 121 161 204 248 298 372
#     4  11  23  35  59  92 125 157 200 251 307 367
#     4  10  20  36  55  95 131 155 192 252 311 365
#
# _framework density 19.848953000000002
#
# number of rings (size 3 to 8) (size 9 to 14) (size 15 to 20)
#    0.000    1.875    2.500    1.500    3.500    7.500 
#    0.000    0.625    0.000    2.250    0.000    0.000 
#    0.000    0.000    0.000    0.000    0.000    0.000 
#
# Total GULP energy -792959.478063 kJ/mol
# GULP energy per Si atom -12389.991845 kJ/mol
# Density = 1.980378 g / cm^3
# Si number density = 19.848953 Si / 1000 Ang^3
#
#
#
# Elastic Constant Matrix: (Units=GPa)
#
#
# Indices 1 2 3 4 5 6 
#
# 1 80.6743 26.6130 36.3722 0.0000 0.0000 0.0000
# 2 26.6130 88.4910 35.4447 0.0000 0.0000 0.0000
# 3 36.3722 35.4447 91.2699 0.0000 0.0000 0.0000
# 4 0.0000 0.0000 0.0000-1246.7967 0.0000 0.0000
# 5 0.0000 0.0000 0.0000 0.0000 33.6211 0.0000
# 6 0.0000 0.0000 0.0000 0.0000 0.0000 34.6020
#
#
#
# Elastic Compliance Matrix: (Units=1/GPa)
#
#
# Indices 1 2 3 4 5 6 
#
# 1 0.015602 -0.002607 -0.005205 0.000000 0.000000 0.000000
# 2 -0.002607 0.013818 -0.004327 0.000000 0.000000 0.000000
# 3 -0.005205 -0.004327 0.014711 0.000000 0.000000 0.000000
# 4 0.000000 0.000000 0.000000 -0.000802 0.000000 0.000000
# 5 0.000000 0.000000 0.000000 0.000000 0.029743 0.000000
# 6 0.000000 0.000000 0.000000 0.000000 0.000000 0.028900
#
#
# Mechanical properties :
#
#
# Convention : Reuss Voigt Hill
#
# Bulk Modulus (GPa) = 50.37210 50.81055 50.59132
# Shear Modulus (GPa) = 37.63083 -224.91438 -93.64178
#
# Velocity S-wave (km/s) = 4.35887 -10.65640 -6.87602
# Velocity P-wave (km/s) = 7.12501 11.21418 6.12340
#
# Compressibility (1/GPa) = 0.01985226
#
# Stress axis : x y z
#
# Youngs Moduli (GPa) = 64.09260 72.36959 67.97499
#
# Poissons Ratio (x) = 0.18870 0.35382
# Poissons Ratio (y) = 0.16711 0.29414
# Poissons Ratio (z) = 0.33361 0.31315
#
# Static dielectric constant tensor:
#      x y z
#    x 3.672590 0.000000 0.000000 
#    y 0.000000 3.698100 0.000000 
#    z 0.000000 0.000000 3.741990 
# 
# 
# High freq. dielectric constant tensor:
#      x y z
#    x 1.762620 0.000000 0.000000 
#    y 0.000000 1.766960 0.000000 
#    z 0.000000 0.000000 1.770840 
# 
# From -- ./inp_files/30612.got.cif
#   From: 2010.06.25/outbox.cif.g09.slc.cpg/sg48_16_cif.got.tgz:30612.got - 2010.06.26 18:06:46.
