data_PCOD8201505
_publ_section_title
;
Structure prediction by ZEFSAII (Michael W. Deem and Ramdas Pophale) SiO2 
 PCOD8201505
Probable space group: P N N N
;
_chemical_formula_sum "Si O2"
_cell_formula_units_Z 48
_cell_length_a 26.298583
_cell_length_b 5.183825
_cell_length_c 15.957894
_cell_angle_alpha 90.000000
_cell_angle_beta 90.000000
_cell_angle_gamma 90.000000
_cell_volume 2175.495837
_symmetry_space_group_name_H-M "P N N N"
_symmetry_group_IT_number 48
_space_group.IT_coordinate_system_code '2'
_symmetry_cell_setting 'orthorhombic'
loop_
_space_group_symop_operation_xyz
x,y,z
1/2-x,1/2-y,z
x,1/2-y,1/2-z
1/2-x,y,1/2-z
-x,-y,-z
1/2+x,1/2+y,-z
-x,1/2+y,1/2+z
1/2+x,-y,1/2+z
loop_
_atom_site_type_symbol
_atom_site_label
_atom_site_fract_x
_atom_site_fract_y
_atom_site_fract_z
Si Si1 0.935540 0.879382 0.443870
Si Si2 0.904782 0.376468 0.529229
Si Si3 0.802458 0.156438 0.069494
Si Si4 0.891284 0.497565 0.719847
Si Si5 0.166830 0.345928 0.844244
Si Si6 0.501978 0.997369 0.206346
O O1 0.929360 0.094687 0.516779
O O2 0.809755 0.131510 0.356085
O O3 0.889845 0.875453 0.378203
O O4 0.985803 0.968599 0.392698
O O5 0.846689 0.348824 0.499587
O O6 0.905869 0.479575 0.623535
O O7 0.938528 0.590580 0.480733
O O8 0.750000 0.250000 0.024793
O O9 0.799833 0.868169 0.106572
O O10 0.858726 0.250000 0.750000
O O11 0.941443 0.500866 0.779768
O O12 0.860071 0.750000 0.750000
O O13 0.165401 0.250000 0.750000
O O14 0.527357 0.750000 0.250000
O O15 0.526863 0.250000 0.250000
#
# Coordination Sequence:
#
# PCOD8201505 Si02
#       6
#     8   8   8   8   8   8
#     4  10  20  35  55  79 109 146 187 225 271 325
#     4  10  21  38  58  80 108 145 184 226 278 337
#     4  10  21  35  53  80 109 142 182 225 274 324
#     4  10  21  39  58  81 109 142 183 230 285 332
#     4  10  20  32  51  78 111 148 181 218 265 324
#     4  10  20  35  53  77 109 146 185 230 275 318
#
# _framework density 22.063936000000002
#
# number of rings (size 3 to 8) (size 9 to 14) (size 15 to 20)
#    0.000    2.000    0.000    3.500    0.000    4.667 
#    0.000   20.000    0.000    0.500    0.000    1.167 
#    0.000    0.000    0.000    0.000    0.000    0.000 
#
# Total GULP energy -594657.389794 kJ/mol
# GULP energy per Si atom -12388.695621 kJ/mol
# Density = 2.201372 g / cm^3
# Si number density = 22.063936 Si / 1000 Ang^3
#
#
#
# Elastic Constant Matrix: (Units=GPa)
#
#
# Indices 1 2 3 4 5 6 
#
# 1 52.0083 19.3585 15.0384 0.0000 0.0000 0.0000
# 2 19.3585 175.6121 28.0463 0.0000 0.0000 0.0000
# 3 15.0384 28.0463 85.3138 0.0000 0.0000 0.0000
# 4 0.0000 0.0000 0.0000 37.9050 0.0000 0.0000
# 5 0.0000 0.0000 0.0000 0.0000 6.1723 0.0000
# 6 0.0000 0.0000 0.0000 0.0000 0.0000 5.2618
#
#
#
# Elastic Compliance Matrix: (Units=1/GPa)
#
#
# Indices 1 2 3 4 5 6 
#
# 1 0.020786 -0.001801 -0.003072 0.000000 0.000000 0.000000
# 2 -0.001801 0.006166 -0.001710 0.000000 0.000000 0.000000
# 3 -0.003072 -0.001710 0.012825 0.000000 0.000000 0.000000
# 4 0.000000 0.000000 0.000000 0.026382 0.000000 0.000000
# 5 0.000000 0.000000 0.000000 0.000000 0.162014 0.000000
# 6 0.000000 0.000000 0.000000 0.000000 0.000000 0.190049
#
#
# Mechanical properties :
#
#
# Convention : Reuss Voigt Hill
#
# Bulk Modulus (GPa) = 37.57645 48.64672 43.11158
# Shear Modulus (GPa) = 11.35697 26.56722 18.96210
#
# Velocity S-wave (km/s) = 2.27123 3.47378 2.93476
# Velocity P-wave (km/s) = 4.89343 6.17944 5.57365
#
# Compressibility (1/GPa) = 0.02661241
#
# Stress axis : x y z
#
# Youngs Moduli (GPa) = 48.10867 162.18232 77.97295
#
# Poissons Ratio (x) = 0.29205 0.23954
# Poissons Ratio (y) = 0.08663 0.13330
# Poissons Ratio (z) = 0.14779 0.27726
#
# Static dielectric constant tensor:
#      x y z
#    x 3.701650 0.000000 0.000000 
#    y 0.000000 5.833790 0.000000 
#    z 0.000000 0.000000 3.722240 
# 
# 
# High freq. dielectric constant tensor:
#      x y z
#    x 1.824950 0.000000 0.000000 
#    y 0.000000 1.906290 0.000000 
#    z 0.000000 0.000000 1.853600 
# 
# From -- ./inp_files/28880.got.cif
#   From: 2010.06.25/outbox.cif.g09.slc.cpg/sg48_15_cif.got.tgz:28880.got - 2010.06.26 18:06:46.
