data_PCOD8201873
_publ_section_title
;
Structure prediction by ZEFSAII (Michael W. Deem and Ramdas Pophale) SiO2 
 PCOD8201873
Probable space group: P N N N
;
_chemical_formula_sum "Si O2"
_cell_formula_units_Z 48
_cell_length_a 8.540114
_cell_length_b 28.678069
_cell_length_c 8.676562
_cell_angle_alpha 90.000000
_cell_angle_beta 90.000000
_cell_angle_gamma 90.000000
_cell_volume 2125.011320
_symmetry_space_group_name_H-M "P N N N"
_symmetry_group_IT_number 48
_space_group.IT_coordinate_system_code '2'
_symmetry_cell_setting 'orthorhombic'
loop_
_space_group_symop_operation_xyz
x,y,z
1/2-x,1/2-y,z
x,1/2-y,1/2-z
1/2-x,y,1/2-z
-x,-y,-z
1/2+x,1/2+y,-z
-x,1/2+y,1/2+z
1/2+x,-y,1/2+z
loop_
_atom_site_type_symbol
_atom_site_label
_atom_site_fract_x
_atom_site_fract_y
_atom_site_fract_z
Si Si1 0.074534 0.325800 0.943516
Si Si2 0.571120 0.436078 0.914763
Si Si3 0.920010 0.259856 0.428381
Si Si4 0.073376 0.160666 0.901472
Si Si5 0.924424 0.969736 0.776040
Si Si6 0.354200 0.903214 0.898865
O O1 0.251514 0.343202 0.969368
O O2 0.052543 0.315058 0.762872
O O3 0.054108 0.274362 0.010918
O O4 0.953836 0.360572 0.030259
O O5 0.486921 0.390161 0.857415
O O6 0.568788 0.473562 0.774660
O O7 0.470393 0.454492 0.055089
O O8 0.747554 0.424003 0.965847
O O9 0.750000 0.250000 0.504540
O O10 0.907462 0.250000 0.250000
O O11 0.968471 0.312979 0.470183
O O12 0.750000 0.951410 0.750000
O O13 0.036452 0.946608 0.649461
O O14 0.250000 0.886303 0.750000
#
# Coordination Sequence:
#
# PCOD8201873 Si02
#       6
#     8   8   8   8   8   8
#     4  11  25  44  71 101 138 185 223 287 343 410
#     4  10  23  42  64  97 132 180 225 284 342 402
#     4  11  26  44  72 105 138 179 226 279 341 414
#     4  11  25  46  67 102 142 178 232 279 348 412
#     4  10  22  41  64  93 131 178 226 285 335 402
#     4  10  23  42  68  98 134 180 233 287 339 410
#
# _framework density 22.588117
#
# number of rings (size 3 to 8) (size 9 to 14) (size 15 to 20)
#    0.000    1.500    0.000    3.000    9.333    6.000 
#   15.000    0.000    0.000    0.000    0.000    0.000 
#    0.000    0.000    0.000    0.000    0.000    0.000 
#
# Total GULP energy -595049.196431 kJ/mol
# GULP energy per Si atom -12396.858259 kJ/mol
# Density = 2.253670 g / cm^3
# Si number density = 22.588117 Si / 1000 Ang^3
#
#
#
# Elastic Constant Matrix: (Units=GPa)
#
#
# Indices 1 2 3 4 5 6 
#
# 1 143.0602 30.9524 27.6067 0.0000 0.0000 0.0000
# 2 30.9524 94.0967 19.2483 0.0000 0.0000 0.0000
# 3 27.6067 19.2483 44.4885 0.0000 0.0000 0.0000
# 4 0.0000 0.0000 0.0000 12.5215 0.0000 0.0000
# 5 0.0000 0.0000 0.0000 0.0000 30.8287 0.0000
# 6 0.0000 0.0000 0.0000 0.0000 0.0000 41.4841
#
#
#
# Elastic Compliance Matrix: (Units=1/GPa)
#
#
# Indices 1 2 3 4 5 6 
#
# 1 0.008216 -0.001821 -0.004310 0.000000 0.000000 0.000000
# 2 -0.001821 0.012063 -0.004089 0.000000 0.000000 0.000000
# 3 -0.004310 -0.004089 0.026922 0.000000 0.000000 0.000000
# 4 0.000000 0.000000 0.000000 0.079863 0.000000 0.000000
# 5 0.000000 0.000000 0.000000 0.000000 0.032437 0.000000
# 6 0.000000 0.000000 0.000000 0.000000 0.000000 0.024106
#
#
# Mechanical properties :
#
#
# Convention : Reuss Voigt Hill
#
# Bulk Modulus (GPa) = 37.36992 48.58445 42.97719
# Shear Modulus (GPa) = 23.47786 30.55606 27.01696
#
# Velocity S-wave (km/s) = 3.22745 3.68196 3.46218
# Velocity P-wave (km/s) = 5.51984 6.29534 5.92030
#
# Compressibility (1/GPa) = 0.02675949
#
# Stress axis : x y z
#
# Youngs Moduli (GPa) = 121.71669 82.89964 37.14475
#
# Poissons Ratio (x) = 0.15094 0.16011
# Poissons Ratio (y) = 0.22162 0.15189
# Poissons Ratio (z) = 0.52465 0.33899
#
# Static dielectric constant tensor:
#      x y z
#    x 4.279530 0.000000 0.000000 
#    y 0.000000 4.254690 0.000000 
#    z 0.000000 0.000000 3.941810 
# 
# 
# High freq. dielectric constant tensor:
#      x y z
#    x 1.903860 0.000000 0.000000 
#    y 0.000000 1.897420 0.000000 
#    z 0.000000 0.000000 1.887440 
# 
# From -- ./inp_files/9496.got.cif
#   From: 2010.06.25/outbox.cif.g09.slc.cpg/sg48_5_cif.got.tgz:9496.got - 2010.06.26 18:06:46.
