data_PCOD8201397
_publ_section_title
;
Structure prediction by ZEFSAII (Michael W. Deem and Ramdas Pophale) SiO2 
 PCOD8201397
Probable space group: P N N N
;
_chemical_formula_sum "Si O2"
_cell_formula_units_Z 38
_cell_length_a 8.234931
_cell_length_b 17.689971
_cell_length_c 11.791694
_cell_angle_alpha 90.000000
_cell_angle_beta 90.000000
_cell_angle_gamma 90.000000
_cell_volume 1717.763167
_symmetry_space_group_name_H-M "P N N N"
_symmetry_group_IT_number 48
_space_group.IT_coordinate_system_code '2'
_symmetry_cell_setting 'orthorhombic'
loop_
_space_group_symop_operation_xyz
x,y,z
1/2-x,1/2-y,z
x,1/2-y,1/2-z
1/2-x,y,1/2-z
-x,-y,-z
1/2+x,1/2+y,-z
-x,1/2+y,1/2+z
1/2+x,-y,1/2+z
loop_
_atom_site_type_symbol
_atom_site_label
_atom_site_fract_x
_atom_site_fract_y
_atom_site_fract_z
Si Si1 0.094839 0.861164 0.322038
Si Si2 0.591221 0.964497 0.806440
Si Si3 0.750000 0.250000 0.250000
Si Si4 0.370672 0.982726 0.597388
Si Si5 0.885014 0.358731 0.067395
Si Si6 0.250000 0.104200 0.750000
O O1 0.250000 0.830306 0.250000
O O2 0.092299 0.819075 0.444326
O O3 0.919286 0.847555 0.259789
O O4 0.123655 0.950149 0.347166
O O5 0.750000 0.929316 0.750000
O O6 0.448259 0.960145 0.716320
O O7 0.542960 0.910865 0.910605
O O8 0.866576 0.298417 0.168136
O O9 0.272370 0.911188 0.555341
O O10 0.500000 0.000000 0.500000
O O11 0.259932 0.055188 0.632257
#
# Coordination Sequence:
#
# PCOD8201397 Si02
#       6
#     8   8   2   8   8   4
#     4  10  21  36  61  97 126 155 210 273 334 368
#     4  10  19  33  55  94 125 160 209 270 329 371
#     4  12  26  44  64  88 128 194 214 228 304 412
#     4  11  19  32  57  90 125 161 205 267 326 379
#     4  12  21  41  60  86 132 172 216 251 307 394
#     4  10  19  34  52  93 127 151 196 264 350 364
#
# _framework density 22.121791999999999
#
# number of rings (size 3 to 8) (size 9 to 14) (size 15 to 20)
#    0.000    1.263    6.316    4.421    2.947    0.000 
#    0.000    1.053    0.000    0.000    0.000    5.895 
#    0.000    0.000    0.000    0.000    0.000    0.000 
#
# Total GULP energy -470959.939986 kJ/mol
# GULP energy per Si atom -12393.682631 kJ/mol
# Density = 2.207144 g / cm^3
# Si number density = 22.121792 Si / 1000 Ang^3
#
#
#
# Elastic Constant Matrix: (Units=GPa)
#
#
# Indices 1 2 3 4 5 6 
#
# 1 129.0775 14.2221 37.9027 0.0000 0.0000 0.0000
# 2 14.2221 34.3874 20.1658 0.0000 0.0000 0.0000
# 3 37.9027 20.1658 140.3609 0.0000 0.0000 0.0000
# 4 0.0000 0.0000 0.0000 21.7247 0.0000 0.0000
# 5 0.0000 0.0000 0.0000 0.0000 47.7021 0.0000
# 6 0.0000 0.0000 0.0000 0.0000 0.0000 2.7433
#
#
#
# Elastic Compliance Matrix: (Units=1/GPa)
#
#
# Indices 1 2 3 4 5 6 
#
# 1 0.008591 -0.002394 -0.001976 0.000000 0.000000 0.000000
# 2 -0.002394 0.032423 -0.004012 0.000000 0.000000 0.000000
# 3 -0.001976 -0.004012 0.008234 0.000000 0.000000 0.000000
# 4 0.000000 0.000000 0.000000 0.046030 0.000000 0.000000
# 5 0.000000 0.000000 0.000000 0.000000 0.020963 0.000000
# 6 0.000000 0.000000 0.000000 0.000000 0.000000 0.364527
#
#
# Mechanical properties :
#
#
# Convention : Reuss Voigt Hill
#
# Bulk Modulus (GPa) = 30.78363 49.82300 40.30331
# Shear Modulus (GPa) = 9.83550 29.86971 19.85261
#
# Velocity S-wave (km/s) = 2.11086 3.67855 2.99895
# Velocity P-wave (km/s) = 4.45945 6.37286 5.50000
#
# Compressibility (1/GPa) = 0.03248480
#
# Stress axis : x y z
#
# Youngs Moduli (GPa) = 116.39626 30.84203 121.44118
#
# Poissons Ratio (x) = 0.07385 0.23996
# Poissons Ratio (y) = 0.27871 0.48718
# Poissons Ratio (z) = 0.23000 0.12373
#
# Static dielectric constant tensor:
#      x y z
#    x 4.534510 0.000000 0.000000 
#    y 0.000000 3.469570 0.000000 
#    z 0.000000 0.000000 5.345750 
# 
# 
# High freq. dielectric constant tensor:
#      x y z
#    x 1.881220 0.000000 0.000000 
#    y 0.000000 1.808930 0.000000 
#    z 0.000000 0.000000 1.886600 
# 
# From -- ./inp_files/13843.got.cif
#   From: 2010.06.25/outbox.cif.g09.slc.cpg/sg48_7_cif.got.tgz:13843.got - 2010.06.26 18:06:46.
