data_PCOD8201671
_publ_section_title
;
Structure prediction by ZEFSAII (Michael W. Deem and Ramdas Pophale) SiO2 
 PCOD8201671
Probable space group: P N N N
;
_chemical_formula_sum "Si O2"
_cell_formula_units_Z 40
_cell_length_a 8.214648
_cell_length_b 12.054748
_cell_length_c 16.427048
_cell_angle_alpha 90.000000
_cell_angle_beta 90.000000
_cell_angle_gamma 90.000000
_cell_volume 1626.696831
_symmetry_space_group_name_H-M "P N N N"
_symmetry_group_IT_number 48
_space_group.IT_coordinate_system_code '2'
_symmetry_cell_setting 'orthorhombic'
loop_
_space_group_symop_operation_xyz
x,y,z
1/2-x,1/2-y,z
x,1/2-y,1/2-z
1/2-x,y,1/2-z
-x,-y,-z
1/2+x,1/2+y,-z
-x,1/2+y,1/2+z
1/2+x,-y,1/2+z
loop_
_atom_site_type_symbol
_atom_site_label
_atom_site_fract_x
_atom_site_fract_y
_atom_site_fract_z
Si Si1 0.932297 0.134328 0.717978
Si Si2 0.059841 0.504897 0.592685
Si Si3 0.436181 0.267083 0.103292
Si Si4 0.057237 0.262849 0.585300
Si Si5 0.362409 0.928863 0.819809
O O1 0.015005 0.250000 0.750000
O O2 0.750000 0.118141 0.750000
O O3 0.945536 0.163361 0.620884
O O4 0.035178 0.022695 0.729404
O O5 0.007885 0.383149 0.628138
O O6 0.255947 0.519738 0.605041
O O7 0.000000 0.500000 0.500000
O O8 0.977196 0.609940 0.637769
O O9 0.250000 0.250000 0.120502
O O10 0.528408 0.170375 0.149142
O O11 0.486062 0.263980 0.009388
O O12 0.250000 0.250000 0.597738
O O13 0.250000 0.877146 0.750000
#
# Coordination Sequence:
#
# PCOD8201671 Si02
#       5
#     8   8   8   8   8
#     4  11  26  46  71 114 147 195 248 306 380 449
#     4  10  22  45  74 107 146 193 252 306 376 453
#     4  10  25  46  72 109 142 194 255 310 372 441
#     4  10  20  45  76 105 146 189 244 311 369 448
#     4  12  26  47  73 104 152 201 248 309 383 449
#
# _framework density 24.589708999999999
#
# number of rings (size 3 to 8) (size 9 to 14) (size 15 to 20)
#    0.000    1.400    2.000    1.800    0.000    7.200 
#   18.000    1.000    0.000    0.000    0.000    0.000 
#    0.000    0.000    0.000    0.000    0.000    0.000 
#
# Total GULP energy -495617.132664 kJ/mol
# GULP energy per Si atom -12390.428317 kJ/mol
# Density = 2.453374 g / cm^3
# Si number density = 24.589709 Si / 1000 Ang^3
#
#
#
# Elastic Constant Matrix: (Units=GPa)
#
#
# Indices 1 2 3 4 5 6 
#
# 1 128.3435 71.9998 64.9502 0.0000 0.0000 0.0000
# 2 71.9998 185.0669 49.0721 0.0000 0.0000 0.0000
# 3 64.9502 49.0721 68.5921 0.0000 0.0000 0.0000
# 4 0.0000 0.0000 0.0000 45.0599 0.0000 0.0000
# 5 0.0000 0.0000 0.0000 0.0000 44.1495 0.0000
# 6 0.0000 0.0000 0.0000 0.0000 0.0000 42.0644
#
#
#
# Elastic Compliance Matrix: (Units=1/GPa)
#
#
# Indices 1 2 3 4 5 6 
#
# 1 0.016001 -0.002725 -0.013203 0.000000 0.000000 0.000000
# 2 -0.002725 0.007132 -0.002523 0.000000 0.000000 0.000000
# 3 -0.013203 -0.002523 0.028885 0.000000 0.000000 0.000000
# 4 0.000000 0.000000 0.000000 0.022193 0.000000 0.000000
# 5 0.000000 0.000000 0.000000 0.000000 0.022650 0.000000
# 6 0.000000 0.000000 0.000000 0.000000 0.000000 0.023773
#
#
# Mechanical properties :
#
#
# Convention : Reuss Voigt Hill
#
# Bulk Modulus (GPa) = 66.14048 83.78298 74.96173
# Shear Modulus (GPa) = 30.75502 39.32011 35.03757
#
# Velocity S-wave (km/s) = 3.54040 4.00315 3.77886
# Velocity P-wave (km/s) = 6.60822 7.45072 7.04208
#
# Compressibility (1/GPa) = 0.01511933
#
# Stress axis : x y z
#
# Youngs Moduli (GPa) = 62.49431 140.20620 34.61947
#
# Poissons Ratio (x) = 0.38199 0.45707
# Poissons Ratio (y) = 0.17027 0.08734
# Poissons Ratio (z) = 0.82509 0.35371
#
# Static dielectric constant tensor:
#      x y z
#    x 4.235470 0.000000 0.000000 
#    y 0.000000 5.036660 0.000000 
#    z 0.000000 0.000000 4.719050 
# 
# 
# High freq. dielectric constant tensor:
#      x y z
#    x 1.960270 0.000000 0.000000 
#    y 0.000000 2.003680 0.000000 
#    z 0.000000 0.000000 1.994600 
# 
# From -- ./inp_files/30021.got.cif
#   From: 2010.06.25/outbox.cif.g09.slc.cpg/sg48_16_cif.got.tgz:30021.got - 2010.06.26 18:06:46.
