data_PCOD8201103
_publ_section_title
;
Structure prediction by ZEFSAII (Michael W. Deem and Ramdas Pophale) SiO2 
 PCOD8201103
Probable space group: P M M M
;
_chemical_formula_sum "Si O2"
_cell_formula_units_Z 44
_cell_length_a 9.442449
_cell_length_b 28.681589
_cell_length_c 9.230299
_cell_angle_alpha 90.000000
_cell_angle_beta 90.000000
_cell_angle_gamma 90.000000
_cell_volume 2499.790570
_symmetry_space_group_name_H-M "P M M M"
_symmetry_group_IT_number 47
_symmetry_cell_setting 'orthorhombic'
loop_
_space_group_symop_operation_xyz
x,y,z
-x,-y,z
x,-y,-z
-x,y,-z
-x,-y,-z
x,y,-z
-x,y,z
x,-y,z
loop_
_atom_site_type_symbol
_atom_site_label
_atom_site_fract_x
_atom_site_fract_y
_atom_site_fract_z
Si Si1 0.164978 0.770864 0.331734
Si Si2 0.831109 0.409773 0.664414
Si Si3 0.662774 0.139805 0.669661
Si Si4 0.168750 0.500000 0.164453
Si Si5 0.331703 0.050969 0.836582
Si Si6 0.168548 0.320148 0.836128
O O1 0.195987 0.760683 0.500000
O O2 0.249038 0.815901 0.274988
O O3 0.221573 0.726938 0.240791
O O4 0.000000 0.779995 0.304208
O O5 0.772846 0.410702 0.500000
O O6 0.774090 0.454698 0.751012
O O7 0.772128 0.364066 0.746008
O O8 0.000000 0.409544 0.662655
O O9 0.679540 0.133487 0.500000
O O10 0.500000 0.147453 0.715516
O O11 0.728732 0.092987 0.739666
O O12 0.000000 0.500000 0.162018
O O13 0.227356 0.500000 0.000000
O O14 0.500000 0.051588 0.829311
O O15 0.278065 0.000000 0.780979
O O16 0.279020 0.058910 0.000000
O O17 0.000000 0.321686 0.836440
O O18 0.227488 0.322085 0.000000
#
# Coordination Sequence:
#
# PCOD8201103 Si02
#       6
#     8   8   8   4   8   8
#     4   9  17  29  43  58  79 108 138 166 200 243
#     4   9  15  22  32  46  66  94 128 164 203 247
#     4   9  17  28  43  64  86 106 132 168 205 238
#     4   9  15  21  29  43  65  93 126 165 206 245
#     4   8  14  25  41  61  84 108 133 162 198 240
#     4   9  16  25  37  53  72  96 130 169 203 237
#
# _framework density 17.601476000000002
#
# number of rings (size 3 to 8) (size 9 to 14) (size 15 to 20)
#    0.000    3.182    0.000    1.909    0.000    6.545 
#    0.000    1.818    0.000    0.545    0.000    3.818 
#    0.000    0.000    0.000    0.818    0.000   17.818 
#
# Total GULP energy -545424.793762 kJ/mol
# GULP energy per Si atom -12396.018040 kJ/mol
# Density = 1.756141 g / cm^3
# Si number density = 17.601476 Si / 1000 Ang^3
#
#
#
# Elastic Constant Matrix: (Units=GPa)
#
#
# Indices 1 2 3 4 5 6 
#
# 1 14.8026 28.8703 17.2820 0.0000 0.0000 0.0000
# 2 28.8703 208.9629 97.4625 0.0000 0.0000 0.0000
# 3 17.2820 97.4625 120.3696 0.0000 0.0000 0.0000
# 4 0.0000 0.0000 0.0000 38.5428 0.0000 0.0000
# 5 0.0000 0.0000 0.0000 0.0000 7.8286 0.0000
# 6 0.0000 0.0000 0.0000 0.0000 0.0000 2.1776
#
#
#
# Elastic Compliance Matrix: (Units=1/GPa)
#
#
# Indices 1 2 3 4 5 6 
#
# 1 0.094167 -0.010773 -0.004798 0.000000 0.000000 0.000000
# 2 -0.010773 0.008922 -0.005677 0.000000 0.000000 0.000000
# 3 -0.004798 -0.005677 0.013593 0.000000 0.000000 0.000000
# 4 0.000000 0.000000 0.000000 0.025945 0.000000 0.000000
# 5 0.000000 0.000000 0.000000 0.000000 0.127737 0.000000
# 6 0.000000 0.000000 0.000000 0.000000 0.000000 0.459219
#
#
# Mechanical properties :
#
#
# Convention : Reuss Voigt Hill
#
# Bulk Modulus (GPa) = 13.47931 70.15164 41.81548
# Shear Modulus (GPa) = 6.27504 23.07781 14.67642
#
# Velocity S-wave (km/s) = 1.89019 3.62488 2.89072
# Velocity P-wave (km/s) = 3.52681 7.58035 5.91186
#
# Compressibility (1/GPa) = 0.07418776
#
# Stress axis : x y z
#
# Youngs Moduli (GPa) = 10.61940 112.08489 73.56510
#
# Poissons Ratio (x) = 1.20744 0.35293
# Poissons Ratio (y) = 0.11440 0.41765
# Poissons Ratio (z) = 0.05095 0.63634
#
# Static dielectric constant tensor:
#      x y z
#    x 2.582800 0.000000 0.000000 
#    y 0.000000 3.667740 0.000000 
#    z 0.000000 0.000000 3.392010 
# 
# 
# High freq. dielectric constant tensor:
#      x y z
#    x 1.596050 0.000000 0.000000 
#    y 0.000000 1.701320 0.000000 
#    z 0.000000 0.000000 1.685830 
# 
# From -- ./inp_files/2111.got.cif
#   From: 2010.03.12/outbox.cif.g09.slc.cpg/sg47_2_cif.got.tgz:2111.got - 2010.04.14 03:12:58.
