data_PCOD8201067
_publ_section_title
;
Structure prediction by ZEFSAII (Michael W. Deem and Ramdas Pophale) SiO2 
 PCOD8201067
Probable space group: P M M M
;
_chemical_formula_sum "Si O2"
_cell_formula_units_Z 52
_cell_length_a 9.643368
_cell_length_b 33.294874
_cell_length_c 9.708394
_cell_angle_alpha 90.000000
_cell_angle_beta 90.000000
_cell_angle_gamma 90.000000
_cell_volume 3117.119909
_symmetry_space_group_name_H-M "P M M M"
_symmetry_group_IT_number 47
_symmetry_cell_setting 'orthorhombic'
loop_
_space_group_symop_operation_xyz
x,y,z
-x,-y,z
x,-y,-z
-x,y,-z
-x,-y,-z
x,y,-z
-x,y,z
x,-y,z
loop_
_atom_site_type_symbol
_atom_site_label
_atom_site_fract_x
_atom_site_fract_y
_atom_site_fract_z
Si Si1 0.155654 0.544337 0.336380
Si Si2 0.659703 0.221254 0.161328
Si Si3 0.846221 0.071314 0.663438
Si Si4 0.656323 0.000000 0.335457
Si Si5 0.162375 0.838433 0.658239
Si Si6 0.661888 0.617169 0.660094
Si Si7 0.335359 0.311044 0.152370
O O1 0.161071 0.544141 0.500000
O O2 0.200038 0.500000 0.282063
O O3 0.260307 0.578023 0.279618
O O4 0.000000 0.554355 0.285951
O O5 0.500000 0.215273 0.204388
O O6 0.752921 0.191126 0.246299
O O7 0.710984 0.266406 0.197514
O O8 0.679178 0.212856 0.000000
O O9 0.853012 0.068521 0.500000
O O10 0.735401 0.039419 0.721845
O O11 0.801130 0.116221 0.705826
O O12 0.000000 0.061411 0.722107
O O13 0.500000 0.000000 0.277082
O O14 0.654878 0.000000 0.500000
O O15 0.206259 0.831617 0.500000
O O16 0.000000 0.830152 0.677281
O O17 0.694359 0.624133 0.500000
O O18 0.500000 0.610334 0.687046
O O19 0.720311 0.656142 0.739635
O O20 0.500000 0.311793 0.147513
O O21 0.276863 0.321162 0.000000
#
# Coordination Sequence:
#
# PCOD8201067 Si02
#       7
#     8   8   8   4   8   8   8
#     4   8  14  25  40  58  83 114 141 165 202 252
#     4   9  18  32  49  68  89 117 154 189 223 270
#     4   8  14  25  39  55  81 117 149 176 213 262
#     4   9  15  21  33  57  86 113 144 181 216 254
#     4   9  18  31  46  67  94 121 151 188 228 268
#     4   9  16  25  41  66  88 105 135 179 215 243
#     4   8  15  29  46  62  84 114 143 172 211 260
#
# _framework density 16.682065999999999
#
# number of rings (size 3 to 8) (size 9 to 14) (size 15 to 20)
#    0.000    3.462    0.000    2.538    0.000    3.077 
#    0.000    5.385    0.000    3.692    0.000    3.769 
#    0.000    4.308    0.000    0.000    0.000    0.000 
#
# Total GULP energy -644459.561052 kJ/mol
# GULP energy per Si atom -12393.453097 kJ/mol
# Density = 1.664410 g / cm^3
# Si number density = 16.682066 Si / 1000 Ang^3
#
#
#
# Elastic Constant Matrix: (Units=GPa)
#
#
# Indices 1 2 3 4 5 6 
#
# 1 76.6171 79.7861 33.8301 0.0000 0.0000 0.0000
# 2 79.7861 168.9157 55.8561 0.0000 0.0000 0.0000
# 3 33.8301 55.8561 40.1692 0.0000 0.0000 0.0000
# 4 0.0000 0.0000 0.0000 -0.7649 0.0000 0.0000
# 5 0.0000 0.0000 0.0000 0.0000 16.5516 0.0000
# 6 0.0000 0.0000 0.0000 0.0000 0.0000 19.8735
#
#
#
# Elastic Compliance Matrix: (Units=1/GPa)
#
#
# Indices 1 2 3 4 5 6 
#
# 1 0.027491 -0.009866 -0.009435 0.000000 0.000000 0.000000
# 2 -0.009866 0.014500 -0.011853 0.000000 0.000000 0.000000
# 3 -0.009435 -0.011853 0.049323 0.000000 0.000000 0.000000
# 4 0.000000 0.000000 0.000000 -1.307295 0.000000 0.000000
# 5 0.000000 0.000000 0.000000 0.000000 0.060417 0.000000
# 6 0.000000 0.000000 0.000000 0.000000 0.000000 0.050318
#
#
# Mechanical properties :
#
#
# Convention : Reuss Voigt Hill
#
# Bulk Modulus (GPa) = 34.47492 69.40518 51.94005
# Shear Modulus (GPa) = -4.83901 14.88067 5.02083
#
# Velocity S-wave (km/s) = -1.70500 2.98990 1.73674
# Velocity P-wave (km/s) = 4.10301 7.32218 5.93503
#
# Compressibility (1/GPa) = 0.02900660
#
# Stress axis : x y z
#
# Youngs Moduli (GPa) = 36.37509 68.96726 20.27455
#
# Poissons Ratio (x) = 0.68040 0.19128
# Poissons Ratio (y) = 0.35886 0.24032
# Poissons Ratio (z) = 0.34319 0.81750
#
# Static dielectric constant tensor:
#      x y z
#    x 3.096350 0.000000 0.000000 
#    y 0.000000 3.496420 0.000000 
#    z 0.000000 0.000000 2.804800 
# 
# 
# High freq. dielectric constant tensor:
#      x y z
#    x 1.627260 0.000000 0.000000 
#    y 0.000000 1.656580 0.000000 
#    z 0.000000 0.000000 1.596220 
# 
# From -- ./inp_files/15458.got.cif
#   From: 2010.03.12/outbox.cif.g09.slc.cpg/sg47_8_cif.got.tgz:15458.got - 2010.04.14 03:12:58.
