data_PCOD8201078
_publ_section_title
;
Structure prediction by ZEFSAII (Michael W. Deem and Ramdas Pophale) SiO2 
 PCOD8201078
Probable space group: P M M M
;
_chemical_formula_sum "Si O2"
_cell_formula_units_Z 52
_cell_length_a 33.715114
_cell_length_b 9.233971
_cell_length_c 9.853272
_cell_angle_alpha 90.000000
_cell_angle_beta 90.000000
_cell_angle_gamma 90.000000
_cell_volume 3067.563845
_symmetry_space_group_name_H-M "P M M M"
_symmetry_group_IT_number 47
_symmetry_cell_setting 'orthorhombic'
loop_
_space_group_symop_operation_xyz
x,y,z
-x,-y,z
x,-y,-z
-x,y,-z
-x,-y,-z
x,y,-z
-x,y,z
x,-y,z
loop_
_atom_site_type_symbol
_atom_site_label
_atom_site_fract_x
_atom_site_fract_y
_atom_site_fract_z
Si Si1 0.923774 0.336250 0.161345
Si Si2 0.688172 0.827846 0.652255
Si Si3 0.000000 0.835653 0.838030
Si Si4 0.380650 0.829152 0.155646
Si Si5 0.776150 0.828012 0.651854
Si Si6 0.543433 0.336984 0.838799
Si Si7 0.845804 0.169634 0.842733
O O1 0.924539 0.500000 0.218670
O O2 0.961433 0.248008 0.218378
O O3 0.884106 0.255729 0.210349
O O4 0.925463 0.338169 0.000000
O O5 0.677499 0.775850 0.500000
O O6 0.655981 0.765206 0.757537
O O7 0.732195 0.771223 0.692403
O O8 0.687842 0.000000 0.658518
O O9 0.000000 0.000000 0.782420
O O10 0.000000 0.836908 0.000000
O O11 0.421467 0.764652 0.216600
O O12 0.383876 0.000000 0.169843
O O13 0.373747 0.781986 0.000000
O O14 0.787009 0.774457 0.500000
O O15 0.808382 0.769315 0.758440
O O16 0.775953 0.000000 0.655711
O O17 0.500000 0.283740 0.786195
O O18 0.551224 0.500000 0.787818
O O19 0.543387 0.331671 0.000000
O O20 0.853454 0.000000 0.817400
O O21 0.837054 0.201163 0.000000
#
# Coordination Sequence:
#
# PCOD8201078 Si02
#       7
#     8   8   4   8   8   8   8
#     4   9  16  25  37  55  82 114 142 167 202 249
#     4   8  14  25  40  58  82 110 135 161 200 248
#     4   9  15  23  37  57  82 111 142 175 206 238
#     4   9  16  24  38  63  87 103 128 170 209 236
#     4   8  14  25  41  60  81 107 139 170 200 240
#     4   8  14  25  40  57  79 108 137 162 194 240
#     4   9  16  25  39  61  85 106 133 172 210 237
#
# _framework density 16.951561999999999
#
# number of rings (size 3 to 8) (size 9 to 14) (size 15 to 20)
#    0.000    3.462    0.000    2.077    0.000    3.692 
#    0.000    4.615    0.000    2.308    0.000   10.231 
#    0.000    4.308    0.000    0.000    0.000    0.000 
#
# Total GULP energy -644429.825832 kJ/mol
# GULP energy per Si atom -12392.881266 kJ/mol
# Density = 1.691298 g / cm^3
# Si number density = 16.951562 Si / 1000 Ang^3
#
#
#
# Elastic Constant Matrix: (Units=GPa)
#
#
# Indices 1 2 3 4 5 6 
#
# 1 188.9760 54.8316 67.4594 0.0000 0.0000 0.0000
# 2 54.8316 55.0971 23.5060 0.0000 0.0000 0.0000
# 3 67.4594 23.5060 51.4538 0.0000 0.0000 0.0000
# 4 0.0000 0.0000 0.0000 6.0370 0.0000 0.0000
# 5 0.0000 0.0000 0.0000 0.0000 6.6015 0.0000
# 6 0.0000 0.0000 0.0000 0.0000 0.0000 7.6159
#
#
#
# Elastic Compliance Matrix: (Units=1/GPa)
#
#
# Indices 1 2 3 4 5 6 
#
# 1 0.011424 -0.006185 -0.012153 0.000000 0.000000 0.000000
# 2 -0.006185 0.025892 -0.003720 0.000000 0.000000 0.000000
# 3 -0.012153 -0.003720 0.037067 0.000000 0.000000 0.000000
# 4 0.000000 0.000000 0.000000 0.165645 0.000000 0.000000
# 5 0.000000 0.000000 0.000000 0.000000 0.151480 0.000000
# 6 0.000000 0.000000 0.000000 0.000000 0.000000 0.131305
#
#
# Mechanical properties :
#
#
# Convention : Reuss Voigt Hill
#
# Bulk Modulus (GPa) = 33.03715 65.23565 49.13640
# Shear Modulus (GPa) = 8.66526 14.03288 11.34907
#
# Velocity S-wave (km/s) = 2.26338 2.88031 2.59028
# Velocity P-wave (km/s) = 5.13439 7.04476 6.16403
#
# Compressibility (1/GPa) = 0.03026896
#
# Stress axis : x y z
#
# Youngs Moduli (GPa) = 87.53224 38.62269 26.97792
#
# Poissons Ratio (x) = 0.23887 0.32786
# Poissons Ratio (y) = 0.54135 0.10035
# Poissons Ratio (z) = 1.06376 0.14367
#
# Static dielectric constant tensor:
#      x y z
#    x 3.657360 0.000000 0.000000 
#    y 0.000000 2.938520 0.000000 
#    z 0.000000 0.000000 2.893740 
# 
# 
# High freq. dielectric constant tensor:
#      x y z
#    x 1.671510 0.000000 0.000000 
#    y 0.000000 1.621070 0.000000 
#    z 0.000000 0.000000 1.605230 
# 
# From -- ./inp_files/20025.got.cif
#   From: 2010.03.12/outbox.cif.g09.slc.cpg/sg47_11_cif.got.tgz:20025.got - 2010.04.14 03:12:58.
