data_PCOD8201065
_publ_section_title
;
Structure prediction by ZEFSAII (Michael W. Deem and Ramdas Pophale) SiO2 
 PCOD8201065
Probable space group: P M M M
;
_chemical_formula_sum "Si O2"
_cell_formula_units_Z 40
_cell_length_a 7.840273
_cell_length_b 27.740590
_cell_length_c 9.638091
_cell_angle_alpha 90.000000
_cell_angle_beta 90.000000
_cell_angle_gamma 90.000000
_cell_volume 2096.225025
_symmetry_space_group_name_H-M "P M M M"
_symmetry_group_IT_number 47
_symmetry_cell_setting 'orthorhombic'
loop_
_space_group_symop_operation_xyz
x,y,z
-x,-y,z
x,-y,-z
-x,y,-z
-x,-y,-z
x,y,-z
-x,y,z
x,-y,z
loop_
_atom_site_type_symbol
_atom_site_label
_atom_site_fract_x
_atom_site_fract_y
_atom_site_fract_z
Si Si1 0.500000 0.945594 0.334407
Si Si2 0.296359 0.500000 0.342751
Si Si3 0.700659 0.586724 0.155919
Si Si4 0.190043 0.881611 0.334582
Si Si5 0.798787 0.691171 0.845494
Si Si6 0.798193 0.774789 0.346553
O O1 0.500000 0.944754 0.500000
O O2 0.329683 0.919292 0.277322
O O3 0.500000 0.000000 0.277367
O O4 0.500000 0.500000 0.346013
O O5 0.224354 0.500000 0.500000
O O6 0.225024 0.453250 0.260875
O O7 0.500000 0.580852 0.147870
O O8 0.749725 0.639082 0.216604
O O9 0.777693 0.580052 0.000000
O O10 0.185788 0.881834 0.500000
O O11 0.243981 0.827877 0.285375
O O12 0.000000 0.895305 0.278796
O O13 0.718031 0.733564 0.751613
O O14 0.000000 0.696921 0.850039
O O15 0.720959 0.695935 0.000000
O O16 0.717997 0.768708 0.500000
O O17 0.000000 0.768884 0.356547
#
# Coordination Sequence:
#
# PCOD8201065 Si02
#       6
#     4   4   8   8   8   8
#     4   9  16  24  36  58  87 117 151 190 229 270
#     4   9  17  29  46  65  84 108 142 183 216 248
#     4   9  17  30  46  62  82 110 141 172 213 263
#     4   8  14  25  39  55  80 115 151 185 225 274
#     4   9  17  29  45  65  88 112 140 178 219 258
#     4   8  14  26  43  60  82 115 146 171 211 267
#
# _framework density 19.08192
#
# number of rings (size 3 to 8) (size 9 to 14) (size 15 to 20)
#    0.000    3.400    0.000    1.500    0.000    2.400 
#    1.800    2.500    0.000    3.000    0.000    0.000 
#    0.000    1.600    0.000    7.800    0.000    8.000 
#
# Total GULP energy -495718.322439 kJ/mol
# GULP energy per Si atom -12392.958061 kJ/mol
# Density = 1.903849 g / cm^3
# Si number density = 19.081920 Si / 1000 Ang^3
#
#
#
# Elastic Constant Matrix: (Units=GPa)
#
#
# Indices 1 2 3 4 5 6 
#
# 1 51.4274 47.9671 18.6489 0.0000 0.0000 0.0000
# 2 47.9671 197.8986 67.9983 0.0000 0.0000 0.0000
# 3 18.6489 67.9983 68.1773 0.0000 0.0000 0.0000
# 4 0.0000 0.0000 0.0000 11.6874 0.0000 0.0000
# 5 0.0000 0.0000 0.0000 0.0000 7.3277 0.0000
# 6 0.0000 0.0000 0.0000 0.0000 0.0000 27.9507
#
#
#
# Elastic Compliance Matrix: (Units=1/GPa)
#
#
# Indices 1 2 3 4 5 6 
#
# 1 0.025191 -0.005687 -0.001218 0.000000 0.000000 0.000000
# 2 -0.005687 0.008972 -0.007392 0.000000 0.000000 0.000000
# 3 -0.001218 -0.007392 0.022374 0.000000 0.000000 0.000000
# 4 0.000000 0.000000 0.000000 0.085562 0.000000 0.000000
# 5 0.000000 0.000000 0.000000 0.000000 0.136469 0.000000
# 6 0.000000 0.000000 0.000000 0.000000 0.000000 0.035777
#
#
# Mechanical properties :
#
#
# Convention : Reuss Voigt Hill
#
# Bulk Modulus (GPa) = 35.79005 65.19244 50.49124
# Shear Modulus (GPa) = 14.19425 21.58574 17.89000
#
# Velocity S-wave (km/s) = 2.73034 3.36700 3.06524
# Velocity P-wave (km/s) = 5.36063 7.02526 6.24863
#
# Compressibility (1/GPa) = 0.02794073
#
# Stress axis : x y z
#
# Youngs Moduli (GPa) = 39.69624 111.46241 44.69489
#
# Poissons Ratio (x) = 0.63392 0.05446
# Poissons Ratio (y) = 0.22576 0.33040
# Poissons Ratio (z) = 0.04836 0.82398
#
# Static dielectric constant tensor:
#      x y z
#    x 3.276240 0.000000 0.000000 
#    y 0.000000 3.749350 0.000000 
#    z 0.000000 0.000000 3.455130 
# 
# 
# High freq. dielectric constant tensor:
#      x y z
#    x 1.719190 0.000000 0.000000 
#    y 0.000000 1.748560 0.000000 
#    z 0.000000 0.000000 1.693120 
# 
# From -- ./inp_files/1814.got.cif
#   From: 2010.03.12/outbox.cif.g09.slc.cpg/sg47_1_cif.got.tgz:1814.got - 2010.04.14 03:12:58.
