data_PCOD8201550
_publ_section_title
;
Structure prediction by ZEFSAII (Michael W. Deem and Ramdas Pophale) SiO2 
 PCOD8201550
Probable space group: P N N N
;
_chemical_formula_sum "Si O2"
_cell_formula_units_Z 64
_cell_length_a 10.906247
_cell_length_b 16.513720
_cell_length_c 18.266347
_cell_angle_alpha 90.000000
_cell_angle_beta 90.000000
_cell_angle_gamma 90.000000
_cell_volume 3289.818582
_symmetry_space_group_name_H-M "P N N N"
_symmetry_group_IT_number 48
_space_group.IT_coordinate_system_code '2'
_symmetry_cell_setting 'orthorhombic'
loop_
_space_group_symop_operation_xyz
x,y,z
1/2-x,1/2-y,z
x,1/2-y,1/2-z
1/2-x,y,1/2-z
-x,-y,-z
1/2+x,1/2+y,-z
-x,1/2+y,1/2+z
1/2+x,-y,1/2+z
loop_
_atom_site_type_symbol
_atom_site_label
_atom_site_fract_x
_atom_site_fract_y
_atom_site_fract_z
Si Si1 0.246689 0.656467 0.336503
Si Si2 0.747827 0.657626 0.095333
Si Si3 0.252006 0.156248 0.424728
Si Si4 0.011534 0.416220 0.672612
Si Si5 0.880817 0.250125 0.163923
Si Si6 0.459104 0.100067 0.325710
Si Si7 0.968130 0.901554 0.658220
Si Si8 0.006026 0.086091 0.659502
O O1 0.250000 0.750000 0.360712
O O2 0.250000 0.645461 0.250000
O O3 0.369943 0.613489 0.369237
O O4 0.117306 0.616104 0.363286
O O5 0.750000 0.750000 0.120414
O O6 0.633545 0.615666 0.134328
O O7 0.882262 0.623249 0.113709
O O8 0.720223 0.648684 0.009800
O O9 0.250000 0.250000 0.398868
O O10 0.343317 0.102625 0.377335
O O11 0.128235 0.110757 0.405749
O O12 0.021622 0.512916 0.666822
O O13 0.018401 0.386407 0.756364
O O14 0.750000 0.250000 0.124378
O O15 0.866379 0.250000 0.250000
O O16 0.953978 0.169911 0.141501
O O17 0.933676 0.334533 0.136944
O O18 0.418998 0.114756 0.241079
O O19 0.023712 0.990332 0.651756
#
# Coordination Sequence:
#
# PCOD8201550 Si02
#       8
#     8   8   8   8   8   8   8   8
#     4   9  17  32  56  81 107 141 186 242 295 337
#     4  11  25  40  58  83 121 162 199 241 289 347
#     4  11  22  38  58  82 121 158 200 234 282 345
#     4  10  21  37  60  88 114 147 195 248 296 346
#     4   9  18  31  53  85 117 146 179 230 293 348
#     4  10  20  35  60  88 115 148 191 241 293 349
#     4  10  20  35  60  88 115 148 191 241 293 349
#     4  10  21  37  60  88 114 147 195 248 296 346
#
# _framework density 19.453961
#
# number of rings (size 3 to 8) (size 9 to 14) (size 15 to 20)
#    0.000    2.000    1.250    2.250    1.750    5.500 
#    0.000    0.000    2.750    0.000    0.000    0.000 
#    0.000    0.000    0.000    0.000    0.000    0.000 
#
# Total GULP energy -793177.413314 kJ/mol
# GULP energy per Si atom -12393.397083 kJ/mol
# Density = 1.940968 g / cm^3
# Si number density = 19.453961 Si / 1000 Ang^3
#
#
#
# Elastic Constant Matrix: (Units=GPa)
#
#
# Indices 1 2 3 4 5 6 
#
# 1 124.4609 46.5518 12.1064 0.0000 0.0000 0.0000
# 2 46.5518 124.7064 18.4449 0.0000 0.0000 0.0000
# 3 12.1064 18.4449 35.5291 0.0000 0.0000 0.0000
# 4 0.0000 0.0000 0.0000 13.8824 0.0000 0.0000
# 5 0.0000 0.0000 0.0000 0.0000 -61.4249 0.0000
# 6 0.0000 0.0000 0.0000 0.0000 0.0000 28.5207
#
#
#
# Elastic Compliance Matrix: (Units=1/GPa)
#
#
# Indices 1 2 3 4 5 6 
#
# 1 0.009412 -0.003292 -0.001498 0.000000 0.000000 0.000000
# 2 -0.003292 0.009837 -0.003985 0.000000 0.000000 0.000000
# 3 -0.001498 -0.003985 0.030725 0.000000 0.000000 0.000000
# 4 0.000000 0.000000 0.000000 0.072034 0.000000 0.000000
# 5 0.000000 0.000000 0.000000 0.000000 -0.016280 0.000000
# 6 0.000000 0.000000 0.000000 0.000000 0.000000 0.035062
#
#
# Mechanical properties :
#
#
# Convention : Reuss Voigt Hill
#
# Bulk Modulus (GPa) = 30.84140 48.76694 39.80417
# Shear Modulus (GPa) = 29.55989 10.03517 19.79753
#
# Velocity S-wave (km/s) = 3.90228 2.27368 3.19354
# Velocity P-wave (km/s) = 6.01595 5.65819 5.83981
#
# Compressibility (1/GPa) = 0.03242395
#
# Stress axis : x y z
#
# Youngs Moduli (GPa) = 106.25244 101.65662 32.54638
#
# Poissons Ratio (x) = 0.33462 0.04876
# Poissons Ratio (y) = 0.34975 0.12971
# Poissons Ratio (z) = 0.15917 0.40513
#
# Static dielectric constant tensor:
#      x y z
#    x 3.537180 0.000000 0.000000 
#    y 0.000000 3.569540 0.000000 
#    z 0.000000 0.000000 3.193370 
# 
# 
# High freq. dielectric constant tensor:
#      x y z
#    x 1.767710 0.000000 0.000000 
#    y 0.000000 1.773120 0.000000 
#    z 0.000000 0.000000 1.717430 
# 
# From -- ./inp_files/31187.got.cif
#   From: 2010.06.25/outbox.cif.g09.slc.cpg/sg48_16_cif.got.tgz:31187.got - 2010.06.26 18:06:46.
