data_PCOD8201658
_publ_section_title
;
Structure prediction by ZEFSAII (Michael W. Deem and Ramdas Pophale) SiO2 
 PCOD8201658
Probable space group: P N N N
;
_chemical_formula_sum "Si O2"
_cell_formula_units_Z 32
_cell_length_a 8.512801
_cell_length_b 14.952160
_cell_length_c 11.470690
_cell_angle_alpha 90.000000
_cell_angle_beta 90.000000
_cell_angle_gamma 90.000000
_cell_volume 1460.044054
_symmetry_space_group_name_H-M "P N N N"
_symmetry_group_IT_number 48
_space_group.IT_coordinate_system_code '2'
_symmetry_cell_setting 'orthorhombic'
loop_
_space_group_symop_operation_xyz
x,y,z
1/2-x,1/2-y,z
x,1/2-y,1/2-z
1/2-x,y,1/2-z
-x,-y,-z
1/2+x,1/2+y,-z
-x,1/2+y,1/2+z
1/2+x,-y,1/2+z
loop_
_atom_site_type_symbol
_atom_site_label
_atom_site_fract_x
_atom_site_fract_y
_atom_site_fract_z
Si Si1 0.548538 0.156840 0.048955
Si Si2 0.068159 0.470898 0.243995
Si Si3 0.427413 0.343725 0.704627
Si Si4 0.637440 0.341767 0.135779
O O1 0.489956 0.073297 0.124565
O O2 0.532752 0.252558 0.115409
O O3 0.738345 0.142724 0.028558
O O4 0.441286 0.157586 0.934785
O O5 0.250000 0.453358 0.250000
O O6 0.031282 0.575539 0.252895
O O7 0.981872 0.423946 0.353534
O O8 0.497453 0.250000 0.750000
O O9 0.250000 0.356089 0.750000
O O10 0.750000 0.333854 0.250000
#
# Coordination Sequence:
#
# PCOD8201658 Si02
#       4
#     8   8   8   8
#     4  10  20  41  67  90 121 167 205 251 314 372
#     4  11  23  38  64  97 125 155 204 263 314 372
#     4  11  26  45  60  82 124 172 213 256 308 373
#     4   9  19  39  69  98 124 157 205 262 316 372
#
# _framework density 21.917147
#
# number of rings (size 3 to 8) (size 9 to 14) (size 15 to 20)
#    0.000    1.750    0.000    8.250    0.000   10.500 
#    0.000    3.750    0.000    0.000    0.000    0.000 
#    0.000    0.000    0.000    0.000    0.000    0.000 
#
# Total GULP energy -396454.474442 kJ/mol
# GULP energy per Si atom -12389.202326 kJ/mol
# Density = 2.186726 g / cm^3
# Si number density = 21.917147 Si / 1000 Ang^3
#
#
#
# Elastic Constant Matrix: (Units=GPa)
#
#
# Indices 1 2 3 4 5 6 
#
# 1 128.8580 62.3460 47.5479 0.0000 0.0000 0.0000
# 2 62.3460 171.8389 30.1910 0.0000 0.0000 0.0000
# 3 47.5479 30.1910 77.3485 0.0000 0.0000 0.0000
# 4 0.0000 0.0000 0.0000 16.1383 0.0000 0.0000
# 5 0.0000 0.0000 0.0000 0.0000 40.4183 0.0000
# 6 0.0000 0.0000 0.0000 0.0000 0.0000 16.5900
#
#
#
# Elastic Compliance Matrix: (Units=1/GPa)
#
#
# Indices 1 2 3 4 5 6 
#
# 1 0.011409 -0.003121 -0.005795 0.000000 0.000000 0.000000
# 2 -0.003121 0.007102 -0.000853 0.000000 0.000000 0.000000
# 3 -0.005795 -0.000853 0.016824 0.000000 0.000000 0.000000
# 4 0.000000 0.000000 0.000000 0.061964 0.000000 0.000000
# 5 0.000000 0.000000 0.000000 0.000000 0.024741 0.000000
# 6 0.000000 0.000000 0.000000 0.000000 0.000000 0.060277
#
#
# Mechanical properties :
#
#
# Convention : Reuss Voigt Hill
#
# Bulk Modulus (GPa) = 63.30928 73.13503 68.22216
# Shear Modulus (GPa) = 24.14038 30.49336 27.31687
#
# Velocity S-wave (km/s) = 3.32239 3.73406 3.53423
# Velocity P-wave (km/s) = 6.60804 7.21334 6.91731
#
# Compressibility (1/GPa) = 0.01579547
#
# Stress axis : x y z
#
# Youngs Moduli (GPa) = 87.65019 140.81038 59.43912
#
# Poissons Ratio (x) = 0.43950 0.34445
# Poissons Ratio (y) = 0.27357 0.05072
# Poissons Ratio (z) = 0.50794 0.12015
#
# Static dielectric constant tensor:
#      x y z
#    x 4.174100 0.000000 0.000000 
#    y 0.000000 4.255320 0.000000 
#    z 0.000000 0.000000 3.895960 
# 
# 
# High freq. dielectric constant tensor:
#      x y z
#    x 1.855320 0.000000 0.000000 
#    y 0.000000 1.882050 0.000000 
#    z 0.000000 0.000000 1.834480 
# 
# From -- ./inp_files/10119.got.cif
#   From: 2010.06.25/outbox.cif.g09.slc.cpg/sg48_6_cif.got.tgz:10119.got - 2010.06.26 18:06:46.
