data_PCOD8201488
_publ_section_title
;
Structure prediction by ZEFSAII (Michael W. Deem and Ramdas Pophale) SiO2 
 PCOD8201488
Probable space group: P N N N
;
_chemical_formula_sum "Si O2"
_cell_formula_units_Z 40
_cell_length_a 8.329622
_cell_length_b 9.061234
_cell_length_c 23.150314
_cell_angle_alpha 90.000000
_cell_angle_beta 90.000000
_cell_angle_gamma 90.000000
_cell_volume 1747.308241
_symmetry_space_group_name_H-M "P N N N"
_symmetry_group_IT_number 48
_space_group.IT_coordinate_system_code '2'
_symmetry_cell_setting 'orthorhombic'
loop_
_space_group_symop_operation_xyz
x,y,z
1/2-x,1/2-y,z
x,1/2-y,1/2-z
1/2-x,y,1/2-z
-x,-y,-z
1/2+x,1/2+y,-z
-x,1/2+y,1/2+z
1/2+x,-y,1/2+z
loop_
_atom_site_type_symbol
_atom_site_label
_atom_site_fract_x
_atom_site_fract_y
_atom_site_fract_z
Si Si1 0.572737 0.911572 0.081888
Si Si2 0.075891 0.670774 0.197085
Si Si3 0.935664 0.417599 0.261735
Si Si4 0.577728 0.794740 0.958479
Si Si5 0.645015 0.389313 0.116057
O O1 0.511316 0.815066 0.135807
O O2 0.454410 0.047297 0.070132
O O3 0.749887 0.974304 0.093291
O O4 0.572019 0.801462 0.027821
O O5 0.250000 0.750000 0.192649
O O6 0.979490 0.750000 0.250000
O O7 0.063755 0.501478 0.219918
O O8 0.974586 0.250000 0.250000
O O9 0.750000 0.461324 0.250000
O O10 0.964532 0.446768 0.330618
O O11 0.750000 0.750000 0.935327
O O12 0.454822 0.668354 0.938693
O O13 0.750000 0.250000 0.140014
#
# Coordination Sequence:
#
# PCOD8201488 Si02
#       5
#     8   8   8   8   8
#     4  10  22  43  65  89 135 183 224 278 345 421
#     4  11  26  44  64 102 147 180 216 286 369 416
#     4  11  19  40  74 102 125 178 243 291 329 408
#     4  10  23  39  64  98 130 175 231 294 341 393
#     4  10  19  38  67  99 126 171 239 286 340 407
#
# _framework density 22.892353
#
# number of rings (size 3 to 8) (size 9 to 14) (size 15 to 20)
#    0.000    1.600    4.000    1.200    0.000   10.000 
#    0.000    2.000    0.000    0.000    0.000    0.000 
#    0.000    0.000    0.000    0.000    0.000    0.000 
#
# Total GULP energy -495724.964149 kJ/mol
# GULP energy per Si atom -12393.124104 kJ/mol
# Density = 2.284025 g / cm^3
# Si number density = 22.892353 Si / 1000 Ang^3
#
#
#
# Elastic Constant Matrix: (Units=GPa)
#
#
# Indices 1 2 3 4 5 6 
#
# 1 105.7706 56.7996 45.4545 0.0000 0.0000 0.0000
# 2 56.7996 72.4292 42.3284 0.0000 0.0000 0.0000
# 3 45.4545 42.3284 176.1529 0.0000 0.0000 0.0000
# 4 0.0000 0.0000 0.0000 34.3587 0.0000 0.0000
# 5 0.0000 0.0000 0.0000 0.0000 15.9598 0.0000
# 6 0.0000 0.0000 0.0000 0.0000 0.0000 41.5997
#
#
#
# Elastic Compliance Matrix: (Units=1/GPa)
#
#
# Indices 1 2 3 4 5 6 
#
# 1 0.016602 -0.012234 -0.001344 0.000000 0.000000 0.000000
# 2 -0.012234 0.025077 -0.002869 0.000000 0.000000 0.000000
# 3 -0.001344 -0.002869 0.006713 0.000000 0.000000 0.000000
# 4 0.000000 0.000000 0.000000 0.029105 0.000000 0.000000
# 5 0.000000 0.000000 0.000000 0.000000 0.062657 0.000000
# 6 0.000000 0.000000 0.000000 0.000000 0.000000 0.024039
#
#
# Mechanical properties :
#
#
# Convention : Reuss Voigt Hill
#
# Bulk Modulus (GPa) = 64.52440 71.50197 68.01318
# Shear Modulus (GPa) = 24.72161 32.36832 28.54496
#
# Velocity S-wave (km/s) = 3.28976 3.76431 3.53501
# Velocity P-wave (km/s) = 6.53278 7.08486 6.81441
#
# Compressibility (1/GPa) = 0.01549801
#
# Stress axis : x y z
#
# Youngs Moduli (GPa) = 60.23516 39.87722 148.96073
#
# Poissons Ratio (x) = 0.48784 0.20024
# Poissons Ratio (y) = 0.73689 0.42738
# Poissons Ratio (z) = 0.08097 0.11441
#
# Static dielectric constant tensor:
#      x y z
#    x 3.841390 0.000000 0.000000 
#    y 0.000000 4.127420 0.000000 
#    z 0.000000 0.000000 4.472430 
# 
# 
# High freq. dielectric constant tensor:
#      x y z
#    x 1.873640 0.000000 0.000000 
#    y 0.000000 1.902040 0.000000 
#    z 0.000000 0.000000 1.924190 
# 
# From -- ./inp_files/9011.got.cif
#   From: 2010.06.25/outbox.cif.g09.slc.cpg/sg48_5_cif.got.tgz:9011.got - 2010.06.26 18:06:46.
