data_PCOD8201745
_publ_section_title
;
Structure prediction by ZEFSAII (Michael W. Deem and Ramdas Pophale) SiO2 
 PCOD8201745
Probable space group: P N N N
;
_chemical_formula_sum "Si O2"
_cell_formula_units_Z 60
_cell_length_a 21.298049
_cell_length_b 12.570304
_cell_length_c 11.240023
_cell_angle_alpha 90.000000
_cell_angle_beta 90.000000
_cell_angle_gamma 90.000000
_cell_volume 3009.212122
_symmetry_space_group_name_H-M "P N N N"
_symmetry_group_IT_number 48
_space_group.IT_coordinate_system_code '2'
_symmetry_cell_setting 'orthorhombic'
loop_
_space_group_symop_operation_xyz
x,y,z
1/2-x,1/2-y,z
x,1/2-y,1/2-z
1/2-x,y,1/2-z
-x,-y,-z
1/2+x,1/2+y,-z
-x,1/2+y,1/2+z
1/2+x,-y,1/2+z
loop_
_atom_site_type_symbol
_atom_site_label
_atom_site_fract_x
_atom_site_fract_y
_atom_site_fract_z
Si Si1 0.322836 0.738306 0.609370
Si Si2 0.869351 0.437457 0.516250
Si Si3 0.578492 0.880682 0.349569
Si Si4 0.377588 0.962258 0.022475
Si Si5 0.250000 0.250000 0.488217
Si Si6 0.748341 0.964457 0.615422
Si Si7 0.874300 0.665371 0.108054
Si Si8 0.441309 0.625707 0.246974
O O1 0.250000 0.750000 0.567640
O O2 0.327075 0.750000 0.750000
O O3 0.368626 0.826545 0.552885
O O4 0.353502 0.627738 0.568314
O O5 0.906772 0.524717 0.439791
O O6 0.796811 0.465204 0.534087
O O7 0.900167 0.429871 0.645535
O O8 0.631544 0.867769 0.247501
O O9 0.578516 0.765486 0.415917
O O10 0.512837 0.900194 0.283953
O O11 0.424810 0.920886 0.123386
O O12 0.318648 0.019382 0.078459
O O13 0.407450 0.062890 0.953476
O O14 0.275179 0.157067 0.401689
O O15 0.195423 0.198946 0.568375
O O16 0.750000 0.001787 0.750000
O O17 0.426008 0.750000 0.250000
#
# Coordination Sequence:
#
# PCOD8201745 Si02
#       8
#     8   8   8   8   4   8   8   8
#     4  11  23  38  59  93 134 167 209 265 330 400
#     4  12  23  41  66  92 134 173 215 272 326 392
#     4  11  24  45  62  96 126 174 222 266 320 384
#     4  11  23  40  64  99 124 170 216 265 334 384
#     4  10  21  39  62  94 128 170 204 270 330 386
#     4  11  21  37  61  95 131 166 209 268 328 391
#     4  10  22  41  66  93 132 163 219 267 327 391
#     4  12  24  43  68  90 127 176 223 271 320 386
#
# _framework density 19.938773999999999
#
# number of rings (size 3 to 8) (size 9 to 14) (size 15 to 20)
#    0.000    0.933    6.667    1.400    0.000    1.600 
#    0.000    2.667    0.000    0.000    0.000    0.000 
#    0.000    0.000    0.000    0.000    0.000    0.000 
#
# Total GULP energy -743675.013433 kJ/mol
# GULP energy per Si atom -12394.583557 kJ/mol
# Density = 1.989339 g / cm^3
# Si number density = 19.938774 Si / 1000 Ang^3
#
#
#
# Elastic Constant Matrix: (Units=GPa)
#
#
# Indices 1 2 3 4 5 6 
#
# 1 77.5576 26.9493 27.3746 0.0000 0.0000 0.0000
# 2 26.9493 140.4350 53.6040 0.0000 0.0000 0.0000
# 3 27.3746 53.6040 93.1950 0.0000 0.0000 0.0000
# 4 0.0000 0.0000 0.0000 44.0806 0.0000 0.0000
# 5 0.0000 0.0000 0.0000 0.0000 28.9503 0.0000
# 6 0.0000 0.0000 0.0000 0.0000 0.0000 33.5108
#
#
#
# Elastic Compliance Matrix: (Units=1/GPa)
#
#
# Indices 1 2 3 4 5 6 
#
# 1 0.014626 -0.001495 -0.003436 0.000000 0.000000 0.000000
# 2 -0.001495 0.009277 -0.004897 0.000000 0.000000 0.000000
# 3 -0.003436 -0.004897 0.014556 0.000000 0.000000 0.000000
# 4 0.000000 0.000000 0.000000 0.022686 0.000000 0.000000
# 5 0.000000 0.000000 0.000000 0.000000 0.034542 0.000000
# 6 0.000000 0.000000 0.000000 0.000000 0.000000 0.029841
#
#
# Mechanical properties :
#
#
# Convention : Reuss Voigt Hill
#
# Bulk Modulus (GPa) = 53.18359 58.56037 55.87198
# Shear Modulus (GPa) = 33.01400 34.85897 33.93648
#
# Velocity S-wave (km/s) = 4.07353 4.18580 4.13005
# Velocity P-wave (km/s) = 6.98972 7.26603 7.12921
#
# Compressibility (1/GPa) = 0.01880279
#
# Stress axis : x y z
#
# Youngs Moduli (GPa) = 68.37139 107.79726 68.70045
#
# Poissons Ratio (x) = 0.16117 0.23607
# Poissons Ratio (y) = 0.10222 0.33640
# Poissons Ratio (z) = 0.23494 0.52784
#
# Static dielectric constant tensor:
#      x y z
#    x 12.517250 0.000000 0.000000 
#    y 0.000000 3.990990 0.000000 
#    z 0.000000 0.000000 2.476510 
# 
# 
# High freq. dielectric constant tensor:
#      x y z
#    x 1.764580 0.000000 0.000000 
#    y 0.000000 1.795430 0.000000 
#    z 0.000000 0.000000 1.781860 
# 
# From -- ./inp_files/20312.got.cif
#   From: 2010.06.25/outbox.cif.g09.slc.cpg/sg48_11_cif.got.tgz:20312.got - 2010.06.26 18:06:46.
