data_PCOD8201704
_publ_section_title
;
Structure prediction by ZEFSAII (Michael W. Deem and Ramdas Pophale) SiO2 
 PCOD8201704
Probable space group: P N N N
;
_chemical_formula_sum "Si O2"
_cell_formula_units_Z 48
_cell_length_a 20.837002
_cell_length_b 11.639329
_cell_length_c 9.697913
_cell_angle_alpha 90.000000
_cell_angle_beta 90.000000
_cell_angle_gamma 90.000000
_cell_volume 2352.022443
_symmetry_space_group_name_H-M "P N N N"
_symmetry_group_IT_number 48
_space_group.IT_coordinate_system_code '2'
_symmetry_cell_setting 'orthorhombic'
loop_
_space_group_symop_operation_xyz
x,y,z
1/2-x,1/2-y,z
x,1/2-y,1/2-z
1/2-x,y,1/2-z
-x,-y,-z
1/2+x,1/2+y,-z
-x,1/2+y,1/2+z
1/2+x,-y,1/2+z
loop_
_atom_site_type_symbol
_atom_site_label
_atom_site_fract_x
_atom_site_fract_y
_atom_site_fract_z
Si Si1 0.751570 0.032120 0.911566
Si Si2 0.197246 0.867072 0.663305
Si Si3 0.536711 0.621237 0.760233
Si Si4 0.641588 0.647008 0.539426
Si Si5 0.583895 0.524930 0.294809
Si Si6 0.626076 0.903644 0.502882
O O1 0.750000 0.064437 0.750000
O O2 0.707459 0.923473 0.954240
O O3 0.824877 0.003231 0.950754
O O4 0.724684 0.138738 0.005044
O O5 0.192952 0.750000 0.750000
O O6 0.250000 0.943513 0.750000
O O7 0.126975 0.917264 0.662547
O O8 0.506185 0.750000 0.750000
O O9 0.602720 0.617040 0.676261
O O10 0.488286 0.523013 0.709039
O O11 0.558616 0.590322 0.914949
O O12 0.593591 0.619876 0.412321
O O13 0.659763 0.780725 0.529057
O O14 0.606581 0.580901 0.154150
#
# Coordination Sequence:
#
# PCOD8201704 Si02
#       6
#     8   8   8   8   8   8
#     4  11  21  38  63  90 118 153 191 238 297 352
#     4  10  21  39  60  85 113 150 197 242 286 339
#     4  10  21  37  57  84 115 157 198 239 295 348
#     4  10  22  35  59  88 122 153 192 242 295 348
#     4  11  21  37  58  83 116 159 198 240 287 350
#     4  11  21  36  57  91 120 151 193 244 295 347
#
# _framework density 20.407969999999999
#
# number of rings (size 3 to 8) (size 9 to 14) (size 15 to 20)
#    0.000    1.500    3.333    2.500    0.000    0.667 
#    0.000    3.333    0.000    0.000    0.000    0.000 
#    0.000    0.000    0.000    0.000    0.000    0.000 
#
# Total GULP energy -594834.704688 kJ/mol
# GULP energy per Si atom -12392.389681 kJ/mol
# Density = 2.036152 g / cm^3
# Si number density = 20.407970 Si / 1000 Ang^3
#
#
#
# Elastic Constant Matrix: (Units=GPa)
#
#
# Indices 1 2 3 4 5 6 
#
# 1 57.8351 19.9647 4.9707 0.0000 0.0000 0.0000
# 2 19.9647 56.1880 29.7748 0.0000 0.0000 0.0000
# 3 4.9707 29.7748 131.3463 0.0000 0.0000 0.0000
# 4 0.0000 0.0000 0.0000 29.4435 0.0000 0.0000
# 5 0.0000 0.0000 0.0000 0.0000 24.2488 0.0000
# 6 0.0000 0.0000 0.0000 0.0000 0.0000 21.9989
#
#
#
# Elastic Compliance Matrix: (Units=1/GPa)
#
#
# Indices 1 2 3 4 5 6 
#
# 1 0.019814 -0.007550 0.000962 0.000000 0.000000 0.000000
# 2 -0.007550 0.023104 -0.004952 0.000000 0.000000 0.000000
# 3 0.000962 -0.004952 0.008700 0.000000 0.000000 0.000000
# 4 0.000000 0.000000 0.000000 0.033963 0.000000 0.000000
# 5 0.000000 0.000000 0.000000 0.000000 0.041239 0.000000
# 6 0.000000 0.000000 0.000000 0.000000 0.000000 0.045457
#
#
# Mechanical properties :
#
#
# Convention : Reuss Voigt Hill
#
# Bulk Modulus (GPa) = 35.04135 39.42107 37.23121
# Shear Modulus (GPa) = 24.40578 27.84886 26.12732
#
# Velocity S-wave (km/s) = 3.46192 3.69807 3.58194
# Velocity P-wave (km/s) = 5.76087 6.13129 5.94896
#
# Compressibility (1/GPa) = 0.02853772
#
# Stress axis : x y z
#
# Youngs Moduli (GPa) = 50.46903 43.28255 114.94823
#
# Poissons Ratio (x) = 0.32678 -0.11054
# Poissons Ratio (y) = 0.38104 0.56919
# Poissons Ratio (z) = -0.04853 0.21432
#
# Static dielectric constant tensor:
#      x y z
#    x 3.849330 0.000000 0.000000 
#    y 0.000000 3.489970 0.000000 
#    z 0.000000 0.000000 3.968220 
# 
# 
# High freq. dielectric constant tensor:
#      x y z
#    x 1.795210 0.000000 0.000000 
#    y 0.000000 1.774620 0.000000 
#    z 0.000000 0.000000 1.816240 
# 
# From -- ./inp_files/15888.got.cif
#   From: 2010.06.25/outbox.cif.g09.slc.cpg/sg48_8_cif.got.tgz:15888.got - 2010.06.26 18:06:46.
