data_PCOD8201314
_publ_section_title
;
Structure prediction by ZEFSAII (Michael W. Deem and Ramdas Pophale) SiO2 
 PCOD8201314
Probable space group: P N N N
;
_chemical_formula_sum "Si O2"
_cell_formula_units_Z 44
_cell_length_a 9.370993
_cell_length_b 13.584785
_cell_length_c 18.703620
_cell_angle_alpha 90.000000
_cell_angle_beta 90.000000
_cell_angle_gamma 90.000000
_cell_volume 2381.025537
_symmetry_space_group_name_H-M "P N N N"
_symmetry_group_IT_number 48
_space_group.IT_coordinate_system_code '2'
_symmetry_cell_setting 'orthorhombic'
loop_
_space_group_symop_operation_xyz
x,y,z
1/2-x,1/2-y,z
x,1/2-y,1/2-z
1/2-x,y,1/2-z
-x,-y,-z
1/2+x,1/2+y,-z
-x,1/2+y,1/2+z
1/2+x,-y,1/2+z
loop_
_atom_site_type_symbol
_atom_site_label
_atom_site_fract_x
_atom_site_fract_y
_atom_site_fract_z
Si Si1 0.750000 0.750000 0.250000
Si Si2 0.549969 0.440320 0.206726
Si Si3 0.250000 0.750000 0.250000
Si Si4 0.321738 0.644528 0.659030
Si Si5 0.502685 0.621301 0.300146
Si Si6 0.973392 0.967139 0.579993
Si Si7 0.229466 0.365036 0.334002
O O1 0.645063 0.687227 0.300604
O O2 0.566274 0.366074 0.275077
O O3 0.701874 0.440644 0.166590
O O4 0.506982 0.549841 0.230872
O O5 0.434515 0.395120 0.151869
O O6 0.355236 0.683437 0.298705
O O7 0.250000 0.750000 0.656832
O O8 0.412246 0.621718 0.588672
O O9 0.511142 0.561439 0.372959
O O10 0.820669 0.926323 0.607622
O O11 0.000000 0.000000 0.500000
O O12 0.250000 0.250000 0.347144
O O13 0.250000 0.395728 0.250000
#
# Coordination Sequence:
#
# PCOD8201314 Si02
#       7
#     2   8   2   8   8   8   8
#     4  10  20  34  60  82  98 138 198 246 268 310
#     4  10  18  31  58  88 115 138 182 244 299 334
#     4  10  20  34  60  82 102 134 200 252 272 310
#     4  10  19  32  56  88 118 145 185 235 295 353
#     4  10  19  35  54  82 107 140 188 236 282 324
#     4  11  23  41  56  79 124 163 186 230 300 364
#     4  11  20  33  61  92 117 143 195 247 294 350
#
# _framework density 18.479431999999999
#
# number of rings (size 3 to 8) (size 9 to 14) (size 15 to 20)
#    0.000    1.636    3.636    5.455    2.545    0.000 
#    3.273    0.909    0.000    0.000    0.000    0.000 
#    0.000    0.000    0.000    0.000    0.000    0.000 
#
# Total GULP energy -545165.650258 kJ/mol
# GULP energy per Si atom -12390.128415 kJ/mol
# Density = 1.843737 g / cm^3
# Si number density = 18.479432 Si / 1000 Ang^3
#
#
#
# Elastic Constant Matrix: (Units=GPa)
#
#
# Indices 1 2 3 4 5 6 
#
# 1 135.7542 62.1696 56.6220 0.0000 0.0000 0.0000
# 2 62.1696 110.6980 32.0041 0.0000 0.0000 0.0000
# 3 56.6220 32.0041 80.7431 0.0000 0.0000 0.0000
# 4 0.0000 0.0000 0.0000 15.4724 0.0000 0.0000
# 5 0.0000 0.0000 0.0000 0.0000 14.9060 0.0000
# 6 0.0000 0.0000 0.0000 0.0000 0.0000 39.9882
#
#
#
# Elastic Compliance Matrix: (Units=1/GPa)
#
#
# Indices 1 2 3 4 5 6 
#
# 1 0.012509 -0.005070 -0.006762 0.000000 0.000000 0.000000
# 2 -0.005070 0.012258 -0.001303 0.000000 0.000000 0.000000
# 3 -0.006762 -0.001303 0.017644 0.000000 0.000000 0.000000
# 4 0.000000 0.000000 0.000000 0.064631 0.000000 0.000000
# 5 0.000000 0.000000 0.000000 0.000000 0.067087 0.000000
# 6 0.000000 0.000000 0.000000 0.000000 0.000000 0.025007
#
#
# Mechanical properties :
#
#
# Convention : Reuss Voigt Hill
#
# Bulk Modulus (GPa) = 61.96126 69.86518 65.91322
# Shear Modulus (GPa) = 21.66509 25.83329 23.74919
#
# Velocity S-wave (km/s) = 3.42773 3.74297 3.58881
# Velocity P-wave (km/s) = 7.01915 7.52123 7.27452
#
# Compressibility (1/GPa) = 0.01613912
#
# Stress axis : x y z
#
# Youngs Moduli (GPa) = 79.94556 81.58128 56.67788
#
# Poissons Ratio (x) = 0.41361 0.38327
# Poissons Ratio (y) = 0.40532 0.07387
# Poissons Ratio (z) = 0.54060 0.10632
#
# Static dielectric constant tensor:
#      x y z
#    x 3.962610 0.000000 0.000000 
#    y 0.000000 3.584570 0.000000 
#    z 0.000000 0.000000 2.943990 
# 
# 
# High freq. dielectric constant tensor:
#      x y z
#    x 1.746360 0.000000 0.000000 
#    y 0.000000 1.726160 0.000000 
#    z 0.000000 0.000000 1.646400 
# 
# From -- ./inp_files/30216.got.cif
#   From: 2010.06.25/outbox.cif.g09.slc.cpg/sg48_16_cif.got.tgz:30216.got - 2010.06.26 18:06:46.
