data_PCOD8201225
_publ_section_title
;
Structure prediction by ZEFSAII (Michael W. Deem and Ramdas Pophale) SiO2 
 PCOD8201225
Probable space group: P M M M
;
_chemical_formula_sum "Si O2"
_cell_formula_units_Z 32
_cell_length_a 7.784118
_cell_length_b 22.640256
_cell_length_c 9.290529
_cell_angle_alpha 90.000000
_cell_angle_beta 90.000000
_cell_angle_gamma 90.000000
_cell_volume 1637.311029
_symmetry_space_group_name_H-M "P M M M"
_symmetry_group_IT_number 47
_symmetry_cell_setting 'orthorhombic'
loop_
_space_group_symop_operation_xyz
x,y,z
-x,-y,z
x,-y,-z
-x,y,-z
-x,-y,-z
x,y,-z
-x,y,z
x,-y,z
loop_
_atom_site_type_symbol
_atom_site_label
_atom_site_fract_x
_atom_site_fract_y
_atom_site_fract_z
Si Si1 0.696960 0.849790 0.668903
Si Si2 0.798557 0.500000 0.662959
Si Si3 0.703573 0.266612 0.160727
Si Si4 0.300693 0.624811 0.660663
Si Si5 0.000000 0.934323 0.670346
O O1 0.715691 0.836841 0.500000
O O2 0.500000 0.867738 0.706723
O O3 0.756876 0.791285 0.751358
O O4 0.825715 0.901395 0.720510
O O5 0.728141 0.500000 0.500000
O O6 0.729488 0.439472 0.735245
O O7 0.000000 0.500000 0.672513
O O8 0.500000 0.271844 0.152648
O O9 0.782756 0.324148 0.240538
O O10 0.781404 0.263099 0.000000
O O11 0.216708 0.626334 0.500000
O O12 0.500000 0.638147 0.646806
O O13 0.000000 0.938702 0.500000
O O14 0.000000 0.000000 0.738490
#
# Coordination Sequence:
#
# PCOD8201225 Si02
#       5
#     8   4   8   8   4
#     4   9  17  31  52  76 102 133 167 203 245 292
#     4   9  17  29  44  65  92 120 154 197 242 290
#     4   9  17  30  49  72  97 125 160 203 248 292
#     4   9  16  28  48  70  91 119 157 199 243 293
#     4   9  18  32  51  79 109 132 163 206 245 287
#
# _framework density 19.544241
#
# number of rings (size 3 to 8) (size 9 to 14) (size 15 to 20)
#    0.000    3.000    0.000    1.125    0.000    5.000 
#    2.250    3.750    0.000    5.250    0.000    3.500 
#    0.000    0.000    0.000    0.000    0.000    0.000 
#
# Total GULP energy -396605.300368 kJ/mol
# GULP energy per Si atom -12393.915637 kJ/mol
# Density = 1.949976 g / cm^3
# Si number density = 19.544241 Si / 1000 Ang^3
#
#
#
# Elastic Constant Matrix: (Units=GPa)
#
#
# Indices 1 2 3 4 5 6 
#
# 1 63.5411 55.1246 22.4679 0.0000 0.0000 0.0000
# 2 55.1246 209.3164 66.2925 0.0000 0.0000 0.0000
# 3 22.4679 66.2925 73.7073 0.0000 0.0000 0.0000
# 4 0.0000 0.0000 0.0000 4.4746 0.0000 0.0000
# 5 0.0000 0.0000 0.0000 0.0000 6.7474 0.0000
# 6 0.0000 0.0000 0.0000 0.0000 0.0000 8.5339
#
#
#
# Elastic Compliance Matrix: (Units=1/GPa)
#
#
# Indices 1 2 3 4 5 6 
#
# 1 0.020598 -0.004805 -0.001958 0.000000 0.000000 0.000000
# 2 -0.004805 0.007801 -0.005552 0.000000 0.000000 0.000000
# 3 -0.001958 -0.005552 0.019157 0.000000 0.000000 0.000000
# 4 0.000000 0.000000 0.000000 0.223481 0.000000 0.000000
# 5 0.000000 0.000000 0.000000 0.000000 0.148204 0.000000
# 6 0.000000 0.000000 0.000000 0.000000 0.000000 0.117180
#
#
# Mechanical properties :
#
#
# Convention : Reuss Voigt Hill
#
# Bulk Modulus (GPa) = 43.61366 70.48165 57.04765
# Shear Modulus (GPa) = 8.79209 17.46317 13.12763
#
# Velocity S-wave (km/s) = 2.12328 2.99242 2.59451
# Velocity P-wave (km/s) = 5.32681 6.93400 6.18285
#
# Compressibility (1/GPa) = 0.02292860
#
# Stress axis : x y z
#
# Youngs Moduli (GPa) = 48.54763 128.18727 52.19998
#
# Poissons Ratio (x) = 0.61590 0.10218
# Poissons Ratio (y) = 0.23326 0.28980
# Poissons Ratio (z) = 0.09503 0.71166
#
# Static dielectric constant tensor:
#      x y z
#    x 3.303810 0.000000 0.000000 
#    y 0.000000 3.842220 0.000000 
#    z 0.000000 0.000000 3.476310 
# 
# 
# High freq. dielectric constant tensor:
#      x y z
#    x 1.744510 0.000000 0.000000 
#    y 0.000000 1.768830 0.000000 
#    z 0.000000 0.000000 1.719400 
# 
# From -- ./inp_files/1292.got.cif
#   From: 2010.03.12/outbox.cif.g09.slc.cpg/sg47_1_cif.got.tgz:1292.got - 2010.04.14 03:12:58.
