data_PCOD8201840
_publ_section_title
;
Structure prediction by ZEFSAII (Michael W. Deem and Ramdas Pophale) SiO2 
 PCOD8201840
Probable space group: P N N N
;
_chemical_formula_sum "Si O2"
_cell_formula_units_Z 26
_cell_length_a 9.989678
_cell_length_b 4.975803
_cell_length_c 22.726783
_cell_angle_alpha 90.000000
_cell_angle_beta 90.000000
_cell_angle_gamma 90.000000
_cell_volume 1129.672697
_symmetry_space_group_name_H-M "P N N N"
_symmetry_group_IT_number 48
_space_group.IT_coordinate_system_code '2'
_symmetry_cell_setting 'orthorhombic'
loop_
_space_group_symop_operation_xyz
x,y,z
1/2-x,1/2-y,z
x,1/2-y,1/2-z
1/2-x,y,1/2-z
-x,-y,-z
1/2+x,1/2+y,-z
-x,1/2+y,1/2+z
1/2+x,-y,1/2+z
loop_
_atom_site_type_symbol
_atom_site_label
_atom_site_fract_x
_atom_site_fract_y
_atom_site_fract_z
Si Si1 0.250000 0.250000 0.475078
Si Si2 0.023760 0.132404 0.382913
Si Si3 0.250000 0.250000 0.750000
Si Si4 0.750000 0.250000 0.055217
Si Si5 0.493672 0.622355 0.191978
O O1 0.123958 0.164290 0.436527
O O2 0.208570 0.498742 0.515307
O O3 0.063078 0.335200 0.329202
O O4 0.874447 0.189432 0.403288
O O5 0.030437 0.827089 0.361389
O O6 0.348258 0.424520 0.792187
O O7 0.420785 0.750000 0.250000
#
# Coordination Sequence:
#
# PCOD8201840 Si02
#       5
#     4   8   2   4   8
#     4  12  26  43  61  92 131 164 211 262 306 376
#     4  12  23  42  65  94 125 169 204 257 320 361
#     4   8  20  36  64  88 132 142 214 244 304 334
#     4  12  24  42  67  90 121 168 220 260 304 360
#     4  10  22  38  64  96 126 157 205 261 303 376
#
# _framework density 23.015515000000001
#
# number of rings (size 3 to 8) (size 9 to 14) (size 15 to 20)
#    0.923    0.000    0.000    8.308    0.000    1.231 
#    0.000    4.615    0.000    0.000    0.000    0.000 
#    0.000    0.000    0.000    0.000    0.000    0.000 
#
# Total GULP energy -322314.582400 kJ/mol
# GULP energy per Si atom -12396.714708 kJ/mol
# Density = 2.296313 g / cm^3
# Si number density = 23.015515 Si / 1000 Ang^3
#
#
#
# Elastic Constant Matrix: (Units=GPa)
#
#
# Indices 1 2 3 4 5 6 
#
# 1 54.2093 -1.7244 7.8467 0.0000 0.0000 0.0000
# 2 -1.7244 93.1067 13.6073 0.0000 0.0000 0.0000
# 3 7.8467 13.6073 79.8416 0.0000 0.0000 0.0000
# 4 0.0000 0.0000 0.0000 41.5739 0.0000 0.0000
# 5 0.0000 0.0000 0.0000 0.0000 -1.8785 0.0000
# 6 0.0000 0.0000 0.0000 0.0000 0.0000 7.0062
#
#
#
# Elastic Compliance Matrix: (Units=1/GPa)
#
#
# Indices 1 2 3 4 5 6 
#
# 1 0.018749 0.000632 -0.001950 0.000000 0.000000 0.000000
# 2 0.000632 0.011036 -0.001943 0.000000 0.000000 0.000000
# 3 -0.001950 -0.001943 0.013048 0.000000 0.000000 0.000000
# 4 0.000000 0.000000 0.000000 0.024054 0.000000 0.000000
# 5 0.000000 0.000000 0.000000 0.000000 -0.532341 0.000000
# 6 0.000000 0.000000 0.000000 0.000000 0.000000 0.142730
#
#
# Mechanical properties :
#
#
# Convention : Reuss Voigt Hill
#
# Bulk Modulus (GPa) = 27.53995 29.62408 28.58201
# Shear Modulus (GPa) = -16.44206 23.16886 3.36340
#
# Velocity S-wave (km/s) = -2.67571 3.17624 1.21018
# Velocity P-wave (km/s) = 1.56394 5.13328 3.79450
#
# Compressibility (1/GPa) = 0.03631089
#
# Stress axis : x y z
#
# Youngs Moduli (GPa) = 53.33484 90.61225 76.64227
#
# Poissons Ratio (x) = -0.05730 0.14949
# Poissons Ratio (y) = -0.03372 0.14892
# Poissons Ratio (z) = 0.10403 0.17606
#
# Static dielectric constant tensor:
#      x y z
#    x 3.836740 0.000000 0.000000 
#    y 0.000000 4.163060 0.000000 
#    z 0.000000 0.000000 4.288340 
# 
# 
# High freq. dielectric constant tensor:
#      x y z
#    x 1.887520 0.000000 0.000000 
#    y 0.000000 1.912850 0.000000 
#    z 0.000000 0.000000 1.927110 
# 
# From -- ./inp_files/32595.got.cif
#   From: 2010.06.25/outbox.cif.g09.slc.cpg/sg48_17_cif.got.tgz:32595.got - 2010.06.26 18:06:46.
