data_PCOD8201458
_publ_section_title
;
Structure prediction by ZEFSAII (Michael W. Deem and Ramdas Pophale) SiO2 
 PCOD8201458
Probable space group: P N N N
;
_chemical_formula_sum "Si O2"
_cell_formula_units_Z 44
_cell_length_a 6.582141
_cell_length_b 12.329514
_cell_length_c 25.609449
_cell_angle_alpha 90.000000
_cell_angle_beta 90.000000
_cell_angle_gamma 90.000000
_cell_volume 2078.324580
_symmetry_space_group_name_H-M "P N N N"
_symmetry_group_IT_number 48
_space_group.IT_coordinate_system_code '2'
_symmetry_cell_setting 'orthorhombic'
loop_
_space_group_symop_operation_xyz
x,y,z
1/2-x,1/2-y,z
x,1/2-y,1/2-z
1/2-x,y,1/2-z
-x,-y,-z
1/2+x,1/2+y,-z
-x,1/2+y,1/2+z
1/2+x,-y,1/2+z
loop_
_atom_site_type_symbol
_atom_site_label
_atom_site_fract_x
_atom_site_fract_y
_atom_site_fract_z
Si Si1 0.985708 0.080997 0.925365
Si Si2 0.870761 0.564591 0.200455
Si Si3 0.250000 0.750000 0.907795
Si Si4 0.032712 0.914311 0.840022
Si Si5 0.250000 0.461309 0.250000
Si Si6 0.250000 0.250000 0.873537
Si Si7 0.696676 0.064373 0.014926
O O1 0.075920 0.195746 0.908184
O O2 0.923894 0.005502 0.876004
O O3 0.153817 0.018853 0.958132
O O4 0.792928 0.108753 0.961193
O O5 0.750000 0.610382 0.250000
O O6 0.752732 0.458671 0.178555
O O7 0.873423 0.660549 0.158896
O O8 0.100988 0.536236 0.215713
O O9 0.073756 0.803365 0.871817
O O10 0.356859 0.838844 0.944964
O O11 0.885914 0.889684 0.790330
O O12 0.500000 0.000000 0.000000
#
# Coordination Sequence:
#
# PCOD8201458 Si02
#       7
#     8   8   4   8   4   4   8
#     4   9  21  39  58  89 126 160 208 263 316 383
#     4   9  19  38  60  90 129 165 205 267 316 375
#     4  10  22  42  67  92 126 167 208 266 324 368
#     4   9  20  41  62  90 128 163 211 265 319 377
#     4  10  20  40  66  88 126 174 216 261 319 388
#     4  10  19  36  64  90 128 164 208 267 326 378
#     4  10  22  41  62  90 125 164 210 261 320 382
#
# _framework density 21.170897
#
# number of rings (size 3 to 8) (size 9 to 14) (size 15 to 20)
#    0.000    2.545    0.000    0.273    2.545    4.364 
#    0.000   28.636    0.000    2.182    0.000    0.000 
#    0.000    0.000    0.000    0.000    0.000    0.000 
#
# Total GULP energy -545552.184802 kJ/mol
# GULP energy per Si atom -12398.913291 kJ/mol
# Density = 2.112271 g / cm^3
# Si number density = 21.170897 Si / 1000 Ang^3
#
#
#
# Elastic Constant Matrix: (Units=GPa)
#
#
# Indices 1 2 3 4 5 6 
#
# 1 115.1668 58.4677 70.5748 0.0000 0.0000 0.0000
# 2 58.4677 117.9485 68.9883 0.0000 0.0000 0.0000
# 3 70.5748 68.9883 147.2448 0.0000 0.0000 0.0000
# 4 0.0000 0.0000 0.0000 33.0396 0.0000 0.0000
# 5 0.0000 0.0000 0.0000 0.0000 40.4093 0.0000
# 6 0.0000 0.0000 0.0000 0.0000 0.0000 14.5687
#
#
#
# Elastic Compliance Matrix: (Units=1/GPa)
#
#
# Indices 1 2 3 4 5 6 
#
# 1 0.013549 -0.004019 -0.004611 0.000000 0.000000 0.000000
# 2 -0.004019 0.012871 -0.004104 0.000000 0.000000 0.000000
# 3 -0.004611 -0.004104 0.010924 0.000000 0.000000 0.000000
# 4 0.000000 0.000000 0.000000 0.030267 0.000000 0.000000
# 5 0.000000 0.000000 0.000000 0.000000 0.024747 0.000000
# 6 0.000000 0.000000 0.000000 0.000000 0.000000 0.068640
#
#
# Mechanical properties :
#
#
# Convention : Reuss Voigt Hill
#
# Bulk Modulus (GPa) = 84.20400 86.26907 85.23653
# Shear Modulus (GPa) = 26.25694 29.75881 28.00787
#
# Velocity S-wave (km/s) = 3.52552 3.75326 3.64117
# Velocity P-wave (km/s) = 7.51214 7.72140 7.61749
#
# Compressibility (1/GPa) = 0.01187592
#
# Stress axis : x y z
#
# Youngs Moduli (GPa) = 73.80465 77.69304 91.53925
#
# Poissons Ratio (x) = 0.31229 0.42208
# Poissons Ratio (y) = 0.29666 0.37567
# Poissons Ratio (z) = 0.34031 0.31885
#
# Static dielectric constant tensor:
#      x y z
#    x 3.663490 0.000000 0.000000 
#    y 0.000000 3.657670 0.000000 
#    z 0.000000 0.000000 4.391810 
# 
# 
# High freq. dielectric constant tensor:
#      x y z
#    x 1.810520 0.000000 0.000000 
#    y 0.000000 1.814820 0.000000 
#    z 0.000000 0.000000 1.855930 
# 
# From -- ./inp_files/37077.got.cif
#   From: 2010.06.25/outbox.cif.g09.slc.cpg/sg48_19_cif.got.tgz:37077.got - 2010.06.26 18:06:46.
