data_PCOD8201722
_publ_section_title
;
Structure prediction by ZEFSAII (Michael W. Deem and Ramdas Pophale) SiO2 
 PCOD8201722
Probable space group: P N N N
;
_chemical_formula_sum "Si O2"
_cell_formula_units_Z 48
_cell_length_a 8.643651
_cell_length_b 17.983235
_cell_length_c 15.081328
_cell_angle_alpha 90.000000
_cell_angle_beta 90.000000
_cell_angle_gamma 90.000000
_cell_volume 2344.253798
_symmetry_space_group_name_H-M "P N N N"
_symmetry_group_IT_number 48
_space_group.IT_coordinate_system_code '2'
_symmetry_cell_setting 'orthorhombic'
loop_
_space_group_symop_operation_xyz
x,y,z
1/2-x,1/2-y,z
x,1/2-y,1/2-z
1/2-x,y,1/2-z
-x,-y,-z
1/2+x,1/2+y,-z
-x,1/2+y,1/2+z
1/2+x,-y,1/2+z
loop_
_atom_site_type_symbol
_atom_site_label
_atom_site_fract_x
_atom_site_fract_y
_atom_site_fract_z
Si Si1 0.182980 0.401957 0.343163
Si Si2 0.888355 0.467687 0.922078
Si Si3 0.670157 0.099343 0.338310
Si Si4 0.184550 0.670783 0.483303
Si Si5 0.809789 0.942012 0.345398
Si Si6 0.829922 0.673373 0.477507
O O1 0.250000 0.372447 0.250000
O O2 0.273034 0.472276 0.381733
O O3 0.192220 0.337176 0.416815
O O4 0.006774 0.424169 0.323370
O O5 0.003646 0.441548 0.843659
O O6 0.786620 0.396354 0.946655
O O7 0.000000 0.500000 0.000000
O O8 0.750000 0.130875 0.250000
O O9 0.686929 0.164175 0.410257
O O10 0.755006 0.024763 0.369969
O O11 0.250000 0.750000 0.453561
O O12 0.008779 0.668568 0.448733
O O13 0.750000 0.914397 0.250000
O O14 0.754660 0.891242 0.425227
O O15 0.750000 0.750000 0.449320
#
# Coordination Sequence:
#
# PCOD8201722 Si02
#       6
#     8   8   8   8   8   8
#     4  11  23  38  65  96 125 167 220 270 327 395
#     4  12  22  40  67  95 131 169 218 278 325 394
#     4  10  21  38  60  91 127 165 217 272 324 388
#     4  11  24  39  62  90 125 174 217 263 335 402
#     4  11  22  39  66  92 125 169 217 268 327 387
#     4  11  24  42  62  90 133 173 216 271 336 399
#
# _framework density 20.475598999999999
#
# number of rings (size 3 to 8) (size 9 to 14) (size 15 to 20)
#    0.000    1.000    3.333    4.000    0.000    3.667 
#    0.000    3.333    0.000    3.500    0.000    0.000 
#    0.000    0.000    0.000    0.000    0.000    0.000 
#
# Total GULP energy -595109.737669 kJ/mol
# GULP energy per Si atom -12398.119535 kJ/mol
# Density = 2.042900 g / cm^3
# Si number density = 20.475599 Si / 1000 Ang^3
#
#
#
# Elastic Constant Matrix: (Units=GPa)
#
#
# Indices 1 2 3 4 5 6 
#
# 1 161.4828 26.6144 28.3662 0.0000 0.0000 0.0000
# 2 26.6144 54.6053 2.1169 0.0000 0.0000 0.0000
# 3 28.3662 2.1169 67.4398 0.0000 0.0000 0.0000
# 4 0.0000 0.0000 0.0000 19.5938 0.0000 0.0000
# 5 0.0000 0.0000 0.0000 0.0000 44.4066 0.0000
# 6 0.0000 0.0000 0.0000 0.0000 0.0000 27.4854
#
#
#
# Elastic Compliance Matrix: (Units=1/GPa)
#
#
# Indices 1 2 3 4 5 6 
#
# 1 0.007277 -0.003432 -0.002953 0.000000 0.000000 0.000000
# 2 -0.003432 0.019954 0.000817 0.000000 0.000000 0.000000
# 3 -0.002953 0.000817 0.016045 0.000000 0.000000 0.000000
# 4 0.000000 0.000000 0.000000 0.051037 0.000000 0.000000
# 5 0.000000 0.000000 0.000000 0.000000 0.022519 0.000000
# 6 0.000000 0.000000 0.000000 0.000000 0.000000 0.036383
#
#
# Mechanical properties :
#
#
# Convention : Reuss Voigt Hill
#
# Bulk Modulus (GPa) = 31.11404 44.19143 37.65274
# Shear Modulus (GPa) = 28.56095 33.39251 30.97673
#
# Velocity S-wave (km/s) = 3.73886 4.04275 3.89377
# Velocity P-wave (km/s) = 5.81957 6.58947 6.21645
#
# Compressibility (1/GPa) = 0.03213983
#
# Stress axis : x y z
#
# Youngs Moduli (GPa) = 137.41845 50.11410 62.32664
#
# Poissons Ratio (x) = 0.17201 0.18406
# Poissons Ratio (y) = 0.47166 -0.05094
# Poissons Ratio (z) = 0.40581 -0.04096
#
# Static dielectric constant tensor:
#      x y z
#    x 4.130160 0.000000 0.000000 
#    y 0.000000 3.469830 0.000000 
#    z 0.000000 0.000000 3.772880 
# 
# 
# High freq. dielectric constant tensor:
#      x y z
#    x 1.826740 0.000000 0.000000 
#    y 0.000000 1.785400 0.000000 
#    z 0.000000 0.000000 1.797090 
# 
# From -- ./inp_files/12756.got.cif
#   From: 2010.06.25/outbox.cif.g09.slc.cpg/sg48_7_cif.got.tgz:12756.got - 2010.06.26 18:06:46.
