data_PCOD8201515
_publ_section_title
;
Structure prediction by ZEFSAII (Michael W. Deem and Ramdas Pophale) SiO2 
 PCOD8201515
Probable space group: P N N N
;
_chemical_formula_sum "Si O2"
_cell_formula_units_Z 48
_cell_length_a 18.173251
_cell_length_b 11.291257
_cell_length_c 10.871122
_cell_angle_alpha 90.000000
_cell_angle_beta 90.000000
_cell_angle_gamma 90.000000
_cell_volume 2230.741706
_symmetry_space_group_name_H-M "P N N N"
_symmetry_group_IT_number 48
_space_group.IT_coordinate_system_code '2'
_symmetry_cell_setting 'orthorhombic'
loop_
_space_group_symop_operation_xyz
x,y,z
1/2-x,1/2-y,z
x,1/2-y,1/2-z
1/2-x,y,1/2-z
-x,-y,-z
1/2+x,1/2+y,-z
-x,1/2+y,1/2+z
1/2+x,-y,1/2+z
loop_
_atom_site_type_symbol
_atom_site_label
_atom_site_fract_x
_atom_site_fract_y
_atom_site_fract_z
Si Si1 0.750000 0.543661 0.750000
Si Si2 0.200215 0.859166 0.442711
Si Si3 0.891208 0.250000 0.250000
Si Si4 0.635155 0.750000 0.750000
Si Si5 0.673698 0.020531 0.198782
Si Si6 0.986159 0.826997 0.582746
Si Si7 0.087352 0.750000 0.250000
Si Si8 0.020849 0.420693 0.819518
O O1 0.745713 0.455835 0.634239
O O2 0.680431 0.629134 0.764046
O O3 0.250000 0.750000 0.489037
O O4 0.170491 0.935932 0.557040
O O5 0.135808 0.797991 0.362981
O O6 0.840329 0.362577 0.279862
O O7 0.939872 0.238465 0.373327
O O8 0.585591 0.743601 0.627684
O O9 0.750000 0.963960 0.250000
O O10 0.606672 0.928837 0.220531
O O11 0.984098 0.834122 0.437070
O O12 0.985422 0.953994 0.649374
O O13 0.031126 0.640863 0.283952
#
# Coordination Sequence:
#
# PCOD8201515 Si02
#       8
#     4   8   4   4   8   8   4   8
#     4  11  21  38  54  98 125 171 216 258 334 387
#     4  12  23  40  67  97 130 169 220 276 333 380
#     4   9  17  33  61  93 109 152 212 254 318 368
#     4  10  20  33  63  84 130 172 208 264 324 408
#     4  11  23  41  64  91 127 171 214 266 324 395
#     4   9  18  37  61  88 122 163 214 266 314 389
#     4  12  21  38  63  92 128 162 212 274 319 390
#     4  10  21  37  62  90 123 174 217 265 331 372
#
# _framework density 21.517507999999999
#
# number of rings (size 3 to 8) (size 9 to 14) (size 15 to 20)
#    0.000    1.500    1.667    6.250    0.000    0.000 
#    3.000    0.417    0.000    7.000    0.000    0.000 
#    0.000    0.000    0.000    0.000    0.000    0.000 
#
# Total GULP energy -594801.553809 kJ/mol
# GULP energy per Si atom -12391.699038 kJ/mol
# Density = 2.146853 g / cm^3
# Si number density = 21.517508 Si / 1000 Ang^3
#
#
#
# Elastic Constant Matrix: (Units=GPa)
#
#
# Indices 1 2 3 4 5 6 
#
# 1 103.8754 6.5844 15.4943 0.0000 0.0000 0.0000
# 2 6.5844 55.4746 13.4948 0.0000 0.0000 0.0000
# 3 15.4943 13.4948 63.0274 0.0000 0.0000 0.0000
# 4 0.0000 0.0000 0.0000 24.0737 0.0000 0.0000
# 5 0.0000 0.0000 0.0000 0.0000 23.8595 0.0000
# 6 0.0000 0.0000 0.0000 0.0000 0.0000 -8.1917
#
#
#
# Elastic Compliance Matrix: (Units=1/GPa)
#
#
# Indices 1 2 3 4 5 6 
#
# 1 0.010014 -0.000622 -0.002329 0.000000 0.000000 0.000000
# 2 -0.000622 0.019055 -0.003927 0.000000 0.000000 0.000000
# 3 -0.002329 -0.003927 0.017279 0.000000 0.000000 0.000000
# 4 0.000000 0.000000 0.000000 0.041539 0.000000 0.000000
# 5 0.000000 0.000000 0.000000 0.000000 0.041912 0.000000
# 6 0.000000 0.000000 0.000000 0.000000 0.000000 -0.122075
#
#
# Mechanical properties :
#
#
# Convention : Reuss Voigt Hill
#
# Bulk Modulus (GPa) = 30.68129 32.61384 31.64757
# Shear Modulus (GPa) = 154.58906 20.40190 87.49548
#
# Velocity S-wave (km/s) = 8.48524 3.08255 6.38363
# Velocity P-wave (km/s) = 10.50185 5.27819 8.31108
#
# Compressibility (1/GPa) = 0.03259315
#
# Stress axis : x y z
#
# Youngs Moduli (GPa) = 99.86340 52.47855 57.87255
#
# Poissons Ratio (x) = 0.03265 0.13476
# Poissons Ratio (y) = 0.06213 0.22727
# Poissons Ratio (z) = 0.23253 0.20608
#
# Static dielectric constant tensor:
#      x y z
#    x 4.233560 0.000000 0.000000 
#    y 0.000000 4.042470 0.000000 
#    z 0.000000 0.000000 3.788510 
# 
# 
# High freq. dielectric constant tensor:
#      x y z
#    x 1.868330 0.000000 0.000000 
#    y 0.000000 1.836550 0.000000 
#    z 0.000000 0.000000 1.817600 
# 
# From -- ./inp_files/22192.got.cif
#   From: 2010.06.25/outbox.cif.g09.slc.cpg/sg48_12_cif.got.tgz:22192.got - 2010.06.26 18:06:46.
