data_PCOD8201457
_publ_section_title
;
Structure prediction by ZEFSAII (Michael W. Deem and Ramdas Pophale) SiO2 
 PCOD8201457
Probable space group: P N N N
;
_chemical_formula_sum "Si O2"
_cell_formula_units_Z 40
_cell_length_a 8.916901
_cell_length_b 11.845456
_cell_length_c 16.809860
_cell_angle_alpha 90.000000
_cell_angle_beta 90.000000
_cell_angle_gamma 90.000000
_cell_volume 1775.537402
_symmetry_space_group_name_H-M "P N N N"
_symmetry_group_IT_number 48
_space_group.IT_coordinate_system_code '2'
_symmetry_cell_setting 'orthorhombic'
loop_
_space_group_symop_operation_xyz
x,y,z
1/2-x,1/2-y,z
x,1/2-y,1/2-z
1/2-x,y,1/2-z
-x,-y,-z
1/2+x,1/2+y,-z
-x,1/2+y,1/2+z
1/2+x,-y,1/2+z
loop_
_atom_site_type_symbol
_atom_site_label
_atom_site_fract_x
_atom_site_fract_y
_atom_site_fract_z
Si Si1 0.241325 0.002385 0.011856
Si Si2 0.636357 0.442601 0.679424
Si Si3 0.396178 0.180277 0.900409
Si Si4 0.982589 0.172997 0.031981
Si Si5 0.915285 0.801333 0.673473
O O1 0.122115 0.090268 0.047262
O O2 0.305201 0.938313 0.088756
O O3 0.357845 0.072610 0.957654
O O4 0.167188 0.902012 0.960066
O O5 0.750000 0.401982 0.750000
O O6 0.488243 0.362256 0.677313
O O7 0.587098 0.568721 0.695753
O O8 0.250000 0.250000 0.872266
O O9 0.503203 0.268091 0.946551
O O10 0.983937 0.272820 0.097037
O O11 0.750000 0.750000 0.661043
O O12 0.996532 0.750000 0.750000
#
# Coordination Sequence:
#
# PCOD8201457 Si02
#       5
#     8   8   8   8   8
#     4  10  20  36  64  98 132 183 227 278 335 409
#     4  12  22  38  68 104 136 173 232 282 348 419
#     4  10  22  42  64  96 139 187 229 286 337 403
#     4  10  19  36  63  95 137 173 231 274 337 403
#     4  11  18  35  65 101 130 162 209 294 356 393
#
# _framework density 22.528390999999999
#
# number of rings (size 3 to 8) (size 9 to 14) (size 15 to 20)
#    0.000    1.400    6.000    1.200    0.000    0.800 
#    0.000    2.000    0.000   30.000    0.000    0.000 
#    0.000    0.000    0.000    0.000    0.000    0.000 
#
# Total GULP energy -495682.760783 kJ/mol
# GULP energy per Si atom -12392.069020 kJ/mol
# Density = 2.247712 g / cm^3
# Si number density = 22.528391 Si / 1000 Ang^3
#
#
#
# Elastic Constant Matrix: (Units=GPa)
#
#
# Indices 1 2 3 4 5 6 
#
# 1 81.9869 55.1756 54.1162 0.0000 0.0000 0.0000
# 2 55.1756 100.7552 31.0266 0.0000 0.0000 0.0000
# 3 54.1162 31.0266 92.8458 0.0000 0.0000 0.0000
# 4 0.0000 0.0000 0.0000 -44.6955 0.0000 0.0000
# 5 0.0000 0.0000 0.0000 0.0000 64.1624 0.0000
# 6 0.0000 0.0000 0.0000 0.0000 0.0000 31.1315
#
#
#
# Elastic Compliance Matrix: (Units=1/GPa)
#
#
# Indices 1 2 3 4 5 6 
#
# 1 0.028390 -0.011650 -0.012654 0.000000 0.000000 0.000000
# 2 -0.011650 0.015844 0.001496 0.000000 0.000000 0.000000
# 3 -0.012654 0.001496 0.017646 0.000000 0.000000 0.000000
# 4 0.000000 0.000000 0.000000 -0.022374 0.000000 0.000000
# 5 0.000000 0.000000 0.000000 0.000000 0.015585 0.000000
# 6 0.000000 0.000000 0.000000 0.000000 0.000000 0.032122
#
#
# Mechanical properties :
#
#
# Convention : Reuss Voigt Hill
#
# Bulk Modulus (GPa) = 61.48834 61.80273 61.64553
# Shear Modulus (GPa) = 36.16563 19.13764 27.65164
#
# Velocity S-wave (km/s) = 4.01101 2.91776 3.50725
# Velocity P-wave (km/s) = 6.98598 6.23249 6.61996
#
# Compressibility (1/GPa) = 0.01626325
#
# Stress axis : x y z
#
# Youngs Moduli (GPa) = 35.22377 63.11403 56.66881
#
# Poissons Ratio (x) = 0.73529 0.71710
# Poissons Ratio (y) = 0.41036 -0.08476
# Poissons Ratio (z) = 0.44573 -0.09440
#
# Static dielectric constant tensor:
#      x y z
#    x 3.999730 0.000000 0.000000 
#    y 0.000000 4.275770 0.000000 
#    z 0.000000 0.000000 3.914490 
# 
# 
# High freq. dielectric constant tensor:
#      x y z
#    x 1.863980 0.000000 0.000000 
#    y 0.000000 1.905140 0.000000 
#    z 0.000000 0.000000 1.864740 
# 
# From -- ./inp_files/10710.got.cif
#   From: 2010.06.25/outbox.cif.g09.slc.cpg/sg48_6_cif.got.tgz:10710.got - 2010.06.26 18:06:46.
