data_PCOD8201707
_publ_section_title
;
Structure prediction by ZEFSAII (Michael W. Deem and Ramdas Pophale) SiO2 
 PCOD8201707
Probable space group: P N N N
;
_chemical_formula_sum "Si O2"
_cell_formula_units_Z 64
_cell_length_a 28.229620
_cell_length_b 22.310881
_cell_length_c 5.031702
_cell_angle_alpha 90.000000
_cell_angle_beta 90.000000
_cell_angle_gamma 90.000000
_cell_volume 3169.105260
_symmetry_space_group_name_H-M "P N N N"
_symmetry_group_IT_number 48
_space_group.IT_coordinate_system_code '2'
_symmetry_cell_setting 'orthorhombic'
loop_
_space_group_symop_operation_xyz
x,y,z
1/2-x,1/2-y,z
x,1/2-y,1/2-z
1/2-x,y,1/2-z
-x,-y,-z
1/2+x,1/2+y,-z
-x,1/2+y,1/2+z
1/2+x,-y,1/2+z
loop_
_atom_site_type_symbol
_atom_site_label
_atom_site_fract_x
_atom_site_fract_y
_atom_site_fract_z
Si Si1 0.072626 0.872960 0.760504
Si Si2 0.520450 0.942731 0.841216
Si Si3 0.918353 0.574879 0.330577
Si Si4 0.640790 0.680560 0.259339
Si Si5 0.649912 0.028236 0.238567
Si Si6 0.301430 0.179690 0.269006
Si Si7 0.805165 0.081444 0.755198
Si Si8 0.382950 0.680942 0.272407
O O1 0.102743 0.932496 0.716150
O O2 0.086804 0.824568 0.540234
O O3 0.018423 0.893041 0.732904
O O4 0.082197 0.842651 0.043214
O O5 0.548687 0.955006 0.562201
O O6 0.557025 0.916853 0.047545
O O7 0.500000 0.000000 0.000000
O O8 0.903194 0.643716 0.368415
O O9 0.869383 0.537912 0.297009
O O10 0.625477 0.750000 0.250000
O O11 0.659457 0.659205 0.549573
O O12 0.683677 0.664962 0.065954
O O13 0.684672 0.051221 0.464916
O O14 0.679770 0.032980 0.967035
O O15 0.294983 0.250000 0.250000
O O16 0.250000 0.147840 0.250000
O O17 0.750000 0.098093 0.750000
O O18 0.834365 0.143096 0.718349
O O19 0.368124 0.750000 0.250000
#
# Coordination Sequence:
#
# PCOD8201707 Si02
#       8
#     8   8   8   8   8   8   8   8
#     4  10  21  38  60  87 116 147 194 253 304 338
#     4  12  24  39  64  90 114 145 204 256 297 355
#     4  12  24  39  61  90 117 154 201 243 304 369
#     4  10  21  38  56  81 121 157 190 237 299 359
#     4  10  21  37  59  84 117 151 194 250 304 345
#     4   9  17  33  58  81 104 145 198 238 271 326
#     4  10  21  38  60  87 123 162 200 246 298 353
#     4  10  21  38  61  88 123 163 199 239 295 361
#
# _framework density 20.194973999999998
#
# number of rings (size 3 to 8) (size 9 to 14) (size 15 to 20)
#    0.000    1.625    1.250    3.750    3.500    1.750 
#    0.000    7.500    0.000    4.500    0.000    0.000 
#    0.000    0.000    0.000    0.000    0.000    0.000 
#
# Total GULP energy -793165.401882 kJ/mol
# GULP energy per Si atom -12393.209404 kJ/mol
# Density = 2.014901 g / cm^3
# Si number density = 20.194974 Si / 1000 Ang^3
#
#
#
# Elastic Constant Matrix: (Units=GPa)
#
#
# Indices 1 2 3 4 5 6 
#
# 1 90.6455 43.2876 13.1784 0.0000 0.0000 0.0000
# 2 43.2876 85.4895 15.7969 0.0000 0.0000 0.0000
# 3 13.1784 15.7969 87.0878 0.0000 0.0000 0.0000
# 4 0.0000 0.0000 0.0000 19.3238 0.0000 0.0000
# 5 0.0000 0.0000 0.0000 0.0000 40.0653 0.0000
# 6 0.0000 0.0000 0.0000 0.0000 0.0000 28.4182
#
#
#
# Elastic Compliance Matrix: (Units=1/GPa)
#
#
# Indices 1 2 3 4 5 6 
#
# 1 0.014618 -0.007236 -0.000900 0.000000 0.000000 0.000000
# 2 -0.007236 0.015685 -0.001750 0.000000 0.000000 0.000000
# 3 -0.000900 -0.001750 0.011936 0.000000 0.000000 0.000000
# 4 0.000000 0.000000 0.000000 0.051750 0.000000 0.000000
# 5 0.000000 0.000000 0.000000 0.000000 0.024959 0.000000
# 6 0.000000 0.000000 0.000000 0.000000 0.000000 0.035189
#
#
# Mechanical properties :
#
#
# Convention : Reuss Voigt Hill
#
# Bulk Modulus (GPa) = 44.50734 45.30540 44.90637
# Shear Modulus (GPa) = 27.56390 30.29213 28.92802
#
# Velocity S-wave (km/s) = 3.69845 3.87716 3.78886
# Velocity P-wave (km/s) = 6.35017 6.52119 6.43625
#
# Compressibility (1/GPa) = 0.02246820
#
# Stress axis : x y z
#
# Youngs Moduli (GPa) = 68.40809 63.75713 83.77850
#
# Poissons Ratio (x) = 0.46133 0.07537
# Poissons Ratio (y) = 0.49498 0.14662
# Poissons Ratio (z) = 0.06154 0.11158
#
# Static dielectric constant tensor:
#      x y z
#    x 3.706990 0.000000 0.000000 
#    y 0.000000 3.431690 0.000000 
#    z 0.000000 0.000000 3.401330 
# 
# 
# High freq. dielectric constant tensor:
#      x y z
#    x 1.784760 0.000000 0.000000 
#    y 0.000000 1.767480 0.000000 
#    z 0.000000 0.000000 1.810750 
# 
# From -- ./inp_files/6656.got.cif
#   From: 2010.06.25/outbox.cif.g09.slc.cpg/sg48_4_cif.got.tgz:6656.got - 2010.06.26 18:06:46.
