data_PCOD8201273
_publ_section_title
;
Structure prediction by ZEFSAII (Michael W. Deem and Ramdas Pophale) SiO2 
 PCOD8201273
Probable space group: P N N N
;
_chemical_formula_sum "Si O2"
_cell_formula_units_Z 64
_cell_length_a 5.323273
_cell_length_b 30.524980
_cell_length_c 21.797561
_cell_angle_alpha 90.000000
_cell_angle_beta 90.000000
_cell_angle_gamma 90.000000
_cell_volume 3541.946761
_symmetry_space_group_name_H-M "P N N N"
_symmetry_group_IT_number 48
_space_group.IT_coordinate_system_code '2'
_symmetry_cell_setting 'orthorhombic'
loop_
_space_group_symop_operation_xyz
x,y,z
1/2-x,1/2-y,z
x,1/2-y,1/2-z
1/2-x,y,1/2-z
-x,-y,-z
1/2+x,1/2+y,-z
-x,1/2+y,1/2+z
1/2+x,-y,1/2+z
loop_
_atom_site_type_symbol
_atom_site_label
_atom_site_fract_x
_atom_site_fract_y
_atom_site_fract_z
Si Si1 0.750004 0.849493 0.600841
Si Si2 0.749996 0.471970 0.136243
Si Si3 0.250006 0.444782 0.557488
Si Si4 0.249996 0.798932 0.895355
Si Si5 0.749995 0.326825 0.974503
Si Si6 0.750005 0.429089 0.490797
Si Si7 0.250004 0.065497 0.181627
Si Si8 0.249995 0.151727 0.547805
O O1 0.502837 0.823968 0.625033
O O2 0.750002 0.897055 0.630406
O O3 0.750004 0.855013 0.526916
O O4 0.997175 0.823969 0.625033
O O5 0.750002 0.522254 0.114142
O O6 0.498263 0.464432 0.175424
O O7 0.001725 0.464431 0.175425
O O8 0.749997 0.437058 0.081208
O O9 0.502674 0.452432 0.518214
O O10 0.250005 0.394729 0.582396
O O11 0.997340 0.452432 0.518212
O O12 0.250000 0.750000 0.867178
O O13 0.249995 0.793602 0.969205
O O14 0.749995 0.377081 0.999228
O O15 0.498277 0.320573 0.933787
O O16 0.001714 0.320573 0.933787
O O17 0.250000 0.086031 0.250000
#
# Coordination Sequence:
#
# PCOD8201273 Si02
#       8
#     8   8   8   8   8   8   8   8
#     4  10  19  34  49  64  87 112 141 178 220 273
#     4  12  21  33  49  69  90 111 145 186 219 265
#     4  10  18  27  44  71  97 115 132 165 217 271
#     4  10  18  29  49  71  86 104 134 177 228 271
#     4   8  14  23  36  56  86 112 132 153 189 251
#     4  10  17  28  45  69  95 118 134 159 217 277
#     4  12  25  39  52  63  81 118 160 193 231 276
#     4   8  14  25  41  62  86 112 131 155 208 265
#
# _framework density 18.06916
#
# number of rings (size 3 to 8) (size 9 to 14) (size 15 to 20)
#    0.000    2.000    0.000    8.250    0.000    0.000 
#    0.000    0.000    0.000    2.250    0.000    0.000 
#    0.000    0.000    0.000    0.000    0.000    0.000 
#
# Total GULP energy -793054.781793 kJ/mol
# GULP energy per Si atom -12391.480966 kJ/mol
# Density = 1.802803 g / cm^3
# Si number density = 18.069160 Si / 1000 Ang^3
#
#
#
# Elastic Constant Matrix: (Units=GPa)
#
#
# Indices 1 2 3 4 5 6 
#
# 1 197.3280 21.1115 17.9640 0.0000 0.0000 0.0000
# 2 21.1115 36.0279 21.7453 0.0000 0.0000 0.0000
# 3 17.9640 21.7453 24.1017 0.0000 0.0000 0.0000
# 4 0.0000 0.0000 0.0000 7.3677 0.0000 0.0000
# 5 0.0000 0.0000 0.0000 0.0000 10.9910 0.0000
# 6 0.0000 0.0000 0.0000 0.0000 0.0000 14.3610
#
#
#
# Elastic Compliance Matrix: (Units=1/GPa)
#
#
# Indices 1 2 3 4 5 6 
#
# 1 0.005480 -0.001638 -0.002607 0.000000 0.000000 0.000000
# 2 -0.001638 0.061433 -0.054206 0.000000 0.000000 0.000000
# 3 -0.002607 -0.054206 0.092340 0.000000 0.000000 0.000000
# 4 0.000000 0.000000 0.000000 0.135727 0.000000 0.000000
# 5 0.000000 0.000000 0.000000 0.000000 0.090984 0.000000
# 6 0.000000 0.000000 0.000000 0.000000 0.000000 0.069633
#
#
# Mechanical properties :
#
#
# Convention : Reuss Voigt Hill
#
# Bulk Modulus (GPa) = 23.61167 42.12211 32.86689
# Shear Modulus (GPa) = 8.52348 19.65307 14.08827
#
# Velocity S-wave (km/s) = 2.17425 3.30154 2.79532
# Velocity P-wave (km/s) = 4.40442 6.15596 5.35232
#
# Compressibility (1/GPa) = 0.04235195
#
# Stress axis : x y z
#
# Youngs Moduli (GPa) = 182.47313 16.27795 10.82955
#
# Poissons Ratio (x) = 0.02666 0.02823
# Poissons Ratio (y) = 0.29886 0.58702
# Poissons Ratio (z) = 0.47570 0.88236
#
# Static dielectric constant tensor:
#      x y z
#    x 4.870160 0.000000 0.000000 
#    y 0.000000 3.102030 0.000000 
#    z 0.000000 0.000000 2.634470 
# 
# 
# High freq. dielectric constant tensor:
#      x y z
#    x 1.748530 0.000000 0.000000 
#    y 0.000000 1.684720 0.000000 
#    z 0.000000 0.000000 1.604640 
# 
# From -- ./inp_files/29680.got.cif
#   From: 2010.06.25/outbox.cif.g09.slc.cpg/sg48_15_cif.got.tgz:29680.got - 2010.06.26 18:06:46.
