data_PCOD8201444
_publ_section_title
;
Structure prediction by ZEFSAII (Michael W. Deem and Ramdas Pophale) SiO2 
 PCOD8201444
Probable space group: P N N N
;
_chemical_formula_sum "Si O2"
_cell_formula_units_Z 64
_cell_length_a 13.978101
_cell_length_b 12.837211
_cell_length_c 18.685587
_cell_angle_alpha 90.000000
_cell_angle_beta 90.000000
_cell_angle_gamma 90.000000
_cell_volume 3352.938591
_symmetry_space_group_name_H-M "P N N N"
_symmetry_group_IT_number 48
_space_group.IT_coordinate_system_code '2'
_symmetry_cell_setting 'orthorhombic'
loop_
_space_group_symop_operation_xyz
x,y,z
1/2-x,1/2-y,z
x,1/2-y,1/2-z
1/2-x,y,1/2-z
-x,-y,-z
1/2+x,1/2+y,-z
-x,1/2+y,1/2+z
1/2+x,-y,1/2+z
loop_
_atom_site_type_symbol
_atom_site_label
_atom_site_fract_x
_atom_site_fract_y
_atom_site_fract_z
Si Si1 0.147239 0.368582 0.727692
Si Si2 0.184358 0.025979 0.187941
Si Si3 0.698885 0.861135 0.428203
Si Si4 0.044681 0.557053 0.206375
Si Si5 0.354213 0.302482 0.077928
Si Si6 0.693736 0.144471 0.888541
Si Si7 0.350536 0.526298 0.521674
Si Si8 0.469139 0.396420 0.409321
O O1 0.143387 0.250000 0.750000
O O2 0.250000 0.416913 0.750000
O O3 0.133905 0.382926 0.641880
O O4 0.064812 0.423030 0.773832
O O5 0.250000 0.077750 0.250000
O O6 0.103423 0.950645 0.220312
O O7 0.250892 0.954957 0.140064
O O8 0.135186 0.112507 0.139421
O O9 0.750000 0.750000 0.415078
O O10 0.633185 0.853704 0.499237
O O11 0.770600 0.959019 0.437477
O O12 0.090516 0.646141 0.153302
O O13 0.056035 0.446321 0.166800
O O14 0.250000 0.250000 0.082292
O O15 0.441815 0.224633 0.092450
O O16 0.750000 0.250000 0.873152
O O17 0.686543 0.122762 0.973250
O O18 0.408130 0.445219 0.473312
O O19 0.418644 0.582530 0.579020
#
# Coordination Sequence:
#
# PCOD8201444 Si02
#       8
#     8   8   8   8   8   8   8   8
#     4  11  23  37  57  87 117 154 197 246 303 360
#     4  10  21  37  58  89 122 155 201 254 307 365
#     4  11  19  35  59  85 119 150 193 255 307 358
#     4  10  23  38  56  86 119 155 201 243 304 368
#     4  11  19  35  59  89 116 155 200 255 314 353
#     4  10  21  38  60  86 118 166 201 242 304 376
#     4  10  19  36  56  85 117 150 203 242 302 368
#     4  10  20  33  59  84 112 154 194 254 298 360
#
# _framework density 19.087734999999999
#
# number of rings (size 3 to 8) (size 9 to 14) (size 15 to 20)
#    0.000    1.625    5.000    2.250    1.750    4.500 
#    0.000    1.875    0.000    0.000    0.000    0.875 
#    0.000    0.000    0.000    0.000    0.000    0.000 
#
# Total GULP energy -793300.081264 kJ/mol
# GULP energy per Si atom -12395.313770 kJ/mol
# Density = 1.904429 g / cm^3
# Si number density = 19.087735 Si / 1000 Ang^3
#
#
#
# Elastic Constant Matrix: (Units=GPa)
#
#
# Indices 1 2 3 4 5 6 
#
# 1 93.7198 41.4333 29.8410 0.0000 0.0000 0.0000
# 2 41.4333 84.5394 36.4461 0.0000 0.0000 0.0000
# 3 29.8410 36.4461 88.0141 0.0000 0.0000 0.0000
# 4 0.0000 0.0000 0.0000 19.8247 0.0000 0.0000
# 5 0.0000 0.0000 0.0000 0.0000 25.4611 0.0000
# 6 0.0000 0.0000 0.0000 0.0000 0.0000 25.8932
#
#
#
# Elastic Compliance Matrix: (Units=1/GPa)
#
#
# Indices 1 2 3 4 5 6 
#
# 1 0.014000 -0.005862 -0.002319 0.000000 0.000000 0.000000
# 2 -0.005862 0.016854 -0.004992 0.000000 0.000000 0.000000
# 3 -0.002319 -0.004992 0.014215 0.000000 0.000000 0.000000
# 4 0.000000 0.000000 0.000000 0.050442 0.000000 0.000000
# 5 0.000000 0.000000 0.000000 0.000000 0.039276 0.000000
# 6 0.000000 0.000000 0.000000 0.000000 0.000000 0.038620
#
#
# Mechanical properties :
#
#
# Convention : Reuss Voigt Hill
#
# Bulk Modulus (GPa) = 53.40861 53.52378 53.46620
# Shear Modulus (GPa) = 24.27267 24.80600 24.53933
#
# Velocity S-wave (km/s) = 3.56987 3.60888 3.58943
# Velocity P-wave (km/s) = 6.71069 6.74293 6.72683
#
# Compressibility (1/GPa) = 0.01872357
#
# Stress axis : x y z
#
# Youngs Moduli (GPa) = 71.42849 59.33474 70.34720
#
# Poissons Ratio (x) = 0.34779 0.16317
# Poissons Ratio (y) = 0.41868 0.35114
# Poissons Ratio (z) = 0.16567 0.29618
#
# Static dielectric constant tensor:
#      x y z
#    x 3.612790 0.000000 0.000000 
#    y 0.000000 3.232420 0.000000 
#    z 0.000000 0.000000 3.768930 
# 
# 
# High freq. dielectric constant tensor:
#      x y z
#    x 1.723570 0.000000 0.000000 
#    y 0.000000 1.713930 0.000000 
#    z 0.000000 0.000000 1.754410 
# 
# From -- ./inp_files/31695.got.cif
#   From: 2010.06.25/outbox.cif.g09.slc.cpg/sg48_16_cif.got.tgz:31695.got - 2010.06.26 18:06:46.
