data_PCOD8201839
_publ_section_title
;
Structure prediction by ZEFSAII (Michael W. Deem and Ramdas Pophale) SiO2 
 PCOD8201839
Probable space group: P N N N
;
_chemical_formula_sum "Si O2"
_cell_formula_units_Z 48
_cell_length_a 13.600338
_cell_length_b 13.086836
_cell_length_c 12.976499
_cell_angle_alpha 90.000000
_cell_angle_beta 90.000000
_cell_angle_gamma 90.000000
_cell_volume 2309.627274
_symmetry_space_group_name_H-M "P N N N"
_symmetry_group_IT_number 48
_space_group.IT_coordinate_system_code '2'
_symmetry_cell_setting 'orthorhombic'
loop_
_space_group_symop_operation_xyz
x,y,z
1/2-x,1/2-y,z
x,1/2-y,1/2-z
1/2-x,y,1/2-z
-x,-y,-z
1/2+x,1/2+y,-z
-x,1/2+y,1/2+z
1/2+x,-y,1/2+z
loop_
_atom_site_type_symbol
_atom_site_label
_atom_site_fract_x
_atom_site_fract_y
_atom_site_fract_z
Si Si1 0.307266 0.946858 0.655448
Si Si2 0.404527 0.348002 0.804442
Si Si3 0.997735 0.839185 0.819972
Si Si4 0.635258 0.994329 0.020547
Si Si5 0.029540 0.517111 0.175996
Si Si6 0.866788 0.743945 0.992444
O O1 0.250000 0.890207 0.750000
O O2 0.406580 0.887189 0.621998
O O3 0.333255 0.056073 0.705414
O O4 0.243596 0.967359 0.552436
O O5 0.354988 0.250000 0.750000
O O6 0.504133 0.380498 0.742231
O O7 0.418897 0.316434 0.922778
O O8 0.041914 0.750000 0.750000
O O9 0.915101 0.786567 0.889445
O O10 0.941274 0.927442 0.755549
O O11 0.561326 0.031115 0.109935
O O12 0.612053 0.873860 0.014418
O O13 0.615445 0.042465 0.906918
O O14 0.750000 0.750000 0.987137
#
# Coordination Sequence:
#
# PCOD8201839 Si02
#       6
#     8   8   8   8   8   8
#     4  11  21  38  63  96 130 164 220 280 328 385
#     4  11  21  36  65  96 123 163 220 282 332 382
#     4  11  24  42  60  94 135 175 216 275 337 402
#     4  11  20  40  62  94 125 172 222 272 334 399
#     4  10  22  38  64  86 134 172 210 274 339 398
#     4  12  24  38  66  97 128 168 225 279 335 398
#
# _framework density 20.782574
#
# number of rings (size 3 to 8) (size 9 to 14) (size 15 to 20)
#    0.000    1.000    8.333    0.000    0.000    3.333 
#    0.000    0.000    0.000    0.000    0.000    1.167 
#    0.000    0.000    0.000    0.000    0.000    0.000 
#
# Total GULP energy -594724.752362 kJ/mol
# GULP energy per Si atom -12390.099008 kJ/mol
# Density = 2.073527 g / cm^3
# Si number density = 20.782574 Si / 1000 Ang^3
#
#
#
# Elastic Constant Matrix: (Units=GPa)
#
#
# Indices 1 2 3 4 5 6 
#
# 1 80.9492 45.1055 67.3471 0.0000 0.0000 0.0000
# 2 45.1055 74.0207 39.0713 0.0000 0.0000 0.0000
# 3 67.3471 39.0713 116.2952 0.0000 0.0000 0.0000
# 4 0.0000 0.0000 0.0000 35.3300 0.0000 0.0000
# 5 0.0000 0.0000 0.0000 0.0000 45.3535 0.0000
# 6 0.0000 0.0000 0.0000 0.0000 0.0000 26.9650
#
#
#
# Elastic Compliance Matrix: (Units=1/GPa)
#
#
# Indices 1 2 3 4 5 6 
#
# 1 0.029718 -0.010970 -0.013524 0.000000 0.000000 0.000000
# 2 -0.010970 0.020472 -0.000525 0.000000 0.000000 0.000000
# 3 -0.013524 -0.000525 0.016607 0.000000 0.000000 0.000000
# 4 0.000000 0.000000 0.000000 0.028305 0.000000 0.000000
# 5 0.000000 0.000000 0.000000 0.000000 0.022049 0.000000
# 6 0.000000 0.000000 0.000000 0.000000 0.000000 0.037085
#
#
# Mechanical properties :
#
#
# Convention : Reuss Voigt Hill
#
# Bulk Modulus (GPa) = 59.67295 63.81254 61.74274
# Shear Modulus (GPa) = 23.82550 29.51245 26.66898
#
# Velocity S-wave (km/s) = 3.38955 3.77245 3.58612
# Velocity P-wave (km/s) = 6.64034 7.05313 6.84984
#
# Compressibility (1/GPa) = 0.01675801
#
# Stress axis : x y z
#
# Youngs Moduli (GPa) = 33.65001 48.84800 60.21584
#
# Poissons Ratio (x) = 0.53588 0.81436
# Poissons Ratio (y) = 0.36915 0.03160
# Poissons Ratio (z) = 0.45508 0.02564
#
# Static dielectric constant tensor:
#      x y z
#    x 3.561400 0.000000 0.000000 
#    y 0.000000 3.948310 0.000000 
#    z 0.000000 0.000000 4.038270 
# 
# 
# High freq. dielectric constant tensor:
#      x y z
#    x 1.782430 0.000000 0.000000 
#    y 0.000000 1.810180 0.000000 
#    z 0.000000 0.000000 1.816650 
# 
# From -- ./inp_files/21213.got.cif
#   From: 2010.06.25/outbox.cif.g09.slc.cpg/sg48_11_cif.got.tgz:21213.got - 2010.06.26 18:06:46.
