data_PCOD8201939
_publ_section_title
;
Structure prediction by ZEFSAII (Michael W. Deem and Ramdas Pophale) SiO2 
 PCOD8201939
Probable space group: P N N N
;
_chemical_formula_sum "Si O2"
_cell_formula_units_Z 48
_cell_length_a 9.764387
_cell_length_b 14.238117
_cell_length_c 16.265064
_cell_angle_alpha 90.000000
_cell_angle_beta 90.000000
_cell_angle_gamma 90.000000
_cell_volume 2261.274669
_symmetry_space_group_name_H-M "P N N N"
_symmetry_group_IT_number 48
_space_group.IT_coordinate_system_code '2'
_symmetry_cell_setting 'orthorhombic'
loop_
_space_group_symop_operation_xyz
x,y,z
1/2-x,1/2-y,z
x,1/2-y,1/2-z
1/2-x,y,1/2-z
-x,-y,-z
1/2+x,1/2+y,-z
-x,1/2+y,1/2+z
1/2+x,-y,1/2+z
loop_
_atom_site_type_symbol
_atom_site_label
_atom_site_fract_x
_atom_site_fract_y
_atom_site_fract_z
Si Si1 0.250000 0.250000 0.391364
Si Si2 0.992667 0.267798 0.007336
Si Si3 0.250000 0.385879 0.250000
Si Si4 0.250000 0.917208 0.750000
Si Si5 0.948964 0.071568 0.930378
Si Si6 0.672744 0.150291 0.873598
Si Si7 0.984742 0.025080 0.748175
Si Si8 0.250000 0.750000 0.869512
O O1 0.134733 0.206620 0.450045
O O2 0.195744 0.329852 0.329800
O O3 0.880029 0.270570 0.076660
O O4 0.007216 0.169787 0.960527
O O5 0.948510 0.344215 0.940228
O O6 0.380662 0.443932 0.275741
O O7 0.206589 0.844437 0.821252
O O8 0.130200 0.986273 0.716062
O O9 0.784840 0.076856 0.910678
O O10 0.015461 0.043859 0.843748
O O11 0.000000 0.000000 0.000000
O O12 0.750000 0.250000 0.856939
O O13 0.589056 0.116474 0.792580
#
# Coordination Sequence:
#
# PCOD8201939 Si02
#       8
#     4   8   4   4   8   8   8   4
#     4  11  24  40  64  99 138 164 220 281 344 396
#     4  11  23  40  67  93 128 183 221 271 341 408
#     4  11  22  42  65  96 132 178 215 274 338 417
#     4  11  26  38  68 101 138 174 218 291 350 403
#     4  11  21  39  67  94 128 172 227 278 327 403
#     4  10  23  44  70  97 130 185 232 276 341 411
#     4  12  24  42  67 101 133 177 232 279 336 410
#     4  11  20  46  64  93 140 184 218 265 354 432
#
# _framework density 21.226966000000001
#
# number of rings (size 3 to 8) (size 9 to 14) (size 15 to 20)
#    0.000    1.000    4.167    4.000    0.000    8.667 
#    0.000    5.000    0.000    5.000    0.000    0.000 
#    0.000    0.000    0.000    0.000    0.000    0.000 
#
# Total GULP energy -594664.882337 kJ/mol
# GULP energy per Si atom -12388.851715 kJ/mol
# Density = 2.117865 g / cm^3
# Si number density = 21.226966 Si / 1000 Ang^3
#
#
#
# Elastic Constant Matrix: (Units=GPa)
#
#
# Indices 1 2 3 4 5 6 
#
# 1 125.6853 32.2918 31.4890 0.0000 0.0000 0.0000
# 2 32.2918 73.1239 35.3219 0.0000 0.0000 0.0000
# 3 31.4890 35.3219 126.3203 0.0000 0.0000 0.0000
# 4 0.0000 0.0000 0.0000 53.1486 0.0000 0.0000
# 5 0.0000 0.0000 0.0000 0.0000 35.8597 0.0000
# 6 0.0000 0.0000 0.0000 0.0000 0.0000 3.3398
#
#
#
# Elastic Compliance Matrix: (Units=1/GPa)
#
#
# Indices 1 2 3 4 5 6 
#
# 1 0.009165 -0.003403 -0.001333 0.000000 0.000000 0.000000
# 2 -0.003403 0.017075 -0.003926 0.000000 0.000000 0.000000
# 3 -0.001333 -0.003926 0.009346 0.000000 0.000000 0.000000
# 4 0.000000 0.000000 0.000000 0.018815 0.000000 0.000000
# 5 0.000000 0.000000 0.000000 0.000000 0.027886 0.000000
# 6 0.000000 0.000000 0.000000 0.000000 0.000000 0.299420
#
#
# Mechanical properties :
#
#
# Convention : Reuss Voigt Hill
#
# Bulk Modulus (GPa) = 54.76062 58.14833 56.45447
# Shear Modulus (GPa) = 12.34202 33.53807 22.94005
#
# Velocity S-wave (km/s) = 2.41390 3.97920 3.29097
# Velocity P-wave (km/s) = 5.79853 6.96887 6.41046
#
# Compressibility (1/GPa) = 0.01826130
#
# Stress axis : x y z
#
# Youngs Moduli (GPa) = 109.11393 58.56585 106.99217
#
# Poissons Ratio (x) = 0.19932 0.14261
# Poissons Ratio (y) = 0.37135 0.42006
# Poissons Ratio (z) = 0.14544 0.22994
#
# Static dielectric constant tensor:
#      x y z
#    x 3.966910 0.000000 0.000000 
#    y 0.000000 3.938980 0.000000 
#    z 0.000000 0.000000 4.298470 
# 
# 
# High freq. dielectric constant tensor:
#      x y z
#    x 1.826660 0.000000 0.000000 
#    y 0.000000 1.828180 0.000000 
#    z 0.000000 0.000000 1.844710 
# 
# From -- ./inp_files/30305.got.cif
#   From: 2010.06.25/outbox.cif.g09.slc.cpg/sg48_16_cif.got.tgz:30305.got - 2010.06.26 18:06:46.
