data_PCOD8201535
_publ_section_title
;
Structure prediction by ZEFSAII (Michael W. Deem and Ramdas Pophale) SiO2 
 PCOD8201535
Probable space group: P N N N
;
_chemical_formula_sum "Si O2"
_cell_formula_units_Z 64
_cell_length_a 21.232809
_cell_length_b 18.837042
_cell_length_c 8.873508
_cell_angle_alpha 90.000000
_cell_angle_beta 90.000000
_cell_angle_gamma 90.000000
_cell_volume 3549.077675
_symmetry_space_group_name_H-M "P N N N"
_symmetry_group_IT_number 48
_space_group.IT_coordinate_system_code '2'
_symmetry_cell_setting 'orthorhombic'
loop_
_space_group_symop_operation_xyz
x,y,z
1/2-x,1/2-y,z
x,1/2-y,1/2-z
1/2-x,y,1/2-z
-x,-y,-z
1/2+x,1/2+y,-z
-x,1/2+y,1/2+z
1/2+x,-y,1/2+z
loop_
_atom_site_type_symbol
_atom_site_label
_atom_site_fract_x
_atom_site_fract_y
_atom_site_fract_z
Si Si1 0.097302 0.412656 0.281125
Si Si2 0.283644 0.120509 0.102529
Si Si3 0.508562 0.818240 0.147884
Si Si4 0.025549 0.948573 0.177114
Si Si5 0.581317 0.450905 0.139654
Si Si6 0.827945 0.563125 0.432737
Si Si7 0.845116 0.675151 0.176170
Si Si8 0.977372 0.326931 0.191363
O O1 0.152309 0.414896 0.158565
O O2 0.069666 0.490406 0.258264
O O3 0.120640 0.402031 0.453192
O O4 0.046054 0.351338 0.250818
O O5 0.250000 0.156095 0.250000
O O6 0.238286 0.061535 0.023923
O O7 0.302874 0.177345 0.975563
O O8 0.496699 0.750000 0.250000
O O9 0.468403 0.880414 0.221304
O O10 0.582225 0.835376 0.134384
O O11 0.477855 0.813551 0.985357
O O12 0.045238 0.924255 0.009681
O O13 0.954147 0.977058 0.189943
O O14 0.652417 0.481195 0.110830
O O15 0.575360 0.386172 0.259460
O O16 0.822367 0.611942 0.285338
O O17 0.831507 0.750000 0.250000
O O18 0.958085 0.250000 0.250000
#
# Coordination Sequence:
#
# PCOD8201535 Si02
#       8
#     8   8   8   8   8   8   8   8
#     4   9  20  34  54  78 104 141 178 217 276 321
#     4  10  21  39  53  74 103 141 187 232 268 318
#     4  11  22  33  52  76 107 145 178 221 273 328
#     4   9  17  33  53  75 105 136 171 220 265 328
#     4   9  18  33  53  78 102 141 177 215 276 317
#     4  10  20  35  56  71 107 142 183 228 266 319
#     4  11  23  36  51  75 105 142 186 228 266 318
#     4  11  22  33  52  76 111 141 181 223 274 335
#
# _framework density 18.032854
#
# number of rings (size 3 to 8) (size 9 to 14) (size 15 to 20)
#    0.000    2.000    2.500    1.875    3.500    4.000 
#    0.000    5.000    0.000    0.000    0.000    0.000 
#    0.000   40.500    0.000    0.250    0.000    0.000 
#
# Total GULP energy -793092.467415 kJ/mol
# GULP energy per Si atom -12392.069803 kJ/mol
# Density = 1.799181 g / cm^3
# Si number density = 18.032854 Si / 1000 Ang^3
#
#
#
# Elastic Constant Matrix: (Units=GPa)
#
#
# Indices 1 2 3 4 5 6 
#
# 1 48.8735 30.8628 24.2602 0.0000 0.0000 0.0000
# 2 30.8628 84.2774 60.4468 0.0000 0.0000 0.0000
# 3 24.2602 60.4468 121.6744 0.0000 0.0000 0.0000
# 4 0.0000 0.0000 0.0000 27.3901 0.0000 0.0000
# 5 0.0000 0.0000 0.0000 0.0000 67.5775 0.0000
# 6 0.0000 0.0000 0.0000 0.0000 0.0000 16.7021
#
#
#
# Elastic Compliance Matrix: (Units=1/GPa)
#
#
# Indices 1 2 3 4 5 6 
#
# 1 0.026657 -0.009243 -0.000723 0.000000 0.000000 0.000000
# 2 -0.009243 0.021639 -0.008907 0.000000 0.000000 0.000000
# 3 -0.000723 -0.008907 0.012788 0.000000 0.000000 0.000000
# 4 0.000000 0.000000 0.000000 0.036510 0.000000 0.000000
# 5 0.000000 0.000000 0.000000 0.000000 0.014798 0.000000
# 6 0.000000 0.000000 0.000000 0.000000 0.000000 0.059873
#
#
# Mechanical properties :
#
#
# Convention : Reuss Voigt Hill
#
# Bulk Modulus (GPa) = 42.85068 53.99608 48.42338
# Shear Modulus (GPa) = 22.95795 31.61764 27.28780
#
# Velocity S-wave (km/s) = 3.57195 4.19183 3.89424
# Velocity P-wave (km/s) = 6.38952 7.31004 6.86523
#
# Compressibility (1/GPa) = 0.02333685
#
# Stress axis : x y z
#
# Youngs Moduli (GPa) = 37.51378 46.21288 78.19966
#
# Poissons Ratio (x) = 0.42716 0.05654
# Poissons Ratio (y) = 0.34675 0.69653
# Poissons Ratio (z) = 0.02712 0.41162
#
# Static dielectric constant tensor:
#      x y z
#    x 3.332140 0.000000 0.000000 
#    y 0.000000 3.111150 0.000000 
#    z 0.000000 0.000000 3.576530 
# 
# 
# High freq. dielectric constant tensor:
#      x y z
#    x 1.674440 0.000000 0.000000 
#    y 0.000000 1.673690 0.000000 
#    z 0.000000 0.000000 1.717070 
# 
# From -- ./inp_files/14558.got.cif
#   From: 2010.06.25/outbox.cif.g09.slc.cpg/sg48_8_cif.got.tgz:14558.got - 2010.06.26 18:06:46.
