data_PCOD8201850
_publ_section_title
;
Structure prediction by ZEFSAII (Michael W. Deem and Ramdas Pophale) SiO2 
 PCOD8201850
Probable space group: P N N N
;
_chemical_formula_sum "Si O2"
_cell_formula_units_Z 40
_cell_length_a 7.784178
_cell_length_b 7.988177
_cell_length_c 28.194840
_cell_angle_alpha 90.000000
_cell_angle_beta 90.000000
_cell_angle_gamma 90.000000
_cell_volume 1753.194389
_symmetry_space_group_name_H-M "P N N N"
_symmetry_group_IT_number 48
_space_group.IT_coordinate_system_code '2'
_symmetry_cell_setting 'orthorhombic'
loop_
_space_group_symop_operation_xyz
x,y,z
1/2-x,1/2-y,z
x,1/2-y,1/2-z
1/2-x,y,1/2-z
-x,-y,-z
1/2+x,1/2+y,-z
-x,1/2+y,1/2+z
1/2+x,-y,1/2+z
loop_
_atom_site_type_symbol
_atom_site_label
_atom_site_fract_x
_atom_site_fract_y
_atom_site_fract_z
Si Si1 0.750000 0.750000 0.750000
Si Si2 0.959862 0.613721 0.429183
Si Si3 0.476382 0.514311 0.305673
Si Si4 0.656524 0.079217 0.099916
Si Si5 0.250000 0.750000 0.140426
Si Si6 0.250000 0.250000 0.750000
Si Si7 0.055981 0.258783 0.471179
O O1 0.610458 0.636133 0.723009
O O2 0.771980 0.589933 0.405084
O O3 0.962675 0.748685 0.471721
O O4 0.100322 0.669482 0.391383
O O5 0.984010 0.430405 0.450715
O O6 0.541457 0.441339 0.354721
O O7 0.315895 0.621455 0.321342
O O8 0.625531 0.624439 0.279760
O O9 0.750000 0.250000 0.111088
O O10 0.545660 0.101828 0.051384
O O11 0.250000 0.250000 0.454540
#
# Coordination Sequence:
#
# PCOD8201850 Si02
#       7
#     2   8   8   8   4   2   8
#     4  12  32  48  80 116 142 184 244 320 396 460
#     4  10  24  39  64 101 143 192 242 289 352 428
#     4  12  28  49  79 107 147 185 245 308 388 453
#     4  10  24  42  69 100 140 187 248 296 356 438
#     4  12  26  45  72 102 150 190 236 297 374 450
#     4  12  28  52  84 108 146 192 244 324 392 468
#     4  10  22  39  63  95 144 188 247 291 345 410
#
# _framework density 22.815498000000002
#
# number of rings (size 3 to 8) (size 9 to 14) (size 15 to 20)
#    0.000    1.200    0.000    3.600   19.600    0.800 
#    0.000    0.000    0.000    0.000    0.000    0.000 
#    0.000    0.000    0.000    0.000    0.000    0.000 
#
# Total GULP energy -495584.046472 kJ/mol
# GULP energy per Si atom -12389.601162 kJ/mol
# Density = 2.276357 g / cm^3
# Si number density = 22.815498 Si / 1000 Ang^3
#
#
#
# Elastic Constant Matrix: (Units=GPa)
#
#
# Indices 1 2 3 4 5 6 
#
# 1 151.5024 64.8248 69.1013 0.0000 0.0000 0.0000
# 2 64.8248 118.1039 69.9201 0.0000 0.0000 0.0000
# 3 69.1013 69.9201 135.5713 0.0000 0.0000 0.0000
# 4 0.0000 0.0000 0.0000 -72.6552 0.0000 0.0000
# 5 0.0000 0.0000 0.0000 0.0000 71.1773 0.0000
# 6 0.0000 0.0000 0.0000 0.0000 0.0000 112.3387
#
#
#
# Elastic Compliance Matrix: (Units=1/GPa)
#
#
# Indices 1 2 3 4 5 6 
#
# 1 0.009443 -0.003359 -0.003081 0.000000 0.000000 0.000000
# 2 -0.003359 0.013384 -0.005190 0.000000 0.000000 0.000000
# 3 -0.003081 -0.005190 0.011623 0.000000 0.000000 0.000000
# 4 0.000000 0.000000 0.000000 -0.013764 0.000000 0.000000
# 5 0.000000 0.000000 0.000000 0.000000 0.014049 0.000000
# 6 0.000000 0.000000 0.000000 0.000000 0.000000 0.008902
#
#
# Mechanical properties :
#
#
# Convention : Reuss Voigt Hill
#
# Bulk Modulus (GPa) = 89.36900 90.31888 89.84394
# Shear Modulus (GPa) = 70.79356 35.59424 53.19390
#
# Velocity S-wave (km/s) = 5.57639 3.95408 4.83378
# Velocity P-wave (km/s) = 8.98425 7.77939 8.40344
#
# Compressibility (1/GPa) = 0.01118956
#
# Stress axis : x y z
#
# Youngs Moduli (GPa) = 105.89846 74.71733 86.03414
#
# Poissons Ratio (x) = 0.25100 0.26504
# Poissons Ratio (y) = 0.35574 0.44655
# Poissons Ratio (z) = 0.32623 0.38781
#
# Static dielectric constant tensor:
#      x y z
#    x 4.656360 0.000000 0.000000 
#    y 0.000000 4.240220 0.000000 
#    z 0.000000 0.000000 4.283720 
# 
# 
# High freq. dielectric constant tensor:
#      x y z
#    x 1.920870 0.000000 0.000000 
#    y 0.000000 1.920670 0.000000 
#    z 0.000000 0.000000 1.905010 
# 
# From -- ./inp_files/37424.got.cif
#   From: 2010.06.25/outbox.cif.g09.slc.cpg/sg48_19_cif.got.tgz:37424.got - 2010.06.26 18:06:46.
