data_PCOD8201912
_publ_section_title
;
Structure prediction by ZEFSAII (Michael W. Deem and Ramdas Pophale) SiO2 
 PCOD8201912
Probable space group: P N N N
;
_chemical_formula_sum "Si O2"
_cell_formula_units_Z 40
_cell_length_a 8.313183
_cell_length_b 14.379452
_cell_length_c 16.078450
_cell_angle_alpha 90.000000
_cell_angle_beta 90.000000
_cell_angle_gamma 90.000000
_cell_volume 1922.002090
_symmetry_space_group_name_H-M "P N N N"
_symmetry_group_IT_number 48
_space_group.IT_coordinate_system_code '2'
_symmetry_cell_setting 'orthorhombic'
loop_
_space_group_symop_operation_xyz
x,y,z
1/2-x,1/2-y,z
x,1/2-y,1/2-z
1/2-x,y,1/2-z
-x,-y,-z
1/2+x,1/2+y,-z
-x,1/2+y,1/2+z
1/2+x,-y,1/2+z
loop_
_atom_site_type_symbol
_atom_site_label
_atom_site_fract_x
_atom_site_fract_y
_atom_site_fract_z
Si Si1 0.472883 0.844089 0.508850
Si Si2 0.253954 0.480235 0.976190
Si Si3 0.250000 0.905940 0.250000
Si Si4 0.038773 0.014305 0.365923
Si Si5 0.250000 0.750000 0.386299
Si Si6 0.437132 0.227174 0.161330
O O1 0.643087 0.884583 0.475825
O O2 0.406143 0.766393 0.444013
O O3 0.481367 0.790544 0.593970
O O4 0.361613 0.929512 0.534867
O O5 0.126783 0.469222 0.900318
O O6 0.175384 0.499685 0.065318
O O7 0.261020 0.842259 0.331136
O O8 0.096821 0.970699 0.276259
O O9 0.015029 0.122489 0.356238
O O10 0.250000 0.250000 0.160889
O O11 0.514012 0.250000 0.250000
#
# Coordination Sequence:
#
# PCOD8201912 Si02
#       6
#     8   8   4   8   4   8
#     4  11  22  43  67 100 133 178 224 282 342 411
#     4  10  23  40  69  97 133 175 228 277 340 411
#     4  11  24  42  69  92 132 178 221 270 336 407
#     4  11  22  43  65 100 130 179 223 277 342 413
#     4  11  24  42  67  94 128 180 225 268 336 409
#     4  11  23  38  64  98 130 171 219 273 331 405
#
# _framework density 20.811631999999999
#
# number of rings (size 3 to 8) (size 9 to 14) (size 15 to 20)
#    0.000    1.200    4.000    2.400    2.800    0.000 
#    0.000    7.500    0.000    2.400    0.000    0.000 
#    0.000    0.000    0.000    0.000    0.000    0.000 
#
# Total GULP energy -495586.127695 kJ/mol
# GULP energy per Si atom -12389.653192 kJ/mol
# Density = 2.076426 g / cm^3
# Si number density = 20.811632 Si / 1000 Ang^3
#
#
#
# Elastic Constant Matrix: (Units=GPa)
#
#
# Indices 1 2 3 4 5 6 
#
# 1 109.2160 51.3375 62.6282 0.0000 0.0000 0.0000
# 2 51.3375 132.3641 71.5854 0.0000 0.0000 0.0000
# 3 62.6282 71.5854 148.1528 0.0000 0.0000 0.0000
# 4 0.0000 0.0000 0.0000 48.5726 0.0000 0.0000
# 5 0.0000 0.0000 0.0000 0.0000 41.4080 0.0000
# 6 0.0000 0.0000 0.0000 0.0000 0.0000 36.5483
#
#
#
# Elastic Compliance Matrix: (Units=1/GPa)
#
#
# Indices 1 2 3 4 5 6 
#
# 1 0.012788 -0.002757 -0.004074 0.000000 0.000000 0.000000
# 2 -0.002757 0.010822 -0.004064 0.000000 0.000000 0.000000
# 3 -0.004074 -0.004064 0.010435 0.000000 0.000000 0.000000
# 4 0.000000 0.000000 0.000000 0.020588 0.000000 0.000000
# 5 0.000000 0.000000 0.000000 0.000000 0.024150 0.000000
# 6 0.000000 0.000000 0.000000 0.000000 0.000000 0.027361
#
#
# Mechanical properties :
#
#
# Convention : Reuss Voigt Hill
#
# Bulk Modulus (GPa) = 81.58629 84.53724 83.06177
# Shear Modulus (GPa) = 37.87365 38.91789 38.39577
#
# Velocity S-wave (km/s) = 4.27058 4.32905 4.29991
# Velocity P-wave (km/s) = 7.97524 8.10530 8.04053
#
# Compressibility (1/GPa) = 0.01225696
#
# Stress axis : x y z
#
# Youngs Moduli (GPa) = 78.19803 92.40628 95.82731
#
# Poissons Ratio (x) = 0.25473 0.39039
# Poissons Ratio (y) = 0.21556 0.38941
# Poissons Ratio (z) = 0.31857 0.37551
#
# Static dielectric constant tensor:
#      x y z
#    x 3.862850 0.000000 0.000000 
#    y 0.000000 3.931130 0.000000 
#    z 0.000000 0.000000 3.918230 
# 
# 
# High freq. dielectric constant tensor:
#      x y z
#    x 1.800620 0.000000 0.000000 
#    y 0.000000 1.833830 0.000000 
#    z 0.000000 0.000000 1.820300 
# 
# From -- ./inp_files/12372.got.cif
#   From: 2010.06.25/outbox.cif.g09.slc.cpg/sg48_7_cif.got.tgz:12372.got - 2010.06.26 18:06:46.
