data_PCOD8201512
_publ_section_title
;
Structure prediction by ZEFSAII (Michael W. Deem and Ramdas Pophale) SiO2 
 PCOD8201512
Probable space group: P N N N
;
_chemical_formula_sum "Si O2"
_cell_formula_units_Z 64
_cell_length_a 15.665620
_cell_length_b 17.002182
_cell_length_c 11.682613
_cell_angle_alpha 90.000000
_cell_angle_beta 90.000000
_cell_angle_gamma 90.000000
_cell_volume 3111.660729
_symmetry_space_group_name_H-M "P N N N"
_symmetry_group_IT_number 48
_space_group.IT_coordinate_system_code '2'
_symmetry_cell_setting 'orthorhombic'
loop_
_space_group_symop_operation_xyz
x,y,z
1/2-x,1/2-y,z
x,1/2-y,1/2-z
1/2-x,y,1/2-z
-x,-y,-z
1/2+x,1/2+y,-z
-x,1/2+y,1/2+z
1/2+x,-y,1/2+z
loop_
_atom_site_type_symbol
_atom_site_label
_atom_site_fract_x
_atom_site_fract_y
_atom_site_fract_z
Si Si1 0.092387 0.667279 0.290382
Si Si2 0.796132 0.407544 0.539837
Si Si3 0.470281 0.298829 0.997582
Si Si4 0.152239 0.477725 0.782621
Si Si5 0.412203 0.039437 0.538541
Si Si6 0.032885 0.129611 0.586652
Si Si7 0.876805 0.392913 0.048057
Si Si8 0.126019 0.722747 0.623077
O O1 0.129901 0.750000 0.250000
O O2 0.173540 0.616479 0.332673
O O3 0.038399 0.672593 0.405227
O O4 0.032002 0.632356 0.193183
O O5 0.833046 0.493124 0.512793
O O6 0.694162 0.421446 0.543621
O O7 0.818037 0.347501 0.432981
O O8 0.401426 0.369466 0.003548
O O9 0.432253 0.214932 0.956726
O O10 0.523834 0.296415 0.117048
O O11 0.250000 0.458348 0.750000
O O12 0.090938 0.464906 0.675580
O O13 0.117492 0.419974 0.883374
O O14 0.141619 0.567003 0.828531
O O15 0.500000 0.000000 0.500000
O O16 0.974691 0.088281 0.488669
O O17 0.862636 0.299570 0.045279
O O18 0.154046 0.750000 0.750000
#
# Coordination Sequence:
#
# PCOD8201512 Si02
#       8
#     8   8   8   8   8   8   8   8
#     4   9  17  33  58  81 114 156 201 242 291 364
#     4  11  21  36  54  89 125 161 205 250 305 374
#     4   9  19  35  57  86 117 156 207 253 299 371
#     4  12  24  40  63  91 120 159 205 262 314 367
#     4  12  20  36  63  87 122 159 203 252 300 362
#     4  10  21  41  59  83 121 160 202 250 320 367
#     4  11  24  36  55  88 128 159 196 251 312 385
#     4  10  20  33  54  84 123 164 195 245 307 373
#
# _framework density 20.567796000000001
#
# number of rings (size 3 to 8) (size 9 to 14) (size 15 to 20)
#    0.000    1.500    5.000    2.250    0.000    1.000 
#    0.000    4.375    0.000    0.000    0.000    0.000 
#    0.000    1.250    0.000    0.000    0.000    0.000 
#
# Total GULP energy -792915.603067 kJ/mol
# GULP energy per Si atom -12389.306298 kJ/mol
# Density = 2.052098 g / cm^3
# Si number density = 20.567796 Si / 1000 Ang^3
#
#
#
# Elastic Constant Matrix: (Units=GPa)
#
#
# Indices 1 2 3 4 5 6 
#
# 1 95.9167 55.8337 22.6108 0.0000 0.0000 0.0000
# 2 55.8337 115.2601 14.9494 0.0000 0.0000 0.0000
# 3 22.6108 14.9494 50.9975 0.0000 0.0000 0.0000
# 4 0.0000 0.0000 0.0000 29.4516 0.0000 0.0000
# 5 0.0000 0.0000 0.0000 0.0000 23.4714 0.0000
# 6 0.0000 0.0000 0.0000 0.0000 0.0000 22.2373
#
#
#
# Elastic Compliance Matrix: (Units=1/GPa)
#
#
# Indices 1 2 3 4 5 6 
#
# 1 0.015612 -0.006928 -0.004891 0.000000 0.000000 0.000000
# 2 -0.006928 0.012094 -0.000473 0.000000 0.000000 0.000000
# 3 -0.004891 -0.000473 0.021916 0.000000 0.000000 0.000000
# 4 0.000000 0.000000 0.000000 0.033954 0.000000 0.000000
# 5 0.000000 0.000000 0.000000 0.000000 0.042605 0.000000
# 6 0.000000 0.000000 0.000000 0.000000 0.000000 0.044969
#
#
# Mechanical properties :
#
#
# Convention : Reuss Voigt Hill
#
# Bulk Modulus (GPa) = 39.94172 49.88469 44.91321
# Shear Modulus (GPa) = 24.50027 26.28411 25.39219
#
# Velocity S-wave (km/s) = 3.45511 3.57869 3.51744
# Velocity P-wave (km/s) = 5.94801 6.43292 6.19521
#
# Compressibility (1/GPa) = 0.02503648
#
# Stress axis : x y z
#
# Youngs Moduli (GPa) = 64.05524 82.68903 45.62879
#
# Poissons Ratio (x) = 0.57288 0.22316
# Poissons Ratio (y) = 0.44378 0.02160
# Poissons Ratio (z) = 0.31328 0.03914
#
# Static dielectric constant tensor:
#      x y z
#    x 3.607460 0.000000 0.000000 
#    y 0.000000 4.158510 0.000000 
#    z 0.000000 0.000000 3.983810 
# 
# 
# High freq. dielectric constant tensor:
#      x y z
#    x 1.778070 0.000000 0.000000 
#    y 0.000000 1.804730 0.000000 
#    z 0.000000 0.000000 1.794200 
# 
# From -- ./inp_files/21563.got.cif
#   From: 2010.06.25/outbox.cif.g09.slc.cpg/sg48_11_cif.got.tgz:21563.got - 2010.06.26 18:06:46.
