data_PCOD8201409
_publ_section_title
;
Structure prediction by ZEFSAII (Michael W. Deem and Ramdas Pophale) SiO2 
 PCOD8201409
Probable space group: P N N N
;
_chemical_formula_sum "Si O2"
_cell_formula_units_Z 48
_cell_length_a 27.650052
_cell_length_b 9.015467
_cell_length_c 9.374504
_cell_angle_alpha 90.000000
_cell_angle_beta 90.000000
_cell_angle_gamma 90.000000
_cell_volume 2336.858839
_symmetry_space_group_name_H-M "P N N N"
_symmetry_group_IT_number 48
_space_group.IT_coordinate_system_code '2'
_symmetry_cell_setting 'orthorhombic'
loop_
_space_group_symop_operation_xyz
x,y,z
1/2-x,1/2-y,z
x,1/2-y,1/2-z
1/2-x,y,1/2-z
-x,-y,-z
1/2+x,1/2+y,-z
-x,1/2+y,1/2+z
1/2+x,-y,1/2+z
loop_
_atom_site_type_symbol
_atom_site_label
_atom_site_fract_x
_atom_site_fract_y
_atom_site_fract_z
Si Si1 0.668707 0.930244 0.410232
Si Si2 0.432370 0.484685 0.989540
Si Si3 0.154493 0.080065 0.594860
Si Si4 0.257697 0.074373 0.091969
Si Si5 0.950838 0.518201 0.159610
Si Si6 0.996067 0.247084 0.478427
O O1 0.661571 0.755157 0.402117
O O2 0.669367 0.990861 0.247933
O O3 0.717364 0.987589 0.484039
O O4 0.625133 0.992951 0.509382
O O5 0.441300 0.447163 0.823225
O O6 0.458228 0.348294 0.074804
O O7 0.455270 0.640094 0.037731
O O8 0.189964 0.022592 0.468747
O O9 0.098714 0.034734 0.566276
O O10 0.250000 0.250000 0.097946
O O11 0.250000 0.007022 0.250000
O O12 0.989697 0.636917 0.105478
O O13 0.973118 0.352590 0.147806
#
# Coordination Sequence:
#
# PCOD8201409 Si02
#       6
#     8   8   8   8   8   8
#     4   9  16  29  51  73  99 135 175 214 258 311
#     4  10  19  34  52  75 105 138 177 220 261 310
#     4   9  16  29  51  73  99 135 175 214 258 311
#     4   9  17  29  45  72 107 130 162 216 267 313
#     4  10  19  34  52  75 105 138 177 220 261 310
#     4  10  20  32  52  76 104 136 172 218 266 308
#
# _framework density 20.540395
#
# number of rings (size 3 to 8) (size 9 to 14) (size 15 to 20)
#    0.000    2.500    1.667    1.500    0.000    2.000 
#    0.000   10.000    0.000    1.000    0.000    5.833 
#    0.000    0.000    0.000    0.000    0.000    0.000 
#
# Total GULP energy -594838.468130 kJ/mol
# GULP energy per Si atom -12392.468086 kJ/mol
# Density = 2.049364 g / cm^3
# Si number density = 20.540395 Si / 1000 Ang^3
#
#
#
# Elastic Constant Matrix: (Units=GPa)
#
#
# Indices 1 2 3 4 5 6 
#
# 1 128.3559 20.3670 44.0855 0.0000 0.0000 0.0000
# 2 20.3670 66.9636 4.8123 0.0000 0.0000 0.0000
# 3 44.0855 4.8123 64.5353 0.0000 0.0000 0.0000
# 4 0.0000 0.0000 0.0000 15.5676 0.0000 0.0000
# 5 0.0000 0.0000 0.0000 0.0000 31.1932 0.0000
# 6 0.0000 0.0000 0.0000 0.0000 0.0000 13.7288
#
#
#
# Elastic Compliance Matrix: (Units=1/GPa)
#
#
# Indices 1 2 3 4 5 6 
#
# 1 0.010654 -0.002732 -0.007074 0.000000 0.000000 0.000000
# 2 -0.002732 0.015715 0.000695 0.000000 0.000000 0.000000
# 3 -0.007074 0.000695 0.020276 0.000000 0.000000 0.000000
# 4 0.000000 0.000000 0.000000 0.064236 0.000000 0.000000
# 5 0.000000 0.000000 0.000000 0.000000 0.032058 0.000000
# 6 0.000000 0.000000 0.000000 0.000000 0.000000 0.072840
#
#
# Mechanical properties :
#
#
# Convention : Reuss Voigt Hill
#
# Bulk Modulus (GPa) = 35.18506 44.26493 39.72499
# Shear Modulus (GPa) = 20.53586 24.80390 22.66988
#
# Velocity S-wave (km/s) = 3.16536 3.47878 3.32576
# Velocity P-wave (km/s) = 5.52505 6.14270 5.84205
#
# Compressibility (1/GPa) = 0.02842115
#
# Stress axis : x y z
#
# Youngs Moduli (GPa) = 93.86033 63.63534 49.31873
#
# Poissons Ratio (x) = 0.17386 0.34890
# Poissons Ratio (y) = 0.25643 -0.03425
# Poissons Ratio (z) = 0.66400 -0.04420
#
# Static dielectric constant tensor:
#      x y z
#    x 4.082240 0.000000 0.000000 
#    y 0.000000 3.455570 0.000000 
#    z 0.000000 0.000000 3.633440 
# 
# 
# High freq. dielectric constant tensor:
#      x y z
#    x 1.810620 0.000000 0.000000 
#    y 0.000000 1.763170 0.000000 
#    z 0.000000 0.000000 1.779410 
# 
# From -- ./inp_files/16781.got.cif
#   From: 2010.06.25/outbox.cif.g09.slc.cpg/sg48_9_cif.got.tgz:16781.got - 2010.06.26 18:06:46.
