data_PCOD8201766
_publ_section_title
;
Structure prediction by ZEFSAII (Michael W. Deem and Ramdas Pophale) SiO2 
 PCOD8201766
Probable space group: P N N N
;
_chemical_formula_sum "Si O2"
_cell_formula_units_Z 48
_cell_length_a 15.534067
_cell_length_b 14.258132
_cell_length_c 10.876800
_cell_angle_alpha 90.000000
_cell_angle_beta 90.000000
_cell_angle_gamma 90.000000
_cell_volume 2409.067385
_symmetry_space_group_name_H-M "P N N N"
_symmetry_group_IT_number 48
_space_group.IT_coordinate_system_code '2'
_symmetry_cell_setting 'orthorhombic'
loop_
_space_group_symop_operation_xyz
x,y,z
1/2-x,1/2-y,z
x,1/2-y,1/2-z
1/2-x,y,1/2-z
-x,-y,-z
1/2+x,1/2+y,-z
-x,1/2+y,1/2+z
1/2+x,-y,1/2+z
loop_
_atom_site_type_symbol
_atom_site_label
_atom_site_fract_x
_atom_site_fract_y
_atom_site_fract_z
Si Si1 0.351836 0.145356 0.258038
Si Si2 0.584450 0.279816 0.609497
Si Si3 0.447303 0.992789 0.122052
Si Si4 0.966539 0.639804 0.512277
Si Si5 0.079453 0.990220 0.837112
Si Si6 0.250000 0.750000 0.541771
Si Si7 0.750000 0.099921 0.250000
O O1 0.389999 0.250000 0.250000
O O2 0.250000 0.145113 0.250000
O O3 0.389795 0.121391 0.391166
O O4 0.378376 0.076076 0.145742
O O5 0.575720 0.250000 0.750000
O O6 0.596860 0.391441 0.615371
O O7 0.500577 0.243658 0.529602
O O8 0.668223 0.234299 0.546132
O O9 0.511829 0.009329 0.230515
O O10 0.500000 0.000000 0.000000
O O11 0.923879 0.594132 0.392226
O O12 0.052308 0.586344 0.560099
O O13 0.171166 0.967817 0.779270
O O14 0.230202 0.838340 0.629633
#
# Coordination Sequence:
#
# PCOD8201766 Si02
#       7
#     8   8   8   8   8   4   4
#     4  10  23  42  66  95 125 172 224 271 326 389
#     4  12  23  41  63  95 137 171 219 274 341 404
#     4  11  23  39  64  96 127 170 222 268 324 397
#     4  10  21  41  65  86 132 173 218 270 333 399
#     4  10  21  40  63  90 125 182 216 268 334 401
#     4  11  25  38  60 100 133 173 212 284 342 401
#     4  11  22  40  64  91 134 168 230 271 339 402
#
# _framework density 19.924723
#
# number of rings (size 3 to 8) (size 9 to 14) (size 15 to 20)
#    0.000    1.333    3.333    2.250    0.000    5.333 
#    0.000    0.000    0.000    1.000    0.000    0.000 
#    0.000    0.000    0.000    0.000    0.000    0.000 
#
# Total GULP energy -594636.566039 kJ/mol
# GULP energy per Si atom -12388.261792 kJ/mol
# Density = 1.987937 g / cm^3
# Si number density = 19.924723 Si / 1000 Ang^3
#
#
#
# Elastic Constant Matrix: (Units=GPa)
#
#
# Indices 1 2 3 4 5 6 
#
# 1 101.6289 36.2560 31.9520 0.0000 0.0000 0.0000
# 2 36.2560 127.6655 29.9802 0.0000 0.0000 0.0000
# 3 31.9520 29.9802 90.9681 0.0000 0.0000 0.0000
# 4 0.0000 0.0000 0.0000 27.9683 0.0000 0.0000
# 5 0.0000 0.0000 0.0000 0.0000 46.8574 0.0000
# 6 0.0000 0.0000 0.0000 0.0000 0.0000 31.0351
#
#
#
# Elastic Compliance Matrix: (Units=1/GPa)
#
#
# Indices 1 2 3 4 5 6 
#
# 1 0.011794 -0.002576 -0.003294 0.000000 0.000000 0.000000
# 2 -0.002576 0.009053 -0.002079 0.000000 0.000000 0.000000
# 3 -0.003294 -0.002079 0.012835 0.000000 0.000000 0.000000
# 4 0.000000 0.000000 0.000000 0.035755 0.000000 0.000000
# 5 0.000000 0.000000 0.000000 0.000000 0.021341 0.000000
# 6 0.000000 0.000000 0.000000 0.000000 0.000000 0.032222
#
#
# Mechanical properties :
#
#
# Convention : Reuss Voigt Hill
#
# Bulk Modulus (GPa) = 56.22713 57.40434 56.81574
# Shear Modulus (GPa) = 34.52455 35.97712 35.25083
#
# Velocity S-wave (km/s) = 4.16715 4.25391 4.21075
# Velocity P-wave (km/s) = 7.17179 7.28016 7.22618
#
# Compressibility (1/GPa) = 0.01778501
#
# Stress axis : x y z
#
# Youngs Moduli (GPa) = 84.78714 110.46461 77.91309
#
# Poissons Ratio (x) = 0.28456 0.25662
# Poissons Ratio (y) = 0.21841 0.16195
# Poissons Ratio (z) = 0.27926 0.22962
#
# Static dielectric constant tensor:
#      x y z
#    x 3.407730 0.000000 0.000000 
#    y 0.000000 4.417320 0.000000 
#    z 0.000000 0.000000 3.552690 
# 
# 
# High freq. dielectric constant tensor:
#      x y z
#    x 1.768150 0.000000 0.000000 
#    y 0.000000 1.777960 0.000000 
#    z 0.000000 0.000000 1.792140 
# 
# From -- ./inp_files/14196.got.cif
#   From: 2010.06.25/outbox.cif.g09.slc.cpg/sg48_8_cif.got.tgz:14196.got - 2010.06.26 18:06:46.
