data_PCOD8201280
_publ_section_title
;
Structure prediction by ZEFSAII (Michael W. Deem and Ramdas Pophale) SiO2 
 PCOD8201280
Probable space group: P N N N
;
_chemical_formula_sum "Si O2"
_cell_formula_units_Z 36
_cell_length_a 8.754857
_cell_length_b 13.657708
_cell_length_c 16.042234
_cell_angle_alpha 90.000000
_cell_angle_beta 90.000000
_cell_angle_gamma 90.000000
_cell_volume 1918.190461
_symmetry_space_group_name_H-M "P N N N"
_symmetry_group_IT_number 48
_space_group.IT_coordinate_system_code '2'
_symmetry_cell_setting 'orthorhombic'
loop_
_space_group_symop_operation_xyz
x,y,z
1/2-x,1/2-y,z
x,1/2-y,1/2-z
1/2-x,y,1/2-z
-x,-y,-z
1/2+x,1/2+y,-z
-x,1/2+y,1/2+z
1/2+x,-y,1/2+z
loop_
_atom_site_type_symbol
_atom_site_label
_atom_site_fract_x
_atom_site_fract_y
_atom_site_fract_z
Si Si1 0.214198 0.360259 0.022648
Si Si2 0.994972 0.817958 0.375802
Si Si3 0.962632 0.598555 0.391367
Si Si4 0.732540 0.486186 0.654598
Si Si5 0.750000 0.872996 0.250000
O O1 0.250000 0.250000 0.052380
O O2 0.161152 0.424232 0.102162
O O3 0.068286 0.360585 0.962229
O O4 0.361593 0.406015 0.975018
O O5 0.043745 0.705315 0.383531
O O6 0.858168 0.808234 0.309229
O O7 0.131363 0.887742 0.346147
O O8 0.858567 0.564886 0.311926
O O9 0.105059 0.526134 0.391520
O O10 0.750000 0.519155 0.750000
#
# Coordination Sequence:
#
# PCOD8201280 Si02
#       5
#     8   8   8   8   4
#     4   9  21  39  54  69 101 150 180 198 243 308
#     4  10  19  33  53  77 107 134 165 209 262 313
#     4  10  19  33  53  77 107 134 165 209 262 313
#     4  12  22  31  52  85 108 128 168 222 258 293
#     4  10  17  30  50  76 107 134 155 196 266 328
#
# _framework density 18.767686999999999
#
# number of rings (size 3 to 8) (size 9 to 14) (size 15 to 20)
#    0.000    1.778    2.222    5.333    0.000    1.333 
#    0.000    0.000    0.000    0.000    0.000    1.556 
#    0.000    0.000    0.000    0.000    0.000    0.000 
#
# Total GULP energy -446107.711639 kJ/mol
# GULP energy per Si atom -12391.880879 kJ/mol
# Density = 1.872497 g / cm^3
# Si number density = 18.767687 Si / 1000 Ang^3
#
#
#
# Elastic Constant Matrix: (Units=GPa)
#
#
# Indices 1 2 3 4 5 6 
#
# 1 60.3908 13.2358 21.3997 0.0000 0.0000 0.0000
# 2 13.2358 45.9701 46.4779 0.0000 0.0000 0.0000
# 3 21.3997 46.4779 114.7037 0.0000 0.0000 0.0000
# 4 0.0000 0.0000 0.0000 26.9431 0.0000 0.0000
# 5 0.0000 0.0000 0.0000 0.0000 12.5093 0.0000
# 6 0.0000 0.0000 0.0000 0.0000 0.0000 21.5259
#
#
#
# Elastic Compliance Matrix: (Units=1/GPa)
#
#
# Indices 1 2 3 4 5 6 
#
# 1 0.017976 -0.003024 -0.002128 0.000000 0.000000 0.000000
# 2 -0.003024 0.037358 -0.014573 0.000000 0.000000 0.000000
# 3 -0.002128 -0.014573 0.015020 0.000000 0.000000 0.000000
# 4 0.000000 0.000000 0.000000 0.037115 0.000000 0.000000
# 5 0.000000 0.000000 0.000000 0.000000 0.079941 0.000000
# 6 0.000000 0.000000 0.000000 0.000000 0.000000 0.046456
#
#
# Mechanical properties :
#
#
# Convention : Reuss Voigt Hill
#
# Bulk Modulus (GPa) = 32.35906 42.58795 37.47350
# Shear Modulus (GPa) = 17.62933 21.52573 19.57753
#
# Velocity S-wave (km/s) = 3.06820 3.39035 3.23329
# Velocity P-wave (km/s) = 5.46179 6.16988 5.82660
#
# Compressibility (1/GPa) = 0.03090325
#
# Stress axis : x y z
#
# Youngs Moduli (GPa) = 55.63054 26.76785 66.57630
#
# Poissons Ratio (x) = 0.08094 0.14171
# Poissons Ratio (y) = 0.16821 0.97025
# Poissons Ratio (z) = 0.11841 0.39010
#
# Static dielectric constant tensor:
#      x y z
#    x 3.388740 0.000000 0.000000 
#    y 0.000000 3.021320 0.000000 
#    z 0.000000 0.000000 3.411310 
# 
# 
# High freq. dielectric constant tensor:
#      x y z
#    x 1.728430 0.000000 0.000000 
#    y 0.000000 1.697040 0.000000 
#    z 0.000000 0.000000 1.731640 
# 
# From -- ./inp_files/12213.got.cif
#   From: 2010.06.25/outbox.cif.g09.slc.cpg/sg48_7_cif.got.tgz:12213.got - 2010.06.26 18:06:46.
