data_PCOD8201052
_publ_section_title
;
Structure prediction by ZEFSAII (Michael W. Deem and Ramdas Pophale) SiO2 
 PCOD8201052
Probable space group: P M M M
;
_chemical_formula_sum "Si O2"
_cell_formula_units_Z 52
_cell_length_a 9.857968
_cell_length_b 9.202363
_cell_length_c 33.573384
_cell_angle_alpha 90.000000
_cell_angle_beta 90.000000
_cell_angle_gamma 90.000000
_cell_volume 3045.663246
_symmetry_space_group_name_H-M "P M M M"
_symmetry_group_IT_number 47
_symmetry_cell_setting 'orthorhombic'
loop_
_space_group_symop_operation_xyz
x,y,z
-x,-y,z
x,-y,-z
-x,y,-z
-x,-y,-z
x,y,-z
-x,y,z
x,-y,z
loop_
_atom_site_type_symbol
_atom_site_label
_atom_site_fract_x
_atom_site_fract_y
_atom_site_fract_z
Si Si1 0.338155 0.163407 0.731018
Si Si2 0.155614 0.167672 0.045658
Si Si3 0.661690 0.835220 0.577212
Si Si4 0.347512 0.672322 0.105944
Si Si5 0.338323 0.664848 0.500000
Si Si6 0.661676 0.335549 0.345714
Si Si7 0.661272 0.661591 0.193980
O O1 0.500000 0.163353 0.731129
O O2 0.283305 0.257555 0.694022
O O3 0.281090 0.231793 0.772040
O O4 0.281994 0.000000 0.727183
O O5 0.248966 0.264471 0.073167
O O6 0.000000 0.209528 0.053685
O O7 0.181051 0.000000 0.055755
O O8 0.193684 0.200094 0.000000
O O9 0.500000 0.837017 0.577188
O O10 0.716709 0.749166 0.538749
O O11 0.716911 0.753107 0.616297
O O12 0.717666 0.000000 0.576674
O O13 0.500000 0.730279 0.098144
O O14 0.345430 0.500000 0.103121
O O15 0.297128 0.719879 0.150138
O O16 0.282334 0.500000 0.500000
O O17 0.500000 0.662895 0.500000
O O18 0.500000 0.336836 0.345915
O O19 0.717782 0.500000 0.347164
O O20 0.500000 0.653626 0.196229
O O21 0.720535 0.500000 0.201383
#
# Coordination Sequence:
#
# PCOD8201052 Si02
#       7
#     8   8   8   8   4   8   8
#     4   9  15  21  30  45  63  83 109 139 170 209
#     4   9  19  35  51  67  90 120 152 184 218 258
#     4   9  15  21  27  34  44  58  80 114 155 199
#     4   9  18  31  47  69  94 117 144 180 219 259
#     4   9  15  21  27  33  41  55  77 107 149 203
#     4   9  15  21  28  37  50  70  95 123 159 205
#     4   8  14  25  38  52  74 101 124 149 186 231
#
# _framework density 17.073457000000001
#
# number of rings (size 3 to 8) (size 9 to 14) (size 15 to 20)
#    0.000    3.154    0.000    3.000    0.000    8.308 
#    0.000    3.846    0.000    0.000    0.000    0.000 
#    0.000    0.000    0.000    0.000    0.000    0.000 
#
# Total GULP energy -644579.508489 kJ/mol
# GULP energy per Si atom -12395.759779 kJ/mol
# Density = 1.703460 g / cm^3
# Si number density = 17.073457 Si / 1000 Ang^3
#
#
#
# Elastic Constant Matrix: (Units=GPa)
#
#
# Indices 1 2 3 4 5 6 
#
# 1 18.0803 17.5992 29.4829 0.0000 0.0000 0.0000
# 2 17.5992 124.6926 76.7874 0.0000 0.0000 0.0000
# 3 29.4829 76.7874 153.1301 0.0000 0.0000 0.0000
# 4 0.0000 0.0000 0.0000 36.0603 0.0000 0.0000
# 5 0.0000 0.0000 0.0000 0.0000 -1.7961 0.0000
# 6 0.0000 0.0000 0.0000 0.0000 0.0000 11.9488
#
#
#
# Elastic Compliance Matrix: (Units=1/GPa)
#
#
# Indices 1 2 3 4 5 6 
#
# 1 0.081222 -0.002653 -0.014308 0.000000 0.000000 0.000000
# 2 -0.002653 0.011689 -0.005351 0.000000 0.000000 0.000000
# 3 -0.014308 -0.005351 0.011968 0.000000 0.000000 0.000000
# 4 0.000000 0.000000 0.000000 0.027731 0.000000 0.000000
# 5 0.000000 0.000000 0.000000 0.000000 -0.556776 0.000000
# 6 0.000000 0.000000 0.000000 0.000000 0.000000 0.083690
#
#
# Mechanical properties :
#
#
# Convention : Reuss Voigt Hill
#
# Bulk Modulus (GPa) = 16.59565 60.40466 38.50016
# Shear Modulus (GPa) = -18.13130 20.71150 1.29010
#
# Velocity S-wave (km/s) = -3.26231 3.48671 0.87021
# Velocity P-wave (km/s) = 2.10925 7.18788 4.85884
#
# Compressibility (1/GPa) = 0.06025675
#
# Stress axis : x y z
#
# Youngs Moduli (GPa) = 12.31192 85.54855 83.55376
#
# Poissons Ratio (x) = 0.22694 1.19547
# Poissons Ratio (y) = 0.03266 0.44708
# Poissons Ratio (z) = 0.17616 0.45776
#
# Static dielectric constant tensor:
#      x y z
#    x 2.445710 0.000000 0.000000 
#    y 0.000000 3.338350 0.000000 
#    z 0.000000 0.000000 3.499820 
# 
# 
# High freq. dielectric constant tensor:
#      x y z
#    x 1.563530 0.000000 0.000000 
#    y 0.000000 1.669170 0.000000 
#    z 0.000000 0.000000 1.678590 
# 
# From -- ./inp_files/34536.got.cif
#   From: 2010.03.12/outbox.cif.g09.slc.cpg/sg47_18_cif.got.tgz:34536.got - 2010.04.14 03:12:58.
