data_PCOD8201346
_publ_section_title
;
Structure prediction by ZEFSAII (Michael W. Deem and Ramdas Pophale) SiO2 
 PCOD8201346
Probable space group: P N N N
;
_chemical_formula_sum "Si O2"
_cell_formula_units_Z 48
_cell_length_a 16.726096
_cell_length_b 14.533261
_cell_length_c 10.726467
_cell_angle_alpha 90.000000
_cell_angle_beta 90.000000
_cell_angle_gamma 90.000000
_cell_volume 2607.440213
_symmetry_space_group_name_H-M "P N N N"
_symmetry_group_IT_number 48
_space_group.IT_coordinate_system_code '2'
_symmetry_cell_setting 'orthorhombic'
loop_
_space_group_symop_operation_xyz
x,y,z
1/2-x,1/2-y,z
x,1/2-y,1/2-z
1/2-x,y,1/2-z
-x,-y,-z
1/2+x,1/2+y,-z
-x,1/2+y,1/2+z
1/2+x,-y,1/2+z
loop_
_atom_site_type_symbol
_atom_site_label
_atom_site_fract_x
_atom_site_fract_y
_atom_site_fract_z
Si Si1 0.067545 0.435632 0.438026
Si Si2 0.888881 0.082436 0.511783
Si Si3 0.864638 0.277543 0.620234
Si Si4 0.989368 0.489218 0.200626
Si Si5 0.541554 0.665912 0.166165
Si Si6 0.274638 0.546961 0.105051
O O1 0.074819 0.342180 0.522922
O O2 0.156985 0.474948 0.430440
O O3 0.000000 0.500000 0.500000
O O4 0.035070 0.420732 0.297106
O O5 0.878777 0.191521 0.530395
O O6 0.804258 0.029456 0.522070
O O7 0.946569 0.039524 0.614322
O O8 0.926239 0.071290 0.375421
O O9 0.823432 0.250000 0.750000
O O10 0.805283 0.352214 0.561425
O O11 0.946535 0.327963 0.656458
O O12 0.938032 0.569635 0.266899
O O13 0.577288 0.750000 0.250000
O O14 0.250000 0.541640 0.250000
#
# Coordination Sequence:
#
# PCOD8201346 Si02
#       6
#     8   8   8   8   8   8
#     4  10  19  36  58  83 119 152 199 240 293 354
#     4  11  21  30  54  90 127 152 184 238 304 356
#     4  11  17  31  54  93 119 142 191 239 287 357
#     4  10  19  35  53  84 122 152 191 235 294 359
#     4  10  18  36  62  83 105 153 204 240 283 350
#     4  12  19  32  57  93 119 150 196 243 295 354
#
# _framework density 18.408859
#
# number of rings (size 3 to 8) (size 9 to 14) (size 15 to 20)
#    0.000    1.333   10.000    0.500    0.000    0.000 
#    0.000    4.167    0.000    2.000    8.667    1.167 
#    0.000    0.000    0.000    0.000    0.000    0.000 
#
# Total GULP energy -594677.897064 kJ/mol
# GULP energy per Si atom -12389.122855 kJ/mol
# Density = 1.836696 g / cm^3
# Si number density = 18.408859 Si / 1000 Ang^3
#
#
#
# Elastic Constant Matrix: (Units=GPa)
#
#
# Indices 1 2 3 4 5 6 
#
# 1 91.4265 23.1964 40.3784 0.0000 0.0000 0.0000
# 2 23.1964 72.1221 52.9048 0.0000 0.0000 0.0000
# 3 40.3784 52.9048 117.3943 0.0000 0.0000 0.0000
# 4 0.0000 0.0000 0.0000 39.9533 0.0000 0.0000
# 5 0.0000 0.0000 0.0000 0.0000 -20.2250 0.0000
# 6 0.0000 0.0000 0.0000 0.0000 0.0000 14.2341
#
#
#
# Elastic Compliance Matrix: (Units=1/GPa)
#
#
# Indices 1 2 3 4 5 6 
#
# 1 0.012984 -0.001344 -0.003860 0.000000 0.000000 0.000000
# 2 -0.001344 0.020852 -0.008935 0.000000 0.000000 0.000000
# 3 -0.003860 -0.008935 0.013872 0.000000 0.000000 0.000000
# 4 0.000000 0.000000 0.000000 0.025029 0.000000 0.000000
# 5 0.000000 0.000000 0.000000 0.000000 -0.049444 0.000000
# 6 0.000000 0.000000 0.000000 0.000000 0.000000 0.070254
#
#
# Mechanical properties :
#
#
# Convention : Reuss Voigt Hill
#
# Bulk Modulus (GPa) = 51.46731 57.10024 54.28378
# Shear Modulus (GPa) = 38.97074 17.75670 28.36372
#
# Velocity S-wave (km/s) = 4.60603 3.10913 3.92952
# Velocity P-wave (km/s) = 7.50373 6.63129 7.08096
#
# Compressibility (1/GPa) = 0.01942981
#
# Stress axis : x y z
#
# Youngs Moduli (GPa) = 77.02040 47.95767 72.08568
#
# Poissons Ratio (x) = 0.06448 0.27824
# Poissons Ratio (y) = 0.10355 0.64406
# Poissons Ratio (z) = 0.29729 0.42848
#
# Static dielectric constant tensor:
#      x y z
#    x 3.424530 0.000000 0.000000 
#    y 0.000000 4.129750 0.000000 
#    z 0.000000 0.000000 3.742370 
# 
# 
# High freq. dielectric constant tensor:
#      x y z
#    x 1.706860 0.000000 0.000000 
#    y 0.000000 1.686290 0.000000 
#    z 0.000000 0.000000 1.706590 
# 
# From -- ./inp_files/21239.got.cif
#   From: 2010.06.25/outbox.cif.g09.slc.cpg/sg48_11_cif.got.tgz:21239.got - 2010.06.26 18:06:46.
