data_PCOD8201793
_publ_section_title
;
Structure prediction by ZEFSAII (Michael W. Deem and Ramdas Pophale) SiO2 
 PCOD8201793
Probable space group: P N N N
;
_chemical_formula_sum "Si O2"
_cell_formula_units_Z 40
_cell_length_a 8.633502
_cell_length_b 15.660407
_cell_length_c 12.373464
_cell_angle_alpha 90.000000
_cell_angle_beta 90.000000
_cell_angle_gamma 90.000000
_cell_volume 1672.943746
_symmetry_space_group_name_H-M "P N N N"
_symmetry_group_IT_number 48
_space_group.IT_coordinate_system_code '2'
_symmetry_cell_setting 'orthorhombic'
loop_
_space_group_symop_operation_xyz
x,y,z
1/2-x,1/2-y,z
x,1/2-y,1/2-z
1/2-x,y,1/2-z
-x,-y,-z
1/2+x,1/2+y,-z
-x,1/2+y,1/2+z
1/2+x,-y,1/2+z
loop_
_atom_site_type_symbol
_atom_site_label
_atom_site_fract_x
_atom_site_fract_y
_atom_site_fract_z
Si Si1 0.754283 0.539089 0.972252
Si Si2 0.454255 0.522078 0.663656
Si Si3 0.892959 0.407094 0.670358
Si Si4 0.402601 0.205951 0.540224
Si Si5 0.912632 0.290562 0.142960
O O1 0.659196 0.453520 0.940796
O O2 0.875511 0.548604 0.875772
O O3 0.849807 0.533841 0.083458
O O4 0.640512 0.619774 0.975218
O O5 0.477141 0.467600 0.772962
O O6 0.370975 0.612446 0.675382
O O7 0.750000 0.385099 0.750000
O O8 0.976417 0.318671 0.635307
O O9 0.250000 0.250000 0.591353
O O10 0.474371 0.276572 0.459048
O O11 0.750000 0.250000 0.111055
O O12 0.988656 0.250000 0.250000
#
# Coordination Sequence:
#
# PCOD8201793 Si02
#       5
#     8   8   8   8   8
#     4  10  21  41  71  96 134 188 236 287 359 433
#     4  10  21  42  68  95 140 182 238 293 348 435
#     4  10  23  43  72 104 140 198 245 287 369 453
#     4  12  24  43  72 107 145 180 240 309 363 423
#     4  11  24  41  68 107 142 183 231 302 368 419
#
# _framework density 23.909949000000001
#
# number of rings (size 3 to 8) (size 9 to 14) (size 15 to 20)
#    0.000    1.400    2.000    3.000    0.000    4.400 
#    0.000    2.000    4.400    0.000    0.000    0.000 
#    0.000    0.000    0.000    0.000    0.000    0.000 
#
# Total GULP energy -495891.928032 kJ/mol
# GULP energy per Si atom -12397.298201 kJ/mol
# Density = 2.385553 g / cm^3
# Si number density = 23.909949 Si / 1000 Ang^3
#
#
#
# Elastic Constant Matrix: (Units=GPa)
#
#
# Indices 1 2 3 4 5 6 
#
# 1 104.8851 30.7430 43.0665 0.0000 0.0000 0.0000
# 2 30.7430 86.3735 28.7940 0.0000 0.0000 0.0000
# 3 43.0665 28.7940 82.2559 0.0000 0.0000 0.0000
# 4 0.0000 0.0000 0.0000 33.5516 0.0000 0.0000
# 5 0.0000 0.0000 0.0000 0.0000 33.7256 0.0000
# 6 0.0000 0.0000 0.0000 0.0000 0.0000 49.3411
#
#
#
# Elastic Compliance Matrix: (Units=1/GPa)
#
#
# Indices 1 2 3 4 5 6 
#
# 1 0.012639 -0.002596 -0.005709 0.000000 0.000000 0.000000
# 2 -0.002596 0.013640 -0.003416 0.000000 0.000000 0.000000
# 3 -0.005709 -0.003416 0.016342 0.000000 0.000000 0.000000
# 4 0.000000 0.000000 0.000000 0.029805 0.000000 0.000000
# 5 0.000000 0.000000 0.000000 0.000000 0.029651 0.000000
# 6 0.000000 0.000000 0.000000 0.000000 0.000000 0.020267
#
#
# Mechanical properties :
#
#
# Convention : Reuss Voigt Hill
#
# Bulk Modulus (GPa) = 52.13573 53.19127 52.66350
# Shear Modulus (GPa) = 32.85624 34.71775 33.78700
#
# Velocity S-wave (km/s) = 3.71100 3.81467 3.76319
# Velocity P-wave (km/s) = 6.34148 6.45733 6.39967
#
# Compressibility (1/GPa) = 0.01918070
#
# Stress axis : x y z
#
# Youngs Moduli (GPa) = 79.11959 73.31281 61.19245
#
# Poissons Ratio (x) = 0.19028 0.34934
# Poissons Ratio (y) = 0.20536 0.20903
# Poissons Ratio (z) = 0.45168 0.25043
#
# Static dielectric constant tensor:
#      x y z
#    x 4.390800 0.000000 0.000000 
#    y 0.000000 4.233490 0.000000 
#    z 0.000000 0.000000 4.182180 
# 
# 
# High freq. dielectric constant tensor:
#      x y z
#    x 1.961410 0.000000 0.000000 
#    y 0.000000 1.944860 0.000000 
#    z 0.000000 0.000000 1.932010 
# 
# From -- ./inp_files/12322.got.cif
#   From: 2010.06.25/outbox.cif.g09.slc.cpg/sg48_7_cif.got.tgz:12322.got - 2010.06.26 18:06:46.
