data_PCOD8201650
_publ_section_title
;
Structure prediction by ZEFSAII (Michael W. Deem and Ramdas Pophale) SiO2 
 PCOD8201650
Probable space group: P N N N
;
_chemical_formula_sum "Si O2"
_cell_formula_units_Z 34
_cell_length_a 22.922380
_cell_length_b 11.834698
_cell_length_c 5.272553
_cell_angle_alpha 90.000000
_cell_angle_beta 90.000000
_cell_angle_gamma 90.000000
_cell_volume 1430.335250
_symmetry_space_group_name_H-M "P N N N"
_symmetry_group_IT_number 48
_space_group.IT_coordinate_system_code '2'
_symmetry_cell_setting 'orthorhombic'
loop_
_space_group_symop_operation_xyz
x,y,z
1/2-x,1/2-y,z
x,1/2-y,1/2-z
1/2-x,y,1/2-z
-x,-y,-z
1/2+x,1/2+y,-z
-x,1/2+y,1/2+z
1/2+x,-y,1/2+z
loop_
_atom_site_type_symbol
_atom_site_label
_atom_site_fract_x
_atom_site_fract_y
_atom_site_fract_z
Si Si1 0.250000 0.250000 0.750000
Si Si2 0.431943 0.078661 0.273460
Si Si3 0.185114 0.800232 0.995348
Si Si4 0.305621 0.441159 0.079771
Si Si5 0.495242 0.368250 0.707584
O O1 0.293014 0.166178 0.598737
O O2 0.362334 0.090306 0.255872
O O3 0.452292 0.099114 0.561245
O O4 0.452231 0.955087 0.179017
O O5 0.458728 0.156497 0.052534
O O6 0.250000 0.750000 0.994248
O O7 0.154665 0.750000 0.250000
O O8 0.183203 0.936242 0.953681
O O9 0.151335 0.750000 0.750000
O O10 0.250000 0.460169 0.250000
O O11 0.527090 0.250000 0.750000
#
# Coordination Sequence:
#
# PCOD8201650 Si02
#       5
#     2   8   8   8   8
#     4  12  30  44  66 102 160 208 246 274 364 464
#     4  10  25  43  72 104 136 183 238 292 357 427
#     4  10  20  40  67  91 131 187 229 294 346 409
#     4  12  27  46  68 107 151 196 246 293 363 450
#     4  10  22  46  72 101 136 178 237 302 360 418
#
# _framework density 23.77065
#
# number of rings (size 3 to 8) (size 9 to 14) (size 15 to 20)
#    0.000    1.412    2.353    2.471    4.941    2.824 
#    0.000    4.706    0.000    0.000    0.000    0.000 
#    0.000    0.000    0.000    0.000    0.000    0.000 
#
# Total GULP energy -421208.162163 kJ/mol
# GULP energy per Si atom -12388.475358 kJ/mol
# Density = 2.371655 g / cm^3
# Si number density = 23.770650 Si / 1000 Ang^3
#
#
#
# Elastic Constant Matrix: (Units=GPa)
#
#
# Indices 1 2 3 4 5 6 
#
# 1 108.1147 14.7921 27.7934 0.0000 0.0000 0.0000
# 2 14.7921 166.6379 36.1102 0.0000 0.0000 0.0000
# 3 27.7934 36.1102 171.5194 0.0000 0.0000 0.0000
# 4 0.0000 0.0000 0.0000 35.8426 0.0000 0.0000
# 5 0.0000 0.0000 0.0000 0.0000 -45.6411 0.0000
# 6 0.0000 0.0000 0.0000 0.0000 0.0000 -7.9714
#
#
#
# Elastic Compliance Matrix: (Units=1/GPa)
#
#
# Indices 1 2 3 4 5 6 
#
# 1 0.009699 -0.000545 -0.001457 0.000000 0.000000 0.000000
# 2 -0.000545 0.006319 -0.001242 0.000000 0.000000 0.000000
# 3 -0.001457 -0.001242 0.006328 0.000000 0.000000 0.000000
# 4 0.000000 0.000000 0.000000 0.027900 0.000000 0.000000
# 5 0.000000 0.000000 0.000000 0.000000 -0.021910 0.000000
# 6 0.000000 0.000000 0.000000 0.000000 0.000000 -0.125448
#
#
# Mechanical properties :
#
#
# Convention : Reuss Voigt Hill
#
# Bulk Modulus (GPa) = 63.06360 67.07373 65.06867
# Shear Modulus (GPa) = -58.58891 20.95111 -18.81890
#
# Velocity S-wave (km/s) = -4.97002 2.97203 -2.81674
# Velocity P-wave (km/s) = 2.51936 6.32895 4.10539
#
# Compressibility (1/GPa) = 0.01585701
#
# Stress axis : x y z
#
# Youngs Moduli (GPa) = 103.10832 158.26401 158.03368
#
# Poissons Ratio (x) = 0.08629 0.23022
# Poissons Ratio (y) = 0.05622 0.19626
# Poissons Ratio (z) = 0.15021 0.19655
#
# Static dielectric constant tensor:
#      x y z
#    x 3.875180 0.000000 0.000000 
#    y 0.000000 5.122960 0.000000 
#    z 0.000000 0.000000 5.267850 
# 
# 
# High freq. dielectric constant tensor:
#      x y z
#    x 1.912020 0.000000 0.000000 
#    y 0.000000 1.965970 0.000000 
#    z 0.000000 0.000000 1.950900 
# 
# From -- ./inp_files/2197.got.cif
#   From: 2010.06.25/outbox.cif.g09.slc.cpg/sg48_2_cif.got.tgz:2197.got - 2010.06.26 18:06:46.
