data_PCOD8201609
_publ_section_title
;
Structure prediction by ZEFSAII (Michael W. Deem and Ramdas Pophale) SiO2 
 PCOD8201609
Probable space group: P N N N
;
_chemical_formula_sum "Si O2"
_cell_formula_units_Z 42
_cell_length_a 8.607550
_cell_length_b 20.503409
_cell_length_c 11.953235
_cell_angle_alpha 90.000000
_cell_angle_beta 90.000000
_cell_angle_gamma 90.000000
_cell_volume 2109.556138
_symmetry_space_group_name_H-M "P N N N"
_symmetry_group_IT_number 48
_space_group.IT_coordinate_system_code '2'
_symmetry_cell_setting 'orthorhombic'
loop_
_space_group_symop_operation_xyz
x,y,z
1/2-x,1/2-y,z
x,1/2-y,1/2-z
1/2-x,y,1/2-z
-x,-y,-z
1/2+x,1/2+y,-z
-x,1/2+y,1/2+z
1/2+x,-y,1/2+z
loop_
_atom_site_type_symbol
_atom_site_label
_atom_site_fract_x
_atom_site_fract_y
_atom_site_fract_z
Si Si1 0.140596 0.968082 0.564791
Si Si2 0.168110 0.532928 0.361233
Si Si3 0.316548 0.378434 0.098355
Si Si4 0.006089 0.850987 0.697723
Si Si5 0.827906 0.587032 0.356871
Si Si6 0.250000 0.750000 0.750000
O O1 0.257271 0.935147 0.473338
O O2 0.085243 0.917340 0.657648
O O3 0.217211 0.025552 0.632565
O O4 0.000000 0.000000 0.500000
O O5 0.250000 0.557752 0.250000
O O6 0.189155 0.455390 0.375941
O O7 0.996397 0.557304 0.341901
O O8 0.463388 0.351433 0.169272
O O9 0.156993 0.341866 0.132989
O O10 0.332848 0.365967 0.965689
O O11 0.133375 0.794472 0.675086
O O12 0.750000 0.625015 0.250000
#
# Coordination Sequence:
#
# PCOD8201609 Si02
#       6
#     8   8   8   8   8   2
#     4  11  19  34  59  86 127 167 196 265 317 385
#     4  11  20  31  52  96 126 169 200 236 338 385
#     4  10  20  38  61  78 126 168 199 261 308 383
#     4  11  23  41  59  86 122 160 217 253 314 371
#     4  11  22  31  53  96 128 162 201 240 330 390
#     4  12  32  38  64  92 118 174 220 268 310 364
#
# _framework density 19.909400000000002
#
# number of rings (size 3 to 8) (size 9 to 14) (size 15 to 20)
#    0.000    1.143    5.714    4.571    6.667    1.524 
#    0.000    0.000    0.000    0.000    0.000    7.333 
#    0.000    0.000    0.000    0.000    0.000    0.000 
#
# Total GULP energy -520365.209456 kJ/mol
# GULP energy per Si atom -12389.647844 kJ/mol
# Density = 1.986409 g / cm^3
# Si number density = 19.909400 Si / 1000 Ang^3
#
#
#
# Elastic Constant Matrix: (Units=GPa)
#
#
# Indices 1 2 3 4 5 6 
#
# 1 139.4225 33.2431 43.5789 0.0000 0.0000 0.0000
# 2 33.2431 47.8743 17.0917 0.0000 0.0000 0.0000
# 3 43.5789 17.0917 142.0630 0.0000 0.0000 0.0000
# 4 0.0000 0.0000 0.0000 11.0097 0.0000 0.0000
# 5 0.0000 0.0000 0.0000 0.0000 36.9920 0.0000
# 6 0.0000 0.0000 0.0000 0.0000 0.0000 51.0149
#
#
#
# Elastic Compliance Matrix: (Units=1/GPa)
#
#
# Indices 1 2 3 4 5 6 
#
# 1 0.009179 -0.005609 -0.002141 0.000000 0.000000 0.000000
# 2 -0.005609 0.025254 -0.001318 0.000000 0.000000 0.000000
# 3 -0.002141 -0.001318 0.007854 0.000000 0.000000 0.000000
# 4 0.000000 0.000000 0.000000 0.090829 0.000000 0.000000
# 5 0.000000 0.000000 0.000000 0.000000 0.027033 0.000000
# 6 0.000000 0.000000 0.000000 0.000000 0.000000 0.019602
#
#
# Mechanical properties :
#
#
# Convention : Reuss Voigt Hill
#
# Bulk Modulus (GPa) = 41.40573 57.46526 49.43549
# Shear Modulus (GPa) = 24.27922 35.49972 29.88947
#
# Velocity S-wave (km/s) = 3.49590 4.22721 3.87883
# Velocity P-wave (km/s) = 6.09404 7.26305 6.70407
#
# Compressibility (1/GPa) = 0.02415125
#
# Stress axis : x y z
#
# Youngs Moduli (GPa) = 108.94307 39.59836 127.31763
#
# Poissons Ratio (x) = 0.22213 0.27257
# Poissons Ratio (y) = 0.61112 0.16774
# Poissons Ratio (z) = 0.23323 0.05217
#
# Static dielectric constant tensor:
#      x y z
#    x 4.017900 0.000000 0.000000 
#    y 0.000000 2.921010 0.000000 
#    z 0.000000 0.000000 3.801620 
# 
# 
# High freq. dielectric constant tensor:
#      x y z
#    x 1.807830 0.000000 0.000000 
#    y 0.000000 1.698260 0.000000 
#    z 0.000000 0.000000 1.788760 
# 
# From -- ./inp_files/11166.got.cif
#   From: 2010.06.25/outbox.cif.g09.slc.cpg/sg48_6_cif.got.tgz:11166.got - 2010.06.26 18:06:46.
