data_PCOD8201158
_publ_section_title
;
Structure prediction by ZEFSAII (Michael W. Deem and Ramdas Pophale) SiO2 
 PCOD8201158
Probable space group: P M M M
;
_chemical_formula_sum "Si O2"
_cell_formula_units_Z 60
_cell_length_a 23.593354
_cell_length_b 9.399849
_cell_length_c 18.527298
_cell_angle_alpha 90.000000
_cell_angle_beta 90.000000
_cell_angle_gamma 90.000000
_cell_volume 4108.872338
_symmetry_space_group_name_H-M "P M M M"
_symmetry_group_IT_number 47
_symmetry_cell_setting 'orthorhombic'
loop_
_space_group_symop_operation_xyz
x,y,z
-x,-y,z
x,-y,-z
-x,y,-z
-x,-y,-z
x,y,-z
-x,y,z
x,-y,z
loop_
_atom_site_type_symbol
_atom_site_label
_atom_site_fract_x
_atom_site_fract_y
_atom_site_fract_z
Si Si1 0.674332 0.834599 0.794492
Si Si2 0.720086 0.333352 0.917704
Si Si3 0.768615 0.660211 0.279774
Si Si4 0.063844 0.167085 0.081705
Si Si5 0.500000 0.831183 0.582021
Si Si6 0.715090 0.662994 0.420292
Si Si7 0.159909 0.339623 0.152946
Si Si8 0.615308 0.833656 0.653259
O O1 0.672145 0.747734 0.869936
O O2 0.728869 0.782510 0.751021
O O3 0.621231 0.806334 0.740097
O O4 0.680249 0.000000 0.813442
O O5 0.708612 0.500000 0.910405
O O6 0.783145 0.294296 0.889898
O O7 0.714198 0.281659 0.000000
O O8 0.745110 0.500000 0.261065
O O9 0.769675 0.680112 0.366661
O O10 0.829180 0.675420 0.239649
O O11 0.107568 0.240199 0.135111
O O12 0.000000 0.210395 0.103821
O O13 0.072012 0.000000 0.088396
O O14 0.076118 0.216945 0.000000
O O15 0.500000 0.770586 0.500000
O O16 0.554709 0.776405 0.626030
O O17 0.500000 0.000000 0.579444
O O18 0.733542 0.714634 0.500000
O O19 0.694955 0.500000 0.421985
O O20 0.662601 0.753475 0.392447
O O21 0.143353 0.500000 0.131616
O O22 0.622896 0.000000 0.636637
#
# Coordination Sequence:
#
# PCOD8201158 Si02
#       8
#     8   8   8   8   4   8   8   8
#     4   9  16  25  38  57  78  99 127 161 193 227
#     4   9  17  28  41  58  80 104 128 155 192 236
#     4   8  15  27  39  53  77 105 129 155 190 232
#     4   9  18  30  40  52  74 103 131 158 189 222
#     4   9  16  26  41  59  78 103 134 162 189 225
#     4   9  16  26  41  59  79 105 133 158 189 230
#     4   9  16  26  40  56  75 100 128 157 187 220
#     4   9  17  28  41  57  78 105 134 162 192 227
#
# _framework density 14.602546
#
# number of rings (size 3 to 8) (size 9 to 14) (size 15 to 20)
#    0.000    3.133    0.000    2.400    0.000    4.800 
#    0.000    1.000    0.000    1.200    0.000    0.467 
#    0.000    4.267    0.000    6.667    0.000    1.067 
#
# Total GULP energy -743312.257623 kJ/mol
# GULP energy per Si atom -12388.537627 kJ/mol
# Density = 1.456931 g / cm^3
# Si number density = 14.602546 Si / 1000 Ang^3
#
#
#
# Elastic Constant Matrix: (Units=GPa)
#
#
# Indices 1 2 3 4 5 6 
#
# 1 73.0205 30.5254 59.2425 0.0000 0.0000 0.0000
# 2 30.5254 41.3961 40.2063 0.0000 0.0000 0.0000
# 3 59.2425 40.2063 137.5521 0.0000 0.0000 0.0000
# 4 0.0000 0.0000 0.0000 20.7560 0.0000 0.0000
# 5 0.0000 0.0000 0.0000 0.0000 23.3892 0.0000
# 6 0.0000 0.0000 0.0000 0.0000 0.0000 13.5374
#
#
#
# Elastic Compliance Matrix: (Units=1/GPa)
#
#
# Indices 1 2 3 4 5 6 
#
# 1 0.024027 -0.010706 -0.007219 0.000000 0.000000 0.000000
# 2 -0.010706 0.038504 -0.006644 0.000000 0.000000 0.000000
# 3 -0.007219 -0.006644 0.012321 0.000000 0.000000 0.000000
# 4 0.000000 0.000000 0.000000 0.048179 0.000000 0.000000
# 5 0.000000 0.000000 0.000000 0.000000 0.042755 0.000000
# 6 0.000000 0.000000 0.000000 0.000000 0.000000 0.073869
#
#
# Mechanical properties :
#
#
# Convention : Reuss Voigt Hill
#
# Bulk Modulus (GPa) = 38.88782 56.87967 47.88374
# Shear Modulus (GPa) = 16.81438 19.66951 18.24194
#
# Velocity S-wave (km/s) = 3.39701 3.67412 3.53828
# Velocity P-wave (km/s) = 6.48652 7.55217 7.03954
#
# Compressibility (1/GPa) = 0.02571499
#
# Stress axis : x y z
#
# Youngs Moduli (GPa) = 41.61960 25.97111 81.16205
#
# Poissons Ratio (x) = 0.27805 0.58590
# Poissons Ratio (y) = 0.44559 0.53922
# Poissons Ratio (z) = 0.30045 0.17254
#
# Static dielectric constant tensor:
#      x y z
#    x 2.638300 0.000000 0.000000 
#    y 0.000000 2.806820 0.000000 
#    z 0.000000 0.000000 3.206790 
# 
# 
# High freq. dielectric constant tensor:
#      x y z
#    x 1.514160 0.000000 0.000000 
#    y 0.000000 1.558180 0.000000 
#    z 0.000000 0.000000 1.562130 
# 
# From -- ./inp_files/28898.got.cif
#   From: 2010.03.12/outbox.cif.g09.slc.cpg/sg47_15_cif.got.tgz:28898.got - 2010.04.14 03:12:58.
