data_PCOD8201508
_publ_section_title
;
Structure prediction by ZEFSAII (Michael W. Deem and Ramdas Pophale) SiO2 
 PCOD8201508
Probable space group: P N N N
;
_chemical_formula_sum "Si O2"
_cell_formula_units_Z 38
_cell_length_a 10.078292
_cell_length_b 10.078297
_cell_length_c 19.009575
_cell_angle_alpha 90.000000
_cell_angle_beta 90.000000
_cell_angle_gamma 90.000000
_cell_volume 1930.840933
_symmetry_space_group_name_H-M "P N N N"
_symmetry_group_IT_number 48
_space_group.IT_coordinate_system_code '2'
_symmetry_cell_setting 'orthorhombic'
loop_
_space_group_symop_operation_xyz
x,y,z
1/2-x,1/2-y,z
x,1/2-y,1/2-z
1/2-x,y,1/2-z
-x,-y,-z
1/2+x,1/2+y,-z
-x,1/2+y,1/2+z
1/2+x,-y,1/2+z
loop_
_atom_site_type_symbol
_atom_site_label
_atom_site_fract_x
_atom_site_fract_y
_atom_site_fract_z
Si Si1 0.397783 0.721815 0.331723
Si Si2 0.854272 0.854271 0.102449
Si Si3 0.750000 0.750000 0.967871
Si Si4 0.278184 0.897783 0.831723
Si Si5 0.250000 0.250000 0.250000
Si Si6 0.915342 0.915342 0.642841
O O1 0.250000 0.750000 0.354413
O O2 0.426152 0.750000 0.250000
O O3 0.497479 0.816378 0.374584
O O4 0.403337 0.571318 0.354937
O O5 0.750000 0.750000 0.138183
O O6 0.816379 0.002521 0.125416
O O7 0.842827 0.842828 0.017478
O O8 0.846890 0.653110 0.924524
O O9 0.250000 0.750000 0.854415
O O10 0.250000 0.926150 0.750000
O O11 0.428682 0.903338 0.854937
O O12 0.152881 0.152881 0.290975
#
# Coordination Sequence:
#
# PCOD8201508 Si02
#       6
#     8   8   4   8   2   8
#     4  11  23  38  65  97 127 163 216 273 326 375
#     4  10  22  41  64  90 126 175 215 253 308 389
#     4   9  24  41  67  88 125 180 216 244 321 392
#     4  11  23  38  65  97 127 163 216 273 326 375
#     4  10  20  32  64  84 118 172 206 272 334 380
#     4  11  21  42  60  89 131 167 208 271 323 378
#
# _framework density 19.680546
#
# number of rings (size 3 to 8) (size 9 to 14) (size 15 to 20)
#    0.632    0.842    2.105    3.789    0.000    6.737 
#    0.000    6.316    0.000    0.000    0.000    0.000 
#    0.000    0.000    0.000    0.000    0.000    0.000 
#
# Total GULP energy -470772.914319 kJ/mol
# GULP energy per Si atom -12388.760903 kJ/mol
# Density = 1.963575 g / cm^3
# Si number density = 19.680546 Si / 1000 Ang^3
#
#
#
# Elastic Constant Matrix: (Units=GPa)
#
#
# Indices 1 2 3 4 5 6 
#
# 1 172.7696 74.2035 77.7424 0.0000 0.0000 0.0000
# 2 74.2035 172.7749 77.7423 0.0000 0.0000 0.0000
# 3 77.7424 77.7423 131.6276 0.0000 0.0000 0.0000
# 4 0.0000 0.0000 0.0000 28.7338 0.0000 0.0000
# 5 0.0000 0.0000 0.0000 0.0000 28.7335 0.0000
# 6 0.0000 0.0000 0.0000 0.0000 0.0000 61.2658
#
#
#
# Elastic Compliance Matrix: (Units=1/GPa)
#
#
# Indices 1 2 3 4 5 6 
#
# 1 0.008296 -0.001850 -0.003807 0.000000 0.000000 0.000000
# 2 -0.001850 0.008295 -0.003807 0.000000 0.000000 0.000000
# 3 -0.003807 -0.003807 0.012094 0.000000 0.000000 0.000000
# 4 0.000000 0.000000 0.000000 0.034802 0.000000 0.000000
# 5 0.000000 0.000000 0.000000 0.000000 0.034803 0.000000
# 6 0.000000 0.000000 0.000000 0.000000 0.000000 0.016322
#
#
# Mechanical properties :
#
#
# Convention : Reuss Voigt Hill
#
# Bulk Modulus (GPa) = 102.48381 104.06096 103.27239
# Shear Modulus (GPa) = 36.55182 40.24554 38.39868
#
# Velocity S-wave (km/s) = 4.31426 4.52701 4.42192
# Velocity P-wave (km/s) = 8.77519 8.96186 8.86901
#
# Compressibility (1/GPa) = 0.00975764
#
# Stress axis : x y z
#
# Youngs Moduli (GPa) = 120.54556 120.55070 82.68451
#
# Poissons Ratio (x) = 0.22299 0.31479
# Poissons Ratio (y) = 0.22298 0.31477
# Poissons Ratio (z) = 0.45893 0.45892
#
# Static dielectric constant tensor:
#      x y z
#    x 3.638550 0.000000 0.000000 
#    y 0.000000 3.638550 0.000000 
#    z 0.000000 0.000000 3.508900 
# 
# 
# High freq. dielectric constant tensor:
#      x y z
#    x 1.783470 0.000000 0.000000 
#    y 0.000000 1.783470 0.000000 
#    z 0.000000 0.000000 1.755250 
# 
# From -- ./inp_files/35718.got.cif
#   From: 2010.06.25/outbox.cif.g09.slc.cpg/sg48_18_cif.got.tgz:35718.got - 2010.06.26 18:06:46.
