data_PCOD8201099
_publ_section_title
;
Structure prediction by ZEFSAII (Michael W. Deem and Ramdas Pophale) SiO2 
 PCOD8201099
Probable space group: P M M M
;
_chemical_formula_sum "Si O2"
_cell_formula_units_Z 52
_cell_length_a 33.385720
_cell_length_b 9.915751
_cell_length_c 9.176170
_cell_angle_alpha 90.000000
_cell_angle_beta 90.000000
_cell_angle_gamma 90.000000
_cell_volume 3037.720485
_symmetry_space_group_name_H-M "P M M M"
_symmetry_group_IT_number 47
_symmetry_cell_setting 'orthorhombic'
loop_
_space_group_symop_operation_xyz
x,y,z
-x,-y,z
x,-y,-z
-x,y,-z
-x,-y,-z
x,y,-z
-x,y,z
x,-y,z
loop_
_atom_site_type_symbol
_atom_site_label
_atom_site_fract_x
_atom_site_fract_y
_atom_site_fract_z
Si Si1 0.851797 0.849005 0.673118
Si Si2 0.306008 0.654804 0.671070
Si Si3 0.455560 0.848855 0.826848
Si Si4 0.000000 0.660149 0.164235
Si Si5 0.386626 0.345200 0.171071
Si Si6 0.237106 0.151132 0.673112
Si Si7 0.078687 0.655928 0.328669
O O1 0.851561 0.844368 0.500000
O O2 0.807351 0.810410 0.731047
O O3 0.883906 0.741726 0.732883
O O4 0.863184 0.000000 0.725974
O O5 0.312001 0.677642 0.500000
O O6 0.296032 0.500000 0.707706
O O7 0.346318 0.702392 0.749994
O O8 0.269586 0.743898 0.735105
O O9 0.500000 0.809880 0.769107
O O10 0.423040 0.743967 0.764996
O O11 0.444403 0.000000 0.774834
O O12 0.455692 0.842361 0.000000
O O13 0.960662 0.711880 0.247947
O O14 0.000000 0.500000 0.165083
O O15 0.000000 0.717303 0.000000
O O16 0.396607 0.500000 0.207752
O O17 0.380627 0.322432 0.000000
O O18 0.236951 0.158184 0.500000
O O19 0.248382 0.000000 0.724752
O O20 0.072008 0.677007 0.500000
O O21 0.087175 0.500000 0.291651
#
# Coordination Sequence:
#
# PCOD8201099 Si02
#       7
#     8   8   8   4   8   8   8
#     4   8  14  25  41  62  87 110 132 165 209 248
#     4   9  17  28  42  61  85 111 138 169 203 239
#     4   8  14  25  41  61  83 105 132 169 209 244
#     4   9  17  29  44  61  84 114 142 167 200 244
#     4   9  17  28  42  61  84 108 134 166 204 244
#     4   8  14  25  41  61  84 109 137 168 202 241
#     4   9  16  26  43  66  86 104 133 173 208 237
#
# _framework density 17.118098
#
# number of rings (size 3 to 8) (size 9 to 14) (size 15 to 20)
#    0.000    3.462    0.000    1.615    0.000    2.462 
#    0.000    5.000    0.000    4.154    0.000    9.692 
#    0.000    0.000    0.000    0.000    0.000    0.000 
#
# Total GULP energy -644520.248800 kJ/mol
# GULP energy per Si atom -12394.620169 kJ/mol
# Density = 1.707914 g / cm^3
# Si number density = 17.118098 Si / 1000 Ang^3
#
#
#
# Elastic Constant Matrix: (Units=GPa)
#
#
# Indices 1 2 3 4 5 6 
#
# 1 183.9639 103.2838 32.5664 0.0000 0.0000 0.0000
# 2 103.2838 98.6771 21.7728 0.0000 0.0000 0.0000
# 3 32.5664 21.7728 22.4380 0.0000 0.0000 0.0000
# 4 0.0000 0.0000 0.0000 9.8561 0.0000 0.0000
# 5 0.0000 0.0000 0.0000 0.0000 4.7565 0.0000
# 6 0.0000 0.0000 0.0000 0.0000 0.0000 34.2816
#
#
#
# Elastic Compliance Matrix: (Units=1/GPa)
#
#
# Indices 1 2 3 4 5 6 
#
# 1 0.014197 -0.013123 -0.007872 0.000000 0.000000 0.000000
# 2 -0.013123 0.025025 -0.005237 0.000000 0.000000 0.000000
# 3 -0.007872 -0.005237 0.061073 0.000000 0.000000 0.000000
# 4 0.000000 0.000000 0.000000 0.101460 0.000000 0.000000
# 5 0.000000 0.000000 0.000000 0.000000 0.210237 0.000000
# 6 0.000000 0.000000 0.000000 0.000000 0.000000 0.029170
#
#
# Mechanical properties :
#
#
# Convention : Reuss Voigt Hill
#
# Bulk Modulus (GPa) = 20.90596 68.92500 44.91548
# Shear Modulus (GPa) = 9.81221 19.60924 14.71072
#
# Velocity S-wave (km/s) = 2.39677 3.38823 2.93468
# Velocity P-wave (km/s) = 4.46079 7.46047 6.14643
#
# Compressibility (1/GPa) = 0.04783326
#
# Stress axis : x y z
#
# Youngs Moduli (GPa) = 70.43718 39.95984 16.37376
#
# Poissons Ratio (x) = 0.52439 0.12889
# Poissons Ratio (y) = 0.92435 0.08574
# Poissons Ratio (z) = 0.55446 0.20925
#
# Static dielectric constant tensor:
#      x y z
#    x 3.584770 0.000000 0.000000 
#    y 0.000000 3.289580 0.000000 
#    z 0.000000 0.000000 2.734670 
# 
# 
# High freq. dielectric constant tensor:
#      x y z
#    x 1.672090 0.000000 0.000000 
#    y 0.000000 1.653550 0.000000 
#    z 0.000000 0.000000 1.606730 
# 
# From -- ./inp_files/13257.got.cif
#   From: 2010.03.12/outbox.cif.g09.slc.cpg/sg47_7_cif.got.tgz:13257.got - 2010.04.14 03:12:58.
