data_PCOD8201829
_publ_section_title
;
Structure prediction by ZEFSAII (Michael W. Deem and Ramdas Pophale) SiO2 
 PCOD8201829
Probable space group: P N N N
;
_chemical_formula_sum "Si O2"
_cell_formula_units_Z 26
_cell_length_a 7.029026
_cell_length_b 19.585050
_cell_length_c 9.591078
_cell_angle_alpha 90.000000
_cell_angle_beta 90.000000
_cell_angle_gamma 90.000000
_cell_volume 1320.344490
_symmetry_space_group_name_H-M "P N N N"
_symmetry_group_IT_number 48
_space_group.IT_coordinate_system_code '2'
_symmetry_cell_setting 'orthorhombic'
loop_
_space_group_symop_operation_xyz
x,y,z
1/2-x,1/2-y,z
x,1/2-y,1/2-z
1/2-x,y,1/2-z
-x,-y,-z
1/2+x,1/2+y,-z
-x,1/2+y,1/2+z
1/2+x,-y,1/2+z
loop_
_atom_site_type_symbol
_atom_site_label
_atom_site_fract_x
_atom_site_fract_y
_atom_site_fract_z
Si Si1 0.489451 0.634324 0.873494
Si Si2 0.882679 0.587649 0.912555
Si Si3 0.250000 0.750000 0.750000
Si Si4 0.778866 0.067035 0.593801
O O1 0.712654 0.643664 0.915697
O O2 0.484380 0.594820 0.724767
O O3 0.384607 0.706463 0.852804
O O4 0.389695 0.591480 0.994463
O O5 0.780192 0.514575 0.911911
O O6 0.017885 0.597210 0.045165
O O7 0.750000 0.094366 0.750000
#
# Coordination Sequence:
#
# PCOD8201829 Si02
#       4
#     8   8   2   8
#     4  11  22  42  59  97 120 173 216 255 314 379
#     4  10  22  37  64  96 127 162 207 264 323 379
#     4  12  24  42  70  80 130 180 222 268 288 404
#     4  11  21  37  63  99 131 161 198 274 329 376
#
# _framework density 19.69183
#
# number of rings (size 3 to 8) (size 9 to 14) (size 15 to 20)
#    0.000    1.231    6.154    0.923    0.000    3.692 
#    0.000    0.769    0.000    0.000   16.000    0.000 
#    0.000    0.000    0.000    0.000    0.000    0.000 
#
# Total GULP energy -322333.793431 kJ/mol
# GULP energy per Si atom -12397.453594 kJ/mol
# Density = 1.964701 g / cm^3
# Si number density = 19.691830 Si / 1000 Ang^3
#
#
#
# Elastic Constant Matrix: (Units=GPa)
#
#
# Indices 1 2 3 4 5 6 
#
# 1 135.9662 52.2448 88.3291 0.0000 0.0000 0.0000
# 2 52.2448 72.3169 47.1018 0.0000 0.0000 0.0000
# 3 88.3291 47.1018 163.9381 0.0000 0.0000 0.0000
# 4 0.0000 0.0000 0.0000 17.6195 0.0000 0.0000
# 5 0.0000 0.0000 0.0000 0.0000 46.1086 0.0000
# 6 0.0000 0.0000 0.0000 0.0000 0.0000 33.3800
#
#
#
# Elastic Compliance Matrix: (Units=1/GPa)
#
#
# Indices 1 2 3 4 5 6 
#
# 1 0.013141 -0.006006 -0.005355 0.000000 0.000000 0.000000
# 2 -0.006006 0.019757 -0.002440 0.000000 0.000000 0.000000
# 3 -0.005355 -0.002440 0.009686 0.000000 0.000000 0.000000
# 4 0.000000 0.000000 0.000000 0.056755 0.000000 0.000000
# 5 0.000000 0.000000 0.000000 0.000000 0.021688 0.000000
# 6 0.000000 0.000000 0.000000 0.000000 0.000000 0.029958
#
#
# Mechanical properties :
#
#
# Convention : Reuss Voigt Hill
#
# Bulk Modulus (GPa) = 66.74879 83.06363 74.90621
# Shear Modulus (GPa) = 27.23583 31.72464 29.48023
#
# Velocity S-wave (km/s) = 3.72304 4.01815 3.87341
# Velocity P-wave (km/s) = 7.24235 7.98754 7.62405
#
# Compressibility (1/GPa) = 0.01498155
#
# Stress axis : x y z
#
# Youngs Moduli (GPa) = 76.09582 50.61619 103.24011
#
# Poissons Ratio (x) = 0.30401 0.55283
# Poissons Ratio (y) = 0.45704 0.25193
# Poissons Ratio (z) = 0.40748 0.12352
#
# Static dielectric constant tensor:
#      x y z
#    x 3.877840 0.000000 0.000000 
#    y 0.000000 3.341520 0.000000 
#    z 0.000000 0.000000 3.661410 
# 
# 
# High freq. dielectric constant tensor:
#      x y z
#    x 1.792680 0.000000 0.000000 
#    y 0.000000 1.729240 0.000000 
#    z 0.000000 0.000000 1.762730 
# 
# From -- ./inp_files/8318.got.cif
#   From: 2010.06.25/outbox.cif.g09.slc.cpg/sg48_5_cif.got.tgz:8318.got - 2010.06.26 18:06:46.
