data_PCOD8201037
_publ_section_title
;
Structure prediction by ZEFSAII (Michael W. Deem and Ramdas Pophale) SiO2 
 PCOD8201037
Probable space group: P M M M
;
_chemical_formula_sum "Si O2"
_cell_formula_units_Z 52
_cell_length_a 13.302594
_cell_length_b 27.769645
_cell_length_c 9.894526
_cell_angle_alpha 90.000000
_cell_angle_beta 90.000000
_cell_angle_gamma 90.000000
_cell_volume 3655.120157
_symmetry_space_group_name_H-M "P M M M"
_symmetry_group_IT_number 47
_symmetry_cell_setting 'orthorhombic'
loop_
_space_group_symop_operation_xyz
x,y,z
-x,-y,z
x,-y,-z
-x,y,-z
-x,-y,-z
x,y,-z
-x,y,z
x,-y,z
loop_
_atom_site_type_symbol
_atom_site_label
_atom_site_fract_x
_atom_site_fract_y
_atom_site_fract_z
Si Si1 0.119218 0.444558 0.000000
Si Si2 0.382201 0.864262 0.345874
Si Si3 0.227706 0.368128 0.147874
Si Si4 0.384315 0.333522 0.656121
Si Si5 0.723670 0.234507 0.343860
Si Si6 0.619496 0.053394 0.848263
Si Si7 0.884643 0.727135 0.156582
O O1 0.166796 0.418792 0.133866
O O2 0.150947 0.500000 0.000000
O O3 0.000000 0.437720 0.000000
O O4 0.357908 0.877800 0.500000
O O5 0.500000 0.858346 0.321630
O O6 0.333249 0.813999 0.304017
O O7 0.336016 0.906889 0.253915
O O8 0.317714 0.370944 0.256313
O O9 0.147735 0.327444 0.190561
O O10 0.274000 0.354791 0.000000
O O11 0.368184 0.346769 0.500000
O O12 0.500000 0.339212 0.698582
O O13 0.350899 0.278922 0.686738
O O14 0.757155 0.234762 0.500000
O O15 0.821693 0.236643 0.250012
O O16 0.500000 0.053608 0.840285
O O17 0.658759 0.000000 0.807680
O O18 0.654973 0.066105 0.000000
O O19 0.000000 0.733096 0.196861
O O20 0.866410 0.739947 0.000000
#
# Coordination Sequence:
#
# PCOD8201037 Si02
#       7
#     4   8   8   8   8   8   8
#     4   9  16  28  49  71  87 107 136 172 218 261
#     4   9  16  25  37  53  76 105 133 164 199 233
#     4   8  16  27  43  66  86 107 137 172 204 241
#     4   9  16  27  43  61  85 117 146 171 202 241
#     4   9  17  27  38  57  82 107 138 169 199 239
#     4   8  14  24  36  50  70  98 132 167 201 237
#     4   9  16  27  42  58  80 107 132 163 202 241
#
# _framework density 14.226618
#
# number of rings (size 3 to 8) (size 9 to 14) (size 15 to 20)
#    0.462    2.846    0.000    1.385    0.000    3.385 
#    0.000    1.538    0.000    5.538    0.000    2.154 
#    0.000    0.615    0.000    6.769    0.000    5.231 
#
# Total GULP energy -644447.515378 kJ/mol
# GULP energy per Si atom -12393.221450 kJ/mol
# Density = 1.419424 g / cm^3
# Si number density = 14.226618 Si / 1000 Ang^3
#
#
#
# Elastic Constant Matrix: (Units=GPa)
#
#
# Indices 1 2 3 4 5 6 
#
# 1 78.8944 39.5970 48.7952 0.0000 0.0000 0.0000
# 2 39.5970 100.6565 50.4266 0.0000 0.0000 0.0000
# 3 48.7952 50.4266 66.2121 0.0000 0.0000 0.0000
# 4 0.0000 0.0000 0.0000 20.5097 0.0000 0.0000
# 5 0.0000 0.0000 0.0000 0.0000 24.1400 0.0000
# 6 0.0000 0.0000 0.0000 0.0000 0.0000 16.0061
#
#
#
# Elastic Compliance Matrix: (Units=1/GPa)
#
#
# Indices 1 2 3 4 5 6 
#
# 1 0.023343 -0.000913 -0.016507 0.000000 0.000000 0.000000
# 2 -0.000913 0.016099 -0.011588 0.000000 0.000000 0.000000
# 3 -0.016507 -0.011588 0.036094 0.000000 0.000000 0.000000
# 4 0.000000 0.000000 0.000000 0.048757 0.000000 0.000000
# 5 0.000000 0.000000 0.000000 0.000000 0.041425 0.000000
# 6 0.000000 0.000000 0.000000 0.000000 0.000000 0.062476
#
#
# Mechanical properties :
#
#
# Convention : Reuss Voigt Hill
#
# Bulk Modulus (GPa) = 57.08181 58.15562 57.61871
# Shear Modulus (GPa) = 17.12028 19.26079 18.19053
#
# Velocity S-wave (km/s) = 3.47277 3.68347 3.57967
# Velocity P-wave (km/s) = 7.50270 7.68488 7.59434
#
# Compressibility (1/GPa) = 0.01751872
#
# Stress axis : x y z
#
# Youngs Moduli (GPa) = 42.83949 62.11391 27.70576
#
# Poissons Ratio (x) = 0.05671 0.45735
# Poissons Ratio (y) = 0.03912 0.32106
# Poissons Ratio (z) = 0.70716 0.71980
#
# Static dielectric constant tensor:
#      x y z
#    x 2.588090 0.000000 0.000000 
#    y 0.000000 2.755320 0.000000 
#    z 0.000000 0.000000 2.830620 
# 
# 
# High freq. dielectric constant tensor:
#      x y z
#    x 1.516300 0.000000 0.000000 
#    y 0.000000 1.528240 0.000000 
#    z 0.000000 0.000000 1.541020 
# 
# From -- ./inp_files/16861.got.cif
#   From: 2010.03.12/outbox.cif.g09.slc.cpg/sg47_9_cif.got.tgz:16861.got - 2010.04.14 03:12:58.
