data_PCOD8201477
_publ_section_title
;
Structure prediction by ZEFSAII (Michael W. Deem and Ramdas Pophale) SiO2 
 PCOD8201477
Probable space group: P N N N
;
_chemical_formula_sum "Si O2"
_cell_formula_units_Z 40
_cell_length_a 17.593198
_cell_length_b 7.473725
_cell_length_c 15.176523
_cell_angle_alpha 90.000000
_cell_angle_beta 90.000000
_cell_angle_gamma 90.000000
_cell_volume 1995.511287
_symmetry_space_group_name_H-M "P N N N"
_symmetry_group_IT_number 48
_space_group.IT_coordinate_system_code '2'
_symmetry_cell_setting 'orthorhombic'
loop_
_space_group_symop_operation_xyz
x,y,z
1/2-x,1/2-y,z
x,1/2-y,1/2-z
1/2-x,y,1/2-z
-x,-y,-z
1/2+x,1/2+y,-z
-x,1/2+y,1/2+z
1/2+x,-y,1/2+z
loop_
_atom_site_type_symbol
_atom_site_label
_atom_site_fract_x
_atom_site_fract_y
_atom_site_fract_z
Si Si1 0.283280 0.551374 0.840149
Si Si2 0.939416 0.750000 0.750000
Si Si3 0.107796 0.091815 0.420895
Si Si4 0.250000 0.250000 0.978668
Si Si5 0.048432 0.522970 0.628859
Si Si6 0.969503 0.257557 0.971593
O O1 0.250000 0.750000 0.858668
O O2 0.250000 0.472833 0.750000
O O3 0.264273 0.425060 0.921400
O O4 0.372716 0.539910 0.820146
O O5 0.888414 0.869448 0.683888
O O6 0.987977 0.621329 0.688900
O O7 0.177629 0.199185 0.462549
O O8 0.027383 0.146959 0.462153
O O9 0.102469 0.877584 0.438397
O O10 0.066082 0.600221 0.530889
O O11 0.015959 0.321979 0.612591
#
# Coordination Sequence:
#
# PCOD8201477 Si02
#       6
#     8   4   8   4   8   8
#     4  11  23  38  60  94 130 163 201 259 328 386
#     4  10  22  37  59  88 118 158 210 266 308 350
#     4  10  21  38  59  88 119 162 208 256 311 379
#     4  12  23  41  60  90 126 170 208 253 325 392
#     4  10  19  38  60  88 123 158 205 268 308 380
#     4   9  19  37  64  85 113 160 213 251 312 373
#
# _framework density 20.044989000000001
#
# number of rings (size 3 to 8) (size 9 to 14) (size 15 to 20)
#    0.000    1.800    2.000    2.700    0.000    4.400 
#    3.600    0.000    0.000    0.000    0.000    0.000 
#    0.000    0.000    0.000    0.000    0.000    0.000 
#
# Total GULP energy -495607.170853 kJ/mol
# GULP energy per Si atom -12390.179271 kJ/mol
# Density = 1.999937 g / cm^3
# Si number density = 20.044989 Si / 1000 Ang^3
#
#
#
# Elastic Constant Matrix: (Units=GPa)
#
#
# Indices 1 2 3 4 5 6 
#
# 1 88.6894 26.9655 47.8374 0.0000 0.0000 0.0000
# 2 26.9655 92.3245 52.4695 0.0000 0.0000 0.0000
# 3 47.8374 52.4695 129.1837 0.0000 0.0000 0.0000
# 4 0.0000 0.0000 0.0000 69.7182 0.0000 0.0000
# 5 0.0000 0.0000 0.0000 0.0000 -35.0701 0.0000
# 6 0.0000 0.0000 0.0000 0.0000 0.0000 19.2961
#
#
#
# Elastic Compliance Matrix: (Units=1/GPa)
#
#
# Indices 1 2 3 4 5 6 
#
# 1 0.014250 -0.001512 -0.004663 0.000000 0.000000 0.000000
# 2 -0.001512 0.014242 -0.005225 0.000000 0.000000 0.000000
# 3 -0.004663 -0.005225 0.011590 0.000000 0.000000 0.000000
# 4 0.000000 0.000000 0.000000 0.014343 0.000000 0.000000
# 5 0.000000 0.000000 0.000000 0.000000 -0.028514 0.000000
# 6 0.000000 0.000000 0.000000 0.000000 0.000000 0.051824
#
#
# Mechanical properties :
#
#
# Convention : Reuss Voigt Hill
#
# Bulk Modulus (GPa) = 57.86095 62.74917 60.30506
# Shear Modulus (GPa) = 47.03883 22.98385 35.01134
#
# Velocity S-wave (km/s) = 4.84949 3.38984 4.18381
# Velocity P-wave (km/s) = 7.76434 6.83326 7.31363
#
# Compressibility (1/GPa) = 0.01728281
#
# Stress axis : x y z
#
# Youngs Moduli (GPa) = 70.17523 70.21328 86.28415
#
# Poissons Ratio (x) = 0.10618 0.40232
# Poissons Ratio (y) = 0.10612 0.45081
# Poissons Ratio (z) = 0.32720 0.36684
#
# Static dielectric constant tensor:
#      x y z
#    x 3.502940 0.000000 0.000000 
#    y 0.000000 3.948930 0.000000 
#    z 0.000000 0.000000 3.896950 
# 
# 
# High freq. dielectric constant tensor:
#      x y z
#    x 1.764610 0.000000 0.000000 
#    y 0.000000 1.788030 0.000000 
#    z 0.000000 0.000000 1.781250 
# 
# From -- ./inp_files/27085.got.cif
#   From: 2010.06.25/outbox.cif.g09.slc.cpg/sg48_14_cif.got.tgz:27085.got - 2010.06.26 18:06:46.
