data_PCOD8201465
_publ_section_title
;
Structure prediction by ZEFSAII (Michael W. Deem and Ramdas Pophale) SiO2 
 PCOD8201465
Probable space group: P N N N
;
_chemical_formula_sum "Si O2"
_cell_formula_units_Z 50
_cell_length_a 18.745620
_cell_length_b 14.820770
_cell_length_c 8.982488
_cell_angle_alpha 90.000000
_cell_angle_beta 90.000000
_cell_angle_gamma 90.000000
_cell_volume 2495.555440
_symmetry_space_group_name_H-M "P N N N"
_symmetry_group_IT_number 48
_space_group.IT_coordinate_system_code '2'
_symmetry_cell_setting 'orthorhombic'
loop_
_space_group_symop_operation_xyz
x,y,z
1/2-x,1/2-y,z
x,1/2-y,1/2-z
1/2-x,y,1/2-z
-x,-y,-z
1/2+x,1/2+y,-z
-x,1/2+y,1/2+z
1/2+x,-y,1/2+z
loop_
_atom_site_type_symbol
_atom_site_label
_atom_site_fract_x
_atom_site_fract_y
_atom_site_fract_z
Si Si1 0.925673 0.924750 0.390721
Si Si2 0.933125 0.334095 0.336877
Si Si3 0.151243 0.387654 0.431550
Si Si4 0.544226 0.963627 0.793462
Si Si5 0.465018 0.268136 0.921656
Si Si6 0.678940 0.488650 0.180084
Si Si7 0.750000 0.750000 0.750000
O O1 0.927763 0.984651 0.539997
O O2 0.930762 0.827045 0.468205
O O3 0.852716 0.943707 0.304921
O O4 0.990112 0.950571 0.272567
O O5 0.898513 0.250000 0.250000
O O6 0.873499 0.408438 0.367369
O O7 0.996895 0.373154 0.233485
O O8 0.963353 0.297147 0.493432
O O9 0.110888 0.455315 0.317330
O O10 0.095216 0.342381 0.545541
O O11 0.199012 0.453021 0.533761
O O12 0.199677 0.313318 0.350314
O O13 0.483073 0.250000 0.750000
O O14 0.750000 0.445904 0.250000
#
# Coordination Sequence:
#
# PCOD8201465 Si02
#       7
#     8   8   8   8   8   8   2
#     4  10  19  37  61  94 120 157 198 262 312 363
#     4  10  21  40  64  91 122 160 209 260 318 367
#     4  11  25  40  59  87 125 169 204 250 304 387
#     4   9  20  36  63  89 123 155 200 256 315 364
#     4  11  21  35  63  96 123 153 205 269 316 360
#     4  11  26  41  59  89 128 171 209 252 311 383
#     4  12  28  40  62  84 132 178 204 236 316 392
#
# _framework density 20.035620000000002
#
# number of rings (size 3 to 8) (size 9 to 14) (size 15 to 20)
#    0.000    1.600    3.200    0.960    8.960    2.240 
#    0.000    0.000    0.000    0.000    0.000    0.000 
#    0.000    0.000    0.000    0.000    0.000    0.000 
#
# Total GULP energy -619422.881437 kJ/mol
# GULP energy per Si atom -12388.457629 kJ/mol
# Density = 1.999002 g / cm^3
# Si number density = 20.035620 Si / 1000 Ang^3
#
#
#
# Elastic Constant Matrix: (Units=GPa)
#
#
# Indices 1 2 3 4 5 6 
#
# 1 87.4801 28.3462 48.4565 0.0000 0.0000 0.0000
# 2 28.3462 72.9201 35.3582 0.0000 0.0000 0.0000
# 3 48.4565 35.3582 116.6151 0.0000 0.0000 0.0000
# 4 0.0000 0.0000 0.0000 38.8078 0.0000 0.0000
# 5 0.0000 0.0000 0.0000 0.0000 26.6447 0.0000
# 6 0.0000 0.0000 0.0000 0.0000 0.0000 17.6454
#
#
#
# Elastic Compliance Matrix: (Units=1/GPa)
#
#
# Indices 1 2 3 4 5 6 
#
# 1 0.015541 -0.003411 -0.005423 0.000000 0.000000 0.000000
# 2 -0.003411 0.016826 -0.003684 0.000000 0.000000 0.000000
# 3 -0.005423 -0.003684 0.011946 0.000000 0.000000 0.000000
# 4 0.000000 0.000000 0.000000 0.025768 0.000000 0.000000
# 5 0.000000 0.000000 0.000000 0.000000 0.037531 0.000000
# 6 0.000000 0.000000 0.000000 0.000000 0.000000 0.056672
#
#
# Mechanical properties :
#
#
# Convention : Reuss Voigt Hill
#
# Bulk Modulus (GPa) = 51.88099 55.70411 53.79255
# Shear Modulus (GPa) = 25.54332 27.60986 26.57659
#
# Velocity S-wave (km/s) = 3.57444 3.71622 3.64602
# Velocity P-wave (km/s) = 6.55638 6.80269 6.68067
#
# Compressibility (1/GPa) = 0.01927488
#
# Stress axis : x y z
#
# Youngs Moduli (GPa) = 64.34789 59.43106 83.71186
#
# Poissons Ratio (x) = 0.20275 0.45398
# Poissons Ratio (y) = 0.21952 0.30841
# Poissons Ratio (z) = 0.34897 0.21896
#
# Static dielectric constant tensor:
#      x y z
#    x 3.374620 0.000000 0.000000 
#    y 0.000000 3.984020 0.000000 
#    z 0.000000 0.000000 3.656420 
# 
# 
# High freq. dielectric constant tensor:
#      x y z
#    x 1.750170 0.000000 0.000000 
#    y 0.000000 1.780920 0.000000 
#    z 0.000000 0.000000 1.795110 
# 
# From -- ./inp_files/14180.got.cif
#   From: 2010.06.25/outbox.cif.g09.slc.cpg/sg48_8_cif.got.tgz:14180.got - 2010.06.26 18:06:46.
