data_PCOD8201883
_publ_section_title
;
Structure prediction by ZEFSAII (Michael W. Deem and Ramdas Pophale) SiO2 
 PCOD8201883
Probable space group: P N N N
;
_chemical_formula_sum "Si O2"
_cell_formula_units_Z 50
_cell_length_a 17.035789
_cell_length_b 8.196545
_cell_length_c 16.016930
_cell_angle_alpha 90.000000
_cell_angle_beta 90.000000
_cell_angle_gamma 90.000000
_cell_volume 2236.517792
_symmetry_space_group_name_H-M "P N N N"
_symmetry_group_IT_number 48
_space_group.IT_coordinate_system_code '2'
_symmetry_cell_setting 'orthorhombic'
loop_
_space_group_symop_operation_xyz
x,y,z
1/2-x,1/2-y,z
x,1/2-y,1/2-z
1/2-x,y,1/2-z
-x,-y,-z
1/2+x,1/2+y,-z
-x,1/2+y,1/2+z
1/2+x,-y,1/2+z
loop_
_atom_site_type_symbol
_atom_site_label
_atom_site_fract_x
_atom_site_fract_y
_atom_site_fract_z
Si Si1 0.330680 0.187005 0.486944
Si Si2 0.878752 0.296878 0.139302
Si Si3 0.446004 0.686323 0.336732
Si Si4 0.666993 0.313051 0.968053
Si Si5 0.126848 0.328758 0.835637
Si Si6 0.250000 0.750000 0.750000
Si Si7 0.058776 0.195787 0.340623
O O1 0.250000 0.250000 0.445303
O O2 0.335076 0.268020 0.578388
O O3 0.399074 0.225636 0.420504
O O4 0.327595 0.995169 0.501550
O O5 0.861724 0.477974 0.174340
O O6 0.815605 0.173245 0.185248
O O7 0.968133 0.244517 0.156891
O O8 0.861072 0.303918 0.042114
O O9 0.412419 0.750000 0.250000
O O10 0.400312 0.799777 0.400419
O O11 0.537073 0.725758 0.344856
O O12 0.430140 0.496418 0.350977
O O13 0.750000 0.250000 0.932113
O O14 0.162418 0.250000 0.750000
O O15 0.093350 0.250000 0.250000
#
# Coordination Sequence:
#
# PCOD8201883 Si02
#       7
#     8   8   8   8   8   2   8
#     4  12  27  43  65  97 132 174 225 276 329 388
#     4  11  24  41  68  98 136 173 217 265 327 397
#     4  10  22  42  67  96 130 170 219 268 326 394
#     4  12  25  42  65  93 132 174 221 276 332 391
#     4  10  24  43  67  96 134 173 215 269 329 391
#     4  12  24  40  66 104 128 172 210 264 320 400
#     4  11  23  43  69  98 133 173 221 271 328 387
#
# _framework density 22.356183000000001
#
# number of rings (size 3 to 8) (size 9 to 14) (size 15 to 20)
#    0.000    0.960    1.600    4.800    2.240    7.360 
#    0.000    3.200    0.000    0.000    0.000    0.000 
#    0.000    0.000    0.000    0.000    0.000    0.000 
#
# Total GULP energy -619536.780207 kJ/mol
# GULP energy per Si atom -12390.735604 kJ/mol
# Density = 2.230530 g / cm^3
# Si number density = 22.356183 Si / 1000 Ang^3
#
#
#
# Elastic Constant Matrix: (Units=GPa)
#
#
# Indices 1 2 3 4 5 6 
#
# 1 116.9877 30.6046 59.1914 0.0000 0.0000 0.0000
# 2 30.6046 76.4282 22.3266 0.0000 0.0000 0.0000
# 3 59.1914 22.3266 145.9001 0.0000 0.0000 0.0000
# 4 0.0000 0.0000 0.0000 41.2744 0.0000 0.0000
# 5 0.0000 0.0000 0.0000 0.0000 19.2673 0.0000
# 6 0.0000 0.0000 0.0000 0.0000 0.0000 21.6608
#
#
#
# Elastic Compliance Matrix: (Units=1/GPa)
#
#
# Indices 1 2 3 4 5 6 
#
# 1 0.011545 -0.003407 -0.004163 0.000000 0.000000 0.000000
# 2 -0.003407 0.014702 -0.000868 0.000000 0.000000 0.000000
# 3 -0.004163 -0.000868 0.008675 0.000000 0.000000 0.000000
# 4 0.000000 0.000000 0.000000 0.024228 0.000000 0.000000
# 5 0.000000 0.000000 0.000000 0.000000 0.051901 0.000000
# 6 0.000000 0.000000 0.000000 0.000000 0.000000 0.046166
#
#
# Mechanical properties :
#
#
# Convention : Reuss Voigt Hill
#
# Bulk Modulus (GPa) = 55.40676 62.61790 59.01233
# Shear Modulus (GPa) = 27.76098 31.58675 29.67386
#
# Velocity S-wave (km/s) = 3.52768 3.76292 3.64720
# Velocity P-wave (km/s) = 6.43663 6.85196 6.64754
#
# Compressibility (1/GPa) = 0.01804834
#
# Stress axis : x y z
#
# Youngs Moduli (GPa) = 86.61520 68.01822 115.26740
#
# Poissons Ratio (x) = 0.23175 0.47980
# Poissons Ratio (y) = 0.29511 0.09999
# Poissons Ratio (z) = 0.36054 0.05901
#
# Static dielectric constant tensor:
#      x y z
#    x 4.147480 0.000000 0.000000 
#    y 0.000000 4.619920 0.000000 
#    z 0.000000 0.000000 4.371980 
# 
# 
# High freq. dielectric constant tensor:
#      x y z
#    x 1.887310 0.000000 0.000000 
#    y 0.000000 1.870940 0.000000 
#    z 0.000000 0.000000 1.900670 
# 
# From -- ./inp_files/27909.got.cif
#   From: 2010.06.25/outbox.cif.g09.slc.cpg/sg48_14_cif.got.tgz:27909.got - 2010.06.26 18:06:46.
