data_PCOD8201407
_publ_section_title
;
Structure prediction by ZEFSAII (Michael W. Deem and Ramdas Pophale) SiO2 
 PCOD8201407
Probable space group: P N N N
;
_chemical_formula_sum "Si O2"
_cell_formula_units_Z 60
_cell_length_a 18.007646
_cell_length_b 11.277780
_cell_length_c 12.593017
_cell_angle_alpha 90.000000
_cell_angle_beta 90.000000
_cell_angle_gamma 90.000000
_cell_volume 2557.468849
_symmetry_space_group_name_H-M "P N N N"
_symmetry_group_IT_number 48
_space_group.IT_coordinate_system_code '2'
_symmetry_cell_setting 'orthorhombic'
loop_
_space_group_symop_operation_xyz
x,y,z
1/2-x,1/2-y,z
x,1/2-y,1/2-z
1/2-x,y,1/2-z
-x,-y,-z
1/2+x,1/2+y,-z
-x,1/2+y,1/2+z
1/2+x,-y,1/2+z
loop_
_atom_site_type_symbol
_atom_site_label
_atom_site_fract_x
_atom_site_fract_y
_atom_site_fract_z
Si Si1 0.663132 0.022625 0.419915
Si Si2 0.073759 0.949916 0.553565
Si Si3 0.469087 0.795418 0.574766
Si Si4 0.115867 0.416792 0.373017
Si Si5 0.037724 0.846584 0.165908
Si Si6 0.116244 0.112197 0.738282
Si Si7 0.250000 0.048986 0.250000
Si Si8 0.717453 0.122641 0.941583
O O1 0.597073 0.115395 0.402566
O O2 0.738090 0.089084 0.451576
O O3 0.643251 0.919739 0.505235
O O4 0.676941 0.958208 0.307602
O O5 0.048396 0.835323 0.622664
O O6 0.130274 0.888392 0.468854
O O7 0.113516 0.055608 0.619951
O O8 0.000000 0.000000 0.500000
O O9 0.543372 0.836399 0.635477
O O10 0.482360 0.787689 0.447302
O O11 0.101269 0.555203 0.344876
O O12 0.179582 0.371612 0.290115
O O13 0.067704 0.750000 0.250000
O O14 0.964451 0.909502 0.210765
O O15 0.137096 0.250000 0.750000
O O16 0.270151 0.969945 0.150361
O O17 0.750000 0.250000 0.905112
#
# Coordination Sequence:
#
# PCOD8201407 Si02
#       8
#     8   8   8   8   8   8   4   8
#     4  10  20  41  69  99 138 187 241 286 370 434
#     4  12  28  43  69 113 148 186 245 317 371 433
#     4  11  20  41  68 101 146 188 234 303 364 430
#     4  10  20  37  64 104 140 189 238 292 353 437
#     4  10  19  33  65  98 136 182 239 294 342 423
#     4  11  23  43  69 102 133 187 242 293 358 433
#     4  10  25  38  74 105 148 200 236 292 372 450
#     4  11  24  47  69 108 152 185 241 309 374 440
#
# _framework density 23.460695999999999
#
# number of rings (size 3 to 8) (size 9 to 14) (size 15 to 20)
#    0.000    1.333    4.000    2.600    3.733    1.067 
#    0.000    2.000    0.000    0.800    0.000    0.000 
#    0.000    0.000    0.000    0.000    0.000    0.000 
#
# Total GULP energy -743648.377512 kJ/mol
# GULP energy per Si atom -12394.139625 kJ/mol
# Density = 2.340730 g / cm^3
# Si number density = 23.460696 Si / 1000 Ang^3
#
#
#
# Elastic Constant Matrix: (Units=GPa)
#
#
# Indices 1 2 3 4 5 6 
#
# 1 124.5467 30.0245 24.3774 0.0000 0.0000 0.0000
# 2 30.0245 103.1407 32.4601 0.0000 0.0000 0.0000
# 3 24.3774 32.4601 85.2617 0.0000 0.0000 0.0000
# 4 0.0000 0.0000 0.0000 25.1837 0.0000 0.0000
# 5 0.0000 0.0000 0.0000 0.0000 38.3714 0.0000
# 6 0.0000 0.0000 0.0000 0.0000 0.0000 26.8776
#
#
#
# Elastic Compliance Matrix: (Units=1/GPa)
#
#
# Indices 1 2 3 4 5 6 
#
# 1 0.008862 -0.002025 -0.001763 0.000000 0.000000 0.000000
# 2 -0.002025 0.011478 -0.003791 0.000000 0.000000 0.000000
# 3 -0.001763 -0.003791 0.013676 0.000000 0.000000 0.000000
# 4 0.000000 0.000000 0.000000 0.039708 0.000000 0.000000
# 5 0.000000 0.000000 0.000000 0.000000 0.026061 0.000000
# 6 0.000000 0.000000 0.000000 0.000000 0.000000 0.037206
#
#
# Mechanical properties :
#
#
# Convention : Reuss Voigt Hill
#
# Bulk Modulus (GPa) = 53.02599 54.07479 53.55039
# Shear Modulus (GPa) = 31.55869 33.15901 32.35885
#
# Velocity S-wave (km/s) = 3.67164 3.76358 3.71789
# Velocity P-wave (km/s) = 6.37383 6.47960 6.42693
#
# Compressibility (1/GPa) = 0.01885868
#
# Stress axis : x y z
#
# Youngs Moduli (GPa) = 112.83692 87.12292 73.12157
#
# Poissons Ratio (x) = 0.17643 0.12891
# Poissons Ratio (y) = 0.22850 0.27719
# Poissons Ratio (z) = 0.19892 0.33027
#
# Static dielectric constant tensor:
#      x y z
#    x 4.402940 0.000000 0.000000 
#    y 0.000000 4.167710 0.000000 
#    z 0.000000 0.000000 4.216240 
# 
# 
# High freq. dielectric constant tensor:
#      x y z
#    x 1.928860 0.000000 0.000000 
#    y 0.000000 1.918680 0.000000 
#    z 0.000000 0.000000 1.918560 
# 
# From -- ./inp_files/22925.got.cif
#   From: 2010.06.25/outbox.cif.g09.slc.cpg/sg48_12_cif.got.tgz:22925.got - 2010.06.26 18:06:46.
