data_PCOD8201959
_publ_section_title
;
Structure prediction by ZEFSAII (Michael W. Deem and Ramdas Pophale) SiO2 
 PCOD8201959
Probable space group: P N N N
;
_chemical_formula_sum "Si O2"
_cell_formula_units_Z 64
_cell_length_a 8.360888
_cell_length_b 13.853533
_cell_length_c 24.905719
_cell_angle_alpha 90.000000
_cell_angle_beta 90.000000
_cell_angle_gamma 90.000000
_cell_volume 2884.775581
_symmetry_space_group_name_H-M "P N N N"
_symmetry_group_IT_number 48
_space_group.IT_coordinate_system_code '2'
_symmetry_cell_setting 'orthorhombic'
loop_
_space_group_symop_operation_xyz
x,y,z
1/2-x,1/2-y,z
x,1/2-y,1/2-z
1/2-x,y,1/2-z
-x,-y,-z
1/2+x,1/2+y,-z
-x,1/2+y,1/2+z
1/2+x,-y,1/2+z
loop_
_atom_site_type_symbol
_atom_site_label
_atom_site_fract_x
_atom_site_fract_y
_atom_site_fract_z
Si Si1 0.581641 0.505968 0.220757
Si Si2 0.439225 0.856600 0.889875
Si Si3 0.109670 0.475079 0.451075
Si Si4 0.931564 0.465639 0.828811
Si Si5 0.082799 0.857337 0.866694
Si Si6 0.895219 0.377801 0.638454
Si Si7 0.366757 0.160180 0.008821
Si Si8 0.917112 0.696856 0.112373
O O1 0.750000 0.523994 0.250000
O O2 0.448244 0.509117 0.266660
O O3 0.566580 0.402003 0.192673
O O4 0.544355 0.584610 0.174461
O O5 0.256030 0.890633 0.888939
O O6 0.446087 0.755957 0.857456
O O7 0.483040 0.834125 0.951408
O O8 0.560266 0.934845 0.863283
O O9 0.123248 0.575260 0.419899
O O10 0.275266 0.438851 0.476888
O O11 0.000000 0.500000 0.500000
O O12 0.045526 0.395001 0.409591
O O13 0.768540 0.404889 0.831973
O O14 0.074960 0.396474 0.849437
O O15 0.931813 0.265403 0.627419
O O16 0.250000 0.250000 0.017802
O O17 0.433993 0.159346 0.948542
O O18 0.750000 0.750000 0.121588
#
# Coordination Sequence:
#
# PCOD8201959 Si02
#       8
#     8   8   8   8   8   8   8   8
#     4  11  23  45  74  99 135 182 235 290 354 423
#     4  11  23  42  66 102 139 184 226 286 349 424
#     4  11  22  38  69  94 136 187 225 282 346 413
#     4  12  25  45  70 100 140 183 236 294 356 418
#     4  10  24  42  66 102 141 176 235 286 348 425
#     4  11  25  45  67 105 141 179 234 298 348 414
#     4  11  22  42  66  99 141 184 230 280 350 422
#     4  11  26  45  69 101 140 187 241 290 344 423
#
# _framework density 22.185434000000001
#
# number of rings (size 3 to 8) (size 9 to 14) (size 15 to 20)
#    0.000    1.000    3.750    3.000    3.500    2.500 
#    2.250    2.500    0.000    1.500    0.000    0.000 
#    0.000    0.000    0.000    0.000    0.000    0.000 
#
# Total GULP energy -793482.584226 kJ/mol
# GULP energy per Si atom -12398.165379 kJ/mol
# Density = 2.213494 g / cm^3
# Si number density = 22.185434 Si / 1000 Ang^3
#
#
#
# Elastic Constant Matrix: (Units=GPa)
#
#
# Indices 1 2 3 4 5 6 
#
# 1 91.7944 26.8597 48.2956 0.0000 0.0000 0.0000
# 2 26.8597 98.9903 42.2245 0.0000 0.0000 0.0000
# 3 48.2956 42.2245 131.2793 0.0000 0.0000 0.0000
# 4 0.0000 0.0000 0.0000 25.3694 0.0000 0.0000
# 5 0.0000 0.0000 0.0000 0.0000 42.1076 0.0000
# 6 0.0000 0.0000 0.0000 0.0000 0.0000 33.7500
#
#
#
# Elastic Compliance Matrix: (Units=1/GPa)
#
#
# Indices 1 2 3 4 5 6 
#
# 1 0.013788 -0.001828 -0.004484 0.000000 0.000000 0.000000
# 2 -0.001828 0.011951 -0.003171 0.000000 0.000000 0.000000
# 3 -0.004484 -0.003171 0.010287 0.000000 0.000000 0.000000
# 4 0.000000 0.000000 0.000000 0.039418 0.000000 0.000000
# 5 0.000000 0.000000 0.000000 0.000000 0.023749 0.000000
# 6 0.000000 0.000000 0.000000 0.000000 0.000000 0.029630
#
#
# Mechanical properties :
#
#
# Convention : Reuss Voigt Hill
#
# Bulk Modulus (GPa) = 58.62317 61.86930 60.24624
# Shear Modulus (GPa) = 32.57837 33.89102 33.23469
#
# Velocity S-wave (km/s) = 3.83620 3.91272 3.87465
# Velocity P-wave (km/s) = 6.78995 6.95417 6.87255
#
# Compressibility (1/GPa) = 0.01705810
#
# Stress axis : x y z
#
# Youngs Moduli (GPa) = 72.52527 83.67645 97.20948
#
# Poissons Ratio (x) = 0.15300 0.43593
# Poissons Ratio (y) = 0.13261 0.30827
# Poissons Ratio (z) = 0.32523 0.26535
#
# Static dielectric constant tensor:
#      x y z
#    x 5.009660 0.000000 0.000000 
#    y 0.000000 4.236920 0.000000 
#    z 0.000000 0.000000 4.117070 
# 
# 
# High freq. dielectric constant tensor:
#      x y z
#    x 1.873970 0.000000 0.000000 
#    y 0.000000 1.875050 0.000000 
#    z 0.000000 0.000000 1.878740 
# 
# From -- ./inp_files/36013.got.cif
#   From: 2010.06.25/outbox.cif.g09.slc.cpg/sg48_19_cif.got.tgz:36013.got - 2010.06.26 18:06:46.
