data_PCOD8201588
_publ_section_title
;
Structure prediction by ZEFSAII (Michael W. Deem and Ramdas Pophale) SiO2 
 PCOD8201588
Probable space group: P N N N
;
_chemical_formula_sum "Si O2"
_cell_formula_units_Z 64
_cell_length_a 13.498321
_cell_length_b 18.722979
_cell_length_c 12.673263
_cell_angle_alpha 90.000000
_cell_angle_beta 90.000000
_cell_angle_gamma 90.000000
_cell_volume 3202.898304
_symmetry_space_group_name_H-M "P N N N"
_symmetry_group_IT_number 48
_space_group.IT_coordinate_system_code '2'
_symmetry_cell_setting 'orthorhombic'
loop_
_space_group_symop_operation_xyz
x,y,z
1/2-x,1/2-y,z
x,1/2-y,1/2-z
1/2-x,y,1/2-z
-x,-y,-z
1/2+x,1/2+y,-z
-x,1/2+y,1/2+z
1/2+x,-y,1/2+z
loop_
_atom_site_type_symbol
_atom_site_label
_atom_site_fract_x
_atom_site_fract_y
_atom_site_fract_z
Si Si1 0.397811 0.771675 0.867214
Si Si2 0.756042 0.828957 0.625714
Si Si3 0.724940 0.433104 0.637183
Si Si4 0.959168 0.884347 0.548174
Si Si5 0.005170 0.029756 0.644243
Si Si6 0.083581 0.985031 0.854618
Si Si7 0.717484 0.139898 0.422168
Si Si8 0.877654 0.946422 0.929136
O O1 0.434317 0.750000 0.750000
O O2 0.484509 0.809802 0.932679
O O3 0.366120 0.701471 0.933412
O O4 0.307135 0.827594 0.853809
O O5 0.750000 0.750000 0.577051
O O6 0.750000 0.826430 0.750000
O O7 0.850728 0.875152 0.594156
O O8 0.660232 0.866317 0.577471
O O9 0.750000 0.395885 0.750000
O O10 0.612229 0.458042 0.649497
O O11 0.742617 0.379423 0.539439
O O12 0.797407 0.500331 0.621555
O O13 0.948492 0.906423 0.425681
O O14 0.021159 0.949633 0.599766
O O15 0.073346 0.032214 0.748984
O O16 0.172812 0.927588 0.858505
O O17 0.978127 0.945877 0.862382
O O18 0.098641 0.039481 0.949508
#
# Coordination Sequence:
#
# PCOD8201588 Si02
#       8
#     8   8   8   8   8   8   8   8
#     4  11  23  40  60  86 128 165 201 251 318 379
#     4  11  24  39  62  90 122 158 202 252 313 368
#     4  11  19  37  63  86 127 161 207 258 307 358
#     4  11  24  39  62  92 123 159 203 260 309 369
#     4  11  21  38  61  94 123 158 207 261 309 358
#     4  10  21  35  64  93 122 163 205 256 308 362
#     4  10  22  38  58  92 125 166 203 250 308 377
#     4  10  20  37  59  93 123 158 207 254 304 361
#
# _framework density 19.981902999999999
#
# number of rings (size 3 to 8) (size 9 to 14) (size 15 to 20)
#    0.000    1.375    3.750    2.625    3.500    0.000 
#    0.000    3.125    0.000    3.000    0.000    0.000 
#    0.000    0.000    0.000    0.000    0.000    0.000 
#
# Total GULP energy -793373.861789 kJ/mol
# GULP energy per Si atom -12396.466590 kJ/mol
# Density = 1.993642 g / cm^3
# Si number density = 19.981903 Si / 1000 Ang^3
#
#
#
# Elastic Constant Matrix: (Units=GPa)
#
#
# Indices 1 2 3 4 5 6 
#
# 1 58.4442 21.3602 31.4932 0.0000 0.0000 0.0000
# 2 21.3602 87.5098 42.2256 0.0000 0.0000 0.0000
# 3 31.4932 42.2256 122.6890 0.0000 0.0000 0.0000
# 4 0.0000 0.0000 0.0000 30.2688 0.0000 0.0000
# 5 0.0000 0.0000 0.0000 0.0000 29.6206 0.0000
# 6 0.0000 0.0000 0.0000 0.0000 0.0000 44.3075
#
#
#
# Elastic Compliance Matrix: (Units=1/GPa)
#
#
# Indices 1 2 3 4 5 6 
#
# 1 0.020474 -0.002952 -0.004240 0.000000 0.000000 0.000000
# 2 -0.002952 0.014128 -0.004105 0.000000 0.000000 0.000000
# 3 -0.004240 -0.004105 0.010652 0.000000 0.000000 0.000000
# 4 0.000000 0.000000 0.000000 0.033037 0.000000 0.000000
# 5 0.000000 0.000000 0.000000 0.000000 0.033760 0.000000
# 6 0.000000 0.000000 0.000000 0.000000 0.000000 0.022570
#
#
# Mechanical properties :
#
#
# Convention : Reuss Voigt Hill
#
# Bulk Modulus (GPa) = 44.12756 50.97788 47.55272
# Shear Modulus (GPa) = 30.34587 32.41033 31.37810
#
# Velocity S-wave (km/s) = 3.90124 4.03176 3.96703
# Velocity P-wave (km/s) = 6.51341 6.87320 6.69572
#
# Compressibility (1/GPa) = 0.02266158
#
# Stress axis : x y z
#
# Youngs Moduli (GPa) = 48.84324 70.77907 93.88165
#
# Poissons Ratio (x) = 0.20892 0.39801
# Poissons Ratio (y) = 0.14417 0.38537
# Poissons Ratio (z) = 0.20707 0.29054
#
# Static dielectric constant tensor:
#      x y z
#    x 3.705380 0.000000 0.000000 
#    y 0.000000 3.694230 0.000000 
#    z 0.000000 0.000000 3.735050 
# 
# 
# High freq. dielectric constant tensor:
#      x y z
#    x 1.787940 0.000000 0.000000 
#    y 0.000000 1.766420 0.000000 
#    z 0.000000 0.000000 1.773710 
# 
# From -- ./inp_files/21578.got.cif
#   From: 2010.06.25/outbox.cif.g09.slc.cpg/sg48_11_cif.got.tgz:21578.got - 2010.06.26 18:06:46.
