data_PCOD8201167
_publ_section_title
;
Structure prediction by ZEFSAII (Michael W. Deem and Ramdas Pophale) SiO2 
 PCOD8201167
Probable space group: P M M M
;
_chemical_formula_sum "Si O2"
_cell_formula_units_Z 36
_cell_length_a 7.798146
_cell_length_b 24.864669
_cell_length_c 9.991110
_cell_angle_alpha 90.000000
_cell_angle_beta 90.000000
_cell_angle_gamma 90.000000
_cell_volume 1937.259435
_symmetry_space_group_name_H-M "P M M M"
_symmetry_group_IT_number 47
_symmetry_cell_setting 'orthorhombic'
loop_
_space_group_symop_operation_xyz
x,y,z
-x,-y,z
x,-y,-z
-x,y,-z
-x,-y,-z
x,y,-z
-x,y,z
x,-y,z
loop_
_atom_site_type_symbol
_atom_site_label
_atom_site_fract_x
_atom_site_fract_y
_atom_site_fract_z
Si Si1 0.299827 0.150062 0.853954
Si Si2 0.300711 0.362121 0.656368
Si Si3 0.000000 0.559525 0.342282
Si Si4 0.202049 0.059252 0.351562
Si Si5 0.297034 0.268290 0.150128
O O1 0.500000 0.157037 0.868303
O O2 0.262377 0.104487 0.748224
O O3 0.225492 0.208668 0.811178
O O4 0.223773 0.133791 0.000000
O O5 0.278333 0.348176 0.500000
O O6 0.500000 0.377142 0.687757
O O7 0.232873 0.310963 0.740477
O O8 0.175750 0.410584 0.701230
O O9 0.000000 0.500000 0.276521
O O10 0.000000 0.554120 0.500000
O O11 0.273946 0.072174 0.500000
O O12 0.000000 0.058610 0.355671
O O13 0.268606 0.000000 0.306045
O O14 0.500000 0.268091 0.153139
O O15 0.233303 0.283679 0.000000
#
# Coordination Sequence:
#
# PCOD8201167 Si02
#       5
#     8   8   4   8   8
#     4   9  18  32  50  73  98 123 156 199 246 297
#     4   9  17  30  50  74  98 129 168 204 243 293
#     4   9  18  32  49  73 105 133 162 207 250 283
#     4   9  19  35  50  65  91 127 164 201 243 292
#     4   8  15  30  50  70  96 128 157 191 240 292
#
# _framework density 18.582951999999999
#
# number of rings (size 3 to 8) (size 9 to 14) (size 15 to 20)
#    0.000    3.222    0.000    2.000    0.000    3.111 
#    2.000    8.333    0.000    1.333    0.000    3.111 
#    0.000    0.000    0.000    0.000    0.000    0.000 
#
# Total GULP energy -445990.765059 kJ/mol
# GULP energy per Si atom -12388.632363 kJ/mol
# Density = 1.854066 g / cm^3
# Si number density = 18.582952 Si / 1000 Ang^3
#
#
#
# Elastic Constant Matrix: (Units=GPa)
#
#
# Indices 1 2 3 4 5 6 
#
# 1 50.7783 42.4009 24.0885 0.0000 0.0000 0.0000
# 2 42.4009 181.5733 93.4247 0.0000 0.0000 0.0000
# 3 24.0885 93.4247 94.8073 0.0000 0.0000 0.0000
# 4 0.0000 0.0000 0.0000 -32.6690 0.0000 0.0000
# 5 0.0000 0.0000 0.0000 0.0000 40.8683 0.0000
# 6 0.0000 0.0000 0.0000 0.0000 0.0000 39.6864
#
#
#
# Elastic Compliance Matrix: (Units=1/GPa)
#
#
# Indices 1 2 3 4 5 6 
#
# 1 0.024530 -0.005115 -0.001192 0.000000 0.000000 0.000000
# 2 -0.005115 0.012238 -0.010760 0.000000 0.000000 0.000000
# 3 -0.001192 -0.010760 0.021454 0.000000 0.000000 0.000000
# 4 0.000000 0.000000 0.000000 -0.030610 0.000000 0.000000
# 5 0.000000 0.000000 0.000000 0.000000 0.024469 0.000000
# 6 0.000000 0.000000 0.000000 0.000000 0.000000 0.025198
#
#
# Mechanical properties :
#
#
# Convention : Reuss Voigt Hill
#
# Bulk Modulus (GPa) = 41.51534 71.88745 56.70139
# Shear Modulus (GPa) = 41.86118 20.72682 31.29400
#
# Velocity S-wave (km/s) = 4.75137 3.34333 4.10813
# Velocity P-wave (km/s) = 7.24498 7.32615 7.28568
#
# Compressibility (1/GPa) = 0.02408748
#
# Stress axis : x y z
#
# Youngs Moduli (GPa) = 40.76641 81.71111 46.61136
#
# Poissons Ratio (x) = 0.41792 0.05558
# Poissons Ratio (y) = 0.20851 0.50155
# Poissons Ratio (z) = 0.04861 0.87923
#
# Static dielectric constant tensor:
#      x y z
#    x 3.286460 0.000000 0.000000 
#    y 0.000000 2.376750 0.000000 
#    z 0.000000 0.000000 3.267550 
# 
# 
# High freq. dielectric constant tensor:
#      x y z
#    x 1.708040 0.000000 0.000000 
#    y 0.000000 1.720570 0.000000 
#    z 0.000000 0.000000 1.707120 
# 
# From -- ./inp_files/1438.got.cif
#   From: 2010.03.12/outbox.cif.g09.slc.cpg/sg47_1_cif.got.tgz:1438.got - 2010.04.14 03:12:58.
