data_PCOD8201636
_publ_section_title
;
Structure prediction by ZEFSAII (Michael W. Deem and Ramdas Pophale) SiO2 
 PCOD8201636
Probable space group: P N N N
;
_chemical_formula_sum "Si O2"
_cell_formula_units_Z 34
_cell_length_a 5.323162
_cell_length_b 23.282047
_cell_length_c 11.495775
_cell_angle_alpha 90.000000
_cell_angle_beta 90.000000
_cell_angle_gamma 90.000000
_cell_volume 1424.718619
_symmetry_space_group_name_H-M "P N N N"
_symmetry_group_IT_number 48
_space_group.IT_coordinate_system_code '2'
_symmetry_cell_setting 'orthorhombic'
loop_
_space_group_symop_operation_xyz
x,y,z
1/2-x,1/2-y,z
x,1/2-y,1/2-z
1/2-x,y,1/2-z
-x,-y,-z
1/2+x,1/2+y,-z
-x,1/2+y,1/2+z
1/2+x,-y,1/2+z
loop_
_atom_site_type_symbol
_atom_site_label
_atom_site_fract_x
_atom_site_fract_y
_atom_site_fract_z
Si Si1 0.085053 0.805868 0.562582
Si Si2 0.003997 0.186271 0.700493
Si Si3 0.738514 0.075958 0.487044
Si Si4 0.764646 0.545766 0.116272
Si Si5 0.750000 0.750000 0.750000
O O1 0.250000 0.750000 0.553738
O O2 0.245219 0.864189 0.585398
O O3 0.954946 0.812859 0.437636
O O4 0.900123 0.794914 0.669867
O O5 0.001030 0.250000 0.750000
O O6 0.250000 0.153133 0.750000
O O7 0.750000 0.155547 0.750000
O O8 0.469789 0.074249 0.549792
O O9 0.972771 0.074326 0.576675
O O10 0.766977 0.022777 0.400271
O O11 0.750000 0.558847 0.250000
#
# Coordination Sequence:
#
# PCOD8201636 Si02
#       5
#     8   8   8   8   2
#     4  12  27  48  69 108 152 197 250 298 366 458
#     4  10  20  39  65  94 134 188 228 296 352 418
#     4  10  25  44  74 107 142 189 245 304 363 439
#     4  10  22  48  73 106 141 185 245 310 373 429
#     4  12  30  48  70 102 160 212 250 282 368 468
#
# _framework density 23.864360999999999
#
# number of rings (size 3 to 8) (size 9 to 14) (size 15 to 20)
#    0.000    1.412    2.353    2.471    3.294    4.706 
#    8.471    0.000    0.000    0.000    0.000    0.000 
#    0.000    0.000    0.000    0.000    0.000    0.000 
#
# Total GULP energy -421421.793504 kJ/mol
# GULP energy per Si atom -12394.758632 kJ/mol
# Density = 2.381004 g / cm^3
# Si number density = 23.864361 Si / 1000 Ang^3
#
#
#
# Elastic Constant Matrix: (Units=GPa)
#
#
# Indices 1 2 3 4 5 6 
#
# 1 170.2479 43.2082 48.8752 0.0000 0.0000 0.0000
# 2 43.2082 186.6940 39.7230 0.0000 0.0000 0.0000
# 3 48.8752 39.7230 141.5964 0.0000 0.0000 0.0000
# 4 0.0000 0.0000 0.0000 910.5982 0.0000 0.0000
# 5 0.0000 0.0000 0.0000 0.0000 33.9231 0.0000
# 6 0.0000 0.0000 0.0000 0.0000 0.0000 90.1610
#
#
#
# Elastic Compliance Matrix: (Units=1/GPa)
#
#
# Indices 1 2 3 4 5 6 
#
# 1 0.006738 -0.001132 -0.002008 0.000000 0.000000 0.000000
# 2 -0.001132 0.005887 -0.001261 0.000000 0.000000 0.000000
# 3 -0.002008 -0.001261 0.008109 0.000000 0.000000 0.000000
# 4 0.000000 0.000000 0.000000 0.001098 0.000000 0.000000
# 5 0.000000 0.000000 0.000000 0.000000 0.029478 0.000000
# 6 0.000000 0.000000 0.000000 0.000000 0.000000 0.011091
#
#
# Mechanical properties :
#
#
# Convention : Reuss Voigt Hill
#
# Bulk Modulus (GPa) = 83.81002 84.68347 84.24675
# Shear Modulus (GPa) = 66.50708 231.38524 148.94616
#
# Velocity S-wave (km/s) = 5.28482 9.85743 7.90880
# Velocity P-wave (km/s) = 8.51085 12.84994 10.89852
#
# Compressibility (1/GPa) = 0.01193175
#
# Stress axis : x y z
#
# Youngs Moduli (GPa) = 148.42134 169.87748 123.31828
#
# Poissons Ratio (x) = 0.19232 0.24763
# Poissons Ratio (y) = 0.16803 0.15546
# Poissons Ratio (z) = 0.29803 0.21415
#
# Static dielectric constant tensor:
#      x y z
#    x 8.666250 0.000000 0.000000 
#    y 0.000000 4.420050 0.000000 
#    z 0.000000 0.000000 4.162550 
# 
# 
# High freq. dielectric constant tensor:
#      x y z
#    x 1.955730 0.000000 0.000000 
#    y 0.000000 1.977510 0.000000 
#    z 0.000000 0.000000 1.936680 
# 
# From -- ./inp_files/17536.got.cif
#   From: 2010.06.25/outbox.cif.g09.slc.cpg/sg48_9_cif.got.tgz:17536.got - 2010.06.26 18:06:46.
