data_PCOD8201615
_publ_section_title
;
Structure prediction by ZEFSAII (Michael W. Deem and Ramdas Pophale) SiO2 
 PCOD8201615
Probable space group: P N N N
;
_chemical_formula_sum "Si O2"
_cell_formula_units_Z 26
_cell_length_a 5.307341
_cell_length_b 8.693106
_cell_length_c 24.613427
_cell_angle_alpha 90.000000
_cell_angle_beta 90.000000
_cell_angle_gamma 90.000000
_cell_volume 1135.596521
_symmetry_space_group_name_H-M "P N N N"
_symmetry_group_IT_number 48
_space_group.IT_coordinate_system_code '2'
_symmetry_cell_setting 'orthorhombic'
loop_
_space_group_symop_operation_xyz
x,y,z
1/2-x,1/2-y,z
x,1/2-y,1/2-z
1/2-x,y,1/2-z
-x,-y,-z
1/2+x,1/2+y,-z
-x,1/2+y,1/2+z
1/2+x,-y,1/2+z
loop_
_atom_site_type_symbol
_atom_site_label
_atom_site_fract_x
_atom_site_fract_y
_atom_site_fract_z
Si Si1 0.510304 0.160573 0.853546
Si Si2 0.499899 0.679600 0.991738
Si Si3 0.750000 0.250000 0.750000
Si Si4 0.500196 0.309578 0.370953
O O1 0.750000 0.250000 0.880607
O O2 0.569150 0.145743 0.788602
O O3 0.250000 0.250000 0.864222
O O4 0.492297 0.992077 0.879355
O O5 0.750000 0.750000 0.020559
O O6 0.502136 0.722392 0.928529
O O7 0.250000 0.750000 0.019712
O O8 0.500000 0.500000 0.000000
O O9 0.750000 0.250000 0.339194
O O10 0.250000 0.250000 0.339228
#
# Coordination Sequence:
#
# PCOD8201615 Si02
#       4
#     8   8   2   8
#     4  10  20  38  64  87 120 160 199 243 300 363
#     4  10  21  40  61  87 123 159 202 252 298 351
#     4   8  22  36  68  84 126 140 212 232 322 344
#     4  10  21  39  60  89 124 156 204 244 299 358
#
# _framework density 22.895454000000001
#
# number of rings (size 3 to 8) (size 9 to 14) (size 15 to 20)
#    0.923    1.231    0.000    3.231    0.000    0.000 
#    0.000   37.692    0.000    0.000    0.000    0.000 
#    0.000    0.000    0.000    0.000    0.000    0.000 
#
# Total GULP energy -322108.146224 kJ/mol
# GULP energy per Si atom -12388.774855 kJ/mol
# Density = 2.284334 g / cm^3
# Si number density = 22.895454 Si / 1000 Ang^3
#
#
#
# Elastic Constant Matrix: (Units=GPa)
#
#
# Indices 1 2 3 4 5 6 
#
# 1 294.4715 115.1986 -7.5246 0.0000 0.0000 0.0000
# 2 115.1986 241.4483 18.7680 0.0000 0.0000 0.0000
# 3 -7.5246 18.7680 48.3758 0.0000 0.0000 0.0000
# 4 0.0000 0.0000 0.0000 16.9850 0.0000 0.0000
# 5 0.0000 0.0000 0.0000 0.0000 44.7947 0.0000
# 6 0.0000 0.0000 0.0000 0.0000 0.0000 52.1753
#
#
#
# Elastic Compliance Matrix: (Units=1/GPa)
#
#
# Indices 1 2 3 4 5 6 
#
# 1 0.004279 -0.002158 0.001503 0.000000 0.000000 0.000000
# 2 -0.002158 0.005359 -0.002415 0.000000 0.000000 0.000000
# 3 0.001503 -0.002415 0.021842 0.000000 0.000000 0.000000
# 4 0.000000 0.000000 0.000000 0.058876 0.000000 0.000000
# 5 0.000000 0.000000 0.000000 0.000000 0.022324 0.000000
# 6 0.000000 0.000000 0.000000 0.000000 0.000000 0.019166
#
#
# Mechanical properties :
#
#
# Convention : Reuss Voigt Hill
#
# Bulk Modulus (GPa) = 39.46422 93.01996 66.24209
# Shear Modulus (GPa) = 34.14541 53.31457 43.72999
#
# Velocity S-wave (km/s) = 3.86601 4.83080 4.37508
# Velocity P-wave (km/s) = 6.09935 8.47537 7.38356
#
# Compressibility (1/GPa) = 0.02533941
#
# Stress axis : x y z
#
# Youngs Moduli (GPa) = 233.72040 186.59868 45.78308
#
# Poissons Ratio (x) = 0.40272 -0.06880
# Poissons Ratio (y) = 0.50442 0.11056
# Poissons Ratio (z) = -0.35124 0.45060
#
# Static dielectric constant tensor:
#      x y z
#    x 6.172390 0.000000 0.000000 
#    y 0.000000 4.238030 0.000000 
#    z 0.000000 0.000000 3.579630 
# 
# 
# High freq. dielectric constant tensor:
#      x y z
#    x 1.945790 0.000000 0.000000 
#    y 0.000000 1.898480 0.000000 
#    z 0.000000 0.000000 1.857580 
# 
# From -- ./inp_files/37305.got.cif
#   From: 2010.06.25/outbox.cif.g09.slc.cpg/sg48_19_cif.got.tgz:37305.got - 2010.06.26 18:06:46.
