data_PCOD8201803
_publ_section_title
;
Structure prediction by ZEFSAII (Michael W. Deem and Ramdas Pophale) SiO2 
 PCOD8201803
Probable space group: P N N N
;
_chemical_formula_sum "Si O2"
_cell_formula_units_Z 64
_cell_length_a 14.528302
_cell_length_b 8.664424
_cell_length_c 22.822836
_cell_angle_alpha 90.000000
_cell_angle_beta 90.000000
_cell_angle_gamma 90.000000
_cell_volume 2872.924184
_symmetry_space_group_name_H-M "P N N N"
_symmetry_group_IT_number 48
_space_group.IT_coordinate_system_code '2'
_symmetry_cell_setting 'orthorhombic'
loop_
_space_group_symop_operation_xyz
x,y,z
1/2-x,1/2-y,z
x,1/2-y,1/2-z
1/2-x,y,1/2-z
-x,-y,-z
1/2+x,1/2+y,-z
-x,1/2+y,1/2+z
1/2+x,-y,1/2+z
loop_
_atom_site_type_symbol
_atom_site_label
_atom_site_fract_x
_atom_site_fract_y
_atom_site_fract_z
Si Si1 0.391966 0.332218 0.188260
Si Si2 0.837379 0.655147 0.313596
Si Si3 0.602488 0.555932 0.006443
Si Si4 0.489437 0.585620 0.252086
Si Si5 0.770485 0.071515 0.099028
Si Si6 0.064501 0.461775 0.122998
Si Si7 0.763540 0.918797 0.905735
Si Si8 0.399477 0.143832 0.921201
O O1 0.369493 0.250000 0.250000
O O2 0.461381 0.472593 0.199348
O O3 0.434219 0.223535 0.135977
O O4 0.298592 0.404822 0.161715
O O5 0.750000 0.750000 0.291625
O O6 0.900872 0.613861 0.257192
O O7 0.799787 0.493148 0.338027
O O8 0.895150 0.751936 0.362413
O O9 0.643765 0.449348 0.056680
O O10 0.602363 0.739606 0.023122
O O11 0.500000 0.500000 0.000000
O O12 0.660190 0.507258 0.948218
O O13 0.437131 0.750000 0.250000
O O14 0.464592 0.520999 0.314150
O O15 0.750000 0.250000 0.106413
O O16 0.686904 0.970155 0.072684
O O17 0.165960 0.510867 0.099034
O O18 0.989876 0.532240 0.077984
O O19 0.750000 0.750000 0.933345
#
# Coordination Sequence:
#
# PCOD8201803 Si02
#       8
#     8   8   8   8   8   8   8   8
#     4   9  22  40  65  93 132 176 231 280 334 413
#     4   9  20  39  61  88 130 180 220 277 340 420
#     4  11  25  43  68  98 132 181 230 287 354 430
#     4  11  21  37  63  93 134 173 232 267 346 404
#     4  10  23  41  66  96 132 171 231 290 350 411
#     4  10  22  40  64  98 128 179 222 288 344 416
#     4  10  22  42  68  93 133 181 228 275 353 411
#     4  10  21  43  65  91 135 172 225 280 356 411
#
# _framework density 22.276952999999999
#
# number of rings (size 3 to 8) (size 9 to 14) (size 15 to 20)
#    0.000    2.000    1.250    1.875    5.250    8.000 
#    0.000    6.250    0.000    0.750    0.000    0.000 
#    0.000    0.000    0.000    0.000    0.000    0.000 
#
# Total GULP energy -792927.605073 kJ/mol
# GULP energy per Si atom -12389.493829 kJ/mol
# Density = 2.222625 g / cm^3
# Si number density = 22.276953 Si / 1000 Ang^3
#
#
#
# Elastic Constant Matrix: (Units=GPa)
#
#
# Indices 1 2 3 4 5 6 
#
# 1 172.0200 54.9509 59.8392 0.0000 0.0000 0.0000
# 2 54.9509 128.9498 33.5082 0.0000 0.0000 0.0000
# 3 59.8392 33.5082 89.7133 0.0000 0.0000 0.0000
# 4 0.0000 0.0000 0.0000 21.1507 0.0000 0.0000
# 5 0.0000 0.0000 0.0000 0.0000 50.6037 0.0000
# 6 0.0000 0.0000 0.0000 0.0000 0.0000 35.6161
#
#
#
# Elastic Compliance Matrix: (Units=1/GPa)
#
#
# Indices 1 2 3 4 5 6 
#
# 1 0.008131 -0.002277 -0.004573 0.000000 0.000000 0.000000
# 2 -0.002277 0.009226 -0.001927 0.000000 0.000000 0.000000
# 3 -0.004573 -0.001927 0.014917 0.000000 0.000000 0.000000
# 4 0.000000 0.000000 0.000000 0.047280 0.000000 0.000000
# 5 0.000000 0.000000 0.000000 0.000000 0.019761 0.000000
# 6 0.000000 0.000000 0.000000 0.000000 0.000000 0.028077
#
#
# Mechanical properties :
#
#
# Convention : Reuss Voigt Hill
#
# Bulk Modulus (GPa) = 67.93702 76.36440 72.15071
# Shear Modulus (GPa) = 33.36580 37.63311 35.49945
#
# Velocity S-wave (km/s) = 3.87430 4.11460 3.99626
# Velocity P-wave (km/s) = 7.11171 7.54502 7.33156
#
# Compressibility (1/GPa) = 0.01471952
#
# Stress axis : x y z
#
# Youngs Moduli (GPa) = 122.97901 108.38935 67.03794
#
# Poissons Ratio (x) = 0.24678 0.30659
# Poissons Ratio (y) = 0.27999 0.12920
# Poissons Ratio (z) = 0.56243 0.20890
#
# Static dielectric constant tensor:
#      x y z
#    x 4.282420 0.000000 0.000000 
#    y 0.000000 3.505600 0.000000 
#    z 0.000000 0.000000 4.074570 
# 
# 
# High freq. dielectric constant tensor:
#      x y z
#    x 1.881460 0.000000 0.000000 
#    y 0.000000 1.864980 0.000000 
#    z 0.000000 0.000000 1.879550 
# 
# From -- ./inp_files/36571.got.cif
#   From: 2010.06.25/outbox.cif.g09.slc.cpg/sg48_19_cif.got.tgz:36571.got - 2010.06.26 18:06:46.
