data_PCOD8201350
_publ_section_title
;
Structure prediction by ZEFSAII (Michael W. Deem and Ramdas Pophale) SiO2 
 PCOD8201350
Probable space group: P N N N
;
_chemical_formula_sum "Si O2"
_cell_formula_units_Z 56
_cell_length_a 19.611003
_cell_length_b 9.487266
_cell_length_c 16.432786
_cell_angle_alpha 90.000000
_cell_angle_beta 90.000000
_cell_angle_gamma 90.000000
_cell_volume 3057.398745
_symmetry_space_group_name_H-M "P N N N"
_symmetry_group_IT_number 48
_space_group.IT_coordinate_system_code '2'
_symmetry_cell_setting 'orthorhombic'
loop_
_space_group_symop_operation_xyz
x,y,z
1/2-x,1/2-y,z
x,1/2-y,1/2-z
1/2-x,y,1/2-z
-x,-y,-z
1/2+x,1/2+y,-z
-x,1/2+y,1/2+z
1/2+x,-y,1/2+z
loop_
_atom_site_type_symbol
_atom_site_label
_atom_site_fract_x
_atom_site_fract_y
_atom_site_fract_z
Si Si1 0.835935 0.519118 0.438864
Si Si2 0.896208 0.746914 0.158547
Si Si3 0.818561 0.526694 0.074297
Si Si4 0.173630 0.259596 0.068717
Si Si5 0.411487 0.730676 0.547273
Si Si6 0.038760 0.308921 0.160138
Si Si7 0.982065 0.087860 0.580591
O O1 0.874682 0.594936 0.364675
O O2 0.758998 0.479975 0.415335
O O3 0.838470 0.620379 0.516171
O O4 0.872790 0.375476 0.457963
O O5 0.921995 0.750000 0.250000
O O6 0.832567 0.641138 0.145321
O O7 0.956337 0.689826 0.102286
O O8 0.866497 0.391711 0.089059
O O9 0.832728 0.600324 0.986860
O O10 0.250000 0.250000 0.107485
O O11 0.115290 0.260692 0.137147
O O12 0.481554 0.751146 0.598384
O O13 0.422248 0.690280 0.451595
O O14 0.022527 0.250000 0.250000
O O15 0.036894 0.481260 0.154439
O O16 0.000000 0.000000 0.500000
#
# Coordination Sequence:
#
# PCOD8201350 Si02
#       7
#     8   8   8   8   8   8   8
#     4  10  22  33  57  89 110 148 199 246 273 346
#     4  11  22  36  56  83 119 154 193 239 295 349
#     4  10  18  38  58  78 115 157 195 228 294 346
#     4   9  19  38  60  83 108 142 195 239 285 352
#     4  11  20  36  60  84 115 150 198 240 285 349
#     4  11  22  35  59  82 114 152 189 236 298 353
#     4  10  19  39  61  77 111 160 188 234 298 349
#
# _framework density 18.316223000000001
#
# number of rings (size 3 to 8) (size 9 to 14) (size 15 to 20)
#    0.000    1.714    4.286    4.286    2.000    3.714 
#    0.000    0.000    0.000    2.571    0.000    0.000 
#    0.000    0.000    0.000    0.000    0.000    0.000 
#
# Total GULP energy -694070.992326 kJ/mol
# GULP energy per Si atom -12394.124863 kJ/mol
# Density = 1.827453 g / cm^3
# Si number density = 18.316223 Si / 1000 Ang^3
#
#
#
# Elastic Constant Matrix: (Units=GPa)
#
#
# Indices 1 2 3 4 5 6 
#
# 1 104.4286 55.6815 30.5870 0.0000 0.0000 0.0000
# 2 55.6815 112.4014 32.2715 0.0000 0.0000 0.0000
# 3 30.5870 32.2715 76.4165 0.0000 0.0000 0.0000
# 4 0.0000 0.0000 0.0000 22.3945 0.0000 0.0000
# 5 0.0000 0.0000 0.0000 0.0000 12.0127 0.0000
# 6 0.0000 0.0000 0.0000 0.0000 0.0000 30.5926
#
#
#
# Elastic Compliance Matrix: (Units=1/GPa)
#
#
# Indices 1 2 3 4 5 6 
#
# 1 0.013574 -0.005877 -0.002951 0.000000 0.000000 0.000000
# 2 -0.005877 0.012669 -0.002998 0.000000 0.000000 0.000000
# 3 -0.002951 -0.002998 0.015534 0.000000 0.000000 0.000000
# 4 0.000000 0.000000 0.000000 0.044654 0.000000 0.000000
# 5 0.000000 0.000000 0.000000 0.000000 0.083246 0.000000
# 6 0.000000 0.000000 0.000000 0.000000 0.000000 0.032688
#
#
# Mechanical properties :
#
#
# Convention : Reuss Voigt Hill
#
# Bulk Modulus (GPa) = 55.17520 58.92517 57.05019
# Shear Modulus (GPa) = 21.54648 24.64705 23.09676
#
# Velocity S-wave (km/s) = 3.43353 3.67228 3.55491
# Velocity P-wave (km/s) = 6.77554 7.08673 6.93288
#
# Compressibility (1/GPa) = 0.01812408
#
# Stress axis : x y z
#
# Youngs Moduli (GPa) = 73.67054 78.93473 64.37699
#
# Poissons Ratio (x) = 0.46389 0.19000
# Poissons Ratio (y) = 0.43296 0.19299
# Poissons Ratio (z) = 0.21743 0.23663
#
# Static dielectric constant tensor:
#      x y z
#    x 3.594280 0.000000 0.000000 
#    y 0.000000 3.581990 0.000000 
#    z 0.000000 0.000000 3.467750 
# 
# 
# High freq. dielectric constant tensor:
#      x y z
#    x 1.722310 0.000000 0.000000 
#    y 0.000000 1.711800 0.000000 
#    z 0.000000 0.000000 1.672440 
# 
# From -- ./inp_files/32204.got.cif
#   From: 2010.06.25/outbox.cif.g09.slc.cpg/sg48_17_cif.got.tgz:32204.got - 2010.06.26 18:06:46.
