data_PCOD8201251
_publ_section_title
;
Structure prediction by ZEFSAII (Michael W. Deem and Ramdas Pophale) SiO2 
 PCOD8201251
Probable space group: P N N N
;
_chemical_formula_sum "Si O2"
_cell_formula_units_Z 64
_cell_length_a 27.002975
_cell_length_b 12.133547
_cell_length_c 9.820050
_cell_angle_alpha 90.000000
_cell_angle_beta 90.000000
_cell_angle_gamma 90.000000
_cell_volume 3217.459509
_symmetry_space_group_name_H-M "P N N N"
_symmetry_group_IT_number 48
_space_group.IT_coordinate_system_code '2'
_symmetry_cell_setting 'orthorhombic'
loop_
_space_group_symop_operation_xyz
x,y,z
1/2-x,1/2-y,z
x,1/2-y,1/2-z
1/2-x,y,1/2-z
-x,-y,-z
1/2+x,1/2+y,-z
-x,1/2+y,1/2+z
1/2+x,-y,1/2+z
loop_
_atom_site_type_symbol
_atom_site_label
_atom_site_fract_x
_atom_site_fract_y
_atom_site_fract_z
Si Si1 0.644017 0.842811 0.571611
Si Si2 0.462978 0.826850 0.012269
Si Si3 0.360376 0.096355 0.126234
Si Si4 0.199132 0.946179 0.579088
Si Si5 0.636221 0.241543 0.403305
Si Si6 0.971362 0.975309 0.667279
Si Si7 0.188265 0.519525 0.611427
Si Si8 0.035966 0.326502 0.386489
O O1 0.652475 0.908990 0.713062
O O2 0.659512 0.715071 0.576202
O O3 0.586348 0.840521 0.532008
O O4 0.673377 0.903129 0.452584
O O5 0.406569 0.788601 0.999924
O O6 0.480579 0.922835 0.907596
O O7 0.496251 0.718681 0.993458
O O8 0.469375 0.890825 0.156530
O O9 0.419621 0.077081 0.107115
O O10 0.329820 0.006526 0.042145
O O11 0.184600 0.817510 0.579445
O O12 0.257503 0.951208 0.556263
O O13 0.185506 0.997216 0.726169
O O14 0.615342 0.250000 0.250000
O O15 0.651164 0.116301 0.438466
O O16 0.979069 0.946425 0.826780
O O17 0.042461 0.250000 0.250000
#
# Coordination Sequence:
#
# PCOD8201251 Si02
#       8
#     8   8   8   8   8   8   8   8
#     4  10  19  36  57  84 115 148 188 229 293 337
#     4  10  16  27  54  87 111 142 197 231 274 350
#     4  10  18  36  62  82 110 152 189 234 280 348
#     4  10  21  39  59  80 110 148 197 239 288 337
#     4  10  19  34  57  83 110 147 192 233 280 345
#     4   9  16  27  50  87 112 142 186 240 275 330
#     4  10  23  38  55  83 115 149 184 245 296 332
#     4   9  15  30  51  81 116 147 182 233 283 337
#
# _framework density 19.891469000000001
#
# number of rings (size 3 to 8) (size 9 to 14) (size 15 to 20)
#    0.000    2.250    5.000    1.500    0.000    3.000 
#    0.000    3.750    0.000    1.500    3.250    0.000 
#    0.000    0.000    0.000    0.000    0.000    0.000 
#
# Total GULP energy -793033.126296 kJ/mol
# GULP energy per Si atom -12391.142598 kJ/mol
# Density = 1.984620 g / cm^3
# Si number density = 19.891469 Si / 1000 Ang^3
#
#
#
# Elastic Constant Matrix: (Units=GPa)
#
#
# Indices 1 2 3 4 5 6 
#
# 1 90.3131 31.6131 19.3612 0.0000 0.0000 0.0000
# 2 31.6131 94.3675 37.8702 0.0000 0.0000 0.0000
# 3 19.3612 37.8702 45.3783 0.0000 0.0000 0.0000
# 4 0.0000 0.0000 0.0000 39.7479 0.0000 0.0000
# 5 0.0000 0.0000 0.0000 0.0000 14.6698 0.0000
# 6 0.0000 0.0000 0.0000 0.0000 0.0000 30.4720
#
#
#
# Elastic Compliance Matrix: (Units=1/GPa)
#
#
# Indices 1 2 3 4 5 6 
#
# 1 0.012780 -0.003147 -0.002826 0.000000 0.000000 0.000000
# 2 -0.003147 0.016708 -0.012601 0.000000 0.000000 0.000000
# 3 -0.002826 -0.012601 0.033759 0.000000 0.000000 0.000000
# 4 0.000000 0.000000 0.000000 0.025159 0.000000 0.000000
# 5 0.000000 0.000000 0.000000 0.000000 0.068167 0.000000
# 6 0.000000 0.000000 0.000000 0.000000 0.000000 0.032817
#
#
# Mechanical properties :
#
#
# Convention : Reuss Voigt Hill
#
# Bulk Modulus (GPa) = 38.31668 45.30533 41.81101
# Shear Modulus (GPa) = 21.25511 26.39222 23.82367
#
# Velocity S-wave (km/s) = 3.27242 3.64649 3.46451
# Velocity P-wave (km/s) = 5.79508 6.36828 6.08843
#
# Compressibility (1/GPa) = 0.02609829
#
# Stress axis : x y z
#
# Youngs Moduli (GPa) = 78.24657 59.85208 29.62200
#
# Poissons Ratio (x) = 0.18836 0.08372
# Poissons Ratio (y) = 0.24625 0.37326
# Poissons Ratio (z) = 0.22116 0.75418
#
# Static dielectric constant tensor:
#      x y z
#    x 3.489450 0.000000 0.000000 
#    y 0.000000 3.821580 0.000000 
#    z 0.000000 0.000000 3.416430 
# 
# 
# High freq. dielectric constant tensor:
#      x y z
#    x 1.772560 0.000000 0.000000 
#    y 0.000000 1.777520 0.000000 
#    z 0.000000 0.000000 1.739150 
# 
# From -- ./inp_files/23706.got.cif
#   From: 2010.06.25/outbox.cif.g09.slc.cpg/sg48_12_cif.got.tgz:23706.got - 2010.06.26 18:06:46.
