data_PCOD8201705
_publ_section_title
;
Structure prediction by ZEFSAII (Michael W. Deem and Ramdas Pophale) SiO2 
 PCOD8201705
Probable space group: P N N N
;
_chemical_formula_sum "Si O2"
_cell_formula_units_Z 60
_cell_length_a 18.305414
_cell_length_b 6.259801
_cell_length_c 22.885747
_cell_angle_alpha 90.000000
_cell_angle_beta 90.000000
_cell_angle_gamma 90.000000
_cell_volume 2622.437673
_symmetry_space_group_name_H-M "P N N N"
_symmetry_group_IT_number 48
_space_group.IT_coordinate_system_code '2'
_symmetry_cell_setting 'orthorhombic'
loop_
_space_group_symop_operation_xyz
x,y,z
1/2-x,1/2-y,z
x,1/2-y,1/2-z
1/2-x,y,1/2-z
-x,-y,-z
1/2+x,1/2+y,-z
-x,1/2+y,1/2+z
1/2+x,-y,1/2+z
loop_
_atom_site_type_symbol
_atom_site_label
_atom_site_fract_x
_atom_site_fract_y
_atom_site_fract_z
Si Si1 0.162997 0.271708 0.684961
Si Si2 0.633798 0.636989 0.805069
Si Si3 0.949195 0.029982 0.639189
Si Si4 0.094488 0.473667 0.919455
Si Si5 0.676548 0.846310 0.496090
Si Si6 0.826026 0.355537 0.597322
Si Si7 0.678764 0.135802 0.391547
Si Si8 0.454059 0.750000 0.250000
O O1 0.250000 0.250000 0.686760
O O2 0.129096 0.250000 0.750000
O O3 0.130766 0.096463 0.641592
O O4 0.140650 0.508794 0.661826
O O5 0.674649 0.750000 0.750000
O O6 0.689458 0.525838 0.850334
O O7 0.590920 0.446463 0.775045
O O8 0.580447 0.798598 0.840736
O O9 0.882028 0.172489 0.616516
O O10 0.993673 0.148485 0.692964
O O11 0.006754 0.015249 0.586237
O O12 0.116724 0.330839 0.975812
O O13 0.122194 0.715472 0.926505
O O14 0.750000 0.750000 0.525439
O O15 0.641229 0.010069 0.542660
O O16 0.706540 0.963701 0.438601
O O17 0.750000 0.250000 0.578643
O O18 0.750000 0.250000 0.365979
#
# Coordination Sequence:
#
# PCOD8201705 Si02
#       8
#     8   8   8   8   8   8   8   4
#     4  10  21  37  57  91 133 171 229 286 328 392
#     4   9  20  44  70  98 138 173 214 274 336 409
#     4  10  23  42  66 101 138 175 223 275 344 413
#     4  11  23  40  65  96 132 181 222 278 340 398
#     4  11  24  42  71  95 128 177 229 282 334 405
#     4  11  26  44  73 102 130 173 227 277 342 421
#     4  11  19  39  61  88 127 177 226 270 339 389
#     4   8  18  42  67  90 139 184 216 266 332 412
#
# _framework density 22.879474999999999
#
# number of rings (size 3 to 8) (size 9 to 14) (size 15 to 20)
#    0.000    1.733    2.667    1.200    2.800    5.333 
#    4.800   16.667    0.000    0.000    0.000    0.000 
#    0.000    0.000    0.000    0.000    0.000    0.000 
#
# Total GULP energy -743399.145489 kJ/mol
# GULP energy per Si atom -12389.985758 kJ/mol
# Density = 2.282740 g / cm^3
# Si number density = 22.879475 Si / 1000 Ang^3
#
#
#
# Elastic Constant Matrix: (Units=GPa)
#
#
# Indices 1 2 3 4 5 6 
#
# 1 72.2497 27.9791 16.3747 0.0000 0.0000 0.0000
# 2 27.9791 137.5575 48.6377 0.0000 0.0000 0.0000
# 3 16.3747 48.6377 99.0814 0.0000 0.0000 0.0000
# 4 0.0000 0.0000 0.0000 46.7749 0.0000 0.0000
# 5 0.0000 0.0000 0.0000 0.0000 23.4797 0.0000
# 6 0.0000 0.0000 0.0000 0.0000 0.0000 18.9546
#
#
#
# Elastic Compliance Matrix: (Units=1/GPa)
#
#
# Indices 1 2 3 4 5 6 
#
# 1 0.015141 -0.002656 -0.001199 0.000000 0.000000 0.000000
# 2 -0.002656 0.009262 -0.004108 0.000000 0.000000 0.000000
# 3 -0.001199 -0.004108 0.012307 0.000000 0.000000 0.000000
# 4 0.000000 0.000000 0.000000 0.021379 0.000000 0.000000
# 5 0.000000 0.000000 0.000000 0.000000 0.042590 0.000000
# 6 0.000000 0.000000 0.000000 0.000000 0.000000 0.052758
#
#
# Mechanical properties :
#
#
# Convention : Reuss Voigt Hill
#
# Bulk Modulus (GPa) = 48.10905 54.98573 51.54739
# Shear Modulus (GPa) = 28.36226 32.23497 30.29861
#
# Velocity S-wave (km/s) = 3.52467 3.75761 3.64300
# Velocity P-wave (km/s) = 6.13492 6.55066 6.34619
#
# Compressibility (1/GPa) = 0.02078611
#
# Stress axis : x y z
#
# Youngs Moduli (GPa) = 66.04567 107.96397 81.25281
#
# Poissons Ratio (x) = 0.28674 0.09738
# Poissons Ratio (y) = 0.17541 0.33377
# Poissons Ratio (z) = 0.07916 0.44350
#
# Static dielectric constant tensor:
#      x y z
#    x 3.568720 0.000000 0.000000 
#    y 0.000000 4.551880 0.000000 
#    z 0.000000 0.000000 4.462120 
# 
# 
# High freq. dielectric constant tensor:
#      x y z
#    x 1.863170 0.000000 0.000000 
#    y 0.000000 1.923920 0.000000 
#    z 0.000000 0.000000 1.910510 
# 
# From -- ./inp_files/36775.got.cif
#   From: 2010.06.25/outbox.cif.g09.slc.cpg/sg48_19_cif.got.tgz:36775.got - 2010.06.26 18:06:46.
