data_PCOD8201888
_publ_section_title
;
Structure prediction by ZEFSAII (Michael W. Deem and Ramdas Pophale) SiO2 
 PCOD8201888
Probable space group: P N N N
;
_chemical_formula_sum "Si O2"
_cell_formula_units_Z 40
_cell_length_a 16.125484
_cell_length_b 8.847996
_cell_length_c 11.734638
_cell_angle_alpha 90.000000
_cell_angle_beta 90.000000
_cell_angle_gamma 90.000000
_cell_volume 1674.277238
_symmetry_space_group_name_H-M "P N N N"
_symmetry_group_IT_number 48
_space_group.IT_coordinate_system_code '2'
_symmetry_cell_setting 'orthorhombic'
loop_
_space_group_symop_operation_xyz
x,y,z
1/2-x,1/2-y,z
x,1/2-y,1/2-z
1/2-x,y,1/2-z
-x,-y,-z
1/2+x,1/2+y,-z
-x,1/2+y,1/2+z
1/2+x,-y,1/2+z
loop_
_atom_site_type_symbol
_atom_site_label
_atom_site_fract_x
_atom_site_fract_y
_atom_site_fract_z
Si Si1 0.003954 0.362161 0.086302
Si Si2 0.170184 0.355617 0.984557
Si Si3 0.737043 0.075642 0.624997
Si Si4 0.585829 0.067841 0.464902
Si Si5 0.925308 0.916113 0.260797
O O1 0.929309 0.243184 0.069002
O O2 0.990732 0.448369 0.208067
O O3 0.093939 0.285454 0.060918
O O4 0.000000 0.500000 0.000000
O O5 0.250000 0.250000 0.993441
O O6 0.146141 0.392442 0.854720
O O7 0.192443 0.514985 0.041094
O O8 0.750000 0.250000 0.638159
O O9 0.750000 0.999301 0.750000
O O10 0.646967 0.046754 0.570632
O O11 0.500000 0.000000 0.500000
O O12 0.618636 0.967884 0.357144
O O13 0.969925 0.750000 0.250000
#
# Coordination Sequence:
#
# PCOD8201888 Si02
#       5
#     8   8   8   8   8
#     4  10  22  43  69 106 145 188 243 303 359 438
#     4  11  24  47  71 105 144 184 242 308 369 432
#     4  11  26  46  70 103 146 194 233 301 373 440
#     4  12  25  45  72 106 145 194 246 297 371 446
#     4  11  24  43  72 104 138 191 244 307 359 433
#
# _framework density 23.890906000000001
#
# number of rings (size 3 to 8) (size 9 to 14) (size 15 to 20)
#    0.000    1.000    0.000    7.800    2.800    3.200 
#    7.200    1.000    0.000    0.000    0.000    0.000 
#    0.000    0.000    0.000    0.000    0.000    0.000 
#
# Total GULP energy -495662.993387 kJ/mol
# GULP energy per Si atom -12391.574835 kJ/mol
# Density = 2.383653 g / cm^3
# Si number density = 23.890906 Si / 1000 Ang^3
#
#
#
# Elastic Constant Matrix: (Units=GPa)
#
#
# Indices 1 2 3 4 5 6 
#
# 1 132.2644 30.1842 71.1167 0.0000 0.0000 0.0000
# 2 30.1842 104.7443 54.8897 0.0000 0.0000 0.0000
# 3 71.1167 54.8897 170.3147 0.0000 0.0000 0.0000
# 4 0.0000 0.0000 0.0000 40.0160 0.0000 0.0000
# 5 0.0000 0.0000 0.0000 0.0000 26.0455 0.0000
# 6 0.0000 0.0000 0.0000 0.0000 0.0000 41.5758
#
#
#
# Elastic Compliance Matrix: (Units=1/GPa)
#
#
# Indices 1 2 3 4 5 6 
#
# 1 0.009808 -0.000818 -0.003831 0.000000 0.000000 0.000000
# 2 -0.000818 0.011555 -0.003382 0.000000 0.000000 0.000000
# 3 -0.003831 -0.003382 0.008561 0.000000 0.000000 0.000000
# 4 0.000000 0.000000 0.000000 0.024990 0.000000 0.000000
# 5 0.000000 0.000000 0.000000 0.000000 0.038394 0.000000
# 6 0.000000 0.000000 0.000000 0.000000 0.000000 0.024052
#
#
# Mechanical properties :
#
#
# Convention : Reuss Voigt Hill
#
# Bulk Modulus (GPa) = 72.15101 79.96718 76.05909
# Shear Modulus (GPa) = 36.21992 38.26965 37.24479
#
# Velocity S-wave (km/s) = 3.89788 4.00665 3.95264
# Velocity P-wave (km/s) = 7.10800 7.41275 7.26197
#
# Compressibility (1/GPa) = 0.01385982
#
# Stress axis : x y z
#
# Youngs Moduli (GPa) = 101.96269 86.53977 116.80282
#
# Poissons Ratio (x) = 0.07083 0.44753
# Poissons Ratio (y) = 0.08345 0.39507
# Poissons Ratio (z) = 0.39067 0.29271
#
# Static dielectric constant tensor:
#      x y z
#    x 5.080840 0.000000 0.000000 
#    y 0.000000 4.894920 0.000000 
#    z 0.000000 0.000000 5.627170 
# 
# 
# High freq. dielectric constant tensor:
#      x y z
#    x 1.927360 0.000000 0.000000 
#    y 0.000000 1.969800 0.000000 
#    z 0.000000 0.000000 1.955090 
# 
# From -- ./inp_files/21910.got.cif
#   From: 2010.06.25/outbox.cif.g09.slc.cpg/sg48_11_cif.got.tgz:21910.got - 2010.06.26 18:06:46.
