data_PCOD8201688
_publ_section_title
;
Structure prediction by ZEFSAII (Michael W. Deem and Ramdas Pophale) SiO2 
 PCOD8201688
Probable space group: P N N N
;
_chemical_formula_sum "Si O2"
_cell_formula_units_Z 42
_cell_length_a 22.217668
_cell_length_b 4.878442
_cell_length_c 20.243130
_cell_angle_alpha 90.000000
_cell_angle_beta 90.000000
_cell_angle_gamma 90.000000
_cell_volume 2194.104373
_symmetry_space_group_name_H-M "P N N N"
_symmetry_group_IT_number 48
_space_group.IT_coordinate_system_code '2'
_symmetry_cell_setting 'orthorhombic'
loop_
_space_group_symop_operation_xyz
x,y,z
1/2-x,1/2-y,z
x,1/2-y,1/2-z
1/2-x,y,1/2-z
-x,-y,-z
1/2+x,1/2+y,-z
-x,1/2+y,1/2+z
1/2+x,-y,1/2+z
loop_
_atom_site_type_symbol
_atom_site_label
_atom_site_fract_x
_atom_site_fract_y
_atom_site_fract_z
Si Si1 0.184068 0.369462 0.058680
Si Si2 0.962222 0.492915 0.707196
Si Si3 0.478114 0.752589 0.583589
Si Si4 0.577135 0.740795 0.474944
Si Si5 0.159131 0.889144 0.144975
Si Si6 0.750000 0.250000 0.750000
O O1 0.250000 0.250000 0.043598
O O2 0.182889 0.673186 0.090027
O O3 0.151558 0.183522 0.112626
O O4 0.145701 0.347076 0.991084
O O5 0.994284 0.250000 0.750000
O O6 0.906968 0.325706 0.673367
O O7 0.009026 0.622675 0.655339
O O8 0.938354 0.750000 0.750000
O O9 0.539193 0.713354 0.542404
O O10 0.447373 0.453001 0.584426
O O11 0.429080 0.946604 0.547849
O O12 0.207373 0.932299 0.203499
#
# Coordination Sequence:
#
# PCOD8201688 Si02
#       6
#     8   8   8   8   8   2
#     4  12  23  39  54  79 109 145 191 243 273 323
#     4  12  24  37  56  80 114 148 191 239 278 338
#     4  10  21  36  56  81 106 143 187 232 288 338
#     4  10  21  35  59  78 106 142 187 239 285 334
#     4  12  25  35  52  75 109 152 202 230 267 305
#     4  12  24  38  48  70 112 162 200 230 256 302
#
# _framework density 19.142208
#
# number of rings (size 3 to 8) (size 9 to 14) (size 15 to 20)
#    0.000    0.762    4.762    3.429    5.333    0.762 
#    0.000    0.000    0.000    0.000    0.000    0.000 
#    0.000   11.429    0.000    0.000    0.000    0.000 
#
# Total GULP energy -520611.410627 kJ/mol
# GULP energy per Si atom -12395.509777 kJ/mol
# Density = 1.909864 g / cm^3
# Si number density = 19.142208 Si / 1000 Ang^3
#
#
#
# Elastic Constant Matrix: (Units=GPa)
#
#
# Indices 1 2 3 4 5 6 
#
# 1 74.3448 17.6418 42.7108 0.0000 0.0000 0.0000
# 2 17.6418 80.1716 17.6032 0.0000 0.0000 0.0000
# 3 42.7108 17.6032 65.5486 0.0000 0.0000 0.0000
# 4 0.0000 0.0000 0.0000 35.1292 0.0000 0.0000
# 5 0.0000 0.0000 0.0000 0.0000 29.4629 0.0000
# 6 0.0000 0.0000 0.0000 0.0000 0.0000 18.3933
#
#
#
# Elastic Compliance Matrix: (Units=1/GPa)
#
#
# Indices 1 2 3 4 5 6 
#
# 1 0.021734 -0.001778 -0.013684 0.000000 0.000000 0.000000
# 2 -0.001778 0.013400 -0.002440 0.000000 0.000000 0.000000
# 3 -0.013684 -0.002440 0.024828 0.000000 0.000000 0.000000
# 4 0.000000 0.000000 0.000000 0.028466 0.000000 0.000000
# 5 0.000000 0.000000 0.000000 0.000000 0.033941 0.000000
# 6 0.000000 0.000000 0.000000 0.000000 0.000000 0.054368
#
#
# Mechanical properties :
#
#
# Convention : Reuss Voigt Hill
#
# Bulk Modulus (GPa) = 41.39529 41.77517 41.58523
# Shear Modulus (GPa) = 22.66597 26.07103 24.36850
#
# Velocity S-wave (km/s) = 3.44478 3.69449 3.57182
# Velocity P-wave (km/s) = 6.12325 6.33008 6.22752
#
# Compressibility (1/GPa) = 0.02415734
#
# Stress axis : x y z
#
# Youngs Moduli (GPa) = 46.00996 74.62529 40.27744
#
# Poissons Ratio (x) = 0.13268 0.55117
# Poissons Ratio (y) = 0.08181 0.09828
# Poissons Ratio (z) = 0.62962 0.18210
#
# Static dielectric constant tensor:
#      x y z
#    x 3.336960 0.000000 0.000000 
#    y 0.000000 2.121650 0.000000 
#    z 0.000000 0.000000 3.379410 
# 
# 
# High freq. dielectric constant tensor:
#      x y z
#    x 1.712670 0.000000 0.000000 
#    y 0.000000 1.765820 0.000000 
#    z 0.000000 0.000000 1.713080 
# 
# From -- ./inp_files/32866.got.cif
#   From: 2010.06.25/outbox.cif.g09.slc.cpg/sg48_17_cif.got.tgz:32866.got - 2010.06.26 18:06:46.
