data_PCOD8201819
_publ_section_title
;
Structure prediction by ZEFSAII (Michael W. Deem and Ramdas Pophale) SiO2 
 PCOD8201819
Probable space group: P N N N
;
_chemical_formula_sum "Si O2"
_cell_formula_units_Z 48
_cell_length_a 11.699755
_cell_length_b 21.344189
_cell_length_c 9.728066
_cell_angle_alpha 90.000000
_cell_angle_beta 90.000000
_cell_angle_gamma 90.000000
_cell_volume 2429.309977
_symmetry_space_group_name_H-M "P N N N"
_symmetry_group_IT_number 48
_space_group.IT_coordinate_system_code '2'
_symmetry_cell_setting 'orthorhombic'
loop_
_space_group_symop_operation_xyz
x,y,z
1/2-x,1/2-y,z
x,1/2-y,1/2-z
1/2-x,y,1/2-z
-x,-y,-z
1/2+x,1/2+y,-z
-x,1/2+y,1/2+z
1/2+x,-y,1/2+z
loop_
_atom_site_type_symbol
_atom_site_label
_atom_site_fract_x
_atom_site_fract_y
_atom_site_fract_z
Si Si1 0.411086 0.614667 0.504892
Si Si2 0.154899 0.624605 0.485913
Si Si3 0.884225 0.039439 0.230016
Si Si4 0.128195 0.216203 0.877446
Si Si5 0.943461 0.245573 0.089112
Si Si6 0.530457 0.597840 0.228006
O O1 0.282164 0.599395 0.455992
O O2 0.441935 0.571529 0.636244
O O3 0.406699 0.687124 0.539352
O O4 0.508215 0.602753 0.391268
O O5 0.090422 0.582836 0.599665
O O6 0.154346 0.695697 0.545927
O O7 0.086508 0.619518 0.344346
O O8 0.750000 0.031350 0.250000
O O9 0.939840 0.973219 0.195255
O O10 0.250000 0.250000 0.894331
O O11 0.061987 0.250000 0.750000
O O12 0.132542 0.142866 0.829845
O O13 0.062171 0.223655 0.019871
O O14 0.963924 0.250000 0.250000
#
# Coordination Sequence:
#
# PCOD8201819 Si02
#       6
#     8   8   8   8   8   8
#     4  11  21  37  57  89 115 145 193 230 284 339
#     4  10  22  37  58  86 115 149 186 234 284 340
#     4  10  22  37  58  83 112 153 192 226 281 342
#     4  10  22  39  59  85 113 145 192 234 280 331
#     4  11  21  37  62  85 114 149 184 237 289 336
#     4  11  22  38  60  82 116 153 186 239 280 335
#
# _framework density 19.758697000000002
#
# number of rings (size 3 to 8) (size 9 to 14) (size 15 to 20)
#    0.000    1.500    3.333    2.000    2.333    1.000 
#    0.000    1.667    0.000    2.000    0.000    0.000 
#    0.000    0.000    0.000    0.000    0.000    0.000 
#
# Total GULP energy -595063.552195 kJ/mol
# GULP energy per Si atom -12397.157337 kJ/mol
# Density = 1.971373 g / cm^3
# Si number density = 19.758697 Si / 1000 Ang^3
#
#
#
# Elastic Constant Matrix: (Units=GPa)
#
#
# Indices 1 2 3 4 5 6 
#
# 1 45.8824 6.9199 6.6737 0.0000 0.0000 0.0000
# 2 6.9199 134.6481 11.7172 0.0000 0.0000 0.0000
# 3 6.6737 11.7172 77.5485 0.0000 0.0000 0.0000
# 4 0.0000 0.0000 0.0000 31.7123 0.0000 0.0000
# 5 0.0000 0.0000 0.0000 0.0000 36.8230 0.0000
# 6 0.0000 0.0000 0.0000 0.0000 0.0000 30.5352
#
#
#
# Elastic Compliance Matrix: (Units=1/GPa)
#
#
# Indices 1 2 3 4 5 6 
#
# 1 0.022200 -0.000988 -0.001761 0.000000 0.000000 0.000000
# 2 -0.000988 0.007570 -0.001059 0.000000 0.000000 0.000000
# 3 -0.001761 -0.001059 0.013207 0.000000 0.000000 0.000000
# 4 0.000000 0.000000 0.000000 0.031534 0.000000 0.000000
# 5 0.000000 0.000000 0.000000 0.000000 0.027157 0.000000
# 6 0.000000 0.000000 0.000000 0.000000 0.000000 0.032749
#
#
# Mechanical properties :
#
#
# Convention : Reuss Voigt Hill
#
# Bulk Modulus (GPa) = 28.27971 34.30006 31.28989
# Shear Modulus (GPa) = 32.50591 35.33199 33.91895
#
# Velocity S-wave (km/s) = 4.06044 4.23327 4.14775
# Velocity P-wave (km/s) = 6.02715 6.42583 6.22968
#
# Compressibility (1/GPa) = 0.03536104
#
# Stress axis : x y z
#
# Youngs Moduli (GPa) = 45.04506 132.10643 75.71914
#
# Poissons Ratio (x) = 0.13047 0.13336
# Poissons Ratio (y) = 0.04449 0.08017
# Poissons Ratio (z) = 0.07934 0.13987
#
# Static dielectric constant tensor:
#      x y z
#    x 3.308910 0.000000 0.000000 
#    y 0.000000 3.827940 0.000000 
#    z 0.000000 0.000000 4.136280 
# 
# 
# High freq. dielectric constant tensor:
#      x y z
#    x 1.745050 0.000000 0.000000 
#    y 0.000000 1.784400 0.000000 
#    z 0.000000 0.000000 1.777900 
# 
# From -- ./inp_files/12745.got.cif
#   From: 2010.06.25/outbox.cif.g09.slc.cpg/sg48_7_cif.got.tgz:12745.got - 2010.06.26 18:06:46.
