data_PCOD8201053
_publ_section_title
;
Structure prediction by ZEFSAII (Michael W. Deem and Ramdas Pophale) SiO2 
 PCOD8201053
Probable space group: P M M M
;
_chemical_formula_sum "Si O2"
_cell_formula_units_Z 44
_cell_length_a 28.310177
_cell_length_b 9.860261
_cell_length_c 9.249309
_cell_angle_alpha 90.000000
_cell_angle_beta 90.000000
_cell_angle_gamma 90.000000
_cell_volume 2581.905151
_symmetry_space_group_name_H-M "P M M M"
_symmetry_group_IT_number 47
_symmetry_cell_setting 'orthorhombic'
loop_
_space_group_symop_operation_xyz
x,y,z
-x,-y,z
x,-y,-z
-x,y,-z
-x,-y,-z
x,y,-z
-x,y,z
x,-y,z
loop_
_atom_site_type_symbol
_atom_site_label
_atom_site_fract_x
_atom_site_fract_y
_atom_site_fract_z
Si Si1 0.091058 0.838381 0.836171
Si Si2 0.374811 0.847264 0.828681
Si Si3 0.000000 0.161647 0.664077
Si Si4 0.729783 0.838775 0.160787
Si Si5 0.445801 0.655547 0.666764
Si Si6 0.818276 0.161796 0.337238
O O1 0.137952 0.783565 0.757072
O O2 0.045943 0.783335 0.748094
O O3 0.090816 0.000000 0.838039
O O4 0.089624 0.782215 0.000000
O O5 0.322306 0.796852 0.782687
O O6 0.413407 0.749293 0.763335
O O7 0.383759 0.000000 0.771657
O O8 0.379006 0.843927 0.000000
O O9 0.000000 0.217655 0.500000
O O10 0.000000 0.000000 0.661922
O O11 0.769699 0.781399 0.268411
O O12 0.732400 0.000000 0.152905
O O13 0.739018 0.779848 0.000000
O O14 0.433727 0.681159 0.500000
O O15 0.500000 0.693062 0.698643
O O16 0.436116 0.500000 0.708335
O O17 0.822726 0.218070 0.500000
O O18 0.818218 0.000000 0.337890
#
# Coordination Sequence:
#
# PCOD8201053 Si02
#       6
#     8   8   4   8   8   8
#     4   9  15  21  28  37  51  75 107 143 188 240
#     4   9  18  31  47  69  94 117 144 181 223 265
#     4   9  15  21  27  35  49  69  99 145 194 235
#     4   8  14  25  38  52  74 101 125 154 197 246
#     4   9  19  35  51  67  90 120 152 184 218 259
#     4   9  15  21  30  45  63  84 114 151 190 234
#
# _framework density 17.041678999999998
#
# number of rings (size 3 to 8) (size 9 to 14) (size 15 to 20)
#    0.000    3.182    0.000    3.000    0.000    7.636 
#    0.000    4.545    0.000    0.000    0.000    0.000 
#    0.000    0.000    0.000    0.000    0.000    0.000 
#
# Total GULP energy -545405.749523 kJ/mol
# GULP energy per Si atom -12395.585216 kJ/mol
# Density = 1.700289 g / cm^3
# Si number density = 17.041679 Si / 1000 Ang^3
#
#
#
# Elastic Constant Matrix: (Units=GPa)
#
#
# Indices 1 2 3 4 5 6 
#
# 1 145.9527 34.0079 73.5223 0.0000 0.0000 0.0000
# 2 34.0079 22.9612 20.7055 0.0000 0.0000 0.0000
# 3 73.5223 20.7055 113.5418 0.0000 0.0000 0.0000
# 4 0.0000 0.0000 0.0000 14.3236 0.0000 0.0000
# 5 0.0000 0.0000 0.0000 0.0000 33.9568 0.0000
# 6 0.0000 0.0000 0.0000 0.0000 0.0000 -2.3860
#
#
#
# Elastic Compliance Matrix: (Units=1/GPa)
#
#
# Indices 1 2 3 4 5 6 
#
# 1 0.013119 -0.014087 -0.005926 0.000000 0.000000 0.000000
# 2 -0.014087 0.067249 -0.003142 0.000000 0.000000 0.000000
# 3 -0.005926 -0.003142 0.013218 0.000000 0.000000 0.000000
# 4 0.000000 0.000000 0.000000 0.069815 0.000000 0.000000
# 5 0.000000 0.000000 0.000000 0.000000 0.029449 0.000000
# 6 0.000000 0.000000 0.000000 0.000000 0.000000 -0.419118
#
#
# Mechanical properties :
#
#
# Convention : Reuss Voigt Hill
#
# Bulk Modulus (GPa) = 21.15241 59.88077 40.51659
# Shear Modulus (GPa) = -30.45071 19.46022 -5.49525
#
# Velocity S-wave (km/s) = -4.23169 3.38290 -1.79766
# Velocity P-wave (km/s) = 3.38188 7.10442 4.41790
#
# Compressibility (1/GPa) = 0.04727595
#
# Stress axis : x y z
#
# Youngs Moduli (GPa) = 76.22482 14.87019 75.65598
#
# Poissons Ratio (x) = 0.20947 0.44835
# Poissons Ratio (y) = 1.07375 0.23770
# Poissons Ratio (z) = 0.45173 0.04672
#
# Static dielectric constant tensor:
#      x y z
#    x 3.485890 0.000000 0.000000 
#    y 0.000000 2.510850 0.000000 
#    z 0.000000 0.000000 3.310810 
# 
# 
# High freq. dielectric constant tensor:
#      x y z
#    x 1.675830 0.000000 0.000000 
#    y 0.000000 1.571060 0.000000 
#    z 0.000000 0.000000 1.665470 
# 
# From -- ./inp_files/2167.got.cif
#   From: 2010.03.12/outbox.cif.g09.slc.cpg/sg47_2_cif.got.tgz:2167.got - 2010.04.14 03:12:58.
