data_PCOD8201291
_publ_section_title
;
Structure prediction by ZEFSAII (Michael W. Deem and Ramdas Pophale) SiO2 
 PCOD8201291
Probable space group: P N N N
;
_chemical_formula_sum "Si O2"
_cell_formula_units_Z 56
_cell_length_a 19.278621
_cell_length_b 8.518816
_cell_length_c 16.765569
_cell_angle_alpha 90.000000
_cell_angle_beta 90.000000
_cell_angle_gamma 90.000000
_cell_volume 2753.426582
_symmetry_space_group_name_H-M "P N N N"
_symmetry_group_IT_number 48
_space_group.IT_coordinate_system_code '2'
_symmetry_cell_setting 'orthorhombic'
loop_
_space_group_symop_operation_xyz
x,y,z
1/2-x,1/2-y,z
x,1/2-y,1/2-z
1/2-x,y,1/2-z
-x,-y,-z
1/2+x,1/2+y,-z
-x,1/2+y,1/2+z
1/2+x,-y,1/2+z
loop_
_atom_site_type_symbol
_atom_site_label
_atom_site_fract_x
_atom_site_fract_y
_atom_site_fract_z
Si Si1 0.648275 0.444119 0.464618
Si Si2 0.525821 0.874227 0.096973
Si Si3 0.120478 0.118504 0.931252
Si Si4 0.963601 0.672609 0.835036
Si Si5 0.247217 0.436529 0.660422
Si Si6 0.177309 0.311733 0.079502
Si Si7 0.055330 0.813758 0.972059
O O1 0.568914 0.516560 0.465315
O O2 0.688745 0.485059 0.384327
O O3 0.686250 0.510749 0.543876
O O4 0.633964 0.257986 0.463963
O O5 0.583440 0.746907 0.127939
O O6 0.489172 0.988229 0.162432
O O7 0.471503 0.759322 0.054447
O O8 0.174086 0.015580 0.879510
O O9 0.064202 0.002285 0.972409
O O10 0.159086 0.205837 0.003209
O O11 0.979260 0.750000 0.750000
O O12 0.881398 0.687091 0.852605
O O13 0.005053 0.772821 0.899236
O O14 0.250000 0.250000 0.654809
O O15 0.250000 0.500159 0.750000
O O16 0.250000 0.250000 0.116611
#
# Coordination Sequence:
#
# PCOD8201291 Si02
#       7
#     8   8   8   8   8   8   8
#     4  10  17  36  59  80 108 158 194 234 291 349
#     4  10  19  37  60  82 113 153 198 245 298 360
#     4  11  21  34  61  91 113 156 204 243 295 371
#     4  11  23  39  58  86 119 154 197 256 312 361
#     4  11  21  36  55  85 121 157 201 240 295 367
#     4  11  19  38  62  81 110 150 204 249 296 361
#     4  11  21  35  60  88 118 152 201 246 299 370
#
# _framework density 20.338294000000001
#
# number of rings (size 3 to 8) (size 9 to 14) (size 15 to 20)
#    0.000    1.286    8.571    1.286    0.000    3.143 
#    0.000    0.714    0.000    0.000    0.000    0.000 
#    0.000    0.000    0.000    0.000    0.000    0.000 
#
# Total GULP energy -693779.848776 kJ/mol
# GULP energy per Si atom -12388.925871 kJ/mol
# Density = 2.029200 g / cm^3
# Si number density = 20.338294 Si / 1000 Ang^3
#
#
#
# Elastic Constant Matrix: (Units=GPa)
#
#
# Indices 1 2 3 4 5 6 
#
# 1 100.8896 32.6522 16.9523 0.0000 0.0000 0.0000
# 2 32.6522 85.0703 16.8077 0.0000 0.0000 0.0000
# 3 16.9523 16.8077 60.2561 0.0000 0.0000 0.0000
# 4 0.0000 0.0000 0.0000 24.2024 0.0000 0.0000
# 5 0.0000 0.0000 0.0000 0.0000 24.0500 0.0000
# 6 0.0000 0.0000 0.0000 0.0000 0.0000 28.8750
#
#
#
# Elastic Compliance Matrix: (Units=1/GPa)
#
#
# Indices 1 2 3 4 5 6 
#
# 1 0.011571 -0.004020 -0.002134 0.000000 0.000000 0.000000
# 2 -0.004020 0.013837 -0.002729 0.000000 0.000000 0.000000
# 3 -0.002134 -0.002729 0.017957 0.000000 0.000000 0.000000
# 4 0.000000 0.000000 0.000000 0.041318 0.000000 0.000000
# 5 0.000000 0.000000 0.000000 0.000000 0.041580 0.000000
# 6 0.000000 0.000000 0.000000 0.000000 0.000000 0.034632
#
#
# Mechanical properties :
#
#
# Convention : Reuss Voigt Hill
#
# Bulk Modulus (GPa) = 39.06189 42.11559 40.58874
# Shear Modulus (GPa) = 26.71012 27.41240 27.06126
#
# Velocity S-wave (km/s) = 3.62787 3.67525 3.65164
# Velocity P-wave (km/s) = 6.06600 6.22595 6.14650
#
# Compressibility (1/GPa) = 0.02560040
#
# Stress axis : x y z
#
# Youngs Moduli (GPa) = 86.42007 72.27003 55.68727
#
# Poissons Ratio (x) = 0.29051 0.11885
# Poissons Ratio (y) = 0.34739 0.15196
# Poissons Ratio (z) = 0.18444 0.19721
#
# Static dielectric constant tensor:
#      x y z
#    x 3.965740 0.000000 0.000000 
#    y 0.000000 3.952060 0.000000 
#    z 0.000000 0.000000 3.236510 
# 
# 
# High freq. dielectric constant tensor:
#      x y z
#    x 1.808270 0.000000 0.000000 
#    y 0.000000 1.796540 0.000000 
#    z 0.000000 0.000000 1.739750 
# 
# From -- ./inp_files/28368.got.cif
#   From: 2010.06.25/outbox.cif.g09.slc.cpg/sg48_15_cif.got.tgz:28368.got - 2010.06.26 18:06:46.
