data_PCOD8201216
_publ_section_title
;
Structure prediction by ZEFSAII (Michael W. Deem and Ramdas Pophale) SiO2 
 PCOD8201216
Probable space group: P M M M
;
_chemical_formula_sum "Si O2"
_cell_formula_units_Z 44
_cell_length_a 13.591906
_cell_length_b 21.313847
_cell_length_c 9.527071
_cell_angle_alpha 90.000000
_cell_angle_beta 90.000000
_cell_angle_gamma 90.000000
_cell_volume 2759.952502
_symmetry_space_group_name_H-M "P M M M"
_symmetry_group_IT_number 47
_symmetry_cell_setting 'orthorhombic'
loop_
_space_group_symop_operation_xyz
x,y,z
-x,-y,z
x,-y,-z
-x,y,-z
-x,-y,-z
x,y,-z
-x,y,z
x,-y,z
loop_
_atom_site_type_symbol
_atom_site_label
_atom_site_fract_x
_atom_site_fract_y
_atom_site_fract_z
Si Si1 0.614472 0.117724 0.162160
Si Si2 0.798720 0.428854 0.335934
Si Si3 0.109937 0.322590 0.838676
Si Si4 0.616845 0.000000 0.658898
Si Si5 0.300104 0.249448 0.162888
Si Si6 0.609454 0.645328 0.660470
O O1 0.500000 0.132823 0.190954
O O2 0.654209 0.061443 0.259012
O O3 0.680062 0.177642 0.204494
O O4 0.630027 0.098802 0.000000
O O5 0.821539 0.422018 0.500000
O O6 0.813827 0.500000 0.285135
O O7 0.873815 0.384663 0.253280
O O8 0.686563 0.409171 0.300549
O O9 0.187313 0.267722 0.798998
O O10 0.000000 0.296801 0.809990
O O11 0.123559 0.342498 0.000000
O O12 0.500000 0.000000 0.658838
O O13 0.658418 0.000000 0.500000
O O14 0.374850 0.293179 0.246709
O O15 0.323145 0.259878 0.000000
O O16 0.623407 0.666400 0.500000
O O17 0.500000 0.618690 0.687654
#
# Coordination Sequence:
#
# PCOD8201216 Si02
#       6
#     8   8   8   4   8   8
#     4   9  16  26  41  61  86 115 143 169 199 238
#     4   9  18  31  45  62  84 110 141 175 211 255
#     4   9  18  32  48  65  85 108 136 175 221 262
#     4   9  17  27  39  59  88 119 146 170 197 231
#     4   9  17  29  45  64  85 111 143 176 211 253
#     4   9  17  28  42  61  85 112 141 174 211 250
#
# _framework density 15.942304
#
# number of rings (size 3 to 8) (size 9 to 14) (size 15 to 20)
#    0.000    3.000    0.000    0.818    0.000    4.364 
#    0.000    5.455    0.000    0.000    0.000    5.727 
#    0.000    5.091    0.000    0.000    0.000    0.000 
#
# Total GULP energy -545528.604669 kJ/mol
# GULP energy per Si atom -12398.377379 kJ/mol
# Density = 1.590602 g / cm^3
# Si number density = 15.942304 Si / 1000 Ang^3
#
#
#
# Elastic Constant Matrix: (Units=GPa)
#
#
# Indices 1 2 3 4 5 6 
#
# 1 76.0727 38.6593 24.8962 0.0000 0.0000 0.0000
# 2 38.6593 120.8174 49.8602 0.0000 0.0000 0.0000
# 3 24.8962 49.8602 54.1729 0.0000 0.0000 0.0000
# 4 0.0000 0.0000 0.0000 25.8986 0.0000 0.0000
# 5 0.0000 0.0000 0.0000 0.0000 18.3348 0.0000
# 6 0.0000 0.0000 0.0000 0.0000 0.0000 15.4798
#
#
#
# Elastic Compliance Matrix: (Units=1/GPa)
#
#
# Indices 1 2 3 4 5 6 
#
# 1 0.016307 -0.003427 -0.004340 0.000000 0.000000 0.000000
# 2 -0.003427 0.014067 -0.011372 0.000000 0.000000 0.000000
# 3 -0.004340 -0.011372 0.030921 0.000000 0.000000 0.000000
# 4 0.000000 0.000000 0.000000 0.038612 0.000000 0.000000
# 5 0.000000 0.000000 0.000000 0.000000 0.054541 0.000000
# 6 0.000000 0.000000 0.000000 0.000000 0.000000 0.064600
#
#
# Mechanical properties :
#
#
# Convention : Reuss Voigt Hill
#
# Bulk Modulus (GPa) = 43.44716 53.09938 48.27327
# Shear Modulus (GPa) = 18.86809 21.11914 19.99361
#
# Velocity S-wave (km/s) = 3.44397 3.64362 3.54520
# Velocity P-wave (km/s) = 6.56708 7.14709 6.86321
#
# Compressibility (1/GPa) = 0.02301646
#
# Stress axis : x y z
#
# Youngs Moduli (GPa) = 61.32248 71.09081 32.34089
#
# Poissons Ratio (x) = 0.24361 0.14037
# Poissons Ratio (y) = 0.21014 0.36777
# Poissons Ratio (z) = 0.26616 0.80843
#
# Static dielectric constant tensor:
#      x y z
#    x 2.981760 0.000000 0.000000 
#    y 0.000000 2.988480 0.000000 
#    z 0.000000 0.000000 3.094490 
# 
# 
# High freq. dielectric constant tensor:
#      x y z
#    x 1.592850 0.000000 0.000000 
#    y 0.000000 1.600660 0.000000 
#    z 0.000000 0.000000 1.615020 
# 
# From -- ./inp_files/6748.got.cif
#   From: 2010.03.12/outbox.cif.g09.slc.cpg/sg47_4_cif.got.tgz:6748.got - 2010.04.14 03:12:58.
