data_PCOD8201119
_publ_section_title
;
Structure prediction by ZEFSAII (Michael W. Deem and Ramdas Pophale) SiO2 
 PCOD8201119
Probable space group: P M M M
;
_chemical_formula_sum "Si O2"
_cell_formula_units_Z 44
_cell_length_a 9.277419
_cell_length_b 28.519372
_cell_length_c 9.437337
_cell_angle_alpha 90.000000
_cell_angle_beta 90.000000
_cell_angle_gamma 90.000000
_cell_volume 2496.988792
_symmetry_space_group_name_H-M "P M M M"
_symmetry_group_IT_number 47
_symmetry_cell_setting 'orthorhombic'
loop_
_space_group_symop_operation_xyz
x,y,z
-x,-y,z
x,-y,-z
-x,y,-z
-x,-y,-z
x,y,-z
-x,y,z
x,-y,z
loop_
_atom_site_type_symbol
_atom_site_label
_atom_site_fract_x
_atom_site_fract_y
_atom_site_fract_z
Si Si1 0.169079 0.769287 0.336440
Si Si2 0.831453 0.408922 0.664795
Si Si3 0.667241 0.138401 0.664594
Si Si4 0.337492 0.500000 0.331752
Si Si5 0.328673 0.051476 0.840445
Si Si6 0.171330 0.319429 0.839595
O O1 0.206336 0.758372 0.500000
O O2 0.248403 0.815872 0.282223
O O3 0.228397 0.726505 0.241894
O O4 0.000000 0.776877 0.315212
O O5 0.799568 0.398535 0.500000
O O6 0.745644 0.453989 0.722326
O O7 0.774002 0.365108 0.755685
O O8 0.000000 0.418416 0.689146
O O9 0.693214 0.129868 0.500000
O O10 0.500000 0.145864 0.701158
O O11 0.733243 0.092761 0.742113
O O12 0.500000 0.500000 0.271421
O O13 0.337364 0.500000 0.500000
O O14 0.500000 0.052098 0.833762
O O15 0.274016 0.000000 0.788862
O O16 0.275144 0.060622 0.000000
O O17 0.000000 0.319024 0.839308
O O18 0.231832 0.319941 0.000000
#
# Coordination Sequence:
#
# PCOD8201119 Si02
#       6
#     8   8   8   4   8   8
#     4   9  17  30  47  65  87 116 146 175 213 261
#     4   9  16  28  48  70  89 112 145 182 216 251
#     4   9  17  28  43  65  89 110 138 179 220 255
#     4   9  17  29  46  69  94 118 146 179 214 254
#     4   8  14  25  41  61  85 113 144 177 214 256
#     4   9  17  29  46  68  90 112 144 184 218 250
#
# _framework density 17.621224000000002
#
# number of rings (size 3 to 8) (size 9 to 14) (size 15 to 20)
#    0.000    3.182    0.000    1.364    0.000    4.364 
#    0.000    3.182    0.000    9.273    0.000    3.818 
#    0.000    0.000    0.000    0.000    0.000    0.000 
#
# Total GULP energy -545476.153541 kJ/mol
# GULP energy per Si atom -12397.185308 kJ/mol
# Density = 1.758112 g / cm^3
# Si number density = 17.621224 Si / 1000 Ang^3
#
#
#
# Elastic Constant Matrix: (Units=GPa)
#
#
# Indices 1 2 3 4 5 6 
#
# 1 36.1239 48.7441 26.4548 0.0000 0.0000 0.0000
# 2 48.7441 208.6505 89.2538 0.0000 0.0000 0.0000
# 3 26.4548 89.2538 85.2435 0.0000 0.0000 0.0000
# 4 0.0000 0.0000 0.0000 18.2773 0.0000 0.0000
# 5 0.0000 0.0000 0.0000 0.0000 10.7809 0.0000
# 6 0.0000 0.0000 0.0000 0.0000 0.0000 22.8698
#
#
#
# Elastic Compliance Matrix: (Units=1/GPa)
#
#
# Indices 1 2 3 4 5 6 
#
# 1 0.041547 -0.007590 -0.004947 0.000000 0.000000 0.000000
# 2 -0.007590 0.010067 -0.008185 0.000000 0.000000 0.000000
# 3 -0.004947 -0.008185 0.021837 0.000000 0.000000 0.000000
# 4 0.000000 0.000000 0.000000 0.054713 0.000000 0.000000
# 5 0.000000 0.000000 0.000000 0.000000 0.092756 0.000000
# 6 0.000000 0.000000 0.000000 0.000000 0.000000 0.043726
#
#
# Mechanical properties :
#
#
# Convention : Reuss Voigt Hill
#
# Bulk Modulus (GPa) = 31.24364 73.21369 52.22866
# Shear Modulus (GPa) = 15.78489 21.42330 18.60410
#
# Velocity S-wave (km/s) = 2.99622 3.49057 3.25280
# Velocity P-wave (km/s) = 5.45334 7.60817 6.61903
#
# Compressibility (1/GPa) = 0.03200651
#
# Stress axis : x y z
#
# Youngs Moduli (GPa) = 24.06933 99.33182 45.79420
#
# Poissons Ratio (x) = 0.75392 0.22654
# Poissons Ratio (y) = 0.18268 0.37484
# Poissons Ratio (z) = 0.11907 0.81307
#
# Static dielectric constant tensor:
#      x y z
#    x 2.901820 0.000000 0.000000 
#    y 0.000000 3.618740 0.000000 
#    z 0.000000 0.000000 3.250040 
# 
# 
# High freq. dielectric constant tensor:
#      x y z
#    x 1.635150 0.000000 0.000000 
#    y 0.000000 1.698220 0.000000 
#    z 0.000000 0.000000 1.667250 
# 
# From -- ./inp_files/2112.got.cif
#   From: 2010.03.12/outbox.cif.g09.slc.cpg/sg47_2_cif.got.tgz:2112.got - 2010.04.14 03:12:58.
