data_PCOD8201320
_publ_section_title
;
Structure prediction by ZEFSAII (Michael W. Deem and Ramdas Pophale) SiO2 
 PCOD8201320
Probable space group: P N N N
;
_chemical_formula_sum "Si O2"
_cell_formula_units_Z 64
_cell_length_a 8.632360
_cell_length_b 23.418268
_cell_length_c 15.154695
_cell_angle_alpha 90.000000
_cell_angle_beta 90.000000
_cell_angle_gamma 90.000000
_cell_volume 3063.596155
_symmetry_space_group_name_H-M "P N N N"
_symmetry_group_IT_number 48
_space_group.IT_coordinate_system_code '2'
_symmetry_cell_setting 'orthorhombic'
loop_
_space_group_symop_operation_xyz
x,y,z
1/2-x,1/2-y,z
x,1/2-y,1/2-z
1/2-x,y,1/2-z
-x,-y,-z
1/2+x,1/2+y,-z
-x,1/2+y,1/2+z
1/2+x,-y,1/2+z
loop_
_atom_site_type_symbol
_atom_site_label
_atom_site_fract_x
_atom_site_fract_y
_atom_site_fract_z
Si Si1 0.316890 0.150796 0.158682
Si Si2 0.820296 0.692945 0.483776
Si Si3 0.689878 0.468621 0.157728
Si Si4 0.149866 0.460336 0.387658
Si Si5 0.685913 0.413657 0.849514
Si Si6 0.359853 0.078795 0.577434
Si Si7 0.181271 0.651534 0.846869
Si Si8 0.188661 0.809338 0.025473
O O1 0.250000 0.174583 0.250000
O O2 0.238672 0.189218 0.083643
O O3 0.276326 0.083742 0.148841
O O4 0.499055 0.159457 0.156851
O O5 0.750000 0.750000 0.439822
O O6 0.759447 0.637237 0.429071
O O7 0.004278 0.691751 0.479045
O O8 0.750000 0.487694 0.250000
O O9 0.505225 0.460250 0.170802
O O10 0.741291 0.523235 0.099767
O O11 0.773409 0.412153 0.123308
O O12 0.231115 0.523169 0.386877
O O13 0.077979 0.437848 0.480128
O O14 0.750000 0.404557 0.750000
O O15 0.498403 0.412064 0.852388
O O16 0.747542 0.362677 0.913883
O O17 0.250000 0.667077 0.750000
O O18 0.247230 0.690210 0.925346
O O19 0.250000 0.750000 0.068260
#
# Coordination Sequence:
#
# PCOD8201320 Si02
#       8
#     8   8   8   8   8   8   8   8
#     4  11  21  35  56  85 118 154 190 231 286 360
#     4  10  21  40  60  80 107 151 200 240 290 353
#     4  10  18  32  56  86 116 144 179 231 286 337
#     4  10  19  37  59  83 117 158 194 230 291 359
#     4  10  20  35  60  88 117 155 199 240 290 353
#     4   9  19  37  60  81 115 157 191 236 296 353
#     4  11  22  37  58  90 123 154 190 240 297 353
#     4  11  23  41  61  84 116 153 197 254 300 343
#
# _framework density 20.890481999999999
#
# number of rings (size 3 to 8) (size 9 to 14) (size 15 to 20)
#    0.000    1.750    0.000    7.875    0.000    2.750 
#    0.000   16.875    0.000    1.875    0.000    0.000 
#    0.000    0.000    0.000    0.000    0.000    0.000 
#
# Total GULP energy -792955.923005 kJ/mol
# GULP energy per Si atom -12389.936297 kJ/mol
# Density = 2.084293 g / cm^3
# Si number density = 20.890482 Si / 1000 Ang^3
#
#
#
# Elastic Constant Matrix: (Units=GPa)
#
#
# Indices 1 2 3 4 5 6 
#
# 1 88.9799 12.6094 33.6992 0.0000 0.0000 0.0000
# 2 12.6094 89.4218 25.4864 0.0000 0.0000 0.0000
# 3 33.6992 25.4864 89.8298 0.0000 0.0000 0.0000
# 4 0.0000 0.0000 0.0000 24.5665 0.0000 0.0000
# 5 0.0000 0.0000 0.0000 0.0000 11.7784 0.0000
# 6 0.0000 0.0000 0.0000 0.0000 0.0000 34.0532
#
#
#
# Elastic Compliance Matrix: (Units=1/GPa)
#
#
# Indices 1 2 3 4 5 6 
#
# 1 0.013119 -0.000487 -0.004784 0.000000 0.000000 0.000000
# 2 -0.000487 0.012185 -0.003275 0.000000 0.000000 0.000000
# 3 -0.004784 -0.003275 0.013856 0.000000 0.000000 0.000000
# 4 0.000000 0.000000 0.000000 0.040706 0.000000 0.000000
# 5 0.000000 0.000000 0.000000 0.000000 0.084901 0.000000
# 6 0.000000 0.000000 0.000000 0.000000 0.000000 0.029366
#
#
# Mechanical properties :
#
#
# Convention : Reuss Voigt Hill
#
# Bulk Modulus (GPa) = 45.30948 45.75794 45.53371
# Shear Modulus (GPa) = 22.87503 27.17537 25.02520
#
# Velocity S-wave (km/s) = 3.31267 3.61064 3.46486
# Velocity P-wave (km/s) = 6.03057 6.27165 6.15229
#
# Compressibility (1/GPa) = 0.02207044
#
# Stress axis : x y z
#
# Youngs Moduli (GPa) = 76.22474 82.06909 72.17230
#
# Poissons Ratio (x) = 0.03993 0.34524
# Poissons Ratio (y) = 0.03709 0.23633
# Poissons Ratio (z) = 0.36462 0.26874
#
# Static dielectric constant tensor:
#      x y z
#    x 3.524620 0.000000 0.000000 
#    y 0.000000 4.274740 0.000000 
#    z 0.000000 0.000000 3.935120 
# 
# 
# High freq. dielectric constant tensor:
#      x y z
#    x 1.794340 0.000000 0.000000 
#    y 0.000000 1.838940 0.000000 
#    z 0.000000 0.000000 1.803320 
# 
# From -- ./inp_files/25736.got.cif
#   From: 2010.06.25/outbox.cif.g09.slc.cpg/sg48_13_cif.got.tgz:25736.got - 2010.06.26 18:06:46.
