data_PCOD8201168
_publ_section_title
;
Structure prediction by ZEFSAII (Michael W. Deem and Ramdas Pophale) SiO2 
 PCOD8201168
Probable space group: P M M M
;
_chemical_formula_sum "Si O2"
_cell_formula_units_Z 52
_cell_length_a 9.665580
_cell_length_b 30.000288
_cell_length_c 10.228545
_cell_angle_alpha 90.000000
_cell_angle_beta 90.000000
_cell_angle_gamma 90.000000
_cell_volume 2965.973073
_symmetry_space_group_name_H-M "P M M M"
_symmetry_group_IT_number 47
_symmetry_cell_setting 'orthorhombic'
loop_
_space_group_symop_operation_xyz
x,y,z
-x,-y,z
x,-y,-z
-x,y,-z
-x,-y,-z
x,y,-z
-x,y,z
x,-y,z
loop_
_atom_site_type_symbol
_atom_site_label
_atom_site_fract_x
_atom_site_fract_y
_atom_site_fract_z
Si Si1 0.338431 0.718638 0.652098
Si Si2 0.664126 0.208536 0.144668
Si Si3 0.841125 0.052272 0.351590
Si Si4 0.661818 0.107813 0.849552
Si Si5 0.653358 0.447627 0.000000
Si Si6 0.850379 0.359442 0.648711
Si Si7 0.159055 0.450017 0.238149
O O1 0.306607 0.729492 0.500000
O O2 0.500000 0.710918 0.674031
O O3 0.280066 0.758883 0.741500
O O4 0.265534 0.673530 0.706323
O O5 0.500000 0.209298 0.143565
O O6 0.713205 0.158372 0.175055
O O7 0.718000 0.223270 0.000000
O O8 0.801742 0.066379 0.500000
O O9 0.744727 0.076588 0.248029
O O10 0.000000 0.064920 0.323209
O O11 0.817885 0.000000 0.333759
O O12 0.500000 0.102830 0.818100
O O13 0.691299 0.094125 0.000000
O O14 0.741159 0.432981 0.124264
O O15 0.636663 0.500000 0.000000
O O16 0.500000 0.425411 0.000000
O O17 0.863933 0.345975 0.500000
O O18 0.813907 0.412264 0.653342
O O19 0.000000 0.351323 0.718170
O O20 0.198096 0.500000 0.289097
O O21 0.000000 0.450435 0.189749
#
# Coordination Sequence:
#
# PCOD8201168 Si02
#       7
#     8   8   8   8   4   8   8
#     4   9  17  30  49  70  92 122 159 194 231 283
#     4   8  15  30  50  71  97 125 155 196 243 289
#     4   9  19  35  51  69  99 138 176 212 249 292
#     4   9  18  32  51  76 103 130 163 207 255 299
#     4   9  17  29  45  65  89 115 145 183 223 263
#     4   9  18  32  48  67  93 121 149 187 232 274
#     4   9  17  30  48  67  89 120 154 186 224 272
#
# _framework density 17.532188999999999
#
# number of rings (size 3 to 8) (size 9 to 14) (size 15 to 20)
#    0.000    3.154    0.000    1.615    0.000    3.692 
#    1.385    6.154    0.000    2.769    0.000    4.308 
#    0.000    0.000    0.000    0.000    0.000    0.000 
#
# Total GULP energy -644230.663808 kJ/mol
# GULP energy per Si atom -12389.051227 kJ/mol
# Density = 1.749229 g / cm^3
# Si number density = 17.532189 Si / 1000 Ang^3
#
#
#
# Elastic Constant Matrix: (Units=GPa)
#
#
# Indices 1 2 3 4 5 6 
#
# 1 67.9475 49.3493 48.8158 0.0000 0.0000 0.0000
# 2 49.3493 104.7928 64.9531 0.0000 0.0000 0.0000
# 3 48.8158 64.9531 89.7085 0.0000 0.0000 0.0000
# 4 0.0000 0.0000 0.0000 28.9822 0.0000 0.0000
# 5 0.0000 0.0000 0.0000 0.0000 23.8020 0.0000
# 6 0.0000 0.0000 0.0000 0.0000 0.0000 22.3496
#
#
#
# Elastic Compliance Matrix: (Units=1/GPa)
#
#
# Indices 1 2 3 4 5 6 
#
# 1 0.026324 -0.006382 -0.009703 0.000000 0.000000 0.000000
# 2 -0.006382 0.018859 -0.010182 0.000000 0.000000 0.000000
# 3 -0.009703 -0.010182 0.023800 0.000000 0.000000 0.000000
# 4 0.000000 0.000000 0.000000 0.034504 0.000000 0.000000
# 5 0.000000 0.000000 0.000000 0.000000 0.042013 0.000000
# 6 0.000000 0.000000 0.000000 0.000000 0.000000 0.044743
#
#
# Mechanical properties :
#
#
# Convention : Reuss Voigt Hill
#
# Bulk Modulus (GPa) = 60.79932 65.40947 63.10440
# Shear Modulus (GPa) = 20.14012 21.64881 20.89446
#
# Velocity S-wave (km/s) = 3.39300 3.51779 3.45596
# Velocity P-wave (km/s) = 7.07841 7.34091 7.21086
#
# Compressibility (1/GPa) = 0.01644755
#
# Stress axis : x y z
#
# Youngs Moduli (GPa) = 37.98862 53.02465 42.01725
#
# Poissons Ratio (x) = 0.33840 0.40771
# Poissons Ratio (y) = 0.24244 0.42782
# Poissons Ratio (z) = 0.36862 0.53990
#
# Static dielectric constant tensor:
#      x y z
#    x 3.336670 0.000000 0.000000 
#    y 0.000000 3.293650 0.000000 
#    z 0.000000 0.000000 3.274170 
# 
# 
# High freq. dielectric constant tensor:
#      x y z
#    x 1.661860 0.000000 0.000000 
#    y 0.000000 1.673650 0.000000 
#    z 0.000000 0.000000 1.667170 
# 
# From -- ./inp_files/15479.got.cif
#   From: 2010.03.12/outbox.cif.g09.slc.cpg/sg47_8_cif.got.tgz:15479.got - 2010.04.14 03:12:58.
