data_PCOD8201821
_publ_section_title
;
Structure prediction by ZEFSAII (Michael W. Deem and Ramdas Pophale) SiO2 
 PCOD8201821
Probable space group: P N N N
;
_chemical_formula_sum "Si O2"
_cell_formula_units_Z 64
_cell_length_a 17.118811
_cell_length_b 21.105827
_cell_length_c 8.816464
_cell_angle_alpha 90.000000
_cell_angle_beta 90.000000
_cell_angle_gamma 90.000000
_cell_volume 3185.447191
_symmetry_space_group_name_H-M "P N N N"
_symmetry_group_IT_number 48
_space_group.IT_coordinate_system_code '2'
_symmetry_cell_setting 'orthorhombic'
loop_
_space_group_symop_operation_xyz
x,y,z
1/2-x,1/2-y,z
x,1/2-y,1/2-z
1/2-x,y,1/2-z
-x,-y,-z
1/2+x,1/2+y,-z
-x,1/2+y,1/2+z
1/2+x,-y,1/2+z
loop_
_atom_site_type_symbol
_atom_site_label
_atom_site_fract_x
_atom_site_fract_y
_atom_site_fract_z
Si Si1 0.943656 0.009750 0.856319
Si Si2 0.263652 0.357451 0.073947
Si Si3 0.507901 0.391020 0.292746
Si Si4 0.291590 0.005357 0.527250
Si Si5 0.129384 0.203765 0.620144
Si Si6 0.916915 0.708784 0.615564
Si Si7 0.535758 0.913920 0.125517
Si Si8 0.857806 0.475046 0.164535
O O1 0.970101 0.069432 0.752282
O O2 0.947313 0.944975 0.761462
O O3 0.853598 0.021947 0.905608
O O4 0.000000 0.000000 0.000000
O O5 0.250000 0.351057 0.250000
O O6 0.352848 0.337916 0.042658
O O7 0.252448 0.429423 0.022753
O O8 0.203315 0.313399 0.984391
O O9 0.491123 0.329015 0.188741
O O10 0.496768 0.381760 0.472453
O O11 0.598896 0.411445 0.275850
O O12 0.333675 0.015301 0.687922
O O13 0.216477 0.958727 0.556270
O O14 0.160732 0.250000 0.750000
O O15 0.063291 0.241736 0.519868
O O16 0.092265 0.140359 0.693558
O O17 0.878596 0.750000 0.750000
O O18 0.580097 0.979325 0.080096
#
# Coordination Sequence:
#
# PCOD8201821 Si02
#       8
#     8   8   8   8   8   8   8   8
#     4  11  21  36  59  88 120 165 204 257 317 375
#     4  12  24  39  55  83 129 174 210 246 301 380
#     4  11  22  40  62  82 120 167 208 269 306 371
#     4  11  22  36  61  90 126 163 203 255 322 382
#     4  12  28  40  58  87 126 172 218 268 311 379
#     4  12  24  41  59  84 117 168 223 258 312 376
#     4  11  22  41  57  84 122 164 215 257 311 375
#     4  10  22  37  58  89 123 158 208 259 319 378
#
# _framework density 20.091370999999999
#
# number of rings (size 3 to 8) (size 9 to 14) (size 15 to 20)
#    0.000    0.750    7.500    1.875    3.500    2.000 
#    0.000    0.000    0.000    0.000    0.000    1.750 
#    0.000    1.000    0.000    0.000    0.000    0.000 
#
# Total GULP energy -793013.493333 kJ/mol
# GULP energy per Si atom -12390.835833 kJ/mol
# Density = 2.004564 g / cm^3
# Si number density = 20.091371 Si / 1000 Ang^3
#
#
#
# Elastic Constant Matrix: (Units=GPa)
#
#
# Indices 1 2 3 4 5 6 
#
# 1 126.2062 48.4289 45.3768 0.0000 0.0000 0.0000
# 2 48.4289 81.2748 38.8316 0.0000 0.0000 0.0000
# 3 45.3768 38.8316 106.7086 0.0000 0.0000 0.0000
# 4 0.0000 0.0000 0.0000 35.1986 0.0000 0.0000
# 5 0.0000 0.0000 0.0000 0.0000 29.1394 0.0000
# 6 0.0000 0.0000 0.0000 0.0000 0.0000 22.4115
#
#
#
# Elastic Compliance Matrix: (Units=1/GPa)
#
#
# Indices 1 2 3 4 5 6 
#
# 1 0.010900 -0.005181 -0.002750 0.000000 0.000000 0.000000
# 2 -0.005181 0.017356 -0.004113 0.000000 0.000000 0.000000
# 3 -0.002750 -0.004113 0.012037 0.000000 0.000000 0.000000
# 4 0.000000 0.000000 0.000000 0.028410 0.000000 0.000000
# 5 0.000000 0.000000 0.000000 0.000000 0.034318 0.000000
# 6 0.000000 0.000000 0.000000 0.000000 0.000000 0.044620
#
#
# Mechanical properties :
#
#
# Convention : Reuss Voigt Hill
#
# Bulk Modulus (GPa) = 61.70444 64.38491 63.04467
# Shear Modulus (GPa) = 28.22760 29.45342 28.84051
#
# Velocity S-wave (km/s) = 3.75235 3.83296 3.79287
# Velocity P-wave (km/s) = 7.03932 7.19058 7.11535
#
# Compressibility (1/GPa) = 0.01620629
#
# Stress axis : x y z
#
# Youngs Moduli (GPa) = 91.73921 57.61593 83.07554
#
# Poissons Ratio (x) = 0.29853 0.22844
# Poissons Ratio (y) = 0.47534 0.34166
# Poissons Ratio (z) = 0.25226 0.23695
#
# Static dielectric constant tensor:
#      x y z
#    x 3.688510 0.000000 0.000000 
#    y 0.000000 3.634010 0.000000 
#    z 0.000000 0.000000 3.892450 
# 
# 
# High freq. dielectric constant tensor:
#      x y z
#    x 1.757790 0.000000 0.000000 
#    y 0.000000 1.754740 0.000000 
#    z 0.000000 0.000000 1.801650 
# 
# From -- ./inp_files/14564.got.cif
#   From: 2010.06.25/outbox.cif.g09.slc.cpg/sg48_8_cif.got.tgz:14564.got - 2010.06.26 18:06:46.
