data_PCOD8201944
_publ_section_title
;
Structure prediction by ZEFSAII (Michael W. Deem and Ramdas Pophale) SiO2 
 PCOD8201944
Probable space group: P N N N
;
_chemical_formula_sum "Si O2"
_cell_formula_units_Z 32
_cell_length_a 15.367188
_cell_length_b 7.801331
_cell_length_c 11.200653
_cell_angle_alpha 90.000000
_cell_angle_beta 90.000000
_cell_angle_gamma 90.000000
_cell_volume 1342.784910
_symmetry_space_group_name_H-M "P N N N"
_symmetry_group_IT_number 48
_space_group.IT_coordinate_system_code '2'
_symmetry_cell_setting 'orthorhombic'
loop_
_space_group_symop_operation_xyz
x,y,z
1/2-x,1/2-y,z
x,1/2-y,1/2-z
1/2-x,y,1/2-z
-x,-y,-z
1/2+x,1/2+y,-z
-x,1/2+y,1/2+z
1/2+x,-y,1/2+z
loop_
_atom_site_type_symbol
_atom_site_label
_atom_site_fract_x
_atom_site_fract_y
_atom_site_fract_z
Si Si1 0.074250 0.637042 0.424148
Si Si2 0.431301 0.250000 0.750000
Si Si3 0.681359 0.598324 0.448668
Si Si4 0.250000 0.750000 0.030582
Si Si5 0.950063 0.761245 0.891525
O O1 0.165993 0.719694 0.384770
O O2 0.093550 0.436164 0.441804
O O3 0.996027 0.638272 0.330087
O O4 0.045477 0.739974 0.545247
O O5 0.372331 0.381209 0.674684
O O6 0.750000 0.750000 0.459978
O O7 0.731625 0.416920 0.448360
O O8 0.612708 0.609645 0.560034
O O9 0.958810 0.750000 0.750000
#
# Coordination Sequence:
#
# PCOD8201944 Si02
#       5
#     8   4   8   4   8
#     4  10  24  45  69 110 140 187 248 295 359 449
#     4  10  25  45  76  96 150 196 232 301 371 444
#     4  11  24  49  70 107 144 189 241 301 365 429
#     4  12  26  45  73 110 144 180 253 305 356 428
#     4  10  23  45  71  97 151 196 231 291 372 436
#
# _framework density 23.831067000000001
#
# number of rings (size 3 to 8) (size 9 to 14) (size 15 to 20)
#    0.000    1.500    2.500    0.375    7.000    3.000 
#    0.000    3.125    0.000    0.000    0.000    0.000 
#    0.000    0.000    0.000    0.000    0.000    0.000 
#
# Total GULP energy -396529.353971 kJ/mol
# GULP energy per Si atom -12391.542312 kJ/mol
# Density = 2.377683 g / cm^3
# Si number density = 23.831067 Si / 1000 Ang^3
#
#
#
# Elastic Constant Matrix: (Units=GPa)
#
#
# Indices 1 2 3 4 5 6 
#
# 1 134.7202 52.0586 43.5954 0.0000 0.0000 0.0000
# 2 52.0586 130.7490 22.7548 0.0000 0.0000 0.0000
# 3 43.5954 22.7548 148.8650 0.0000 0.0000 0.0000
# 4 0.0000 0.0000 0.0000 12.7695 0.0000 0.0000
# 5 0.0000 0.0000 0.0000 0.0000 17.3227 0.0000
# 6 0.0000 0.0000 0.0000 0.0000 0.0000 31.3139
#
#
#
# Elastic Compliance Matrix: (Units=1/GPa)
#
#
# Indices 1 2 3 4 5 6 
#
# 1 0.009455 -0.003372 -0.002253 0.000000 0.000000 0.000000
# 2 -0.003372 0.009060 -0.000397 0.000000 0.000000 0.000000
# 3 -0.002253 -0.000397 0.007438 0.000000 0.000000 0.000000
# 4 0.000000 0.000000 0.000000 0.078311 0.000000 0.000000
# 5 0.000000 0.000000 0.000000 0.000000 0.057728 0.000000
# 6 0.000000 0.000000 0.000000 0.000000 0.000000 0.031935
#
#
# Mechanical properties :
#
#
# Convention : Reuss Voigt Hill
#
# Bulk Modulus (GPa) = 71.90571 72.35020 72.12795
# Shear Modulus (GPa) = 23.74063 32.00959 27.87511
#
# Velocity S-wave (km/s) = 3.15970 3.66893 3.42379
# Velocity P-wave (km/s) = 6.59926 6.95511 6.77952
#
# Compressibility (1/GPa) = 0.01390710
#
# Stress axis : x y z
#
# Youngs Moduli (GPa) = 105.76178 110.37342 134.44196
#
# Poissons Ratio (x) = 0.37223 0.30296
# Poissons Ratio (y) = 0.35668 0.05341
# Poissons Ratio (z) = 0.23833 0.04385
#
# Static dielectric constant tensor:
#      x y z
#    x 4.584000 0.000000 0.000000 
#    y 0.000000 4.255070 0.000000 
#    z 0.000000 0.000000 4.096140 
# 
# 
# High freq. dielectric constant tensor:
#      x y z
#    x 1.964200 0.000000 0.000000 
#    y 0.000000 1.949010 0.000000 
#    z 0.000000 0.000000 1.919100 
# 
# From -- ./inp_files/10326.got.cif
#   From: 2010.06.25/outbox.cif.g09.slc.cpg/sg48_6_cif.got.tgz:10326.got - 2010.06.26 18:06:46.
