data_PCOD8201007
_publ_section_title
;
Structure prediction by ZEFSAII (Michael W. Deem and Ramdas Pophale) SiO2 
 PCOD8201007
Probable space group: P M M M
;
_chemical_formula_sum "Si O2"
_cell_formula_units_Z 52
_cell_length_a 9.603845
_cell_length_b 33.487885
_cell_length_c 9.665339
_cell_angle_alpha 90.000000
_cell_angle_beta 90.000000
_cell_angle_gamma 90.000000
_cell_volume 3108.493423
_symmetry_space_group_name_H-M "P M M M"
_symmetry_group_IT_number 47
_symmetry_cell_setting 'orthorhombic'
loop_
_space_group_symop_operation_xyz
x,y,z
-x,-y,z
x,-y,-z
-x,y,-z
-x,-y,-z
x,y,-z
-x,y,z
x,-y,z
loop_
_atom_site_type_symbol
_atom_site_label
_atom_site_fract_x
_atom_site_fract_y
_atom_site_fract_z
Si Si1 0.156335 0.543991 0.335665
Si Si2 0.838217 0.231995 0.160162
Si Si3 0.844262 0.072053 0.664685
Si Si4 0.657439 0.000000 0.334810
Si Si5 0.165483 0.840089 0.346251
Si Si6 0.661813 0.616705 0.660281
Si Si7 0.338799 0.308071 0.159886
O O1 0.161721 0.543891 0.500000
O O2 0.202925 0.500000 0.281535
O O3 0.258442 0.578149 0.278729
O O4 0.000000 0.553317 0.284390
O O5 0.778906 0.194083 0.243999
O O6 0.752056 0.270484 0.207975
O O7 0.000000 0.240117 0.192446
O O8 0.813210 0.222530 0.000000
O O9 0.851065 0.070325 0.500000
O O10 0.789206 0.116061 0.709215
O O11 0.000000 0.063736 0.723463
O O12 0.737554 0.039035 0.722643
O O13 0.500000 0.000000 0.277103
O O14 0.656976 0.000000 0.500000
O O15 0.226296 0.832165 0.500000
O O16 0.000000 0.839411 0.352310
O O17 0.698311 0.624795 0.500000
O O18 0.500000 0.607963 0.681361
O O19 0.710429 0.654805 0.747821
O O20 0.500000 0.297804 0.186366
O O21 0.311003 0.318693 0.000000
#
# Coordination Sequence:
#
# PCOD8201007 Si02
#       7
#     8   8   8   4   8   8   8
#     4   8  14  25  41  62  88 114 137 164 202 246
#     4   9  17  29  45  64  83 104 135 173 207 240
#     4   8  13  22  36  52  72 102 136 162 188 232
#     4   9  15  21  31  51  80 107 128 158 200 237
#     4   8  14  25  41  61  84 108 134 166 204 244
#     4   9  17  28  43  64  86 107 137 176 208 234
#     4   9  18  32  46  59  81 113 141 165 201 249
#
# _framework density 16.728361
#
# number of rings (size 3 to 8) (size 9 to 14) (size 15 to 20)
#    0.000    3.462    0.000    1.615    0.000    2.462 
#    0.000    2.308    0.000    1.385    0.000    3.769 
#    0.000    4.308    0.000    0.000    0.000    0.000 
#
# Total GULP energy -644528.862825 kJ/mol
# GULP energy per Si atom -12394.785824 kJ/mol
# Density = 1.669029 g / cm^3
# Si number density = 16.728361 Si / 1000 Ang^3
#
#
#
# Elastic Constant Matrix: (Units=GPa)
#
#
# Indices 1 2 3 4 5 6 
#
# 1 71.6021 79.5606 26.2817 0.0000 0.0000 0.0000
# 2 79.5606 190.3243 55.3018 0.0000 0.0000 0.0000
# 3 26.2817 55.3018 36.8318 0.0000 0.0000 0.0000
# 4 0.0000 0.0000 0.0000 4.0685 0.0000 0.0000
# 5 0.0000 0.0000 0.0000 0.0000 11.4910 0.0000
# 6 0.0000 0.0000 0.0000 0.0000 0.0000 17.0341
#
#
#
# Elastic Compliance Matrix: (Units=1/GPa)
#
#
# Indices 1 2 3 4 5 6 
#
# 1 0.026412 -0.009871 -0.004025 0.000000 0.000000 0.000000
# 2 -0.009871 0.013010 -0.012490 0.000000 0.000000 0.000000
# 3 -0.004025 -0.012490 0.048776 0.000000 0.000000 0.000000
# 4 0.000000 0.000000 0.000000 0.245788 0.000000 0.000000
# 5 0.000000 0.000000 0.000000 0.000000 0.087025 0.000000
# 6 0.000000 0.000000 0.000000 0.000000 0.000000 0.058706
#
#
# Mechanical properties :
#
#
# Convention : Reuss Voigt Hill
#
# Bulk Modulus (GPa) = 28.22862 69.00515 48.61689
# Shear Modulus (GPa) = 9.18614 15.69299 12.43957
#
# Velocity S-wave (km/s) = 2.34591 3.06618 2.72990
# Velocity P-wave (km/s) = 4.92433 7.33997 6.24997
#
# Compressibility (1/GPa) = 0.03542503
#
# Stress axis : x y z
#
# Youngs Moduli (GPa) = 37.86152 76.86447 20.50181
#
# Poissons Ratio (x) = 0.75876 0.08252
# Poissons Ratio (y) = 0.37375 0.25607
# Poissons Ratio (z) = 0.15239 0.96005
#
# Static dielectric constant tensor:
#      x y z
#    x 3.087710 0.000000 0.000000 
#    y 0.000000 3.528610 0.000000 
#    z 0.000000 0.000000 2.819000 
# 
# 
# High freq. dielectric constant tensor:
#      x y z
#    x 1.627010 0.000000 0.000000 
#    y 0.000000 1.658160 0.000000 
#    z 0.000000 0.000000 1.596960 
# 
# From -- ./inp_files/15459.got.cif
#   From: 2010.03.12/outbox.cif.g09.slc.cpg/sg47_8_cif.got.tgz:15459.got - 2010.04.14 03:12:58.
