data_PCOD8201548
_publ_section_title
;
Structure prediction by ZEFSAII (Michael W. Deem and Ramdas Pophale) SiO2 
 PCOD8201548
Probable space group: P N N N
;
_chemical_formula_sum "Si O2"
_cell_formula_units_Z 58
_cell_length_a 25.847517
_cell_length_b 14.423489
_cell_length_c 7.792773
_cell_angle_alpha 90.000000
_cell_angle_beta 90.000000
_cell_angle_gamma 90.000000
_cell_volume 2905.234434
_symmetry_space_group_name_H-M "P N N N"
_symmetry_group_IT_number 48
_space_group.IT_coordinate_system_code '2'
_symmetry_cell_setting 'orthorhombic'
loop_
_space_group_symop_operation_xyz
x,y,z
1/2-x,1/2-y,z
x,1/2-y,1/2-z
1/2-x,y,1/2-z
-x,-y,-z
1/2+x,1/2+y,-z
-x,1/2+y,1/2+z
1/2+x,-y,1/2+z
loop_
_atom_site_type_symbol
_atom_site_label
_atom_site_fract_x
_atom_site_fract_y
_atom_site_fract_z
Si Si1 0.142974 0.561643 0.953445
Si Si2 0.903807 0.852030 0.833521
Si Si3 0.020906 0.255921 0.555167
Si Si4 0.250000 0.750000 0.750000
Si Si5 0.405395 0.743778 0.045082
Si Si6 0.448771 0.443972 0.466708
Si Si7 0.693012 0.971911 0.711479
Si Si8 0.676645 0.109317 0.408457
O O1 0.173847 0.555930 0.774409
O O2 0.123627 0.666474 0.973633
O O3 0.094810 0.494318 0.924041
O O4 0.175291 0.526333 0.117157
O O5 0.903894 0.750000 0.750000
O O6 0.932859 0.936122 0.733337
O O7 0.844834 0.887993 0.851596
O O8 0.939201 0.839090 0.004855
O O9 0.007105 0.250000 0.750000
O O10 0.049464 0.161198 0.519556
O O11 0.964012 0.262934 0.468051
O O12 0.282956 0.808410 0.614950
O O13 0.403530 0.750000 0.250000
O O14 0.377790 0.651569 0.973426
O O15 0.500000 0.500000 0.500000
O O16 0.750000 0.929958 0.750000
O O17 0.698227 0.041666 0.553243
#
# Coordination Sequence:
#
# PCOD8201548 Si02
#       8
#     8   8   8   2   8   8   8   8
#     4  11  22  40  59  91 125 160 217 254 305 381
#     4   9  22  42  63  91 121 162 213 256 331 383
#     4  10  22  37  61  93 128 166 206 256 315 389
#     4  12  24  40  58  96 120 172 216 256 316 376
#     4  11  21  38  57  89 130 171 210 250 309 377
#     4  10  20  35  59  87 124 164 200 255 307 370
#     4  11  25  44  65  89 123 163 214 278 314 372
#     4  12  25  38  63  87 124 171 208 256 318 374
#
# _framework density 19.963965000000002
#
# number of rings (size 3 to 8) (size 9 to 14) (size 15 to 20)
#    0.000    1.379    4.138    0.828    3.862    1.379 
#    0.000    1.379    0.000    0.000    0.000    0.000 
#    0.000    0.000    0.000    0.000    0.000    0.000 
#
# Total GULP energy -718604.280610 kJ/mol
# GULP energy per Si atom -12389.728976 kJ/mol
# Density = 1.991853 g / cm^3
# Si number density = 19.963965 Si / 1000 Ang^3
#
#
#
# Elastic Constant Matrix: (Units=GPa)
#
#
# Indices 1 2 3 4 5 6 
#
# 1 122.1477 36.4758 32.1419 0.0000 0.0000 0.0000
# 2 36.4758 63.3833 18.4721 0.0000 0.0000 0.0000
# 3 32.1419 18.4721 96.3074 0.0000 0.0000 0.0000
# 4 0.0000 0.0000 0.0000 22.7824 0.0000 0.0000
# 5 0.0000 0.0000 0.0000 0.0000 26.2068 0.0000
# 6 0.0000 0.0000 0.0000 0.0000 0.0000 24.9810
#
#
#
# Elastic Compliance Matrix: (Units=1/GPa)
#
#
# Indices 1 2 3 4 5 6 
#
# 1 0.010409 -0.005273 -0.002463 0.000000 0.000000 0.000000
# 2 -0.005273 0.019382 -0.001958 0.000000 0.000000 0.000000
# 3 -0.002463 -0.001958 0.011581 0.000000 0.000000 0.000000
# 4 0.000000 0.000000 0.000000 0.043894 0.000000 0.000000
# 5 0.000000 0.000000 0.000000 0.000000 0.038158 0.000000
# 6 0.000000 0.000000 0.000000 0.000000 0.000000 0.040030
#
#
# Mechanical properties :
#
#
# Convention : Reuss Voigt Hill
#
# Bulk Modulus (GPa) = 45.48402 50.66866 48.07634
# Shear Modulus (GPa) = 26.29236 27.77726 27.03481
#
# Velocity S-wave (km/s) = 3.63297 3.73415 3.68391
# Velocity P-wave (km/s) = 6.35850 6.63529 6.49837
#
# Compressibility (1/GPa) = 0.02198574
#
# Stress axis : x y z
#
# Youngs Moduli (GPa) = 96.06712 51.59446 86.34940
#
# Poissons Ratio (x) = 0.27204 0.21266
# Poissons Ratio (y) = 0.50653 0.16905
# Poissons Ratio (z) = 0.23659 0.10101
#
# Static dielectric constant tensor:
#      x y z
#    x 3.820550 0.000000 0.000000 
#    y 0.000000 3.621100 0.000000 
#    z 0.000000 0.000000 3.458650 
# 
# 
# High freq. dielectric constant tensor:
#      x y z
#    x 1.789770 0.000000 0.000000 
#    y 0.000000 1.768990 0.000000 
#    z 0.000000 0.000000 1.777550 
# 
# From -- ./inp_files/16016.got.cif
#   From: 2010.06.25/outbox.cif.g09.slc.cpg/sg48_9_cif.got.tgz:16016.got - 2010.06.26 18:06:46.
