data_PCOD8201445
_publ_section_title
;
Structure prediction by ZEFSAII (Michael W. Deem and Ramdas Pophale) SiO2 
 PCOD8201445
Probable space group: P N N N
;
_chemical_formula_sum "Si O2"
_cell_formula_units_Z 64
_cell_length_a 18.726723
_cell_length_b 11.155161
_cell_length_c 16.805399
_cell_angle_alpha 90.000000
_cell_angle_beta 90.000000
_cell_angle_gamma 90.000000
_cell_volume 3510.641298
_symmetry_space_group_name_H-M "P N N N"
_symmetry_group_IT_number 48
_space_group.IT_coordinate_system_code '2'
_symmetry_cell_setting 'orthorhombic'
loop_
_space_group_symop_operation_xyz
x,y,z
1/2-x,1/2-y,z
x,1/2-y,1/2-z
1/2-x,y,1/2-z
-x,-y,-z
1/2+x,1/2+y,-z
-x,1/2+y,1/2+z
1/2+x,-y,1/2+z
loop_
_atom_site_type_symbol
_atom_site_label
_atom_site_fract_x
_atom_site_fract_y
_atom_site_fract_z
Si Si1 0.104733 0.460402 0.050635
Si Si2 0.450707 0.215738 0.165577
Si Si3 0.024646 0.880032 0.957390
Si Si4 0.494347 0.663191 0.432524
Si Si5 0.305581 0.489228 0.591548
Si Si6 0.604285 0.373416 0.289804
Si Si7 0.378783 0.235908 0.841015
Si Si8 0.855081 0.000802 0.134838
O O1 0.109921 0.362973 0.121288
O O2 0.074253 0.583040 0.088551
O O3 0.179286 0.485436 0.004254
O O4 0.048936 0.408642 0.987560
O O5 0.415767 0.250000 0.250000
O O6 0.471231 0.332138 0.112165
O O7 0.521316 0.136553 0.185667
O O8 0.100570 0.905898 0.917678
O O9 0.035195 0.780774 0.024469
O O10 0.000000 0.000000 0.000000
O O11 0.539116 0.693667 0.352961
O O12 0.355746 0.592583 0.629007
O O13 0.321237 0.356728 0.624593
O O14 0.226444 0.528590 0.614170
O O15 0.632018 0.250000 0.250000
O O16 0.622664 0.479317 0.227249
O O17 0.359983 0.250000 0.750000
O O18 0.370781 0.362579 0.886946
#
# Coordination Sequence:
#
# PCOD8201445 Si02
#       8
#     8   8   8   8   8   8   8   8
#     4   9  19  34  54  75 101 144 188 227 271 330
#     4  10  19  36  58  81 110 140 190 245 292 327
#     4  11  20  35  53  78 109 142 185 240 286 327
#     4   9  18  33  53  73 103 136 184 231 269 316
#     4  11  23  36  50  75 114 156 185 214 268 345
#     4  11  21  35  51  78 114 149 186 226 273 334
#     4  11  21  34  52  75 108 145 180 219 269 332
#     4  12  23  34  51  77 113 151 183 222 276 340
#
# _framework density 18.230288000000002
#
# number of rings (size 3 to 8) (size 9 to 14) (size 15 to 20)
#    0.000    1.500    5.000    3.750    0.000    1.500 
#    0.000    0.000    0.000    0.000    0.000    1.750 
#    0.000    1.000    0.000    0.000    0.000    0.000 
#
# Total GULP energy -793302.489900 kJ/mol
# GULP energy per Si atom -12395.351405 kJ/mol
# Density = 1.818879 g / cm^3
# Si number density = 18.230288 Si / 1000 Ang^3
#
#
#
# Elastic Constant Matrix: (Units=GPa)
#
#
# Indices 1 2 3 4 5 6 
#
# 1 46.7597 5.4366 29.4331 0.0000 0.0000 0.0000
# 2 5.4366 77.0711 16.8297 0.0000 0.0000 0.0000
# 3 29.4331 16.8297 85.1034 0.0000 0.0000 0.0000
# 4 0.0000 0.0000 0.0000 34.2525 0.0000 0.0000
# 5 0.0000 0.0000 0.0000 0.0000 20.5980 0.0000
# 6 0.0000 0.0000 0.0000 0.0000 0.0000 19.5683
#
#
#
# Elastic Compliance Matrix: (Units=1/GPa)
#
#
# Indices 1 2 3 4 5 6 
#
# 1 0.027339 0.000142 -0.009483 0.000000 0.000000 0.000000
# 2 0.000142 0.013561 -0.002731 0.000000 0.000000 0.000000
# 3 -0.009483 -0.002731 0.015570 0.000000 0.000000 0.000000
# 4 0.000000 0.000000 0.000000 0.029195 0.000000 0.000000
# 5 0.000000 0.000000 0.000000 0.000000 0.048548 0.000000
# 6 0.000000 0.000000 0.000000 0.000000 0.000000 0.051103
#
#
# Mechanical properties :
#
#
# Convention : Reuss Voigt Hill
#
# Bulk Modulus (GPa) = 30.93453 34.70368 32.81911
# Shear Modulus (GPa) = 22.70291 25.36607 24.03449
#
# Velocity S-wave (km/s) = 3.53277 3.73423 3.63489
# Velocity P-wave (km/s) = 5.80053 6.13761 5.97145
#
# Compressibility (1/GPa) = 0.03232634
#
# Stress axis : x y z
#
# Youngs Moduli (GPa) = 36.57825 73.73890 64.22488
#
# Poissons Ratio (x) = -0.01050 0.60906
# Poissons Ratio (y) = -0.00521 0.17540
# Poissons Ratio (z) = 0.34688 0.20139
#
# Static dielectric constant tensor:
#      x y z
#    x 3.057210 0.000000 0.000000 
#    y 0.000000 3.711950 0.000000 
#    z 0.000000 0.000000 3.629400 
# 
# 
# High freq. dielectric constant tensor:
#      x y z
#    x 1.657490 0.000000 0.000000 
#    y 0.000000 1.725610 0.000000 
#    z 0.000000 0.000000 1.696120 
# 
# From -- ./inp_files/31701.got.cif
#   From: 2010.06.25/outbox.cif.g09.slc.cpg/sg48_16_cif.got.tgz:31701.got - 2010.06.26 18:06:46.
