data_PCOD8201170
_publ_section_title
;
Structure prediction by ZEFSAII (Michael W. Deem and Ramdas Pophale) SiO2 
 PCOD8201170
Probable space group: P M M M
;
_chemical_formula_sum "Si O2"
_cell_formula_units_Z 40
_cell_length_a 12.560586
_cell_length_b 26.646998
_cell_length_c 7.828793
_cell_angle_alpha 90.000000
_cell_angle_beta 90.000000
_cell_angle_gamma 90.000000
_cell_volume 2620.311970
_symmetry_space_group_name_H-M "P M M M"
_symmetry_group_IT_number 47
_symmetry_cell_setting 'orthorhombic'
loop_
_space_group_symop_operation_xyz
x,y,z
-x,-y,z
x,-y,-z
-x,y,-z
-x,-y,-z
x,y,-z
-x,y,z
x,-y,z
loop_
_atom_site_type_symbol
_atom_site_label
_atom_site_fract_x
_atom_site_fract_y
_atom_site_fract_z
Si Si1 0.373512 0.606441 0.311821
Si Si2 0.773769 0.944736 0.696369
Si Si3 0.000000 0.940604 0.808255
Si Si4 0.374425 0.215305 0.000000
Si Si5 0.626677 0.500000 0.192831
Si Si6 0.372654 0.672525 0.000000
Si Si7 0.624628 0.143176 0.301778
O O1 0.337764 0.625143 0.500000
O O2 0.500000 0.605234 0.297030
O O3 0.329147 0.550031 0.284232
O O4 0.328433 0.644181 0.168354
O O5 0.750362 0.952440 0.500000
O O6 0.686183 0.906124 0.766801
O O7 0.891880 0.921048 0.720075
O O8 0.763774 0.000000 0.786684
O O9 0.000000 0.000000 0.794168
O O10 0.000000 0.920658 0.000000
O O11 0.338554 0.187727 0.175121
O O12 0.500000 0.219525 0.000000
O O13 0.325338 0.271190 0.000000
O O14 0.500000 0.500000 0.198076
O O15 0.668460 0.500000 0.000000
O O16 0.500000 0.672902 0.000000
O O17 0.653067 0.156673 0.500000
O O18 0.500000 0.131912 0.282930
#
# Coordination Sequence:
#
# PCOD8201170 Si02
#       7
#     8   8   4   4   4   4   8
#     4   9  15  21  30  44  61  82 108 140 182 230
#     4   9  17  29  45  63  84 108 130 156 193 240
#     4   9  17  27  41  63  87 107 127 153 187 233
#     4   9  18  30  42  53  70  96 126 164 205 237
#     4   9  13  19  29  40  61  85 104 133 177 230
#     4   9  16  25  34  46  61  81 114 153 189 228
#     4   9  18  31  45  61  80 104 134 165 200 241
#
# _framework density 15.265357
#
# number of rings (size 3 to 8) (size 9 to 14) (size 15 to 20)
#    0.000    3.000    1.000    0.600    1.400    3.600 
#    0.000    6.000    0.000    1.800    0.000    0.000 
#    0.000    0.000    0.000    0.000    0.000    0.000 
#
# Total GULP energy -495613.710586 kJ/mol
# GULP energy per Si atom -12390.342765 kJ/mol
# Density = 1.523061 g / cm^3
# Si number density = 15.265357 Si / 1000 Ang^3
#
#
#
# Elastic Constant Matrix: (Units=GPa)
#
#
# Indices 1 2 3 4 5 6 
#
# 1 31.5812 31.5941 16.7277 0.0000 0.0000 0.0000
# 2 31.5941 121.6569 60.2141 0.0000 0.0000 0.0000
# 3 16.7277 60.2141 101.5615 0.0000 0.0000 0.0000
# 4 0.0000 0.0000 0.0000 18.4330 0.0000 0.0000
# 5 0.0000 0.0000 0.0000 0.0000 8.6843 0.0000
# 6 0.0000 0.0000 0.0000 0.0000 0.0000 -10.5487
#
#
#
# Elastic Compliance Matrix: (Units=1/GPa)
#
#
# Indices 1 2 3 4 5 6 
#
# 1 0.042809 -0.010795 -0.000650 0.000000 0.000000 0.000000
# 2 -0.010795 0.014356 -0.006733 0.000000 0.000000 0.000000
# 3 -0.000650 -0.006733 0.013946 0.000000 0.000000 0.000000
# 4 0.000000 0.000000 0.000000 0.054251 0.000000 0.000000
# 5 0.000000 0.000000 0.000000 0.000000 0.115150 0.000000
# 6 0.000000 0.000000 0.000000 0.000000 0.000000 -0.094799
#
#
# Mechanical properties :
#
#
# Convention : Reuss Voigt Hill
#
# Bulk Modulus (GPa) = 28.77542 52.43016 40.60279
# Shear Modulus (GPa) = 25.81914 13.06464 19.44189
#
# Velocity S-wave (km/s) = 4.11707 2.92864 3.57262
# Velocity P-wave (km/s) = 6.44138 6.77173 6.60862
#
# Compressibility (1/GPa) = 0.03475188
#
# Stress axis : x y z
#
# Youngs Moduli (GPa) = 23.35969 69.65670 71.70760
#
# Poissons Ratio (x) = 0.75198 0.04664
# Poissons Ratio (y) = 0.25218 0.48284
# Poissons Ratio (z) = 0.01519 0.46903
#
# Static dielectric constant tensor:
#      x y z
#    x 2.481640 0.000000 0.000000 
#    y 0.000000 3.171110 0.000000 
#    z 0.000000 0.000000 3.099430 
# 
# 
# High freq. dielectric constant tensor:
#      x y z
#    x 1.510310 0.000000 0.000000 
#    y 0.000000 1.573400 0.000000 
#    z 0.000000 0.000000 1.599980 
# 
# From -- ./inp_files/4421.got.cif
#   From: 2010.03.12/outbox.cif.g09.slc.cpg/sg47_3_cif.got.tgz:4421.got - 2010.04.14 03:12:58.
