data_PCOD8201347
_publ_section_title
;
Structure prediction by ZEFSAII (Michael W. Deem and Ramdas Pophale) SiO2 
 PCOD8201347
Probable space group: P N N N
;
_chemical_formula_sum "Si O2"
_cell_formula_units_Z 56
_cell_length_a 9.388921
_cell_length_b 13.767628
_cell_length_c 20.013851
_cell_angle_alpha 90.000000
_cell_angle_beta 90.000000
_cell_angle_gamma 90.000000
_cell_volume 2587.053857
_symmetry_space_group_name_H-M "P N N N"
_symmetry_group_IT_number 48
_space_group.IT_coordinate_system_code '2'
_symmetry_cell_setting 'orthorhombic'
loop_
_space_group_symop_operation_xyz
x,y,z
1/2-x,1/2-y,z
x,1/2-y,1/2-z
1/2-x,y,1/2-z
-x,-y,-z
1/2+x,1/2+y,-z
-x,1/2+y,1/2+z
1/2+x,-y,1/2+z
loop_
_atom_site_type_symbol
_atom_site_label
_atom_site_fract_x
_atom_site_fract_y
_atom_site_fract_z
Si Si1 0.961372 0.332229 0.388451
Si Si2 0.980152 0.622990 0.893796
Si Si3 0.752555 0.020848 0.423364
Si Si4 0.366534 0.093878 0.698187
Si Si5 0.414260 0.615316 0.751507
Si Si6 0.197375 0.022401 0.074346
Si Si7 0.322117 0.852027 0.319486
O O1 0.988584 0.230121 0.425628
O O2 0.800967 0.373304 0.397192
O O3 0.989900 0.320299 0.308940
O O4 0.050385 0.422183 0.416921
O O5 0.076817 0.536206 0.923865
O O6 0.001417 0.633135 0.815445
O O7 0.818707 0.599481 0.909419
O O8 0.707785 0.933047 0.373204
O O9 0.698768 0.005187 0.497358
O O10 0.250000 0.140544 0.750000
O O11 0.505448 0.162721 0.687949
O O12 0.429188 0.997885 0.731789
O O13 0.250000 0.646702 0.750000
O O14 0.209453 0.928774 0.121899
O O15 0.250000 0.750000 0.340423
O O16 0.250000 0.887591 0.250000
#
# Coordination Sequence:
#
# PCOD8201347 Si02
#       7
#     8   8   8   8   8   8   8
#     4  11  23  39  67  98 133 173 205 264 330 406
#     4  12  23  39  66 100 136 167 214 261 333 407
#     4  11  23  42  66  96 129 179 223 262 321 401
#     4  10  19  42  74  95 128 176 215 276 339 385
#     4  10  18  36  64 101 129 161 204 257 321 401
#     4  12  26  43  63  95 141 172 216 275 332 389
#     4  11  25  45  70  96 128 174 236 283 325 382
#
# _framework density 21.646243999999999
#
# number of rings (size 3 to 8) (size 9 to 14) (size 15 to 20)
#    0.000    1.000    7.143    3.000    0.000    1.714 
#    0.000    2.857    0.000    0.000    0.000    0.000 
#    0.000    0.000    0.000    0.000    0.000    0.000 
#
# Total GULP energy -694108.659204 kJ/mol
# GULP energy per Si atom -12394.797486 kJ/mol
# Density = 2.159698 g / cm^3
# Si number density = 21.646244 Si / 1000 Ang^3
#
#
#
# Elastic Constant Matrix: (Units=GPa)
#
#
# Indices 1 2 3 4 5 6 
#
# 1 73.7562 27.2970 23.9377 0.0000 0.0000 0.0000
# 2 27.2970 80.6541 24.9237 0.0000 0.0000 0.0000
# 3 23.9377 24.9237 142.5344 0.0000 0.0000 0.0000
# 4 0.0000 0.0000 0.0000 -29.6231 0.0000 0.0000
# 5 0.0000 0.0000 0.0000 0.0000 26.0130 0.0000
# 6 0.0000 0.0000 0.0000 0.0000 0.0000 523.3693
#
#
#
# Elastic Compliance Matrix: (Units=1/GPa)
#
#
# Indices 1 2 3 4 5 6 
#
# 1 0.015940 -0.004828 -0.001833 0.000000 0.000000 0.000000
# 2 -0.004828 0.014569 -0.001737 0.000000 0.000000 0.000000
# 3 -0.001833 -0.001737 0.007627 0.000000 0.000000 0.000000
# 4 0.000000 0.000000 0.000000 -0.033757 0.000000 0.000000
# 5 0.000000 0.000000 0.000000 0.000000 0.038442 0.000000
# 6 0.000000 0.000000 0.000000 0.000000 0.000000 0.001911
#
#
# Mechanical properties :
#
#
# Convention : Reuss Voigt Hill
#
# Bulk Modulus (GPa) = 46.85815 49.91794 48.38805
# Shear Modulus (GPa) = 72.84193 118.67094 95.75644
#
# Velocity S-wave (km/s) = 5.80725 7.41228 6.65830
# Velocity P-wave (km/s) = 8.16454 9.81665 9.02847
#
# Compressibility (1/GPa) = 0.02134100
#
# Stress axis : x y z
#
# Youngs Moduli (GPa) = 62.73533 68.63664 131.10762
#
# Poissons Ratio (x) = 0.33141 0.24028
# Poissons Ratio (y) = 0.30292 0.22770
# Poissons Ratio (z) = 0.11498 0.11920
#
# Static dielectric constant tensor:
#      x y z
#    x 4.067160 0.000000 0.000000 
#    y 0.000000 3.709520 0.000000 
#    z 0.000000 0.000000 3.973140 
# 
# 
# High freq. dielectric constant tensor:
#      x y z
#    x 1.855470 0.000000 0.000000 
#    y 0.000000 1.835830 0.000000 
#    z 0.000000 0.000000 1.847240 
# 
# From -- ./inp_files/33595.got.cif
#   From: 2010.06.25/outbox.cif.g09.slc.cpg/sg48_17_cif.got.tgz:33595.got - 2010.06.26 18:06:46.
