data_PCOD8201578
_publ_section_title
;
Structure prediction by ZEFSAII (Michael W. Deem and Ramdas Pophale) SiO2 
 PCOD8201578
Probable space group: P N N N
;
_chemical_formula_sum "Si O2"
_cell_formula_units_Z 40
_cell_length_a 8.838144
_cell_length_b 20.269060
_cell_length_c 9.870789
_cell_angle_alpha 90.000000
_cell_angle_beta 90.000000
_cell_angle_gamma 90.000000
_cell_volume 1768.261739
_symmetry_space_group_name_H-M "P N N N"
_symmetry_group_IT_number 48
_space_group.IT_coordinate_system_code '2'
_symmetry_cell_setting 'orthorhombic'
loop_
_space_group_symop_operation_xyz
x,y,z
1/2-x,1/2-y,z
x,1/2-y,1/2-z
1/2-x,y,1/2-z
-x,-y,-z
1/2+x,1/2+y,-z
-x,1/2+y,1/2+z
1/2+x,-y,1/2+z
loop_
_atom_site_type_symbol
_atom_site_label
_atom_site_fract_x
_atom_site_fract_y
_atom_site_fract_z
Si Si1 0.104616 0.936306 0.154055
Si Si2 0.464536 0.305322 0.853094
Si Si3 0.038454 0.811988 0.673597
Si Si4 0.607315 0.442608 0.163926
Si Si5 0.250000 0.750000 0.476549
Si Si6 0.750000 0.750000 0.563013
O O1 0.250000 0.929858 0.250000
O O2 0.976577 0.881163 0.196662
O O3 0.147692 0.930644 0.994125
O O4 0.029502 0.006736 0.181258
O O5 0.401763 0.250000 0.750000
O O6 0.638252 0.291754 0.885608
O O7 0.353484 0.301361 0.980626
O O8 0.109221 0.750000 0.750000
O O9 0.052606 0.875173 0.766916
O O10 0.149881 0.809514 0.544730
O O11 0.860253 0.798337 0.647118
O O12 0.750000 0.469104 0.250000
#
# Coordination Sequence:
#
# PCOD8201578 Si02
#       6
#     8   8   8   8   4   4
#     4  11  26  45  66  97 135 173 217 270 331 397
#     4  11  22  40  63  92 131 174 214 261 328 397
#     4  11  21  37  63  93 123 158 209 272 324 371
#     4  11  25  45  69  96 130 174 222 272 327 390
#     4  10  20  36  66  96 121 158 219 278 321 376
#     4  10  24  38  62  98 130 166 220 276 318 374
#
# _framework density 22.621086999999999
#
# number of rings (size 3 to 8) (size 9 to 14) (size 15 to 20)
#    0.000    1.200    0.000    7.200    0.000    8.800 
#    0.000    0.000    0.000    0.000    0.000    0.000 
#    0.000    0.000    0.000    0.000    0.000    0.000 
#
# Total GULP energy -495575.225961 kJ/mol
# GULP energy per Si atom -12389.380649 kJ/mol
# Density = 2.256960 g / cm^3
# Si number density = 22.621087 Si / 1000 Ang^3
#
#
#
# Elastic Constant Matrix: (Units=GPa)
#
#
# Indices 1 2 3 4 5 6 
#
# 1 112.8849 16.6448 28.4756 0.0000 0.0000 0.0000
# 2 16.6448 137.2003 37.2294 0.0000 0.0000 0.0000
# 3 28.4756 37.2294 91.8461 0.0000 0.0000 0.0000
# 4 0.0000 0.0000 0.0000 34.1452 0.0000 0.0000
# 5 0.0000 0.0000 0.0000 0.0000 33.0760 0.0000
# 6 0.0000 0.0000 0.0000 0.0000 0.0000 12.7932
#
#
#
# Elastic Compliance Matrix: (Units=1/GPa)
#
#
# Indices 1 2 3 4 5 6 
#
# 1 0.009630 -0.000402 -0.002823 0.000000 0.000000 0.000000
# 2 -0.000402 0.008206 -0.003202 0.000000 0.000000 0.000000
# 3 -0.002823 -0.003202 0.013061 0.000000 0.000000 0.000000
# 4 0.000000 0.000000 0.000000 0.029287 0.000000 0.000000
# 5 0.000000 0.000000 0.000000 0.000000 0.030233 0.000000
# 6 0.000000 0.000000 0.000000 0.000000 0.000000 0.078167
#
#
# Mechanical properties :
#
#
# Convention : Reuss Voigt Hill
#
# Bulk Modulus (GPa) = 55.42093 56.29233 55.85663
# Shear Modulus (GPa) = 26.67363 33.30832 29.99098
#
# Velocity S-wave (km/s) = 3.43760 3.84141 3.64510
# Velocity P-wave (km/s) = 6.34894 6.67938 6.51625
#
# Compressibility (1/GPa) = 0.01804373
#
# Stress axis : x y z
#
# Youngs Moduli (GPa) = 103.84323 121.85938 76.56617
#
# Poissons Ratio (x) = 0.04903 0.21611
# Poissons Ratio (y) = 0.04179 0.24513
# Poissons Ratio (z) = 0.29310 0.39014
#
# Static dielectric constant tensor:
#      x y z
#    x 4.210670 0.000000 0.000000 
#    y 0.000000 4.239720 0.000000 
#    z 0.000000 0.000000 21.010070 
# 
# 
# High freq. dielectric constant tensor:
#      x y z
#    x 1.908070 0.000000 0.000000 
#    y 0.000000 1.886610 0.000000 
#    z 0.000000 0.000000 1.895780 
# 
# From -- ./inp_files/18686.got.cif
#   From: 2010.06.25/outbox.cif.g09.slc.cpg/sg48_10_cif.got.tgz:18686.got - 2010.06.26 18:06:46.
