data_PCOD8201852
_publ_section_title
;
Structure prediction by ZEFSAII (Michael W. Deem and Ramdas Pophale) SiO2 
 PCOD8201852
Probable space group: P N N N
;
_chemical_formula_sum "Si O2"
_cell_formula_units_Z 38
_cell_length_a 17.217515
_cell_length_b 6.289052
_cell_length_c 16.894377
_cell_angle_alpha 90.000000
_cell_angle_beta 90.000000
_cell_angle_gamma 90.000000
_cell_volume 1829.354348
_symmetry_space_group_name_H-M "P N N N"
_symmetry_group_IT_number 48
_space_group.IT_coordinate_system_code '2'
_symmetry_cell_setting 'orthorhombic'
loop_
_space_group_symop_operation_xyz
x,y,z
1/2-x,1/2-y,z
x,1/2-y,1/2-z
1/2-x,y,1/2-z
-x,-y,-z
1/2+x,1/2+y,-z
-x,1/2+y,1/2+z
1/2+x,-y,1/2+z
loop_
_atom_site_type_symbol
_atom_site_label
_atom_site_fract_x
_atom_site_fract_y
_atom_site_fract_z
Si Si1 0.406004 0.918054 0.547542
Si Si2 0.992229 0.688860 0.062631
Si Si3 0.250000 0.750000 0.997319
Si Si4 0.978544 0.672066 0.839378
Si Si5 0.309406 0.064512 0.126924
Si Si6 0.750000 0.250000 0.750000
O O1 0.436026 0.848238 0.459173
O O2 0.316972 0.848588 0.558728
O O3 0.460932 0.820855 0.615154
O O4 0.412761 0.174903 0.555189
O O5 0.996382 0.578107 0.149405
O O6 0.000000 0.500000 0.000000
O O7 0.212394 0.558042 0.046751
O O8 0.976941 0.750000 0.750000
O O9 0.892809 0.679679 0.878158
O O10 0.250000 0.250000 0.145124
O O11 0.307590 0.894436 0.197986
#
# Coordination Sequence:
#
# PCOD8201852 Si02
#       6
#     8   8   4   8   8   2
#     4  10  22  40  64  91 127 170 225 272 322 399
#     4   9  20  38  61  90 123 164 214 267 317 382
#     4  11  24  39  65  96 123 176 222 280 333 394
#     4  11  23  39  61  92 127 174 217 271 341 397
#     4  11  24  37  60  90 132 171 212 270 337 406
#     4  10  22  40  48  86 126 172 214 248 330 418
#
# _framework density 20.772355999999998
#
# number of rings (size 3 to 8) (size 9 to 14) (size 15 to 20)
#    0.000    1.684    2.105    1.579    8.842    2.526 
#    0.000    0.526    0.000    0.000    0.000    8.842 
#    0.000    0.000    0.000    0.000    0.000    0.000 
#
# Total GULP energy -470812.108478 kJ/mol
# GULP energy per Si atom -12389.792328 kJ/mol
# Density = 2.072508 g / cm^3
# Si number density = 20.772356 Si / 1000 Ang^3
#
#
#
# Elastic Constant Matrix: (Units=GPa)
#
#
# Indices 1 2 3 4 5 6 
#
# 1 170.9123 71.3672 56.1677 0.0000 0.0000 0.0000
# 2 71.3672 148.6633 51.8633 0.0000 0.0000 0.0000
# 3 56.1677 51.8633 81.3165 0.0000 0.0000 0.0000
# 4 0.0000 0.0000 0.0000 40.5911 0.0000 0.0000
# 5 0.0000 0.0000 0.0000 0.0000 23.9849 0.0000
# 6 0.0000 0.0000 0.0000 0.0000 0.0000 33.7741
#
#
#
# Elastic Compliance Matrix: (Units=1/GPa)
#
#
# Indices 1 2 3 4 5 6 
#
# 1 0.008252 -0.002538 -0.004081 0.000000 0.000000 0.000000
# 2 -0.002538 0.009432 -0.004263 0.000000 0.000000 0.000000
# 3 -0.004081 -0.004263 0.017836 0.000000 0.000000 0.000000
# 4 0.000000 0.000000 0.000000 0.024636 0.000000 0.000000
# 5 0.000000 0.000000 0.000000 0.000000 0.041693 0.000000
# 6 0.000000 0.000000 0.000000 0.000000 0.000000 0.029609
#
#
# Mechanical properties :
#
#
# Convention : Reuss Voigt Hill
#
# Bulk Modulus (GPa) = 72.69667 84.40985 78.55326
# Shear Modulus (GPa) = 31.68456 34.43627 33.06042
#
# Velocity S-wave (km/s) = 3.90978 4.07602 3.99376
# Velocity P-wave (km/s) = 7.44679 7.92942 7.69189
#
# Compressibility (1/GPa) = 0.01375579
#
# Stress axis : x y z
#
# Youngs Moduli (GPa) = 121.18561 106.02261 56.06768
#
# Poissons Ratio (x) = 0.26903 0.22883
# Poissons Ratio (y) = 0.30751 0.23901
# Poissons Ratio (z) = 0.49460 0.45197
#
# Static dielectric constant tensor:
#      x y z
#    x 3.710910 0.000000 0.000000 
#    y 0.000000 4.503910 0.000000 
#    z 0.000000 0.000000 3.718920 
# 
# 
# High freq. dielectric constant tensor:
#      x y z
#    x 1.799650 0.000000 0.000000 
#    y 0.000000 1.839730 0.000000 
#    z 0.000000 0.000000 1.773620 
# 
# From -- ./inp_files/31843.got.cif
#   From: 2010.06.25/outbox.cif.g09.slc.cpg/sg48_16_cif.got.tgz:31843.got - 2010.06.26 18:06:46.
