data_PCOD8201796
_publ_section_title
;
Structure prediction by ZEFSAII (Michael W. Deem and Ramdas Pophale) SiO2 
 PCOD8201796
Probable space group: P N N N
;
_chemical_formula_sum "Si O2"
_cell_formula_units_Z 64
_cell_length_a 12.154844
_cell_length_b 8.120954
_cell_length_c 29.413785
_cell_angle_alpha 90.000000
_cell_angle_beta 90.000000
_cell_angle_gamma 90.000000
_cell_volume 2903.403215
_symmetry_space_group_name_H-M "P N N N"
_symmetry_group_IT_number 48
_space_group.IT_coordinate_system_code '2'
_symmetry_cell_setting 'orthorhombic'
loop_
_space_group_symop_operation_xyz
x,y,z
1/2-x,1/2-y,z
x,1/2-y,1/2-z
1/2-x,y,1/2-z
-x,-y,-z
1/2+x,1/2+y,-z
-x,1/2+y,1/2+z
1/2+x,-y,1/2+z
loop_
_atom_site_type_symbol
_atom_site_label
_atom_site_fract_x
_atom_site_fract_y
_atom_site_fract_z
Si Si1 0.043764 0.127330 0.426765
Si Si2 0.426516 0.449839 0.865290
Si Si3 0.344111 0.403744 0.120867
Si Si4 0.241057 0.446284 0.799925
Si Si5 0.520572 0.577078 0.343985
Si Si6 0.153617 0.635373 0.554126
Si Si7 0.245747 0.056522 0.470737
Si Si8 0.213358 0.933687 0.301914
O O1 0.144120 0.213647 0.396723
O O2 0.113069 0.024851 0.464891
O O3 0.959717 0.257597 0.449979
O O4 0.982947 0.006534 0.393060
O O5 0.534721 0.556970 0.861627
O O6 0.341308 0.520877 0.828496
O O7 0.458516 0.264632 0.855990
O O8 0.368967 0.477627 0.914156
O O9 0.306937 0.502503 0.075811
O O10 0.266859 0.432344 0.164501
O O11 0.250000 0.250000 0.800313
O O12 0.250000 0.520591 0.750000
O O13 0.123938 0.503732 0.819043
O O14 0.417763 0.555916 0.309722
O O15 0.250000 0.750000 0.574676
O O16 0.197895 0.562720 0.506958
O O17 0.250000 0.250000 0.484303
O O18 0.250000 0.750000 0.315881
O O19 0.250000 0.972500 0.250000
#
# Coordination Sequence:
#
# PCOD8201796 Si02
#       8
#     8   8   8   8   8   8   8   8
#     4  10  23  42  67  93 134 178 219 281 346 418
#     4  10  22  39  64  89 127 175 218 275 332 399
#     4  10  21  42  64  91 134 172 211 274 345 392
#     4   9  20  35  59  89 122 164 215 269 323 383
#     4  11  21  39  66  96 132 179 224 271 343 411
#     4  11  25  43  65  96 132 171 226 287 338 409
#     4  10  23  42  67  94 130 174 226 279 345 418
#     4  11  23  36  66 106 135 170 231 285 327 404
#
# _framework density 22.043095999999998
#
# number of rings (size 3 to 8) (size 9 to 14) (size 15 to 20)
#    0.000    1.750    2.500    0.750    1.750   10.000 
#    0.000    1.250    0.000    4.875    0.000    0.000 
#    0.000    0.000    0.000    0.000    0.000    0.000 
#
# Total GULP energy -793036.411206 kJ/mol
# GULP energy per Si atom -12391.193925 kJ/mol
# Density = 2.199292 g / cm^3
# Si number density = 22.043096 Si / 1000 Ang^3
#
#
#
# Elastic Constant Matrix: (Units=GPa)
#
#
# Indices 1 2 3 4 5 6 
#
# 1 171.5275 36.7051 88.3975 0.0000 0.0000 0.0000
# 2 36.7051 36.4708 36.4875 0.0000 0.0000 0.0000
# 3 88.3975 36.4875 150.2657 0.0000 0.0000 0.0000
# 4 0.0000 0.0000 0.0000 24.1956 0.0000 0.0000
# 5 0.0000 0.0000 0.0000 0.0000 43.1390 0.0000
# 6 0.0000 0.0000 0.0000 0.0000 0.0000 29.8358
#
#
#
# Elastic Compliance Matrix: (Units=1/GPa)
#
#
# Indices 1 2 3 4 5 6 
#
# 1 0.009000 -0.004968 -0.004088 0.000000 0.000000 0.000000
# 2 -0.004968 0.038960 -0.006538 0.000000 0.000000 0.000000
# 3 -0.004088 -0.006538 0.010647 0.000000 0.000000 0.000000
# 4 0.000000 0.000000 0.000000 0.041330 0.000000 0.000000
# 5 0.000000 0.000000 0.000000 0.000000 0.023181 0.000000
# 6 0.000000 0.000000 0.000000 0.000000 0.000000 0.033517
#
#
# Mechanical properties :
#
#
# Convention : Reuss Voigt Hill
#
# Bulk Modulus (GPa) = 36.47029 75.71603 56.09316
# Shear Modulus (GPa) = 25.38569 32.54568 28.96569
#
# Velocity S-wave (km/s) = 3.39726 3.84664 3.62891
# Velocity P-wave (km/s) = 5.65415 7.35884 6.56209
#
# Compressibility (1/GPa) = 0.02741958
#
# Stress axis : x y z
#
# Youngs Moduli (GPa) = 111.11323 25.66759 93.92030
#
# Poissons Ratio (x) = 0.12751 0.38396
# Poissons Ratio (y) = 0.55197 0.61403
# Poissons Ratio (z) = 0.45424 0.16781
#
# Static dielectric constant tensor:
#      x y z
#    x 4.521480 0.000000 0.000000 
#    y 0.000000 3.840240 0.000000 
#    z 0.000000 0.000000 4.064680 
# 
# 
# High freq. dielectric constant tensor:
#      x y z
#    x 1.897290 0.000000 0.000000 
#    y 0.000000 1.845230 0.000000 
#    z 0.000000 0.000000 1.861410 
# 
# From -- ./inp_files/38977.got.cif
#   From: 2010.06.25/outbox.cif.g09.slc.cpg/sg48_20_cif.got.tgz:38977.got - 2010.06.26 18:06:46.
