data_PCOD8201014
_publ_section_title
;
Structure prediction by ZEFSAII (Michael W. Deem and Ramdas Pophale) SiO2 
 PCOD8201014
Probable space group: P M M M
;
_chemical_formula_sum "Si O2"
_cell_formula_units_Z 44
_cell_length_a 7.967480
_cell_length_b 29.891023
_cell_length_c 10.146409
_cell_angle_alpha 90.000000
_cell_angle_beta 90.000000
_cell_angle_gamma 90.000000
_cell_volume 2416.429480
_symmetry_space_group_name_H-M "P M M M"
_symmetry_group_IT_number 47
_symmetry_cell_setting 'orthorhombic'
loop_
_space_group_symop_operation_xyz
x,y,z
-x,-y,z
x,-y,-z
-x,y,-z
-x,-y,-z
x,y,-z
-x,y,z
x,-y,z
loop_
_atom_site_type_symbol
_atom_site_label
_atom_site_fract_x
_atom_site_fract_y
_atom_site_fract_z
Si Si1 0.198019 0.450360 0.353540
Si Si2 0.000000 0.050700 0.657261
Si Si3 0.696639 0.622296 0.144377
Si Si4 0.698257 0.792251 0.646285
Si Si5 0.687222 0.892471 0.343401
Si Si6 0.300308 0.721339 0.851957
O O1 0.264870 0.438107 0.500000
O O2 0.263525 0.500000 0.314140
O O3 0.260774 0.414499 0.250790
O O4 0.000000 0.450417 0.354251
O O5 0.169408 0.074332 0.712366
O O6 0.000000 0.052796 0.500000
O O7 0.000000 0.000000 0.708981
O O8 0.500000 0.626327 0.131389
O O9 0.765009 0.671411 0.185647
O O10 0.770436 0.608902 0.000000
O O11 0.775542 0.784422 0.500000
O O12 0.500000 0.786089 0.637540
O O13 0.738982 0.842160 0.698086
O O14 0.778281 0.756599 0.748265
O O15 0.679831 0.895127 0.500000
O O16 0.500000 0.904922 0.288277
O O17 0.500000 0.723589 0.845029
O O18 0.240139 0.733445 0.000000
#
# Coordination Sequence:
#
# PCOD8201014 Si02
#       6
#     8   4   8   8   8   8
#     4   9  19  35  51  66  87 117 153 192 231 272
#     4   9  16  24  36  56  83 117 151 183 228 279
#     4   9  18  31  47  70  97 121 147 183 228 277
#     4   8  13  22  38  59  82 112 148 180 214 260
#     4   8  14  24  37  55  81 112 147 187 226 268
#     4   8  14  25  41  63  91 118 144 178 219 263
#
# _framework density 18.208683000000001
#
# number of rings (size 3 to 8) (size 9 to 14) (size 15 to 20)
#    0.000    3.545    0.000    2.727    0.000    2.545 
#    0.000    6.364    2.000    0.000    0.000    0.000 
#    0.000    1.455    0.000    7.091    0.000    7.273 
#
# Total GULP energy -545114.992264 kJ/mol
# GULP energy per Si atom -12388.977097 kJ/mol
# Density = 1.816724 g / cm^3
# Si number density = 18.208683 Si / 1000 Ang^3
#
#
#
# Elastic Constant Matrix: (Units=GPa)
#
#
# Indices 1 2 3 4 5 6 
#
# 1 49.7253 44.6442 22.5068 0.0000 0.0000 0.0000
# 2 44.6442 167.2859 84.5587 0.0000 0.0000 0.0000
# 3 22.5068 84.5587 86.5014 0.0000 0.0000 0.0000
# 4 0.0000 0.0000 0.0000 0.6688 0.0000 0.0000
# 5 0.0000 0.0000 0.0000 0.0000 -4.3892 0.0000
# 6 0.0000 0.0000 0.0000 0.0000 0.0000 -97.6381
#
#
#
# Elastic Compliance Matrix: (Units=1/GPa)
#
#
# Indices 1 2 3 4 5 6 
#
# 1 0.026447 -0.007076 0.000036 0.000000 0.000000 0.000000
# 2 -0.007076 0.013710 -0.011561 0.000000 0.000000 0.000000
# 3 0.000036 -0.011561 0.022852 0.000000 0.000000 0.000000
# 4 0.000000 0.000000 0.000000 1.495320 0.000000 0.000000
# 5 0.000000 0.000000 0.000000 0.000000 -0.227834 0.000000
# 6 0.000000 0.000000 0.000000 0.000000 0.000000 -0.010242
#
#
# Mechanical properties :
#
#
# Convention : Reuss Voigt Hill
#
# Bulk Modulus (GPa) = 38.74852 67.43688 53.09270
# Shear Modulus (GPa) = 3.66016 -10.15150 -3.24567
#
# Velocity S-wave (km/s) = 1.41933 -2.36372 -1.33655
# Velocity P-wave (km/s) = 4.90025 5.44668 5.18068
#
# Compressibility (1/GPa) = 0.02580744
#
# Stress axis : x y z
#
# Youngs Moduli (GPa) = 37.81084 72.93941 43.75910
#
# Poissons Ratio (x) = 0.51614 -0.00158
# Poissons Ratio (y) = 0.26756 0.50589
# Poissons Ratio (z) = -0.00136 0.84325
#
# Static dielectric constant tensor:
#      x y z
#    x 3.202550 0.000000 0.000000 
#    y 0.000000 1.540970 0.000000 
#    z 0.000000 0.000000 3.116790 
# 
# 
# High freq. dielectric constant tensor:
#      x y z
#    x 1.680970 0.000000 0.000000 
#    y 0.000000 1.708120 0.000000 
#    z 0.000000 0.000000 1.669390 
# 
# From -- ./inp_files/2201.got.cif
#   From: 2010.03.12/outbox.cif.g09.slc.cpg/sg47_2_cif.got.tgz:2201.got - 2010.04.14 03:12:58.
