data_PCOD8201093
_publ_section_title
;
Structure prediction by ZEFSAII (Michael W. Deem and Ramdas Pophale) SiO2 
 PCOD8201093
Probable space group: P M M M
;
_chemical_formula_sum "Si O2"
_cell_formula_units_Z 52
_cell_length_a 9.788674
_cell_length_b 23.095895
_cell_length_c 15.243230
_cell_angle_alpha 90.000000
_cell_angle_beta 90.000000
_cell_angle_gamma 90.000000
_cell_volume 3446.161801
_symmetry_space_group_name_H-M "P M M M"
_symmetry_group_IT_number 47
_symmetry_cell_setting 'orthorhombic'
loop_
_space_group_symop_operation_xyz
x,y,z
-x,-y,z
x,-y,-z
-x,y,-z
-x,-y,-z
x,y,-z
-x,y,z
x,-y,z
loop_
_atom_site_type_symbol
_atom_site_label
_atom_site_fract_x
_atom_site_fract_y
_atom_site_fract_z
Si Si1 0.155834 0.171245 0.903178
Si Si2 0.337494 0.062687 0.500000
Si Si3 0.842345 0.225292 0.275614
Si Si4 0.656383 0.066068 0.148130
Si Si5 0.655532 0.877136 0.671691
Si Si6 0.841105 0.667893 0.601604
Si Si7 0.347813 0.436139 0.396152
O O1 0.187976 0.221194 0.830080
O O2 0.249042 0.113807 0.897932
O O3 0.000000 0.150070 0.891145
O O4 0.178222 0.198869 0.000000
O O5 0.500000 0.058380 0.500000
O O6 0.284084 0.094753 0.585108
O O7 0.269768 0.000000 0.500000
O O8 0.749359 0.177584 0.317906
O O9 0.802074 0.284393 0.325074
O O10 0.000000 0.211487 0.294641
O O11 0.500000 0.075455 0.116670
O O12 0.667487 0.075297 0.252171
O O13 0.702703 0.000000 0.126032
O O14 0.500000 0.855593 0.661602
O O15 0.802684 0.685696 0.500000
O O16 0.759958 0.611632 0.635192
O O17 0.000000 0.652716 0.605937
O O18 0.348239 0.438288 0.500000
O O19 0.500000 0.419857 0.362304
O O20 0.306189 0.500000 0.360030
#
# Coordination Sequence:
#
# PCOD8201093 Si02
#       7
#     8   4   8   8   8   8   8
#     4   9  18  32  47  61  78 103 134 167 206 250
#     4   9  16  26  41  59  77  99 132 171 204 237
#     4   9  18  31  44  59  82 109 135 168 206 242
#     4   9  17  29  44  61  81 102 125 159 206 256
#     4   9  17  28  42  59  77 102 135 168 202 242
#     4   9  17  27  40  60  85 114 143 167 196 236
#     4   8  14  25  40  59  85 116 146 173 199 225
#
# _framework density 15.08925
#
# number of rings (size 3 to 8) (size 9 to 14) (size 15 to 20)
#    0.000    3.154    0.000    0.923    1.077    3.692 
#    0.000    3.077    0.000    1.846    0.000    0.000 
#    0.000    0.615    0.000    7.692    0.000    1.538 
#
# Total GULP energy -644186.401193 kJ/mol
# GULP energy per Si atom -12388.200023 kJ/mol
# Density = 1.505491 g / cm^3
# Si number density = 15.089250 Si / 1000 Ang^3
#
#
#
# Elastic Constant Matrix: (Units=GPa)
#
#
# Indices 1 2 3 4 5 6 
#
# 1 47.9371 50.2338 30.6948 0.0000 0.0000 0.0000
# 2 50.2338 108.5231 52.3540 0.0000 0.0000 0.0000
# 3 30.6948 52.3540 96.1126 0.0000 0.0000 0.0000
# 4 0.0000 0.0000 0.0000 11.4176 0.0000 0.0000
# 5 0.0000 0.0000 0.0000 0.0000 15.2191 0.0000
# 6 0.0000 0.0000 0.0000 0.0000 0.0000 34.8908
#
#
#
# Elastic Compliance Matrix: (Units=1/GPa)
#
#
# Indices 1 2 3 4 5 6 
#
# 1 0.041502 -0.017385 -0.003784 0.000000 0.000000 0.000000
# 2 -0.017385 0.019782 -0.005223 0.000000 0.000000 0.000000
# 3 -0.003784 -0.005223 0.014458 0.000000 0.000000 0.000000
# 4 0.000000 0.000000 0.000000 0.087584 0.000000 0.000000
# 5 0.000000 0.000000 0.000000 0.000000 0.065707 0.000000
# 6 0.000000 0.000000 0.000000 0.000000 0.000000 0.028661
#
#
# Mechanical properties :
#
#
# Convention : Reuss Voigt Hill
#
# Bulk Modulus (GPa) = 43.56042 57.68198 50.62120
# Shear Modulus (GPa) = 15.71685 20.25819 17.98752
#
# Velocity S-wave (km/s) = 3.23087 3.66807 3.45639
# Velocity P-wave (km/s) = 6.54593 7.49999 7.03914
#
# Compressibility (1/GPa) = 0.02295662
#
# Stress axis : x y z
#
# Youngs Moduli (GPa) = 24.09550 50.55192 69.16482
#
# Poissons Ratio (x) = 0.87884 0.26174
# Poissons Ratio (y) = 0.41890 0.36127
# Poissons Ratio (z) = 0.09118 0.26405
#
# Static dielectric constant tensor:
#      x y z
#    x 2.951350 0.000000 0.000000 
#    y 0.000000 2.926940 0.000000 
#    z 0.000000 0.000000 2.999950 
# 
# 
# High freq. dielectric constant tensor:
#      x y z
#    x 1.576900 0.000000 0.000000 
#    y 0.000000 1.557230 0.000000 
#    z 0.000000 0.000000 1.564060 
# 
# From -- ./inp_files/12490.got.cif
#   From: 2010.03.12/outbox.cif.g09.slc.cpg/sg47_7_cif.got.tgz:12490.got - 2010.04.14 03:12:58.
