data_PCOD8201485
_publ_section_title
;
Structure prediction by ZEFSAII (Michael W. Deem and Ramdas Pophale) SiO2 
 PCOD8201485
Probable space group: P N N N
;
_chemical_formula_sum "Si O2"
_cell_formula_units_Z 64
_cell_length_a 15.030113
_cell_length_b 16.341587
_cell_length_c 11.642746
_cell_angle_alpha 90.000000
_cell_angle_beta 90.000000
_cell_angle_gamma 90.000000
_cell_volume 2859.643528
_symmetry_space_group_name_H-M "P N N N"
_symmetry_group_IT_number 48
_space_group.IT_coordinate_system_code '2'
_symmetry_cell_setting 'orthorhombic'
loop_
_space_group_symop_operation_xyz
x,y,z
1/2-x,1/2-y,z
x,1/2-y,1/2-z
1/2-x,y,1/2-z
-x,-y,-z
1/2+x,1/2+y,-z
-x,1/2+y,1/2+z
1/2+x,-y,1/2+z
loop_
_atom_site_type_symbol
_atom_site_label
_atom_site_fract_x
_atom_site_fract_y
_atom_site_fract_z
Si Si1 0.507709 0.803911 0.361699
Si Si2 0.612408 0.386852 0.186304
Si Si3 0.900501 0.623625 0.664294
Si Si4 0.107284 0.059361 0.404257
Si Si5 0.097304 0.912202 0.560233
Si Si6 0.416845 0.460052 0.940254
Si Si7 0.347098 0.234351 0.028098
Si Si8 0.150831 0.737341 0.502470
O O1 0.497614 0.750000 0.250000
O O2 0.548866 0.894789 0.343248
O O3 0.573625 0.757244 0.444939
O O4 0.409679 0.817132 0.417438
O O5 0.506812 0.371134 0.176885
O O6 0.647287 0.399933 0.316795
O O7 0.641394 0.470382 0.121131
O O8 0.658639 0.308504 0.126046
O O9 0.862911 0.568917 0.769874
O O10 0.864703 0.583632 0.544712
O O11 0.862372 0.716966 0.650267
O O12 0.149404 0.137407 0.462816
O O13 0.001141 0.058703 0.410524
O O14 0.142099 0.977937 0.471617
O O15 0.099454 0.823631 0.502699
O O16 0.500000 0.500000 0.000000
O O17 0.250000 0.250000 0.974645
O O18 0.250000 0.750000 0.453411
#
# Coordination Sequence:
#
# PCOD8201485 Si02
#       8
#     8   8   8   8   8   8   8   8
#     4  11  24  42  69  93 134 175 210 276 347 398
#     4  10  19  38  66  91 125 169 225 271 322 392
#     4   9  18  35  62  93 126 169 212 263 322 392
#     4  10  20  37  63  96 133 170 217 275 330 386
#     4  10  22  38  63  96 131 172 221 278 329 380
#     4   9  17  36  63  97 117 171 217 261 321 399
#     4  11  22  40  65  96 129 168 222 263 327 403
#     4  12  24  43  66  95 128 174 231 273 328 401
#
# _framework density 22.380413000000001
#
# number of rings (size 3 to 8) (size 9 to 14) (size 15 to 20)
#    0.000    1.750    5.000    0.750    1.750    6.500 
#    4.500    0.000    0.000    0.000    0.000    0.000 
#    0.000    0.000    0.000    0.000    0.000    0.000 
#
# Total GULP energy -792860.774059 kJ/mol
# GULP energy per Si atom -12388.449595 kJ/mol
# Density = 2.232947 g / cm^3
# Si number density = 22.380413 Si / 1000 Ang^3
#
#
#
# Elastic Constant Matrix: (Units=GPa)
#
#
# Indices 1 2 3 4 5 6 
#
# 1 64.6477 6.9044 23.5158 0.0000 0.0000 0.0000
# 2 6.9044 143.6967 40.5860 0.0000 0.0000 0.0000
# 3 23.5158 40.5860 98.7017 0.0000 0.0000 0.0000
# 4 0.0000 0.0000 0.0000 44.9391 0.0000 0.0000
# 5 0.0000 0.0000 0.0000 0.0000 1.2516 0.0000
# 6 0.0000 0.0000 0.0000 0.0000 0.0000 17.4955
#
#
#
# Elastic Compliance Matrix: (Units=1/GPa)
#
#
# Indices 1 2 3 4 5 6 
#
# 1 0.016954 0.000369 -0.004191 0.000000 0.000000 0.000000
# 2 0.000369 0.007882 -0.003329 0.000000 0.000000 0.000000
# 3 -0.004191 -0.003329 0.012499 0.000000 0.000000 0.000000
# 4 0.000000 0.000000 0.000000 0.022252 0.000000 0.000000
# 5 0.000000 0.000000 0.000000 0.000000 0.798956 0.000000
# 6 0.000000 0.000000 0.000000 0.000000 0.000000 0.057158
#
#
# Mechanical properties :
#
#
# Convention : Reuss Voigt Hill
#
# Bulk Modulus (GPa) = 43.41682 49.89540 46.65611
# Shear Modulus (GPa) = 5.33232 28.47323 16.90278
#
# Velocity S-wave (km/s) = 1.54524 3.57072 2.75116
# Velocity P-wave (km/s) = 4.75660 6.27237 5.56632
#
# Compressibility (1/GPa) = 0.02303255
#
# Stress axis : x y z
#
# Youngs Moduli (GPa) = 58.98484 126.87829 80.00731
#
# Poissons Ratio (x) = -0.04683 0.33531
# Poissons Ratio (y) = -0.02177 0.26633
# Poissons Ratio (z) = 0.24720 0.42236
#
# Static dielectric constant tensor:
#      x y z
#    x 3.722300 0.000000 0.000000 
#    y 0.000000 4.818730 0.000000 
#    z 0.000000 0.000000 4.512360 
# 
# 
# High freq. dielectric constant tensor:
#      x y z
#    x 1.848890 0.000000 0.000000 
#    y 0.000000 1.896400 0.000000 
#    z 0.000000 0.000000 1.866020 
# 
# From -- ./inp_files/21573.got.cif
#   From: 2010.06.25/outbox.cif.g09.slc.cpg/sg48_11_cif.got.tgz:21573.got - 2010.06.26 18:06:46.
