data_PCOD8201432
_publ_section_title
;
Structure prediction by ZEFSAII (Michael W. Deem and Ramdas Pophale) SiO2 
 PCOD8201432
Probable space group: P N N N
;
_chemical_formula_sum "Si O2"
_cell_formula_units_Z 64
_cell_length_a 16.933402
_cell_length_b 16.788799
_cell_length_c 11.834394
_cell_angle_alpha 90.000000
_cell_angle_beta 90.000000
_cell_angle_gamma 90.000000
_cell_volume 3364.417416
_symmetry_space_group_name_H-M "P N N N"
_symmetry_group_IT_number 48
_space_group.IT_coordinate_system_code '2'
_symmetry_cell_setting 'orthorhombic'
loop_
_space_group_symop_operation_xyz
x,y,z
1/2-x,1/2-y,z
x,1/2-y,1/2-z
1/2-x,y,1/2-z
-x,-y,-z
1/2+x,1/2+y,-z
-x,1/2+y,1/2+z
1/2+x,-y,1/2+z
loop_
_atom_site_type_symbol
_atom_site_label
_atom_site_fract_x
_atom_site_fract_y
_atom_site_fract_z
Si Si1 0.782154 0.830785 0.123722
Si Si2 0.833509 0.547537 0.047452
Si Si3 0.042167 0.580590 0.266106
Si Si4 0.957603 0.660800 0.711494
Si Si5 0.440887 0.561176 0.659213
Si Si6 0.014101 0.352484 0.947135
Si Si7 0.956638 0.828247 0.044728
Si Si8 0.336470 0.034721 0.208440
O O1 0.750000 0.750000 0.062888
O O2 0.750000 0.830979 0.250000
O O3 0.751801 0.912299 0.066252
O O4 0.876674 0.830540 0.117811
O O5 0.852781 0.473011 0.133431
O O6 0.896440 0.617949 0.070891
O O7 0.835288 0.511777 0.922841
O O8 0.129903 0.542432 0.276522
O O9 0.987852 0.510261 0.217838
O O10 0.035816 0.647947 0.169765
O O11 0.018742 0.616880 0.387610
O O12 0.942438 0.750000 0.750000
O O13 0.945235 0.637654 0.580892
O O14 0.891885 0.611839 0.779925
O O15 0.046710 0.634583 0.753070
O O16 0.475928 0.588833 0.538940
O O17 0.012357 0.260281 0.981067
O O18 0.250000 0.057186 0.250000
#
# Coordination Sequence:
#
# PCOD8201432 Si02
#       8
#     8   8   8   8   8   8   8   8
#     4  11  23  34  51  87 130 159 190 240 301 370
#     4  11  18  37  58  80 115 162 202 229 285 366
#     4  10  21  35  58  84 113 154 206 249 292 353
#     4  11  22  37  55  89 123 157 200 246 307 371
#     4  10  19  35  60  80 113 160 204 239 280 371
#     4  11  17  35  59  83 112 155 201 241 286 366
#     4  12  23  36  57  89 126 154 192 256 313 351
#     4  11  22  37  56  83 119 157 195 244 301 369
#
# _framework density 19.02261
#
# number of rings (size 3 to 8) (size 9 to 14) (size 15 to 20)
#    0.000    1.125    6.250    3.375    1.750    2.250 
#    0.000    1.250    0.000    1.500    0.000    0.000 
#    0.000    0.000    0.000    0.000    0.000    0.000 
#
# Total GULP energy -792933.558240 kJ/mol
# GULP energy per Si atom -12389.586847 kJ/mol
# Density = 1.897931 g / cm^3
# Si number density = 19.022610 Si / 1000 Ang^3
#
#
#
# Elastic Constant Matrix: (Units=GPa)
#
#
# Indices 1 2 3 4 5 6 
#
# 1 53.1825 40.6501 14.5651 0.0000 0.0000 0.0000
# 2 40.6501 66.2286 16.4155 0.0000 0.0000 0.0000
# 3 14.5651 16.4155 98.2969 0.0000 0.0000 0.0000
# 4 0.0000 0.0000 0.0000 32.1811 0.0000 0.0000
# 5 0.0000 0.0000 0.0000 0.0000 19.9020 0.0000
# 6 0.0000 0.0000 0.0000 0.0000 0.0000 25.4055
#
#
#
# Elastic Compliance Matrix: (Units=1/GPa)
#
#
# Indices 1 2 3 4 5 6 
#
# 1 0.035691 -0.021485 -0.001701 0.000000 0.000000 0.000000
# 2 -0.021485 0.028685 -0.001607 0.000000 0.000000 0.000000
# 3 -0.001701 -0.001607 0.010694 0.000000 0.000000 0.000000
# 4 0.000000 0.000000 0.000000 0.031074 0.000000 0.000000
# 5 0.000000 0.000000 0.000000 0.000000 0.050246 0.000000
# 6 0.000000 0.000000 0.000000 0.000000 0.000000 0.039362
#
#
# Mechanical properties :
#
#
# Convention : Reuss Voigt Hill
#
# Bulk Modulus (GPa) = 39.23951 40.10771 39.67361
# Shear Modulus (GPa) = 19.69813 25.23620 22.46716
#
# Velocity S-wave (km/s) = 3.22143 3.64626 3.44041
# Velocity P-wave (km/s) = 5.87447 6.23354 6.05666
#
# Compressibility (1/GPa) = 0.02548452
#
# Stress axis : x y z
#
# Youngs Moduli (GPa) = 28.01813 34.86168 93.51421
#
# Poissons Ratio (x) = 0.74901 0.15902
# Poissons Ratio (y) = 0.60198 0.15026
# Poissons Ratio (z) = 0.04765 0.05601
#
# Static dielectric constant tensor:
#      x y z
#    x 3.353550 0.000000 0.000000 
#    y 0.000000 3.728450 0.000000 
#    z 0.000000 0.000000 3.632980 
# 
# 
# High freq. dielectric constant tensor:
#      x y z
#    x 1.696970 0.000000 0.000000 
#    y 0.000000 1.736610 0.000000 
#    z 0.000000 0.000000 1.748120 
# 
# From -- ./inp_files/22350.got.cif
#   From: 2010.06.25/outbox.cif.g09.slc.cpg/sg48_12_cif.got.tgz:22350.got - 2010.06.26 18:06:46.
