data_PCOD8201979
_publ_section_title
;
Structure prediction by ZEFSAII (Michael W. Deem and Ramdas Pophale) SiO2 
 PCOD8201979
Probable space group: P N N N
;
_chemical_formula_sum "Si O2"
_cell_formula_units_Z 58
_cell_length_a 11.709106
_cell_length_b 9.221708
_cell_length_c 24.463980
_cell_angle_alpha 90.000000
_cell_angle_beta 90.000000
_cell_angle_gamma 90.000000
_cell_volume 2641.570568
_symmetry_space_group_name_H-M "P N N N"
_symmetry_group_IT_number 48
_space_group.IT_coordinate_system_code '2'
_symmetry_cell_setting 'orthorhombic'
loop_
_space_group_symop_operation_xyz
x,y,z
1/2-x,1/2-y,z
x,1/2-y,1/2-z
1/2-x,y,1/2-z
-x,-y,-z
1/2+x,1/2+y,-z
-x,1/2+y,1/2+z
1/2+x,-y,1/2+z
loop_
_atom_site_type_symbol
_atom_site_label
_atom_site_fract_x
_atom_site_fract_y
_atom_site_fract_z
Si Si1 0.790646 0.100063 0.959508
Si Si2 0.624510 0.719834 0.813206
Si Si3 0.875302 0.797177 0.380094
Si Si4 0.474575 0.970511 0.373497
Si Si5 0.583777 0.293055 0.064543
Si Si6 0.403732 0.382768 0.495285
Si Si7 0.404309 0.608205 0.658930
Si Si8 0.250000 0.750000 0.750000
O O1 0.750000 0.250000 0.929578
O O2 0.890705 0.035997 0.924356
O O3 0.702227 0.967379 0.967760
O O4 0.834084 0.158961 0.016984
O O5 0.750000 0.750000 0.838814
O O6 0.627836 0.750000 0.750000
O O7 0.588990 0.550677 0.822950
O O8 0.532851 0.828189 0.839788
O O9 0.750000 0.750000 0.361362
O O10 0.875275 0.815748 0.445630
O O11 0.969679 0.682548 0.358726
O O12 0.910032 0.936513 0.345159
O O13 0.576471 0.073207 0.393733
O O14 0.457027 0.244676 0.042441
O O15 0.644948 0.165799 0.100505
O O16 0.500000 0.500000 0.500000
O O17 0.330198 0.651263 0.711838
#
# Coordination Sequence:
#
# PCOD8201979 Si02
#       8
#     8   8   8   8   8   8   8   2
#     4  12  23  37  62  97 145 183 229 281 353 439
#     4  10  24  49  76 101 131 178 244 308 370 442
#     4  12  26  43  67 107 153 188 236 303 373 431
#     4  11  26  41  66 100 137 181 237 290 352 438
#     4  11  24  43  65  96 141 190 234 286 353 434
#     4  12  23  39  61  99 141 191 234 283 353 438
#     4  11  26  46  77 100 142 188 249 305 364 431
#     4  12  28  48  80 108 132 196 262 306 364 446
#
# _framework density 21.956634999999999
#
# number of rings (size 3 to 8) (size 9 to 14) (size 15 to 20)
#    0.000    0.690    4.828    1.241   12.552    0.000 
#    0.000    2.414    0.000    1.655    0.000    0.000 
#    0.000    0.000    0.000    0.000    0.000    0.000 
#
# Total GULP energy -718893.487097 kJ/mol
# GULP energy per Si atom -12394.715295 kJ/mol
# Density = 2.190666 g / cm^3
# Si number density = 21.956635 Si / 1000 Ang^3
#
#
#
# Elastic Constant Matrix: (Units=GPa)
#
#
# Indices 1 2 3 4 5 6 
#
# 1 102.5227 39.6072 29.7603 0.0000 0.0000 0.0000
# 2 39.6072 142.0775 41.7865 0.0000 0.0000 0.0000
# 3 29.7603 41.7865 90.4410 0.0000 0.0000 0.0000
# 4 0.0000 0.0000 0.0000 19.2179 0.0000 0.0000
# 5 0.0000 0.0000 0.0000 0.0000 9.8133 0.0000
# 6 0.0000 0.0000 0.0000 0.0000 0.0000 32.2708
#
#
#
# Elastic Compliance Matrix: (Units=1/GPa)
#
#
# Indices 1 2 3 4 5 6 
#
# 1 0.011457 -0.002413 -0.002655 0.000000 0.000000 0.000000
# 2 -0.002413 0.008653 -0.003204 0.000000 0.000000 0.000000
# 3 -0.002655 -0.003204 0.013411 0.000000 0.000000 0.000000
# 4 0.000000 0.000000 0.000000 0.052035 0.000000 0.000000
# 5 0.000000 0.000000 0.000000 0.000000 0.101902 0.000000
# 6 0.000000 0.000000 0.000000 0.000000 0.000000 0.030988
#
#
# Mechanical properties :
#
#
# Convention : Reuss Voigt Hill
#
# Bulk Modulus (GPa) = 58.90358 61.92770 60.41564
# Shear Modulus (GPa) = 20.77710 27.18623 23.98167
#
# Velocity S-wave (km/s) = 3.07950 3.52259 3.30847
# Velocity P-wave (km/s) = 6.28728 6.69408 6.49387
#
# Compressibility (1/GPa) = 0.01697690
#
# Stress axis : x y z
#
# Youngs Moduli (GPa) = 87.28404 115.56088 74.56548
#
# Poissons Ratio (x) = 0.27884 0.19798
# Poissons Ratio (y) = 0.21061 0.23892
# Poissons Ratio (z) = 0.23175 0.37027
#
# Static dielectric constant tensor:
#      x y z
#    x 5.228680 0.000000 0.000000 
#    y 0.000000 4.442980 0.000000 
#    z 0.000000 0.000000 3.905850 
# 
# 
# High freq. dielectric constant tensor:
#      x y z
#    x 1.876130 0.000000 0.000000 
#    y 0.000000 1.873920 0.000000 
#    z 0.000000 0.000000 1.844790 
# 
# From -- ./inp_files/37769.got.cif
#   From: 2010.06.25/outbox.cif.g09.slc.cpg/sg48_19_cif.got.tgz:37769.got - 2010.06.26 18:06:46.
