data_PCOD8201895
_publ_section_title
;
Structure prediction by ZEFSAII (Michael W. Deem and Ramdas Pophale) SiO2 
 PCOD8201895
Probable space group: P N N N
;
_chemical_formula_sum "Si O2"
_cell_formula_units_Z 36
_cell_length_a 5.551782
_cell_length_b 20.293014
_cell_length_c 13.649823
_cell_angle_alpha 90.000000
_cell_angle_beta 90.000000
_cell_angle_gamma 90.000000
_cell_volume 1537.821680
_symmetry_space_group_name_H-M "P N N N"
_symmetry_group_IT_number 48
_space_group.IT_coordinate_system_code '2'
_symmetry_cell_setting 'orthorhombic'
loop_
_space_group_symop_operation_xyz
x,y,z
1/2-x,1/2-y,z
x,1/2-y,1/2-z
1/2-x,y,1/2-z
-x,-y,-z
1/2+x,1/2+y,-z
-x,1/2+y,1/2+z
1/2+x,-y,1/2+z
loop_
_atom_site_type_symbol
_atom_site_label
_atom_site_fract_x
_atom_site_fract_y
_atom_site_fract_z
Si Si1 0.997826 0.989159 0.148772
Si Si2 0.496764 0.438201 0.635041
Si Si3 0.250000 0.750000 0.614520
Si Si4 0.078318 0.360859 0.339727
Si Si5 0.628791 0.684672 0.479620
O O1 0.250888 0.970247 0.093325
O O2 0.998369 0.946819 0.248422
O O3 0.750067 0.971321 0.090768
O O4 0.973480 0.066135 0.171164
O O5 0.476797 0.361493 0.606162
O O6 0.387694 0.803088 0.680731
O O7 0.411304 0.704994 0.546588
O O8 0.250000 0.348167 0.250000
O O9 0.186156 0.353565 0.448906
O O10 0.750000 0.750000 0.431978
#
# Coordination Sequence:
#
# PCOD8201895 Si02
#       5
#     8   8   4   8   8
#     4  10  23  43  70 104 137 176 226 296 344 416
#     4  10  22  44  70 100 139 175 229 285 349 410
#     4  10  26  45  68  93 140 188 226 291 336 428
#     4  11  24  45  66 100 135 182 237 286 354 417
#     4  10  25  43  67  98 137 185 230 283 347 426
#
# _framework density 23.409735999999999
#
# number of rings (size 3 to 8) (size 9 to 14) (size 15 to 20)
#    0.000    1.778    2.222    0.000    9.333    7.556 
#    0.000    2.222    0.000    0.000    0.000    0.000 
#    0.000    0.000    0.000    0.000    0.000    0.000 
#
# Total GULP energy -445998.449241 kJ/mol
# GULP energy per Si atom -12388.845812 kJ/mol
# Density = 2.335645 g / cm^3
# Si number density = 23.409736 Si / 1000 Ang^3
#
#
#
# Elastic Constant Matrix: (Units=GPa)
#
#
# Indices 1 2 3 4 5 6 
#
# 1 190.7779 73.6525 2.2152 0.0000 0.0000 0.0000
# 2 73.6525 211.2164 60.6196 0.0000 0.0000 0.0000
# 3 2.2152 60.6196 63.0258 0.0000 0.0000 0.0000
# 4 0.0000 0.0000 0.0000 49.4317 0.0000 0.0000
# 5 0.0000 0.0000 0.0000 0.0000 10.9800 0.0000
# 6 0.0000 0.0000 0.0000 0.0000 0.0000 43.6888
#
#
#
# Elastic Compliance Matrix: (Units=1/GPa)
#
#
# Indices 1 2 3 4 5 6 
#
# 1 0.006359 -0.002975 0.002637 0.000000 0.000000 0.000000
# 2 -0.002975 0.007931 -0.007524 0.000000 0.000000 0.000000
# 3 0.002637 -0.007524 0.023010 0.000000 0.000000 0.000000
# 4 0.000000 0.000000 0.000000 0.020230 0.000000 0.000000
# 5 0.000000 0.000000 0.000000 0.000000 0.091075 0.000000
# 6 0.000000 0.000000 0.000000 0.000000 0.000000 0.022889
#
#
# Mechanical properties :
#
#
# Convention : Reuss Voigt Hill
#
# Bulk Modulus (GPa) = 46.34095 81.99941 64.17018
# Shear Modulus (GPa) = 25.71896 42.72228 34.22062
#
# Velocity S-wave (km/s) = 3.31818 4.27661 3.82751
# Velocity P-wave (km/s) = 5.87528 7.71297 6.85597
#
# Compressibility (1/GPa) = 0.02157919
#
# Stress axis : x y z
#
# Youngs Moduli (GPa) = 157.24679 126.08689 43.45882
#
# Poissons Ratio (x) = 0.37505 -0.11462
# Poissons Ratio (y) = 0.46773 0.32697
# Poissons Ratio (z) = -0.41473 0.94864
#
# Static dielectric constant tensor:
#      x y z
#    x 5.390810 0.000000 0.000000 
#    y 0.000000 4.274930 0.000000 
#    z 0.000000 0.000000 3.751940 
# 
# 
# High freq. dielectric constant tensor:
#      x y z
#    x 1.953230 0.000000 0.000000 
#    y 0.000000 1.932520 0.000000 
#    z 0.000000 0.000000 1.896460 
# 
# From -- ./inp_files/24215.got.cif
#   From: 2010.06.25/outbox.cif.g09.slc.cpg/sg48_13_cif.got.tgz:24215.got - 2010.06.26 18:06:46.
