data_PCOD8201268
_publ_section_title
;
Structure prediction by ZEFSAII (Michael W. Deem and Ramdas Pophale) SiO2 
 PCOD8201268
Probable space group: P N N N
;
_chemical_formula_sum "Si O2"
_cell_formula_units_Z 44
_cell_length_a 14.815615
_cell_length_b 7.886858
_cell_length_c 17.882496
_cell_angle_alpha 90.000000
_cell_angle_beta 90.000000
_cell_angle_gamma 90.000000
_cell_volume 2089.545546
_symmetry_space_group_name_H-M "P N N N"
_symmetry_group_IT_number 48
_space_group.IT_coordinate_system_code '2'
_symmetry_cell_setting 'orthorhombic'
loop_
_space_group_symop_operation_xyz
x,y,z
1/2-x,1/2-y,z
x,1/2-y,1/2-z
1/2-x,y,1/2-z
-x,-y,-z
1/2+x,1/2+y,-z
-x,1/2+y,1/2+z
1/2+x,-y,1/2+z
loop_
_atom_site_type_symbol
_atom_site_label
_atom_site_fract_x
_atom_site_fract_y
_atom_site_fract_z
Si Si1 0.475155 0.947861 0.916112
Si Si2 0.750000 0.750000 0.554114
Si Si3 0.663607 0.046219 0.875856
Si Si4 0.649418 0.747945 0.088941
Si Si5 0.250000 0.750000 0.003700
Si Si6 0.750000 0.250000 0.750000
Si Si7 0.750000 0.250000 0.250000
Si Si8 0.636395 0.113225 0.382099
O O1 0.566066 0.960499 0.867528
O O2 0.403898 0.085299 0.884515
O O3 0.435588 0.759179 0.903550
O O4 0.500000 0.000000 0.000000
O O5 0.743209 0.588587 0.608393
O O6 0.659608 0.753119 0.502136
O O7 0.683550 0.136017 0.798458
O O8 0.668287 0.178087 0.945718
O O9 0.750000 0.750000 0.125672
O O10 0.595609 0.577789 0.116257
O O11 0.287854 0.604545 0.948306
O O12 0.683796 0.139530 0.302155
#
# Coordination Sequence:
#
# PCOD8201268 Si02
#       8
#     8   4   8   8   4   2   2   8
#     4  12  22  40  69 105 133 159 226 305 333 391
#     4  10  18  37  70  97 124 162 224 280 326 395
#     4  11  22  43  65  96 129 175 232 275 337 409
#     4  10  20  38  66 103 127 170 214 271 354 396
#     4  10  16  36  68  84 124 168 218 272 324 400
#     4  10  28  48  68  82 134 208 212 266 360 420
#     4  10  24  42  62  94 132 190 228 262 338 446
#     4  11  21  40  64  95 134 175 219 278 344 399
#
# _framework density 21.057212
#
# number of rings (size 3 to 8) (size 9 to 14) (size 15 to 20)
#    0.545    0.727    5.455    2.182    0.000    1.091 
#    9.818    3.182    0.000    0.000    0.000    0.000 
#    0.000    0.000    0.000    0.000    0.000    0.000 
#
# Total GULP energy -545319.716218 kJ/mol
# GULP energy per Si atom -12393.629914 kJ/mol
# Density = 2.100928 g / cm^3
# Si number density = 21.057212 Si / 1000 Ang^3
#
#
#
# Elastic Constant Matrix: (Units=GPa)
#
#
# Indices 1 2 3 4 5 6 
#
# 1 89.5383 33.9910 22.7009 0.0000 0.0000 0.0000
# 2 33.9910 140.7226 26.9274 0.0000 0.0000 0.0000
# 3 22.7009 26.9274 102.4099 0.0000 0.0000 0.0000
# 4 0.0000 0.0000 0.0000 22.1853 0.0000 0.0000
# 5 0.0000 0.0000 0.0000 0.0000 15.4490 0.0000
# 6 0.0000 0.0000 0.0000 0.0000 0.0000 31.6478
#
#
#
# Elastic Compliance Matrix: (Units=1/GPa)
#
#
# Indices 1 2 3 4 5 6 
#
# 1 0.012718 -0.002667 -0.002118 0.000000 0.000000 0.000000
# 2 -0.002667 0.008042 -0.001523 0.000000 0.000000 0.000000
# 3 -0.002118 -0.001523 0.010635 0.000000 0.000000 0.000000
# 4 0.000000 0.000000 0.000000 0.045075 0.000000 0.000000
# 5 0.000000 0.000000 0.000000 0.000000 0.064729 0.000000
# 6 0.000000 0.000000 0.000000 0.000000 0.000000 0.031598
#
#
# Mechanical properties :
#
#
# Convention : Reuss Voigt Hill
#
# Bulk Modulus (GPa) = 53.25298 55.54549 54.39923
# Shear Modulus (GPa) = 26.08631 30.45985 28.27308
#
# Velocity S-wave (km/s) = 3.52352 3.80745 3.66823
# Velocity P-wave (km/s) = 6.47288 6.76495 6.62053
#
# Compressibility (1/GPa) = 0.01877829
#
# Stress axis : x y z
#
# Youngs Moduli (GPa) = 78.63057 124.35034 94.03168
#
# Poissons Ratio (x) = 0.33160 0.19915
# Poissons Ratio (y) = 0.20968 0.14325
# Poissons Ratio (z) = 0.16653 0.18943
#
# Static dielectric constant tensor:
#      x y z
#    x 3.736890 0.000000 0.000000 
#    y 0.000000 3.893040 0.000000 
#    z 0.000000 0.000000 3.555100 
# 
# 
# High freq. dielectric constant tensor:
#      x y z
#    x 1.801510 0.000000 0.000000 
#    y 0.000000 1.837380 0.000000 
#    z 0.000000 0.000000 1.797350 
# 
# From -- ./inp_files/31540.got.cif
#   From: 2010.06.25/outbox.cif.g09.slc.cpg/sg48_16_cif.got.tgz:31540.got - 2010.06.26 18:06:46.
