data_PCOD8201843
_publ_section_title
;
Structure prediction by ZEFSAII (Michael W. Deem and Ramdas Pophale) SiO2 
 PCOD8201843
Probable space group: P N N N
;
_chemical_formula_sum "Si O2"
_cell_formula_units_Z 56
_cell_length_a 14.539456
_cell_length_b 13.824670
_cell_length_c 13.138039
_cell_angle_alpha 90.000000
_cell_angle_beta 90.000000
_cell_angle_gamma 90.000000
_cell_volume 2640.787633
_symmetry_space_group_name_H-M "P N N N"
_symmetry_group_IT_number 48
_space_group.IT_coordinate_system_code '2'
_symmetry_cell_setting 'orthorhombic'
loop_
_space_group_symop_operation_xyz
x,y,z
1/2-x,1/2-y,z
x,1/2-y,1/2-z
1/2-x,y,1/2-z
-x,-y,-z
1/2+x,1/2+y,-z
-x,1/2+y,1/2+z
1/2+x,-y,1/2+z
loop_
_atom_site_type_symbol
_atom_site_label
_atom_site_fract_x
_atom_site_fract_y
_atom_site_fract_z
Si Si1 0.161243 0.348911 0.193508
Si Si2 0.696089 0.449464 0.408561
Si Si3 0.309799 0.338733 0.541214
Si Si4 0.479149 0.540581 0.730626
Si Si5 0.863283 0.176031 0.155573
Si Si6 0.156095 0.707170 0.050169
Si Si7 0.018490 0.329326 0.824101
O O1 0.132601 0.250000 0.250000
O O2 0.250000 0.395163 0.250000
O O3 0.076811 0.421773 0.192519
O O4 0.189449 0.326659 0.078901
O O5 0.734014 0.558756 0.422598
O O6 0.599433 0.441851 0.352020
O O7 0.769011 0.385065 0.346705
O O8 0.676943 0.403949 0.519503
O O9 0.250000 0.250000 0.587532
O O10 0.414374 0.339352 0.580106
O O11 0.447486 0.598971 0.832084
O O12 0.490632 0.425881 0.744346
O O13 0.861672 0.250000 0.250000
O O14 0.876155 0.233111 0.050155
O O15 0.250000 0.750000 0.096855
O O16 0.079523 0.708525 0.136462
O O17 0.061403 0.250000 0.750000
#
# Coordination Sequence:
#
# PCOD8201843 Si02
#       7
#     8   8   8   8   8   8   8
#     4  11  23  42  67 103 132 174 223 272 334 385
#     4  10  22  38  68 102 131 168 214 271 343 387
#     4  11  24  44  69  92 140 177 220 274 324 406
#     4  11  23  39  67  95 132 171 215 271 328 396
#     4  11  22  37  69 109 132 162 219 290 338 389
#     4  10  22  41  67  98 130 169 218 281 337 389
#     4  11  27  48  62  93 133 185 231 261 332 412
#
# _framework density 21.205795999999999
#
# number of rings (size 3 to 8) (size 9 to 14) (size 15 to 20)
#    0.000    1.286    2.857    2.571    8.000    2.857 
#    7.714    0.714    0.000    0.000    0.000    0.000 
#    0.000    0.000    0.000    0.000    0.000    0.000 
#
# Total GULP energy -694242.160409 kJ/mol
# GULP energy per Si atom -12397.181436 kJ/mol
# Density = 2.115753 g / cm^3
# Si number density = 21.205796 Si / 1000 Ang^3
#
#
#
# Elastic Constant Matrix: (Units=GPa)
#
#
# Indices 1 2 3 4 5 6 
#
# 1 98.7679 49.8540 22.4084 0.0000 0.0000 0.0000
# 2 49.8540 155.8220 34.8818 0.0000 0.0000 0.0000
# 3 22.4084 34.8818 68.2563 0.0000 0.0000 0.0000
# 4 0.0000 0.0000 0.0000 14.8138 0.0000 0.0000
# 5 0.0000 0.0000 0.0000 0.0000 18.5890 0.0000
# 6 0.0000 0.0000 0.0000 0.0000 0.0000 31.9992
#
#
#
# Elastic Compliance Matrix: (Units=1/GPa)
#
#
# Indices 1 2 3 4 5 6 
#
# 1 0.012388 -0.003447 -0.002305 0.000000 0.000000 0.000000
# 2 -0.003447 0.008206 -0.003062 0.000000 0.000000 0.000000
# 3 -0.002305 -0.003062 0.016972 0.000000 0.000000 0.000000
# 4 0.000000 0.000000 0.000000 0.067505 0.000000 0.000000
# 5 0.000000 0.000000 0.000000 0.000000 0.053795 0.000000
# 6 0.000000 0.000000 0.000000 0.000000 0.000000 0.031251
#
#
# Mechanical properties :
#
#
# Convention : Reuss Voigt Hill
#
# Bulk Modulus (GPa) = 50.15733 59.68162 54.91948
# Shear Modulus (GPa) = 23.32186 27.46053 25.39119
#
# Velocity S-wave (km/s) = 3.31990 3.60245 3.46406
# Velocity P-wave (km/s) = 6.19675 6.74601 6.47720
#
# Compressibility (1/GPa) = 0.01993726
#
# Stress axis : x y z
#
# Youngs Moduli (GPa) = 80.72437 121.86294 58.91997
#
# Poissons Ratio (x) = 0.42011 0.13582
# Poissons Ratio (y) = 0.27829 0.18040
# Poissons Ratio (z) = 0.18608 0.37312
#
# Static dielectric constant tensor:
#      x y z
#    x 3.861260 0.000000 0.000000 
#    y 0.000000 4.367380 0.000000 
#    z 0.000000 0.000000 3.631010 
# 
# 
# High freq. dielectric constant tensor:
#      x y z
#    x 1.831880 0.000000 0.000000 
#    y 0.000000 1.846210 0.000000 
#    z 0.000000 0.000000 1.809140 
# 
# From -- ./inp_files/27322.got.cif
#   From: 2010.06.25/outbox.cif.g09.slc.cpg/sg48_14_cif.got.tgz:27322.got - 2010.06.26 18:06:46.
