data_PCOD8201135
_publ_section_title
;
Structure prediction by ZEFSAII (Michael W. Deem and Ramdas Pophale) SiO2 
 PCOD8201135
Probable space group: P M M M
;
_chemical_formula_sum "Si O2"
_cell_formula_units_Z 36
_cell_length_a 9.749792
_cell_length_b 23.069054
_cell_length_c 9.339458
_cell_angle_alpha 90.000000
_cell_angle_beta 90.000000
_cell_angle_gamma 90.000000
_cell_volume 2100.616680
_symmetry_space_group_name_H-M "P M M M"
_symmetry_group_IT_number 47
_symmetry_cell_setting 'orthorhombic'
loop_
_space_group_symop_operation_xyz
x,y,z
-x,-y,z
x,-y,-z
-x,y,-z
-x,-y,-z
x,y,-z
-x,y,z
x,-y,z
loop_
_atom_site_type_symbol
_atom_site_label
_atom_site_fract_x
_atom_site_fract_y
_atom_site_fract_z
Si Si1 0.842324 0.280615 0.833599
Si Si2 0.340929 0.611472 0.833466
Si Si3 0.842004 0.833302 0.332587
Si Si4 0.337124 0.500000 0.338494
Si Si5 0.346023 0.064083 0.329847
O O1 0.747615 0.333627 0.783938
O O2 0.793040 0.224594 0.746616
O O3 0.000000 0.296162 0.798573
O O4 0.821577 0.266957 0.000000
O O5 0.500000 0.624657 0.800622
O O6 0.284722 0.556964 0.743805
O O7 0.318395 0.597205 0.000000
O O8 0.814486 0.824197 0.500000
O O9 0.756509 0.887342 0.268884
O O10 0.000000 0.846748 0.299918
O O11 0.500000 0.500000 0.337941
O O12 0.278844 0.500000 0.500000
O O13 0.339572 0.064185 0.500000
O O14 0.500000 0.078562 0.277898
O O15 0.302565 0.000000 0.273947
#
# Coordination Sequence:
#
# PCOD8201135 Si02
#       5
#     8   8   8   4   8
#     4   9  18  32  47  63  87 118 147 176 214 258
#     4   9  17  30  48  67  86 112 147 181 211 249
#     4   9  17  28  43  64  87 111 142 180 218 254
#     4   9  17  29  46  69  94 116 140 175 218 258
#     4   8  14  25  41  62  88 115 142 175 216 259
#
# _framework density 17.137823000000001
#
# number of rings (size 3 to 8) (size 9 to 14) (size 15 to 20)
#    0.000    3.222    0.000    1.000    0.000    3.556 
#    0.000    2.778    0.000    4.000    0.000    4.667 
#    0.000    0.000    0.000    0.000    0.000    0.000 
#
# Total GULP energy -446334.143334 kJ/mol
# GULP energy per Si atom -12398.170648 kJ/mol
# Density = 1.709882 g / cm^3
# Si number density = 17.137823 Si / 1000 Ang^3
#
#
#
# Elastic Constant Matrix: (Units=GPa)
#
#
# Indices 1 2 3 4 5 6 
#
# 1 73.3832 88.4821 32.1296 0.0000 0.0000 0.0000
# 2 88.4821 192.9037 61.7677 0.0000 0.0000 0.0000
# 3 32.1296 61.7677 47.3781 0.0000 0.0000 0.0000
# 4 0.0000 0.0000 0.0000 15.8241 0.0000 0.0000
# 5 0.0000 0.0000 0.0000 0.0000 14.2425 0.0000
# 6 0.0000 0.0000 0.0000 0.0000 0.0000 27.9057
#
#
#
# Elastic Compliance Matrix: (Units=1/GPa)
#
#
# Indices 1 2 3 4 5 6 
#
# 1 0.030984 -0.012847 -0.004263 0.000000 0.000000 0.000000
# 2 -0.012847 0.014225 -0.009834 0.000000 0.000000 0.000000
# 3 -0.004263 -0.009834 0.036818 0.000000 0.000000 0.000000
# 4 0.000000 0.000000 0.000000 0.063195 0.000000 0.000000
# 5 0.000000 0.000000 0.000000 0.000000 0.070212 0.000000
# 6 0.000000 0.000000 0.000000 0.000000 0.000000 0.035835
#
#
# Mechanical properties :
#
#
# Convention : Reuss Voigt Hill
#
# Bulk Modulus (GPa) = 35.53657 75.38044 55.45851
# Shear Modulus (GPa) = 15.89640 20.34682 18.12161
#
# Velocity S-wave (km/s) = 3.04889 3.44938 3.25530
# Velocity P-wave (km/s) = 5.75978 7.74239 6.82348
#
# Compressibility (1/GPa) = 0.02814002
#
# Stress axis : x y z
#
# Youngs Moduli (GPa) = 32.27516 70.29735 27.16031
#
# Poissons Ratio (x) = 0.90309 0.11579
# Poissons Ratio (y) = 0.41463 0.26709
# Poissons Ratio (z) = 0.13760 0.69129
#
# Static dielectric constant tensor:
#      x y z
#    x 3.162000 0.000000 0.000000 
#    y 0.000000 3.444860 0.000000 
#    z 0.000000 0.000000 2.986660 
# 
# 
# High freq. dielectric constant tensor:
#      x y z
#    x 1.647580 0.000000 0.000000 
#    y 0.000000 1.671190 0.000000 
#    z 0.000000 0.000000 1.633630 
# 
# From -- ./inp_files/3749.got.cif
#   From: 2010.03.12/outbox.cif.g09.slc.cpg/sg47_2_cif.got.tgz:3749.got - 2010.04.14 03:12:58.
