data_PCOD8201635
_publ_section_title
;
Structure prediction by ZEFSAII (Michael W. Deem and Ramdas Pophale) SiO2 
 PCOD8201635
Probable space group: P N N N
;
_chemical_formula_sum "Si O2"
_cell_formula_units_Z 48
_cell_length_a 14.935885
_cell_length_b 18.460736
_cell_length_c 8.689407
_cell_angle_alpha 90.000000
_cell_angle_beta 90.000000
_cell_angle_gamma 90.000000
_cell_volume 2395.907860
_symmetry_space_group_name_H-M "P N N N"
_symmetry_group_IT_number 48
_space_group.IT_coordinate_system_code '2'
_symmetry_cell_setting 'orthorhombic'
loop_
_space_group_symop_operation_xyz
x,y,z
1/2-x,1/2-y,z
x,1/2-y,1/2-z
1/2-x,y,1/2-z
-x,-y,-z
1/2+x,1/2+y,-z
-x,1/2+y,1/2+z
1/2+x,-y,1/2+z
loop_
_atom_site_type_symbol
_atom_site_label
_atom_site_fract_x
_atom_site_fract_y
_atom_site_fract_z
Si Si1 0.919727 0.529298 0.887758
Si Si2 0.652327 0.098924 0.686386
Si Si3 0.654028 0.403919 0.176799
Si Si4 0.653066 0.555300 0.310215
Si Si5 0.999503 0.676215 0.823708
Si Si6 0.007706 0.323094 0.816362
O O1 0.889911 0.473454 0.758952
O O2 0.938872 0.604707 0.798863
O O3 0.837401 0.542968 0.005634
O O4 0.000000 0.500000 0.000000
O O5 0.750000 0.116150 0.750000
O O6 0.659067 0.093091 0.505034
O O7 0.586228 0.163882 0.730712
O O8 0.750000 0.390326 0.250000
O O9 0.616568 0.481658 0.232268
O O10 0.592728 0.338413 0.236496
O O11 0.750000 0.579479 0.250000
O O12 0.579372 0.615603 0.275209
O O13 0.957559 0.750000 0.750000
O O14 0.013594 0.685463 0.004495
O O15 0.050148 0.250000 0.750000
#
# Coordination Sequence:
#
# PCOD8201635 Si02
#       6
#     8   8   8   8   8   8
#     4  11  20  43  65  90 131 165 209 276 323 378
#     4  12  23  38  66  95 123 166 215 266 324 391
#     4  11  22  37  60  91 126 163 216 265 318 384
#     4  10  20  39  65  91 125 165 214 266 315 380
#     4  11  22  39  61  88 127 166 210 258 330 388
#     4  11  23  40  60  90 129 169 210 264 326 391
#
# _framework density 20.034161000000001
#
# number of rings (size 3 to 8) (size 9 to 14) (size 15 to 20)
#    0.000    1.000    5.000    4.000    0.000    5.000 
#    0.000    3.333    0.000    2.500    0.000    0.000 
#    0.000    0.000    0.000    0.000    0.000    0.000 
#
# Total GULP energy -595099.566566 kJ/mol
# GULP energy per Si atom -12397.907637 kJ/mol
# Density = 1.998856 g / cm^3
# Si number density = 20.034161 Si / 1000 Ang^3
#
#
#
# Elastic Constant Matrix: (Units=GPa)
#
#
# Indices 1 2 3 4 5 6 
#
# 1 82.2895 26.8328 43.1580 0.0000 0.0000 0.0000
# 2 26.8328 95.1887 21.3272 0.0000 0.0000 0.0000
# 3 43.1580 21.3272 119.0372 0.0000 0.0000 0.0000
# 4 0.0000 0.0000 0.0000 48.2262 0.0000 0.0000
# 5 0.0000 0.0000 0.0000 0.0000 28.4006 0.0000
# 6 0.0000 0.0000 0.0000 0.0000 0.0000 16.3843
#
#
#
# Elastic Compliance Matrix: (Units=1/GPa)
#
#
# Indices 1 2 3 4 5 6 
#
# 1 0.015962 -0.003337 -0.005189 0.000000 0.000000 0.000000
# 2 -0.003337 0.011642 -0.000876 0.000000 0.000000 0.000000
# 3 -0.005189 -0.000876 0.010439 0.000000 0.000000 0.000000
# 4 0.000000 0.000000 0.000000 0.020736 0.000000 0.000000
# 5 0.000000 0.000000 0.000000 0.000000 0.035211 0.000000
# 6 0.000000 0.000000 0.000000 0.000000 0.000000 0.061034
#
#
# Mechanical properties :
#
#
# Convention : Reuss Voigt Hill
#
# Bulk Modulus (GPa) = 51.97791 53.23904 52.60847
# Shear Modulus (GPa) = 27.74064 32.28204 30.01134
#
# Velocity S-wave (km/s) = 3.72515 4.01852 3.87461
# Velocity P-wave (km/s) = 6.67108 6.93997 6.80685
#
# Compressibility (1/GPa) = 0.01923894
#
# Stress axis : x y z
#
# Youngs Moduli (GPa) = 62.64918 85.89324 95.79356
#
# Poissons Ratio (x) = 0.28661 0.49710
# Poissons Ratio (y) = 0.20905 0.08392
# Poissons Ratio (z) = 0.32510 0.07525
#
# Static dielectric constant tensor:
#      x y z
#    x 3.646140 0.000000 0.000000 
#    y 0.000000 3.864950 0.000000 
#    z 0.000000 0.000000 3.813900 
# 
# 
# High freq. dielectric constant tensor:
#      x y z
#    x 1.769730 0.000000 0.000000 
#    y 0.000000 1.786940 0.000000 
#    z 0.000000 0.000000 1.792980 
# 
# From -- ./inp_files/12801.got.cif
#   From: 2010.06.25/outbox.cif.g09.slc.cpg/sg48_7_cif.got.tgz:12801.got - 2010.06.26 18:06:46.
