data_PCOD8201599
_publ_section_title
;
Structure prediction by ZEFSAII (Michael W. Deem and Ramdas Pophale) SiO2 
 PCOD8201599
Probable space group: P N N N
;
_chemical_formula_sum "Si O2"
_cell_formula_units_Z 48
_cell_length_a 16.473802
_cell_length_b 26.799286
_cell_length_c 5.006173
_cell_angle_alpha 90.000000
_cell_angle_beta 90.000000
_cell_angle_gamma 90.000000
_cell_volume 2210.155950
_symmetry_space_group_name_H-M "P N N N"
_symmetry_group_IT_number 48
_space_group.IT_coordinate_system_code '2'
_symmetry_cell_setting 'orthorhombic'
loop_
_space_group_symop_operation_xyz
x,y,z
1/2-x,1/2-y,z
x,1/2-y,1/2-z
1/2-x,y,1/2-z
-x,-y,-z
1/2+x,1/2+y,-z
-x,1/2+y,1/2+z
1/2+x,-y,1/2+z
loop_
_atom_site_type_symbol
_atom_site_label
_atom_site_fract_x
_atom_site_fract_y
_atom_site_fract_z
Si Si1 0.841077 0.049794 0.800684
Si Si2 0.445584 0.463557 0.325444
Si Si3 0.197849 0.102938 0.521641
Si Si4 0.892305 0.806669 0.236131
Si Si5 0.499606 0.193943 0.228923
Si Si6 0.592509 0.099247 0.228467
O O1 0.750000 0.031992 0.750000
O O2 0.879924 0.082158 0.563218
O O3 0.892137 0.999375 0.864931
O O4 0.838530 0.084227 0.061833
O O5 0.500000 0.500000 0.500000
O O6 0.383833 0.428833 0.489951
O O7 0.507612 0.426854 0.174735
O O8 0.250000 0.074249 0.750000
O O9 0.177457 0.155922 0.664993
O O10 0.250000 0.110581 0.250000
O O11 0.858192 0.750000 0.250000
O O12 0.968142 0.814082 0.431016
O O13 0.926171 0.817909 0.937459
O O14 0.532640 0.250000 0.250000
O O15 0.577578 0.158177 0.254788
#
# Coordination Sequence:
#
# PCOD8201599 Si02
#       6
#     8   8   8   8   8   8
#     4  11  24  41  61  93 128 162 201 255 318 378
#     4  10  24  41  65  91 121 165 220 261 305 367
#     4  12  26  41  63  92 132 172 207 264 326 379
#     4  10  21  40  62  90 124 166 208 256 307 369
#     4  10  20  37  67  95 120 155 211 263 305 362
#     4  11  22  40  68  90 122 161 208 258 309 367
#
# _framework density 21.717922999999999
#
# number of rings (size 3 to 8) (size 9 to 14) (size 15 to 20)
#    0.000    1.333    1.667    3.500    2.333    5.667 
#    0.000    0.833    0.000    3.000    0.000    0.000 
#    0.000    0.000    0.000    0.000    0.000    0.000 
#
# Total GULP energy -594955.792480 kJ/mol
# GULP energy per Si atom -12394.912343 kJ/mol
# Density = 2.166849 g / cm^3
# Si number density = 21.717923 Si / 1000 Ang^3
#
#
#
# Elastic Constant Matrix: (Units=GPa)
#
#
# Indices 1 2 3 4 5 6 
#
# 1 63.4757 27.7388 1.1615 0.0000 0.0000 0.0000
# 2 27.7388 105.1974 21.0225 0.0000 0.0000 0.0000
# 3 1.1615 21.0225 89.8855 0.0000 0.0000 0.0000
# 4 0.0000 0.0000 0.0000 27.9061 0.0000 0.0000
# 5 0.0000 0.0000 0.0000 0.0000 27.8579 0.0000
# 6 0.0000 0.0000 0.0000 0.0000 0.0000 17.2727
#
#
#
# Elastic Compliance Matrix: (Units=1/GPa)
#
#
# Indices 1 2 3 4 5 6 
#
# 1 0.017877 -0.004897 0.000914 0.000000 0.000000 0.000000
# 2 -0.004897 0.011313 -0.002583 0.000000 0.000000 0.000000
# 3 0.000914 -0.002583 0.011717 0.000000 0.000000 0.000000
# 4 0.000000 0.000000 0.000000 0.035834 0.000000 0.000000
# 5 0.000000 0.000000 0.000000 0.000000 0.035896 0.000000
# 6 0.000000 0.000000 0.000000 0.000000 0.000000 0.057895
#
#
# Mechanical properties :
#
#
# Convention : Reuss Voigt Hill
#
# Bulk Modulus (GPa) = 36.00006 39.82267 37.91137
# Shear Modulus (GPa) = 25.91711 28.51641 27.21676
#
# Velocity S-wave (km/s) = 3.45824 3.62751 3.54389
# Velocity P-wave (km/s) = 5.70597 5.99344 5.85147
#
# Compressibility (1/GPa) = 0.02777773
#
# Stress axis : x y z
#
# Youngs Moduli (GPa) = 55.93743 88.39234 85.34251
#
# Poissons Ratio (x) = 0.43282 -0.07802
# Poissons Ratio (y) = 0.27390 0.22041
# Poissons Ratio (z) = -0.05114 0.22829
#
# Static dielectric constant tensor:
#      x y z
#    x 3.883690 0.000000 0.000000 
#    y 0.000000 4.234280 0.000000 
#    z 0.000000 0.000000 3.919550 
# 
# 
# High freq. dielectric constant tensor:
#      x y z
#    x 1.836850 0.000000 0.000000 
#    y 0.000000 1.859640 0.000000 
#    z 0.000000 0.000000 1.855370 
# 
# From -- ./inp_files/3526.got.cif
#   From: 2010.06.25/outbox.cif.g09.slc.cpg/sg48_2_cif.got.tgz:3526.got - 2010.06.26 18:06:46.
