data_PCOD8201970
_publ_section_title
;
Structure prediction by ZEFSAII (Michael W. Deem and Ramdas Pophale) SiO2 
 PCOD8201970
Probable space group: P N N N
;
_chemical_formula_sum "Si O2"
_cell_formula_units_Z 48
_cell_length_a 12.827349
_cell_length_b 18.572586
_cell_length_c 8.498905
_cell_angle_alpha 90.000000
_cell_angle_beta 90.000000
_cell_angle_gamma 90.000000
_cell_volume 2024.753991
_symmetry_space_group_name_H-M "P N N N"
_symmetry_group_IT_number 48
_space_group.IT_coordinate_system_code '2'
_symmetry_cell_setting 'orthorhombic'
loop_
_space_group_symop_operation_xyz
x,y,z
1/2-x,1/2-y,z
x,1/2-y,1/2-z
1/2-x,y,1/2-z
-x,-y,-z
1/2+x,1/2+y,-z
-x,1/2+y,1/2+z
1/2+x,-y,1/2+z
loop_
_atom_site_type_symbol
_atom_site_label
_atom_site_fract_x
_atom_site_fract_y
_atom_site_fract_z
Si Si1 0.111010 0.844149 0.527904
Si Si2 0.908926 0.656168 0.428384
Si Si3 0.750000 0.750000 0.250000
Si Si4 0.641709 0.993560 0.341812
Si Si5 0.707409 0.019123 0.901860
Si Si6 0.952814 0.904678 0.738239
Si Si7 0.434133 0.750000 0.250000
Si Si8 0.750000 0.250000 0.250000
O O1 0.145897 0.927506 0.515565
O O2 0.126771 0.807389 0.357032
O O3 0.182566 0.802677 0.647125
O O4 0.994639 0.849219 0.602736
O O5 0.809226 0.699915 0.372945
O O6 0.913924 0.583693 0.321641
O O7 0.906387 0.640823 0.615886
O O8 0.006375 0.705214 0.383464
O O9 0.750000 0.002618 0.250000
O O10 0.682740 0.993345 0.521667
O O11 0.554526 0.052825 0.304813
O O12 0.750000 0.061293 0.750000
O O13 0.634160 0.952445 0.849625
#
# Coordination Sequence:
#
# PCOD8201970 Si02
#       8
#     8   8   2   8   8   8   4   2
#     4  12  27  47  71 101 148 186 254 289 365 431
#     4  11  24  45  70 103 150 183 247 290 366 431
#     4  10  24  44  74 108 140 204 242 302 344 444
#     4  12  24  45  75 109 145 184 234 313 374 427
#     4  12  27  44  75 113 138 186 242 310 376 431
#     4  12  26  48  73 110 146 192 235 316 370 440
#     4  11  28  44  72  99 136 210 229 298 348 437
#     4  12  28  50  70 104 146 206 240 298 352 446
#
# _framework density 23.706582000000001
#
# number of rings (size 3 to 8) (size 9 to 14) (size 15 to 20)
#    0.000    0.333    4.167    4.000    7.000    0.000 
#    0.000    1.667    0.000    0.000    0.000    0.000 
#    0.000    0.000    0.000    0.000    0.000    0.000 
#
# Total GULP energy -594719.426244 kJ/mol
# GULP energy per Si atom -12389.988047 kJ/mol
# Density = 2.365262 g / cm^3
# Si number density = 23.706582 Si / 1000 Ang^3
#
#
#
# Elastic Constant Matrix: (Units=GPa)
#
#
# Indices 1 2 3 4 5 6 
#
# 1 72.4495 22.1704 23.8883 0.0000 0.0000 0.0000
# 2 22.1704 102.1880 48.2200 0.0000 0.0000 0.0000
# 3 23.8883 48.2200 120.7052 0.0000 0.0000 0.0000
# 4 0.0000 0.0000 0.0000 70.8097 0.0000 0.0000
# 5 0.0000 0.0000 0.0000 0.0000 11.3953 0.0000
# 6 0.0000 0.0000 0.0000 0.0000 0.0000 26.3377
#
#
#
# Elastic Compliance Matrix: (Units=1/GPa)
#
#
# Indices 1 2 3 4 5 6 
#
# 1 0.015198 -0.002314 -0.002083 0.000000 0.000000 0.000000
# 2 -0.002314 0.012412 -0.004500 0.000000 0.000000 0.000000
# 3 -0.002083 -0.004500 0.010495 0.000000 0.000000 0.000000
# 4 0.000000 0.000000 0.000000 0.014122 0.000000 0.000000
# 5 0.000000 0.000000 0.000000 0.000000 0.087756 0.000000
# 6 0.000000 0.000000 0.000000 0.000000 0.000000 0.037968
#
#
# Mechanical properties :
#
#
# Convention : Reuss Voigt Hill
#
# Bulk Modulus (GPa) = 49.24014 53.76667 51.50340
# Shear Modulus (GPa) = 24.68949 35.11279 29.90114
#
# Velocity S-wave (km/s) = 3.23067 3.85273 3.55533
# Velocity P-wave (km/s) = 5.89339 6.52079 6.21501
#
# Compressibility (1/GPa) = 0.02030864
#
# Stress axis : x y z
#
# Youngs Moduli (GPa) = 65.79900 80.57032 95.28614
#
# Poissons Ratio (x) = 0.18646 0.19850
# Poissons Ratio (y) = 0.15227 0.42881
# Poissons Ratio (z) = 0.13707 0.36258
#
# Static dielectric constant tensor:
#      x y z
#    x 4.391060 0.000000 0.000000 
#    y 0.000000 4.276860 0.000000 
#    z 0.000000 0.000000 4.711670 
# 
# 
# High freq. dielectric constant tensor:
#      x y z
#    x 1.935830 0.000000 0.000000 
#    y 0.000000 1.943740 0.000000 
#    z 0.000000 0.000000 1.961320 
# 
# From -- ./inp_files/12880.got.cif
#   From: 2010.06.25/outbox.cif.g09.slc.cpg/sg48_7_cif.got.tgz:12880.got - 2010.06.26 18:06:46.
