data_PCOD8201902
_publ_section_title
;
Structure prediction by ZEFSAII (Michael W. Deem and Ramdas Pophale) SiO2 
 PCOD8201902
Probable space group: P N N N
;
_chemical_formula_sum "Si O2"
_cell_formula_units_Z 58
_cell_length_a 8.408419
_cell_length_b 11.568205
_cell_length_c 32.810609
_cell_angle_alpha 90.000000
_cell_angle_beta 90.000000
_cell_angle_gamma 90.000000
_cell_volume 3191.498264
_symmetry_space_group_name_H-M "P N N N"
_symmetry_group_IT_number 48
_space_group.IT_coordinate_system_code '2'
_symmetry_cell_setting 'orthorhombic'
loop_
_space_group_symop_operation_xyz
x,y,z
1/2-x,1/2-y,z
x,1/2-y,1/2-z
1/2-x,y,1/2-z
-x,-y,-z
1/2+x,1/2+y,-z
-x,1/2+y,1/2+z
1/2+x,-y,1/2+z
loop_
_atom_site_type_symbol
_atom_site_label
_atom_site_fract_x
_atom_site_fract_y
_atom_site_fract_z
Si Si1 0.804188 0.133365 0.158084
Si Si2 0.859502 0.356947 0.484605
Si Si3 0.982989 0.682301 0.815761
Si Si4 0.750000 0.750000 0.750000
Si Si5 0.934402 0.770459 0.051052
Si Si6 0.100182 0.541303 0.037912
Si Si7 0.706808 0.875049 0.897045
Si Si8 0.031415 0.999280 0.907027
O O1 0.750000 0.250000 0.132188
O O2 0.962362 0.180769 0.182040
O O3 0.648439 0.106051 0.187051
O O4 0.842292 0.025595 0.129197
O O5 0.750000 0.250000 0.470217
O O6 0.775799 0.430140 0.521008
O O7 0.902660 0.438269 0.447427
O O8 0.020646 0.311060 0.505339
O O9 0.865106 0.668609 0.777415
O O10 0.884322 0.640784 0.854827
O O11 0.750000 0.750000 0.051807
O O12 0.027328 0.652435 0.060830
O O13 0.979863 0.863926 0.085720
O O14 0.095340 0.437959 0.070262
O O15 0.000000 0.500000 0.000000
O O16 0.750000 0.750000 0.915209
O O17 0.864104 0.951593 0.891471
#
# Coordination Sequence:
#
# PCOD8201902 Si02
#       8
#     8   8   8   2   8   8   8   8
#     4   8  19  36  50  85 117 155 188 220 284 353
#     4  10  23  37  48  75 101 150 201 262 303 339
#     4   9  21  34  58  87 121 152 182 226 298 366
#     4  12  16  38  60  92 128 152 184 228 292 382
#     4  11  25  38  51  75 103 152 209 259 312 338
#     4  11  26  38  54  74 112 154 208 263 308 351
#     4  12  23  37  57  85 110 158 195 242 307 365
#     4  12  21  35  58  73 115 148 205 253 291 369
#
# _framework density 18.173282
#
# number of rings (size 3 to 8) (size 9 to 14) (size 15 to 20)
#    0.828    0.552    3.448    1.655    9.655    1.103 
#    0.000    0.000    0.000    0.000    0.000    0.000 
#    0.000    8.828    1.103    0.000    0.000    0.000 
#
# Total GULP energy -718563.912923 kJ/mol
# GULP energy per Si atom -12389.032981 kJ/mol
# Density = 1.813192 g / cm^3
# Si number density = 18.173282 Si / 1000 Ang^3
#
#
#
# Elastic Constant Matrix: (Units=GPa)
#
#
# Indices 1 2 3 4 5 6 
#
# 1 122.0527 35.1189 51.0651 0.0000 0.0000 0.0000
# 2 35.1189 96.6859 37.0594 0.0000 0.0000 0.0000
# 3 51.0651 37.0594 91.3763 0.0000 0.0000 0.0000
# 4 0.0000 0.0000 0.0000 18.0755 0.0000 0.0000
# 5 0.0000 0.0000 0.0000 0.0000 90.3177 0.0000
# 6 0.0000 0.0000 0.0000 0.0000 0.0000 23.6788
#
#
#
# Elastic Compliance Matrix: (Units=1/GPa)
#
#
# Indices 1 2 3 4 5 6 
#
# 1 0.010992 -0.001940 -0.005356 0.000000 0.000000 0.000000
# 2 -0.001940 0.012589 -0.004022 0.000000 0.000000 0.000000
# 3 -0.005356 -0.004022 0.015568 0.000000 0.000000 0.000000
# 4 0.000000 0.000000 0.000000 0.055323 0.000000 0.000000
# 5 0.000000 0.000000 0.000000 0.000000 0.011072 0.000000
# 6 0.000000 0.000000 0.000000 0.000000 0.000000 0.042232
#
#
# Mechanical properties :
#
#
# Convention : Reuss Voigt Hill
#
# Bulk Modulus (GPa) = 60.55467 61.84463 61.19965
# Shear Modulus (GPa) = 28.42257 38.87249 33.64753
#
# Velocity S-wave (km/s) = 3.95900 4.62994 4.30755
# Velocity P-wave (km/s) = 7.36826 7.91746 7.64779
#
# Compressibility (1/GPa) = 0.01651400
#
# Stress axis : x y z
#
# Youngs Moduli (GPa) = 90.97279 79.43578 64.23357
#
# Poissons Ratio (x) = 0.15408 0.34406
# Poissons Ratio (y) = 0.17645 0.25833
# Poissons Ratio (z) = 0.48728 0.31946
#
# Static dielectric constant tensor:
#      x y z
#    x 3.763530 0.000000 0.000000 
#    y 0.000000 3.575430 0.000000 
#    z 0.000000 0.000000 2.986600 
# 
# 
# High freq. dielectric constant tensor:
#      x y z
#    x 1.734340 0.000000 0.000000 
#    y 0.000000 1.677700 0.000000 
#    z 0.000000 0.000000 1.657260 
# 
# From -- ./inp_files/38806.got.cif
#   From: 2010.06.25/outbox.cif.g09.slc.cpg/sg48_20_cif.got.tgz:38806.got - 2010.06.26 18:06:46.
