data_PCOD8201422
_publ_section_title
;
Structure prediction by ZEFSAII (Michael W. Deem and Ramdas Pophale) SiO2 
 PCOD8201422
Probable space group: P N N N
;
_chemical_formula_sum "Si O2"
_cell_formula_units_Z 56
_cell_length_a 9.464590
_cell_length_b 20.439905
_cell_length_c 14.074940
_cell_angle_alpha 90.000000
_cell_angle_beta 90.000000
_cell_angle_gamma 90.000000
_cell_volume 2722.872028
_symmetry_space_group_name_H-M "P N N N"
_symmetry_group_IT_number 48
_space_group.IT_coordinate_system_code '2'
_symmetry_cell_setting 'orthorhombic'
loop_
_space_group_symop_operation_xyz
x,y,z
1/2-x,1/2-y,z
x,1/2-y,1/2-z
1/2-x,y,1/2-z
-x,-y,-z
1/2+x,1/2+y,-z
-x,1/2+y,1/2+z
1/2+x,-y,1/2+z
loop_
_atom_site_type_symbol
_atom_site_label
_atom_site_fract_x
_atom_site_fract_y
_atom_site_fract_z
Si Si1 0.027210 0.402190 0.529389
Si Si2 0.234244 0.057622 0.130036
Si Si3 0.403390 0.219783 0.431668
Si Si4 0.679472 0.504338 0.154798
Si Si5 0.492774 0.141706 0.075580
Si Si6 0.505398 0.114338 0.281661
Si Si7 0.786365 0.058028 0.519339
O O1 0.093791 0.441987 0.439831
O O2 0.086888 0.327364 0.524326
O O3 0.068433 0.438827 0.626702
O O4 0.857318 0.400134 0.521793
O O5 0.332157 0.115867 0.089300
O O6 0.145490 0.072343 0.230300
O O7 0.303166 0.985651 0.116528
O O8 0.250000 0.250000 0.409058
O O9 0.500765 0.282467 0.452169
O O10 0.466044 0.178935 0.342206
O O11 0.750000 0.531580 0.250000
O O12 0.620448 0.431433 0.170612
O O13 0.789878 0.494131 0.068342
O O14 0.565897 0.133207 0.178766
O O15 0.577772 0.104299 0.992863
#
# Coordination Sequence:
#
# PCOD8201422 Si02
#       7
#     8   8   8   8   8   8   8
#     4  10  20  38  60  75 113 159 199 238 296 357
#     4  10  19  35  54  78 113 153 190 238 291 356
#     4  11  22  37  54  80 115 164 200 229 297 376
#     4  11  19  37  61  86 109 150 200 255 298 342
#     4  12  23  32  54  89 119 152 193 241 293 366
#     4  11  20  35  56  80 119 154 194 240 300 360
#     4  11  20  35  56  82 116 148 194 246 298 350
#
# _framework density 20.566519
#
# number of rings (size 3 to 8) (size 9 to 14) (size 15 to 20)
#    0.000    1.143    8.571    2.143    0.000    1.143 
#    0.000    0.000    0.000    0.429    0.000    0.000 
#    0.000    0.000    0.000    0.000    0.000    0.000 
#
# Total GULP energy -693760.502062 kJ/mol
# GULP energy per Si atom -12388.580394 kJ/mol
# Density = 2.051971 g / cm^3
# Si number density = 20.566519 Si / 1000 Ang^3
#
#
#
# Elastic Constant Matrix: (Units=GPa)
#
#
# Indices 1 2 3 4 5 6 
#
# 1 52.4440 23.6369 13.9376 0.0000 0.0000 0.0000
# 2 23.6369 151.4439 43.8410 0.0000 0.0000 0.0000
# 3 13.9376 43.8410 47.5109 0.0000 0.0000 0.0000
# 4 0.0000 0.0000 0.0000 28.1817 0.0000 0.0000
# 5 0.0000 0.0000 0.0000 0.0000 27.1200 0.0000
# 6 0.0000 0.0000 0.0000 0.0000 0.0000 32.3306
#
#
#
# Elastic Compliance Matrix: (Units=1/GPa)
#
#
# Indices 1 2 3 4 5 6 
#
# 1 0.021138 -0.002052 -0.004307 0.000000 0.000000 0.000000
# 2 -0.002052 0.009209 -0.007896 0.000000 0.000000 0.000000
# 3 -0.004307 -0.007896 0.029597 0.000000 0.000000 0.000000
# 4 0.000000 0.000000 0.000000 0.035484 0.000000 0.000000
# 5 0.000000 0.000000 0.000000 0.000000 0.036873 0.000000
# 6 0.000000 0.000000 0.000000 0.000000 0.000000 0.030930
#
#
# Mechanical properties :
#
#
# Convention : Reuss Voigt Hill
#
# Bulk Modulus (GPa) = 31.81300 46.02555 38.91927
# Shear Modulus (GPa) = 24.72560 28.85868 26.79214
#
# Velocity S-wave (km/s) = 3.47107 3.74998 3.61322
# Velocity P-wave (km/s) = 5.61840 6.41695 6.03091
#
# Compressibility (1/GPa) = 0.03143369
#
# Stress axis : x y z
#
# Youngs Moduli (GPa) = 47.30916 108.58790 33.78701
#
# Poissons Ratio (x) = 0.22285 0.14552
# Poissons Ratio (y) = 0.09709 0.26677
# Poissons Ratio (z) = 0.20376 0.85738
#
# Static dielectric constant tensor:
#      x y z
#    x 3.735970 0.000000 0.000000 
#    y 0.000000 3.883640 0.000000 
#    z 0.000000 0.000000 3.919150 
# 
# 
# High freq. dielectric constant tensor:
#      x y z
#    x 1.812140 0.000000 0.000000 
#    y 0.000000 1.791510 0.000000 
#    z 0.000000 0.000000 1.775410 
# 
# From -- ./inp_files/25603.got.cif
#   From: 2010.06.25/outbox.cif.g09.slc.cpg/sg48_13_cif.got.tgz:25603.got - 2010.06.26 18:06:46.
