data_PCOD8201668
_publ_section_title
;
Structure prediction by ZEFSAII (Michael W. Deem and Ramdas Pophale) SiO2 
 PCOD8201668
Probable space group: P N N N
;
_chemical_formula_sum "Si O2"
_cell_formula_units_Z 38
_cell_length_a 7.339068
_cell_length_b 13.160107
_cell_length_c 19.841404
_cell_angle_alpha 90.000000
_cell_angle_beta 90.000000
_cell_angle_gamma 90.000000
_cell_volume 1916.340738
_symmetry_space_group_name_H-M "P N N N"
_symmetry_group_IT_number 48
_space_group.IT_coordinate_system_code '2'
_symmetry_cell_setting 'orthorhombic'
loop_
_space_group_symop_operation_xyz
x,y,z
1/2-x,1/2-y,z
x,1/2-y,1/2-z
1/2-x,y,1/2-z
-x,-y,-z
1/2+x,1/2+y,-z
-x,1/2+y,1/2+z
1/2+x,-y,1/2+z
loop_
_atom_site_type_symbol
_atom_site_label
_atom_site_fract_x
_atom_site_fract_y
_atom_site_fract_z
Si Si1 0.713123 0.098633 0.359334
Si Si2 0.250000 0.750000 0.750000
Si Si3 0.250000 0.750000 0.523312
Si Si4 0.056575 0.569780 0.329621
Si Si5 0.957530 0.734383 0.088868
Si Si6 0.029261 0.957797 0.323681
O O1 0.637399 0.176365 0.301240
O O2 0.719596 0.150888 0.431601
O O3 0.577451 0.005239 0.368587
O O4 0.915301 0.060453 0.337887
O O5 0.427790 0.729306 0.479156
O O6 0.257689 0.522552 0.336347
O O7 0.994584 0.579733 0.252377
O O8 0.044983 0.680209 0.362948
O O9 0.750000 0.750000 0.067607
O O10 0.958502 0.628439 0.127112
#
# Coordination Sequence:
#
# PCOD8201668 Si02
#       6
#     8   2   4   8   8   8
#     4  11  23  43  69  90 131 175 213 268 314 383
#     4  10  20  44  66  94 130 154 226 256 320 366
#     4  11  28  45  59  94 137 182 208 264 315 386
#     4  11  22  40  69 102 127 165 214 275 324 376
#     4  12  24  42  64  97 136 169 215 263 326 387
#     4  11  22  40  69 102 127 165 214 275 324 376
#
# _framework density 19.829460000000001
#
# number of rings (size 3 to 8) (size 9 to 14) (size 15 to 20)
#    0.000    0.842    6.316    0.632    0.000    5.895 
#    0.000    4.211    0.000    0.000    0.000    0.000 
#    0.000    0.000    0.000    0.000    0.000    0.000 
#
# Total GULP energy -471264.206012 kJ/mol
# GULP energy per Si atom -12401.689632 kJ/mol
# Density = 1.978433 g / cm^3
# Si number density = 19.829460 Si / 1000 Ang^3
#
#
#
# Elastic Constant Matrix: (Units=GPa)
#
#
# Indices 1 2 3 4 5 6 
#
# 1 124.0430 28.4883 48.9370 0.0000 0.0000 0.0000
# 2 28.4883 84.3914 55.6692 0.0000 0.0000 0.0000
# 3 48.9370 55.6692 138.9290 0.0000 0.0000 0.0000
# 4 0.0000 0.0000 0.0000 57.4850 0.0000 0.0000
# 5 0.0000 0.0000 0.0000 0.0000 19.3900 0.0000
# 6 0.0000 0.0000 0.0000 0.0000 0.0000 18.4790
#
#
#
# Elastic Compliance Matrix: (Units=1/GPa)
#
#
# Indices 1 2 3 4 5 6 
#
# 1 0.009475 -0.001355 -0.002795 0.000000 0.000000 0.000000
# 2 -0.001355 0.016301 -0.006054 0.000000 0.000000 0.000000
# 3 -0.002795 -0.006054 0.010608 0.000000 0.000000 0.000000
# 4 0.000000 0.000000 0.000000 0.017396 0.000000 0.000000
# 5 0.000000 0.000000 0.000000 0.000000 0.051573 0.000000
# 6 0.000000 0.000000 0.000000 0.000000 0.000000 0.054115
#
#
# Mechanical properties :
#
#
# Convention : Reuss Voigt Hill
#
# Bulk Modulus (GPa) = 62.59328 68.17248 65.38288
# Shear Modulus (GPa) = 26.99743 33.35541 30.17642
#
# Velocity S-wave (km/s) = 3.69383 4.10581 3.90525
# Velocity P-wave (km/s) = 7.05881 7.54526 7.30608
#
# Compressibility (1/GPa) = 0.01597616
#
# Stress axis : x y z
#
# Youngs Moduli (GPa) = 105.53537 61.34649 94.26534
#
# Poissons Ratio (x) = 0.08313 0.26344
# Poissons Ratio (y) = 0.14302 0.57072
# Poissons Ratio (z) = 0.29494 0.37142
#
# Static dielectric constant tensor:
#      x y z
#    x 3.772300 0.000000 0.000000 
#    y 0.000000 3.733300 0.000000 
#    z 0.000000 0.000000 3.613930 
# 
# 
# High freq. dielectric constant tensor:
#      x y z
#    x 1.772930 0.000000 0.000000 
#    y 0.000000 1.779260 0.000000 
#    z 0.000000 0.000000 1.777470 
# 
# From -- ./inp_files/30039.got.cif
#   From: 2010.06.25/outbox.cif.g09.slc.cpg/sg48_16_cif.got.tgz:30039.got - 2010.06.26 18:06:46.
