data_PCOD8201442
_publ_section_title
;
Structure prediction by ZEFSAII (Michael W. Deem and Ramdas Pophale) SiO2 
 PCOD8201442
Probable space group: P N N N
;
_chemical_formula_sum "Si O2"
_cell_formula_units_Z 48
_cell_length_a 19.554390
_cell_length_b 16.049648
_cell_length_c 8.510566
_cell_angle_alpha 90.000000
_cell_angle_beta 90.000000
_cell_angle_gamma 90.000000
_cell_volume 2670.965194
_symmetry_space_group_name_H-M "P N N N"
_symmetry_group_IT_number 48
_space_group.IT_coordinate_system_code '2'
_symmetry_cell_setting 'orthorhombic'
loop_
_space_group_symop_operation_xyz
x,y,z
1/2-x,1/2-y,z
x,1/2-y,1/2-z
1/2-x,y,1/2-z
-x,-y,-z
1/2+x,1/2+y,-z
-x,1/2+y,1/2+z
1/2+x,-y,1/2+z
loop_
_atom_site_type_symbol
_atom_site_label
_atom_site_fract_x
_atom_site_fract_y
_atom_site_fract_z
Si Si1 0.361254 0.765842 0.074217
Si Si2 0.669222 0.404534 0.074253
Si Si3 0.994145 0.678232 0.151012
Si Si4 0.051046 0.971538 0.133976
Si Si5 0.676413 0.066090 0.077126
Si Si6 0.934396 0.550382 0.943380
O O1 0.335563 0.750000 0.250000
O O2 0.443590 0.773203 0.065628
O O3 0.331427 0.694360 0.960148
O O4 0.330563 0.853361 0.028693
O O5 0.742666 0.450111 0.073887
O O6 0.642858 0.417060 0.252110
O O7 0.622417 0.449378 0.946605
O O8 0.954324 0.750000 0.250000
O O9 0.022795 0.606907 0.267816
O O10 0.942777 0.642556 0.018042
O O11 0.064893 0.048761 0.253320
O O12 0.000000 0.000000 0.000000
O O13 0.636561 0.988424 0.003023
O O14 0.000000 0.500000 0.000000
#
# Coordination Sequence:
#
# PCOD8201442 Si02
#       6
#     8   8   8   8   8   8
#     4  11  19  34  50  76 114 155 186 223 277 339
#     4  11  22  34  51  82 114 149 194 224 282 343
#     4  10  19  37  55  80 111 149 192 234 292 334
#     4  11  21  35  56  81 107 148 190 240 281 338
#     4  11  22  35  52  77 116 157 186 232 275 335
#     4  10  19  36  56  74 108 150 190 235 280 328
#
# _framework density 17.971032000000001
#
# number of rings (size 3 to 8) (size 9 to 14) (size 15 to 20)
#    0.000    1.333    6.667    3.000    0.000    4.667 
#    0.000    0.833    0.000    0.000    0.000    9.333 
#    0.000    8.000    0.000    0.000    0.000    0.000 
#
# Total GULP energy -594922.460228 kJ/mol
# GULP energy per Si atom -12394.217921 kJ/mol
# Density = 1.793013 g / cm^3
# Si number density = 17.971032 Si / 1000 Ang^3
#
#
#
# Elastic Constant Matrix: (Units=GPa)
#
#
# Indices 1 2 3 4 5 6 
#
# 1 53.4270 36.4126 28.1113 0.0000 0.0000 0.0000
# 2 36.4126 69.3480 47.0601 0.0000 0.0000 0.0000
# 3 28.1113 47.0601 134.6693 0.0000 0.0000 0.0000
# 4 0.0000 0.0000 0.0000 35.8854 0.0000 0.0000
# 5 0.0000 0.0000 0.0000 0.0000 25.4034 0.0000
# 6 0.0000 0.0000 0.0000 0.0000 0.0000 32.9958
#
#
#
# Elastic Compliance Matrix: (Units=1/GPa)
#
#
# Indices 1 2 3 4 5 6 
#
# 1 0.029244 -0.014698 -0.000968 0.000000 0.000000 0.000000
# 2 -0.014698 0.026290 -0.006119 0.000000 0.000000 0.000000
# 3 -0.000968 -0.006119 0.009766 0.000000 0.000000 0.000000
# 4 0.000000 0.000000 0.000000 0.027866 0.000000 0.000000
# 5 0.000000 0.000000 0.000000 0.000000 0.039365 0.000000
# 6 0.000000 0.000000 0.000000 0.000000 0.000000 0.030307
#
#
# Mechanical properties :
#
#
# Convention : Reuss Voigt Hill
#
# Bulk Modulus (GPa) = 46.02064 53.40138 49.71101
# Shear Modulus (GPa) = 23.40262 28.58093 25.99178
#
# Velocity S-wave (km/s) = 3.61257 3.99229 3.80717
# Velocity P-wave (km/s) = 6.56237 7.14360 6.85914
#
# Compressibility (1/GPa) = 0.02172938
#
# Stress axis : x y z
#
# Youngs Moduli (GPa) = 34.19519 38.03747 102.39659
#
# Poissons Ratio (x) = 0.55908 0.09914
# Poissons Ratio (y) = 0.50260 0.62655
# Poissons Ratio (z) = 0.03311 0.23275
#
# Static dielectric constant tensor:
#      x y z
#    x 3.374990 0.000000 0.000000 
#    y 0.000000 3.509040 0.000000 
#    z 0.000000 0.000000 4.181830 
# 
# 
# High freq. dielectric constant tensor:
#      x y z
#    x 1.675480 0.000000 0.000000 
#    y 0.000000 1.667260 0.000000 
#    z 0.000000 0.000000 1.714960 
# 
# From -- ./inp_files/14316.got.cif
#   From: 2010.06.25/outbox.cif.g09.slc.cpg/sg48_8_cif.got.tgz:14316.got - 2010.06.26 18:06:46.
