data_PCOD8201813
_publ_section_title
;
Structure prediction by ZEFSAII (Michael W. Deem and Ramdas Pophale) SiO2 
 PCOD8201813
Probable space group: P N N N
;
_chemical_formula_sum "Si O2"
_cell_formula_units_Z 58
_cell_length_a 11.366263
_cell_length_b 9.562479
_cell_length_c 25.489479
_cell_angle_alpha 90.000000
_cell_angle_beta 90.000000
_cell_angle_gamma 90.000000
_cell_volume 2770.442583
_symmetry_space_group_name_H-M "P N N N"
_symmetry_group_IT_number 48
_space_group.IT_coordinate_system_code '2'
_symmetry_cell_setting 'orthorhombic'
loop_
_space_group_symop_operation_xyz
x,y,z
1/2-x,1/2-y,z
x,1/2-y,1/2-z
1/2-x,y,1/2-z
-x,-y,-z
1/2+x,1/2+y,-z
-x,1/2+y,1/2+z
1/2+x,-y,1/2+z
loop_
_atom_site_type_symbol
_atom_site_label
_atom_site_fract_x
_atom_site_fract_y
_atom_site_fract_z
Si Si1 0.758074 0.591684 0.530399
Si Si2 0.869436 0.831322 0.866036
Si Si3 0.257265 0.982502 0.822348
Si Si4 0.730694 0.091738 0.062328
Si Si5 0.969425 0.936741 0.590345
Si Si6 0.989538 0.864505 0.319324
Si Si7 0.500744 0.445514 0.795302
Si Si8 0.750000 0.250000 0.250000
O O1 0.750000 0.750000 0.510331
O O2 0.843529 0.579352 0.580977
O O3 0.800439 0.498321 0.481543
O O4 0.628391 0.541312 0.546586
O O5 0.750000 0.750000 0.847896
O O6 0.965568 0.714141 0.880656
O O7 0.919574 0.933336 0.821223
O O8 0.216278 0.938483 0.880505
O O9 0.320280 0.852655 0.790613
O O10 0.348254 0.110738 0.823084
O O11 0.137329 0.017587 0.792226
O O12 0.750000 0.250000 0.045699
O O13 0.594360 0.048420 0.062475
O O14 0.946588 0.055751 0.633737
O O15 0.042150 0.921987 0.264478
O O16 0.014965 0.700042 0.326613
#
# Coordination Sequence:
#
# PCOD8201813 Si02
#       8
#     8   8   8   8   8   8   8   2
#     4   9  21  42  57  76 110 151 192 250 294 340
#     4   9  21  41  61  81 111 153 205 249 289 349
#     4  11  22  35  58  91 125 162 192 233 293 359
#     4  11  21  33  56  89 113 141 194 239 288 356
#     4   9  20  39  59  80 110 151 197 241 292 352
#     4  10  22  35  57  90 123 153 193 241 302 367
#     4  11  21  37  58  86 125 158 189 243 305 358
#     4  12  20  36  58  88 130 164 194 236 278 352
#
# _framework density 20.935281
#
# number of rings (size 3 to 8) (size 9 to 14) (size 15 to 20)
#    0.000    2.207    2.069    1.655    1.931    4.966 
#    0.000   13.793    0.000    6.621    0.000    0.000 
#    0.000    0.000    0.000    0.000    0.000    0.000 
#
# Total GULP energy -718803.420869 kJ/mol
# GULP energy per Si atom -12393.162429 kJ/mol
# Density = 2.088763 g / cm^3
# Si number density = 20.935281 Si / 1000 Ang^3
#
#
#
# Elastic Constant Matrix: (Units=GPa)
#
#
# Indices 1 2 3 4 5 6 
#
# 1 32.3751 10.6110 10.7641 0.0000 0.0000 0.0000
# 2 10.6110 108.2120 58.3460 0.0000 0.0000 0.0000
# 3 10.7641 58.3460 104.9261 0.0000 0.0000 0.0000
# 4 0.0000 0.0000 0.0000 40.2800 0.0000 0.0000
# 5 0.0000 0.0000 0.0000 0.0000 19.8748 0.0000
# 6 0.0000 0.0000 0.0000 0.0000 0.0000 26.6608
#
#
#
# Elastic Compliance Matrix: (Units=1/GPa)
#
#
# Indices 1 2 3 4 5 6 
#
# 1 0.032270 -0.001970 -0.002215 0.000000 0.000000 0.000000
# 2 -0.001970 0.013319 -0.007204 0.000000 0.000000 0.000000
# 3 -0.002215 -0.007204 0.013764 0.000000 0.000000 0.000000
# 4 0.000000 0.000000 0.000000 0.024826 0.000000 0.000000
# 5 0.000000 0.000000 0.000000 0.000000 0.050315 0.000000
# 6 0.000000 0.000000 0.000000 0.000000 0.000000 0.037508
#
#
# Mechanical properties :
#
#
# Convention : Reuss Voigt Hill
#
# Bulk Modulus (GPa) = 27.34160 44.99504 36.16832
# Shear Modulus (GPa) = 24.15797 28.41593 26.28695
#
# Velocity S-wave (km/s) = 3.40065 3.68818 3.54733
# Velocity P-wave (km/s) = 5.33925 6.29889 5.83882
#
# Compressibility (1/GPa) = 0.03657431
#
# Stress axis : x y z
#
# Youngs Moduli (GPa) = 30.98844 75.08347 72.65536
#
# Poissons Ratio (x) = 0.14792 0.16093
# Poissons Ratio (y) = 0.06105 0.52340
# Poissons Ratio (z) = 0.06864 0.54089
#
# Static dielectric constant tensor:
#      x y z
#    x 3.429370 0.000000 0.000000 
#    y 0.000000 3.826180 0.000000 
#    z 0.000000 0.000000 3.786060 
# 
# 
# High freq. dielectric constant tensor:
#      x y z
#    x 1.787960 0.000000 0.000000 
#    y 0.000000 1.821880 0.000000 
#    z 0.000000 0.000000 1.827990 
# 
# From -- ./inp_files/37771.got.cif
#   From: 2010.06.25/outbox.cif.g09.slc.cpg/sg48_19_cif.got.tgz:37771.got - 2010.06.26 18:06:46.
