data_PCOD8201982
_publ_section_title
;
Structure prediction by ZEFSAII (Michael W. Deem and Ramdas Pophale) SiO2 
 PCOD8201982
Probable space group: P N N N
;
_chemical_formula_sum "Si O2"
_cell_formula_units_Z 58
_cell_length_a 5.346526
_cell_length_b 25.893144
_cell_length_c 18.067262
_cell_angle_alpha 90.000000
_cell_angle_beta 90.000000
_cell_angle_gamma 90.000000
_cell_volume 2501.202259
_symmetry_space_group_name_H-M "P N N N"
_symmetry_group_IT_number 48
_space_group.IT_coordinate_system_code '2'
_symmetry_cell_setting 'orthorhombic'
loop_
_space_group_symop_operation_xyz
x,y,z
1/2-x,1/2-y,z
x,1/2-y,1/2-z
1/2-x,y,1/2-z
-x,-y,-z
1/2+x,1/2+y,-z
-x,1/2+y,1/2+z
1/2+x,-y,1/2+z
loop_
_atom_site_type_symbol
_atom_site_label
_atom_site_fract_x
_atom_site_fract_y
_atom_site_fract_z
Si Si1 0.202069 0.874192 0.432608
Si Si2 0.155807 0.030853 0.324326
Si Si3 0.110979 0.424902 0.824025
Si Si4 0.454964 0.623774 0.596992
Si Si5 0.001854 0.279910 0.533133
Si Si6 0.486882 0.974228 0.422619
Si Si7 0.750000 0.750000 0.750000
Si Si8 0.958398 0.818293 0.872098
O O1 0.047322 0.864524 0.508684
O O2 0.447725 0.836606 0.430390
O O3 0.267105 0.933885 0.435161
O O4 0.038347 0.874134 0.356327
O O5 0.250000 0.060344 0.250000
O O6 0.964047 0.063996 0.375529
O O7 0.410304 0.020306 0.368395
O O8 0.044337 0.975351 0.299612
O O9 0.250000 0.405075 0.750000
O O10 0.277687 0.442965 0.893147
O O11 0.712384 0.646641 0.627200
O O12 0.209805 0.648015 0.634610
O O13 0.250000 0.250000 0.564946
O O14 0.030242 0.282766 0.444965
O O15 0.750000 0.250000 0.554740
O O16 0.500000 0.000000 0.500000
O O17 0.940349 0.782503 0.800497
#
# Coordination Sequence:
#
# PCOD8201982 Si02
#       8
#     8   8   8   8   8   8   2   8
#     4  10  25  40  70 103 140 183 245 299 368 444
#     4  11  24  42  61  96 142 196 243 296 360 437
#     4  11  23  42  68 101 145 195 234 298 367 451
#     4  11  26  45  67 103 140 187 251 303 358 422
#     4  11  23  44  71 102 137 179 234 311 367 430
#     4  11  23  40  69  99 140 193 237 300 353 439
#     4  12  28  50  68  98 140 206 250 306 384 442
#     4  11  27  45  68  96 139 186 245 306 362 435
#
# _framework density 23.188846999999999
#
# number of rings (size 3 to 8) (size 9 to 14) (size 15 to 20)
#    0.000    1.103    2.069    3.310   12.552    3.310 
#    0.000    0.000    0.000    0.000    0.000    2.897 
#    0.000    0.000    0.000    0.000    0.000    0.000 
#
# Total GULP energy -718639.511455 kJ/mol
# GULP energy per Si atom -12390.336404 kJ/mol
# Density = 2.313607 g / cm^3
# Si number density = 23.188847 Si / 1000 Ang^3
#
#
#
# Elastic Constant Matrix: (Units=GPa)
#
#
# Indices 1 2 3 4 5 6 
#
# 1 146.1974 48.4570 52.5807 0.0000 0.0000 0.0000
# 2 48.4570 94.0948 48.1134 0.0000 0.0000 0.0000
# 3 52.5807 48.1134 139.2083 0.0000 0.0000 0.0000
# 4 0.0000 0.0000 0.0000 34.8471 0.0000 0.0000
# 5 0.0000 0.0000 0.0000 0.0000 33.4523 0.0000
# 6 0.0000 0.0000 0.0000 0.0000 0.0000 38.8496
#
#
#
# Elastic Compliance Matrix: (Units=1/GPa)
#
#
# Indices 1 2 3 4 5 6 
#
# 1 0.008734 -0.003414 -0.002119 0.000000 0.000000 0.000000
# 2 -0.003414 0.014244 -0.003633 0.000000 0.000000 0.000000
# 3 -0.002119 -0.003633 0.009240 0.000000 0.000000 0.000000
# 4 0.000000 0.000000 0.000000 0.028697 0.000000 0.000000
# 5 0.000000 0.000000 0.000000 0.000000 0.029893 0.000000
# 6 0.000000 0.000000 0.000000 0.000000 0.000000 0.025740
#
#
# Mechanical properties :
#
#
# Convention : Reuss Voigt Hill
#
# Bulk Modulus (GPa) = 72.02447 75.31140 73.66794
# Shear Modulus (GPa) = 35.84017 36.78643 36.31330
#
# Velocity S-wave (km/s) = 3.93565 3.98727 3.96154
# Velocity P-wave (km/s) = 7.19582 7.33114 7.26380
#
# Compressibility (1/GPa) = 0.01388417
#
# Stress axis : x y z
#
# Youngs Moduli (GPa) = 114.49799 70.20652 108.23074
#
# Poissons Ratio (x) = 0.23971 0.22932
# Poissons Ratio (y) = 0.39093 0.39323
# Poissons Ratio (z) = 0.24260 0.25508
#
# Static dielectric constant tensor:
#      x y z
#    x 4.234910 0.000000 0.000000 
#    y 0.000000 4.313530 0.000000 
#    z 0.000000 0.000000 4.007510 
# 
# 
# High freq. dielectric constant tensor:
#      x y z
#    x 1.926740 0.000000 0.000000 
#    y 0.000000 1.907310 0.000000 
#    z 0.000000 0.000000 1.903110 
# 
# From -- ./inp_files/29622.got.cif
#   From: 2010.06.25/outbox.cif.g09.slc.cpg/sg48_15_cif.got.tgz:29622.got - 2010.06.26 18:06:46.
