data_PCOD8201180
_publ_section_title
;
Structure prediction by ZEFSAII (Michael W. Deem and Ramdas Pophale) SiO2 
 PCOD8201180
Probable space group: P M M M
;
_chemical_formula_sum "Si O2"
_cell_formula_units_Z 48
_cell_length_a 9.079087
_cell_length_b 33.149816
_cell_length_c 7.584837
_cell_angle_alpha 90.000000
_cell_angle_beta 90.000000
_cell_angle_gamma 90.000000
_cell_volume 2282.808874
_symmetry_space_group_name_H-M "P M M M"
_symmetry_group_IT_number 47
_symmetry_cell_setting 'orthorhombic'
loop_
_space_group_symop_operation_xyz
x,y,z
-x,-y,z
x,-y,-z
-x,y,-z
-x,-y,-z
x,y,-z
-x,y,z
x,-y,z
loop_
_atom_site_type_symbol
_atom_site_label
_atom_site_fract_x
_atom_site_fract_y
_atom_site_fract_z
Si Si1 0.666334 0.657533 0.289928
Si Si2 0.833616 0.421218 0.289891
Si Si3 0.173032 0.104977 0.298385
Si Si4 0.666388 0.500000 0.710099
Si Si5 0.833709 0.263661 0.710261
Si Si6 0.334482 0.185517 0.709363
Si Si7 0.174444 0.955189 0.000000
O O1 0.666063 0.657448 0.500000
O O2 0.500000 0.657335 0.217002
O O3 0.750498 0.618244 0.217147
O O4 0.748868 0.697109 0.217636
O O5 0.833879 0.421207 0.500000
O O6 0.749864 0.460588 0.217273
O O7 0.000000 0.421313 0.217074
O O8 0.215521 0.094500 0.500000
O O9 0.254033 0.144897 0.228801
O O10 0.226320 0.068060 0.176211
O O11 0.000000 0.113038 0.279611
O O12 0.500000 0.500000 0.782942
O O13 0.666084 0.500000 0.500000
O O14 0.833424 0.263350 0.500000
O O15 0.752630 0.224013 0.785487
O O16 0.000000 0.264347 0.782808
O O17 0.336058 0.187678 0.500000
O O18 0.500000 0.185868 0.785150
O O19 0.000000 0.958533 0.000000
O O20 0.244802 0.000000 0.000000
#
# Coordination Sequence:
#
# PCOD8201180 Si02
#       7
#     8   8   8   4   8   8   4
#     4   9  15  21  28  39  57  81 109 144 191 248
#     4   9  15  21  27  34  45  64  94 135 186 245
#     4   9  17  30  49  72  98 129 164 202 245 292
#     4   9  15  21  27  33  41  57  87 131 185 246
#     4   9  15  22  33  50  72  97 126 161 203 255
#     4   9  16  26  41  61  85 113 145 181 222 270
#     4   9  18  32  51  77 105 131 165 209 251 292
#
# _framework density 21.026729
#
# number of rings (size 3 to 8) (size 9 to 14) (size 15 to 20)
#    0.000    3.000    0.000    2.250    0.000    9.333 
#    0.000    2.083    0.000    1.000    0.000    2.333 
#    0.000    0.000    0.000    0.000    0.000    0.000 
#
# Total GULP energy -595137.240154 kJ/mol
# GULP energy per Si atom -12398.692503 kJ/mol
# Density = 2.097887 g / cm^3
# Si number density = 21.026729 Si / 1000 Ang^3
#
#
#
# Elastic Constant Matrix: (Units=GPa)
#
#
# Indices 1 2 3 4 5 6 
#
# 1 174.7744 107.6541 16.3679 0.0000 0.0000 0.0000
# 2 107.6541 239.4046 34.1947 0.0000 0.0000 0.0000
# 3 16.3679 34.1947 41.1075 0.0000 0.0000 0.0000
# 4 0.0000 0.0000 0.0000 -13.3084 0.0000 0.0000
# 5 0.0000 0.0000 0.0000 0.0000 -2.5524 0.0000
# 6 0.0000 0.0000 0.0000 0.0000 0.0000 24.9808
#
#
#
# Elastic Compliance Matrix: (Units=1/GPa)
#
#
# Indices 1 2 3 4 5 6 
#
# 1 0.007915 -0.003528 -0.000217 0.000000 0.000000 0.000000
# 2 -0.003528 0.006313 -0.003847 0.000000 0.000000 0.000000
# 3 -0.000217 -0.003847 0.027612 0.000000 0.000000 0.000000
# 4 0.000000 0.000000 0.000000 -0.075141 0.000000 0.000000
# 5 0.000000 0.000000 0.000000 0.000000 -0.391783 0.000000
# 6 0.000000 0.000000 0.000000 0.000000 0.000000 0.040031
#
#
# Mechanical properties :
#
#
# Convention : Reuss Voigt Hill
#
# Bulk Modulus (GPa) = 37.51263 85.74667 61.62965
# Shear Modulus (GPa) = -13.85105 21.62865 3.88880
#
# Velocity S-wave (km/s) = -2.56937 3.21070 1.36142
# Velocity P-wave (km/s) = 3.01280 7.39007 5.64314
#
# Compressibility (1/GPa) = 0.02665769
#
# Stress axis : x y z
#
# Youngs Moduli (GPa) = 126.33794 158.40213 36.21561
#
# Poissons Ratio (x) = 0.55890 0.00785
# Poissons Ratio (y) = 0.44576 0.13930
# Poissons Ratio (z) = 0.02737 0.60930
#
# Static dielectric constant tensor:
#      x y z
#    x 3.882670 0.000000 0.000000 
#    y 0.000000 4.027100 0.000000 
#    z 0.000000 0.000000 3.153970 
# 
# 
# High freq. dielectric constant tensor:
#      x y z
#    x 1.821300 0.000000 0.000000 
#    y 0.000000 1.830080 0.000000 
#    z 0.000000 0.000000 1.777530 
# 
# From -- ./inp_files/2749.got.cif
#   From: 2010.03.12/outbox.cif.g09.slc.cpg/sg47_2_cif.got.tgz:2749.got - 2010.04.14 03:12:58.
