data_PCOD8201593
_publ_section_title
;
Structure prediction by ZEFSAII (Michael W. Deem and Ramdas Pophale) SiO2 
 PCOD8201593
Probable space group: P N N N
;
_chemical_formula_sum "Si O2"
_cell_formula_units_Z 64
_cell_length_a 29.617920
_cell_length_b 11.818902
_cell_length_c 8.495003
_cell_angle_alpha 90.000000
_cell_angle_beta 90.000000
_cell_angle_gamma 90.000000
_cell_volume 2973.686792
_symmetry_space_group_name_H-M "P N N N"
_symmetry_group_IT_number 48
_space_group.IT_coordinate_system_code '2'
_symmetry_cell_setting 'orthorhombic'
loop_
_space_group_symop_operation_xyz
x,y,z
1/2-x,1/2-y,z
x,1/2-y,1/2-z
1/2-x,y,1/2-z
-x,-y,-z
1/2+x,1/2+y,-z
-x,1/2+y,1/2+z
1/2+x,-y,1/2+z
loop_
_atom_site_type_symbol
_atom_site_label
_atom_site_fract_x
_atom_site_fract_y
_atom_site_fract_z
Si Si1 0.140265 0.595790 0.910900
Si Si2 0.458958 0.145400 0.086654
Si Si3 0.932288 0.839533 0.110260
Si Si4 0.837313 0.665198 0.522838
Si Si5 0.704991 0.016245 0.349937
Si Si6 0.698978 0.279372 0.933071
Si Si7 0.044015 0.963402 0.685276
Si Si8 0.641240 0.895543 0.858513
O O1 0.163747 0.536577 0.765393
O O2 0.088373 0.611127 0.856534
O O3 0.163251 0.714394 0.955492
O O4 0.146064 0.518050 0.065534
O O5 0.501577 0.121962 0.200773
O O6 0.411280 0.134234 0.176940
O O7 0.462789 0.273623 0.019307
O O8 0.461636 0.053523 0.951875
O O9 0.923957 0.750000 0.250000
O O10 0.954714 0.959041 0.158409
O O11 0.884464 0.878281 0.044338
O O12 0.797390 0.613285 0.413822
O O13 0.831446 0.612553 0.697111
O O14 0.836894 0.801913 0.523464
O O15 0.750000 0.040119 0.250000
O O16 0.697197 0.090932 0.508972
O O17 0.750000 0.250000 0.974541
O O18 0.688027 0.250000 0.750000
#
# Coordination Sequence:
#
# PCOD8201593 Si02
#       8
#     8   8   8   8   8   8   8   8
#     4  11  21  38  65  90 124 158 210 255 309 367
#     4   8  16  30  54  82 122 160 204 247 309 370
#     4   9  16  30  55  82 113 160 208 246 304 374
#     4  10  20  37  62  88 123 164 205 247 311 376
#     4  12  24  40  65  94 121 158 208 261 308 373
#     4  11  24  43  66  87 119 163 208 252 311 375
#     4   9  16  31  54  88 115 158 202 262 303 359
#     4   9  20  38  62  90 126 168 204 249 308 383
#
# _framework density 21.522105
#
# number of rings (size 3 to 8) (size 9 to 14) (size 15 to 20)
#    0.000    2.125    2.500    1.875    0.000    0.000 
#    0.000    7.500   11.000    1.500    0.000    0.000 
#    0.000    0.000    0.000    0.000    0.000    0.000 
#
# Total GULP energy -792922.619574 kJ/mol
# GULP energy per Si atom -12389.415931 kJ/mol
# Density = 2.147312 g / cm^3
# Si number density = 21.522105 Si / 1000 Ang^3
#
#
#
# Elastic Constant Matrix: (Units=GPa)
#
#
# Indices 1 2 3 4 5 6 
#
# 1 74.5705 44.6829 23.1699 0.0000 0.0000 0.0000
# 2 44.6829 83.0573 22.4991 0.0000 0.0000 0.0000
# 3 23.1699 22.4991 54.0908 0.0000 0.0000 0.0000
# 4 0.0000 0.0000 0.0000 36.5193 0.0000 0.0000
# 5 0.0000 0.0000 0.0000 0.0000 13.1354 0.0000
# 6 0.0000 0.0000 0.0000 0.0000 0.0000 24.1238
#
#
#
# Elastic Compliance Matrix: (Units=1/GPa)
#
#
# Indices 1 2 3 4 5 6 
#
# 1 0.020842 -0.009911 -0.004805 0.000000 0.000000 0.000000
# 2 -0.009911 0.018281 -0.003359 0.000000 0.000000 0.000000
# 3 -0.004805 -0.003359 0.021943 0.000000 0.000000 0.000000
# 4 0.000000 0.000000 0.000000 0.027383 0.000000 0.000000
# 5 0.000000 0.000000 0.000000 0.000000 0.076130 0.000000
# 6 0.000000 0.000000 0.000000 0.000000 0.000000 0.041453
#
#
# Mechanical properties :
#
#
# Convention : Reuss Voigt Hill
#
# Bulk Modulus (GPa) = 40.13420 43.60248 41.86834
# Shear Modulus (GPa) = 19.96113 22.84682 21.40397
#
# Velocity S-wave (km/s) = 3.04874 3.26168 3.15701
# Velocity P-wave (km/s) = 5.57508 5.87266 5.72580
#
# Compressibility (1/GPa) = 0.02491640
#
# Stress axis : x y z
#
# Youngs Moduli (GPa) = 47.98088 54.70025 45.57284
#
# Poissons Ratio (x) = 0.54211 0.21899
# Poissons Ratio (y) = 0.47552 0.15308
# Poissons Ratio (z) = 0.23056 0.18373
#
# Static dielectric constant tensor:
#      x y z
#    x 3.945520 0.000000 0.000000 
#    y 0.000000 4.074430 0.000000 
#    z 0.000000 0.000000 3.948370 
# 
# 
# High freq. dielectric constant tensor:
#      x y z
#    x 1.825910 0.000000 0.000000 
#    y 0.000000 1.840240 0.000000 
#    z 0.000000 0.000000 1.847930 
# 
# From -- ./inp_files/16953.got.cif
#   From: 2010.06.25/outbox.cif.g09.slc.cpg/sg48_9_cif.got.tgz:16953.got - 2010.06.26 18:06:46.
