data_PCOD8201379
_publ_section_title
;
Structure prediction by ZEFSAII (Michael W. Deem and Ramdas Pophale) SiO2 
 PCOD8201379
Probable space group: P N N N
;
_chemical_formula_sum "Si O2"
_cell_formula_units_Z 64
_cell_length_a 7.685269
_cell_length_b 18.325709
_cell_length_c 24.060153
_cell_angle_alpha 90.000000
_cell_angle_beta 90.000000
_cell_angle_gamma 90.000000
_cell_volume 3388.583907
_symmetry_space_group_name_H-M "P N N N"
_symmetry_group_IT_number 48
_space_group.IT_coordinate_system_code '2'
_symmetry_cell_setting 'orthorhombic'
loop_
_space_group_symop_operation_xyz
x,y,z
1/2-x,1/2-y,z
x,1/2-y,1/2-z
1/2-x,y,1/2-z
-x,-y,-z
1/2+x,1/2+y,-z
-x,1/2+y,1/2+z
1/2+x,-y,1/2+z
loop_
_atom_site_type_symbol
_atom_site_label
_atom_site_fract_x
_atom_site_fract_y
_atom_site_fract_z
Si Si1 0.942317 0.410486 0.110643
Si Si2 0.250000 0.093042 0.311820
Si Si3 0.250000 0.919963 0.311827
Si Si4 0.049021 0.421045 0.606802
Si Si5 0.049021 0.421045 0.893198
Si Si6 0.547771 0.666111 0.502292
Si Si7 0.047771 0.166111 0.002292
Si Si8 0.942317 0.089514 0.110643
O O1 0.984910 0.493887 0.094697
O O2 0.750000 0.404768 0.137284
O O3 0.078846 0.379578 0.155512
O O4 0.943402 0.363157 0.054944
O O5 0.250000 0.127588 0.250000
O O6 0.421154 0.120422 0.344488
O O7 0.250000 0.006601 0.307362
O O8 0.250000 0.885561 0.250000
O O9 0.425068 0.893782 0.343250
O O10 0.074932 0.893782 0.343250
O O11 0.250000 0.404947 0.622774
O O12 0.990872 0.378115 0.552026
O O13 0.015090 0.506113 0.594697
O O14 0.990872 0.378115 0.947974
O O15 0.750000 0.654490 0.514811
O O16 0.499909 0.750000 0.492103
O O17 0.943402 0.136843 0.054944
#
# Coordination Sequence:
#
# PCOD8201379 Si02
#       8
#     8   8   8   8   8   8   8   8
#     4  10  19  32  53  78 104 136 171 211 259 308
#     4   9  18  34  53  77 109 137 170 215 256 305
#     4   9  18  32  53  79 105 137 174 213 258 305
#     4   9  19  33  51  77 105 136 172 211 256 308
#     4   9  19  33  51  77 105 136 172 211 256 308
#     4  10  20  34  52  75 106 139 172 213 260 309
#     4  10  20  34  52  75 106 139 172 213 260 309
#     4  10  19  32  53  78 104 136 171 211 259 308
#
# _framework density 18.886945000000001
#
# number of rings (size 3 to 8) (size 9 to 14) (size 15 to 20)
#    0.000    2.500    1.250    0.750    1.750    1.500 
#    0.000    5.000    0.000    3.000    0.000    5.250 
#    0.000    0.000    0.000    0.000    0.000    0.000 
#
# Total GULP energy -793635.828240 kJ/mol
# GULP energy per Si atom -12400.559816 kJ/mol
# Density = 1.884396 g / cm^3
# Si number density = 18.886945 Si / 1000 Ang^3
#
#
#
# Elastic Constant Matrix: (Units=GPa)
#
#
# Indices 1 2 3 4 5 6 
#
# 1 110.9131 14.9339 63.8752 0.0000 0.0000 0.0000
# 2 14.9339 33.4367 17.1569 0.0000 0.0000 0.0000
# 3 63.8752 17.1569 139.5240 0.0000 0.0000 0.0000
# 4 0.0000 0.0000 0.0000 0.2996 0.0000 0.0000
# 5 0.0000 0.0000 0.0000 0.0000 30.6224 0.0000
# 6 0.0000 0.0000 0.0000 0.0000 0.0000 14.4802
#
#
#
# Elastic Compliance Matrix: (Units=1/GPa)
#
#
# Indices 1 2 3 4 5 6 
#
# 1 0.012489 -0.002822 -0.005371 0.000000 0.000000 0.000000
# 2 -0.002822 0.032559 -0.002712 0.000000 0.000000 0.000000
# 3 -0.005371 -0.002712 0.009959 0.000000 0.000000 0.000000
# 4 0.000000 0.000000 0.000000 3.337516 0.000000 0.000000
# 5 0.000000 0.000000 0.000000 0.000000 0.032656 0.000000
# 6 0.000000 0.000000 0.000000 0.000000 0.000000 0.069060
#
#
# Mechanical properties :
#
#
# Convention : Reuss Voigt Hill
#
# Bulk Modulus (GPa) = 30.12178 52.86732 41.49455
# Shear Modulus (GPa) = 1.41759 21.60763 11.51261
#
# Velocity S-wave (km/s) = 0.86729 3.38605 2.47159
# Velocity P-wave (km/s) = 4.12141 6.58326 5.49206
#
# Compressibility (1/GPa) = 0.03319857
#
# Stress axis : x y z
#
# Youngs Moduli (GPa) = 80.07071 30.71336 100.40831
#
# Poissons Ratio (x) = 0.08668 0.53924
# Poissons Ratio (y) = 0.22598 0.27227
# Poissons Ratio (z) = 0.43002 0.08328
#
# Static dielectric constant tensor:
#      x y z
#    x 3.575220 0.000000 0.000000 
#    y 0.000000 3.137460 0.000000 
#    z 0.000000 0.000000 3.537510 
# 
# 
# High freq. dielectric constant tensor:
#      x y z
#    x 1.746380 0.000000 0.000000 
#    y 0.000000 1.697640 0.000000 
#    z 0.000000 0.000000 1.725500 
# 
# From -- ./inp_files/33779.got.cif
#   From: 2010.06.25/outbox.cif.g09.slc.cpg/sg48_17_cif.got.tgz:33779.got - 2010.06.26 18:06:46.
