data_PCOD8201250
_publ_section_title
;
Structure prediction by ZEFSAII (Michael W. Deem and Ramdas Pophale) SiO2 
 PCOD8201250
Probable space group: P N N N
;
_chemical_formula_sum "Si O2"
_cell_formula_units_Z 40
_cell_length_a 19.866114
_cell_length_b 23.434250
_cell_length_c 5.006221
_cell_angle_alpha 90.000000
_cell_angle_beta 90.000000
_cell_angle_gamma 90.000000
_cell_volume 2330.633581
_symmetry_space_group_name_H-M "P N N N"
_symmetry_group_IT_number 48
_space_group.IT_coordinate_system_code '2'
_symmetry_cell_setting 'orthorhombic'
loop_
_space_group_symop_operation_xyz
x,y,z
1/2-x,1/2-y,z
x,1/2-y,1/2-z
1/2-x,y,1/2-z
-x,-y,-z
1/2+x,1/2+y,-z
-x,1/2+y,1/2+z
1/2+x,-y,1/2+z
loop_
_atom_site_type_symbol
_atom_site_label
_atom_site_fract_x
_atom_site_fract_y
_atom_site_fract_z
Si Si1 0.432043 0.711785 0.499102
Si Si2 0.557651 0.954894 0.428246
Si Si3 0.629211 0.058880 0.298854
Si Si4 0.824192 0.379119 0.824866
Si Si5 0.488969 0.105387 0.097196
O O1 0.410942 0.750000 0.750000
O O2 0.366626 0.674800 0.423762
O O3 0.496535 0.672990 0.577740
O O4 0.454073 0.750000 0.250000
O O5 0.566104 0.910961 0.676279
O O6 0.500000 0.000000 0.500000
O O7 0.626191 0.991037 0.368619
O O8 0.538025 0.916328 0.181578
O O9 0.639497 0.094168 0.568509
O O10 0.558716 0.074780 0.163696
O O11 0.683385 0.074381 0.067285
O O12 0.750000 0.357869 0.750000
#
# Coordination Sequence:
#
# PCOD8201250 Si02
#       5
#     8   8   8   8   8
#     4  11  21  34  47  61  86 122 164 203 231 257
#     4  10  16  27  47  69  87 105 133 181 238 290
#     4  10  18  31  48  67  87 110 144 190 239 284
#     4  11  22  35  47  63  88 122 164 205 233 258
#     4  10  18  29  45  66  87 109 143 188 233 278
#
# _framework density 17.162714999999999
#
# number of rings (size 3 to 8) (size 9 to 14) (size 15 to 20)
#    0.000    1.600    0.000   12.600    0.000    0.400 
#    0.000    3.000    0.000    0.000    0.000    0.000 
#    0.000    0.000    0.000    0.000    0.000  210.000 
#
# Total GULP energy -495750.314003 kJ/mol
# GULP energy per Si atom -12393.757850 kJ/mol
# Density = 1.712365 g / cm^3
# Si number density = 17.162715 Si / 1000 Ang^3
#
#
#
# Elastic Constant Matrix: (Units=GPa)
#
#
# Indices 1 2 3 4 5 6 
#
# 1 16.3464 37.6626 20.8465 0.0000 0.0000 0.0000
# 2 37.6626 103.1071 52.3915 0.0000 0.0000 0.0000
# 3 20.8465 52.3915 137.5063 0.0000 0.0000 0.0000
# 4 0.0000 0.0000 0.0000 45.5109 0.0000 0.0000
# 5 0.0000 0.0000 0.0000 0.0000 12.7283 0.0000
# 6 0.0000 0.0000 0.0000 0.0000 0.0000 -2.9047
#
#
#
# Elastic Compliance Matrix: (Units=1/GPa)
#
#
# Indices 1 2 3 4 5 6 
#
# 1 0.390194 -0.139473 -0.006014 0.000000 0.000000 0.000000
# 2 -0.139473 0.061881 -0.002433 0.000000 0.000000 0.000000
# 3 -0.006014 -0.002433 0.009111 0.000000 0.000000 0.000000
# 4 0.000000 0.000000 0.000000 0.021973 0.000000 0.000000
# 5 0.000000 0.000000 0.000000 0.000000 0.078565 0.000000
# 6 0.000000 0.000000 0.000000 0.000000 0.000000 -0.344273
#
#
# Mechanical properties :
#
#
# Convention : Reuss Voigt Hill
#
# Bulk Modulus (GPa) = 6.04790 53.19565 29.62177
# Shear Modulus (GPa) = 8.79653 20.80421 14.80037
#
# Velocity S-wave (km/s) = 2.26639 3.48541 2.93978
# Velocity P-wave (km/s) = 3.22183 6.87456 5.36842
#
# Compressibility (1/GPa) = 0.16534676
#
# Stress axis : x y z
#
# Youngs Moduli (GPa) = 2.56283 16.16008 109.75664
#
# Poissons Ratio (x) = 2.25389 0.66009
# Poissons Ratio (y) = 0.35744 0.26701
# Poissons Ratio (z) = 0.01541 0.03931
#
# Static dielectric constant tensor:
#      x y z
#    x 3.150430 0.000000 0.000000 
#    y 0.000000 4.084560 0.000000 
#    z 0.000000 0.000000 4.050560 
# 
# 
# High freq. dielectric constant tensor:
#      x y z
#    x 1.596230 0.000000 0.000000 
#    y 0.000000 1.652330 0.000000 
#    z 0.000000 0.000000 1.700040 
# 
# From -- ./inp_files/4568.got.cif
#   From: 2010.06.25/outbox.cif.g09.slc.cpg/sg48_3_cif.got.tgz:4568.got - 2010.06.26 18:06:46.
