data_PCOD8201425
_publ_section_title
;
Structure prediction by ZEFSAII (Michael W. Deem and Ramdas Pophale) SiO2 
 PCOD8201425
Probable space group: P N N N
;
_chemical_formula_sum "Si O2"
_cell_formula_units_Z 64
_cell_length_a 23.642814
_cell_length_b 9.265524
_cell_length_c 15.745456
_cell_angle_alpha 90.000000
_cell_angle_beta 90.000000
_cell_angle_gamma 90.000000
_cell_volume 3449.247781
_symmetry_space_group_name_H-M "P N N N"
_symmetry_group_IT_number 48
_space_group.IT_coordinate_system_code '2'
_symmetry_cell_setting 'orthorhombic'
loop_
_space_group_symop_operation_xyz
x,y,z
1/2-x,1/2-y,z
x,1/2-y,1/2-z
1/2-x,y,1/2-z
-x,-y,-z
1/2+x,1/2+y,-z
-x,1/2+y,1/2+z
1/2+x,-y,1/2+z
loop_
_atom_site_type_symbol
_atom_site_label
_atom_site_fract_x
_atom_site_fract_y
_atom_site_fract_z
Si Si1 0.973421 0.585696 0.246420
Si Si2 0.803566 0.903593 0.793012
Si Si3 0.741300 0.907003 0.524440
Si Si4 0.351332 0.917942 0.040476
Si Si5 0.305941 0.827921 0.567302
Si Si6 0.545423 0.057949 0.068467
Si Si7 0.077990 0.671765 0.660963
Si Si8 0.896169 0.097335 0.724034
O O1 0.950936 0.750000 0.250000
O O2 0.957495 0.531063 0.153959
O O3 0.947474 0.489066 0.323747
O O4 0.040490 0.579773 0.256654
O O5 0.806867 0.750000 0.750000
O O6 0.750000 0.987908 0.750000
O O7 0.797706 0.887337 0.893382
O O8 0.862248 0.978829 0.775109
O O9 0.750000 0.750000 0.481560
O O10 0.801442 0.969069 0.554168
O O11 0.710003 0.009488 0.457830
O O12 0.390729 0.914495 0.123042
O O13 0.325289 0.761195 0.016702
O O14 0.391679 0.972628 0.965375
O O15 0.250000 0.750000 0.606888
O O16 0.356264 0.838402 0.634987
O O17 0.542027 0.231594 0.091766
O O18 0.500000 0.000000 0.000000
O O19 0.074211 0.750000 0.750000
O O20 0.870340 0.250000 0.750000
#
# Coordination Sequence:
#
# PCOD8201425 Si02
#       8
#     8   8   8   8   8   8   8   8
#     4  10  22  39  58  84 118 146 190 238 283 333
#     4  11  20  34  49  73 112 152 187 228 273 331
#     4  11  20  35  51  80 114 146 185 231 279 331
#     4  10  19  35  55  79 106 146 187 227 277 332
#     4   9  20  35  58  82 110 141 185 234 283 340
#     4  10  19  37  61  80 109 147 187 229 277 334
#     4   9  20  39  61  84 109 148 188 230 285 346
#     4  11  21  33  53  77 109 149 189 230 273 327
#
# _framework density 18.554770999999999
#
# number of rings (size 3 to 8) (size 9 to 14) (size 15 to 20)
#    0.000    1.875    3.750    0.750    0.000    3.000 
#    2.250    0.625    0.000    0.000    0.000    3.500 
#    0.000    0.000    0.000    0.000    0.000    0.000 
#
# Total GULP energy -793287.881061 kJ/mol
# GULP energy per Si atom -12395.123142 kJ/mol
# Density = 1.851254 g / cm^3
# Si number density = 18.554771 Si / 1000 Ang^3
#
#
#
# Elastic Constant Matrix: (Units=GPa)
#
#
# Indices 1 2 3 4 5 6 
#
# 1 88.8861 50.1092 30.8938 0.0000 0.0000 0.0000
# 2 50.1092 130.0153 39.9985 0.0000 0.0000 0.0000
# 3 30.8938 39.9985 60.6572 0.0000 0.0000 0.0000
# 4 0.0000 0.0000 0.0000 6.1760 0.0000 0.0000
# 5 0.0000 0.0000 0.0000 0.0000 20.2957 0.0000
# 6 0.0000 0.0000 0.0000 0.0000 0.0000 39.0217
#
#
#
# Elastic Compliance Matrix: (Units=1/GPa)
#
#
# Indices 1 2 3 4 5 6 
#
# 1 0.015475 -0.004440 -0.004954 0.000000 0.000000 0.000000
# 2 -0.004440 0.010923 -0.004941 0.000000 0.000000 0.000000
# 3 -0.004954 -0.004941 0.022268 0.000000 0.000000 0.000000
# 4 0.000000 0.000000 0.000000 0.161917 0.000000 0.000000
# 5 0.000000 0.000000 0.000000 0.000000 0.049272 0.000000
# 6 0.000000 0.000000 0.000000 0.000000 0.000000 0.025627
#
#
# Mechanical properties :
#
#
# Convention : Reuss Voigt Hill
#
# Bulk Modulus (GPa) = 50.01258 57.95130 53.98194
# Shear Modulus (GPa) = 15.58523 23.66914 19.62719
#
# Velocity S-wave (km/s) = 2.90135 3.57548 3.25591
# Velocity P-wave (km/s) = 6.18355 6.95311 6.57959
#
# Compressibility (1/GPa) = 0.01999497
#
# Stress axis : x y z
#
# Youngs Moduli (GPa) = 64.61879 91.55079 44.90850
#
# Poissons Ratio (x) = 0.40652 0.22247
# Poissons Ratio (y) = 0.28693 0.22190
# Poissons Ratio (z) = 0.32011 0.45237
#
# Static dielectric constant tensor:
#      x y z
#    x 3.787810 0.000000 0.000000 
#    y 0.000000 3.683960 0.000000 
#    z 0.000000 0.000000 3.335220 
# 
# 
# High freq. dielectric constant tensor:
#      x y z
#    x 1.722920 0.000000 0.000000 
#    y 0.000000 1.722290 0.000000 
#    z 0.000000 0.000000 1.708000 
# 
# From -- ./inp_files/28652.got.cif
#   From: 2010.06.25/outbox.cif.g09.slc.cpg/sg48_15_cif.got.tgz:28652.got - 2010.06.26 18:06:46.
