data_PCOD8201971
_publ_section_title
;
Structure prediction by ZEFSAII (Michael W. Deem and Ramdas Pophale) SiO2 
 PCOD8201971
Probable space group: P N N N
;
_chemical_formula_sum "Si O2"
_cell_formula_units_Z 64
_cell_length_a 23.617999
_cell_length_b 8.652948
_cell_length_c 15.477308
_cell_angle_alpha 90.000000
_cell_angle_beta 90.000000
_cell_angle_gamma 90.000000
_cell_volume 3163.024959
_symmetry_space_group_name_H-M "P N N N"
_symmetry_group_IT_number 48
_space_group.IT_coordinate_system_code '2'
_symmetry_cell_setting 'orthorhombic'
loop_
_space_group_symop_operation_xyz
x,y,z
1/2-x,1/2-y,z
x,1/2-y,1/2-z
1/2-x,y,1/2-z
-x,-y,-z
1/2+x,1/2+y,-z
-x,1/2+y,1/2+z
1/2+x,-y,1/2+z
loop_
_atom_site_type_symbol
_atom_site_label
_atom_site_fract_x
_atom_site_fract_y
_atom_site_fract_z
Si Si1 0.250000 0.433127 0.653697
Si Si2 0.936167 0.068743 0.249999
Si Si3 0.364584 0.931015 0.089173
Si Si4 0.749999 0.567463 0.652866
Si Si5 0.442696 0.569626 0.250000
Si Si6 0.635418 0.068986 0.589175
Si Si7 0.370617 0.433370 0.589117
Si Si8 0.370616 0.066630 0.589115
O O1 0.250000 0.250000 0.660474
O O2 0.250000 0.504531 0.750000
O O3 0.306038 0.489679 0.604325
O O4 0.193963 0.489679 0.604324
O O5 0.924028 0.250000 0.250000
O O6 0.909992 0.992362 0.334618
O O7 0.909991 0.992366 0.165379
O O8 0.002657 0.037201 0.249998
O O9 0.406646 0.975297 0.166094
O O10 0.354280 0.750001 0.084873
O O11 0.304737 0.012692 0.101865
O O12 0.392020 0.992341 0.000310
O O13 0.750000 0.750000 0.654888
O O14 0.750000 0.498330 0.750000
O O15 0.804735 0.512687 0.601863
O O16 0.459609 0.750000 0.250000
O O17 0.406643 0.524703 0.166098
O O18 0.607981 0.007657 0.500312
O O19 0.375476 0.250000 0.584343
#
# Coordination Sequence:
#
# PCOD8201971 Si02
#       8
#     8   8   8   8   8   8   8   8
#     4   9  17  34  61  90 120 158 200 239 292 363
#     4  12  26  43  64  91 123 162 212 264 310 368
#     4  11  23  41  65  94 127 163 208 262 316 370
#     4  11  22  37  62  95 131 169 208 249 308 380
#     4  10  24  45  66  87 119 166 212 260 319 370
#     4  11  23  41  65  94 127 163 208 262 316 370
#     4  11  22  40  66  94 127 165 205 254 313 377
#     4  11  22  40  66  94 127 165 205 254 313 377
#
# _framework density 20.233794
#
# number of rings (size 3 to 8) (size 9 to 14) (size 15 to 20)
#    0.000    1.250    2.500    3.750    0.000    4.500 
#    0.000    2.500    0.000    0.000    0.000    0.000 
#    0.000    0.000    0.000    0.000    0.000    0.000 
#
# Total GULP energy -793950.628650 kJ/mol
# GULP energy per Si atom -12405.478573 kJ/mol
# Density = 2.018774 g / cm^3
# Si number density = 20.233794 Si / 1000 Ang^3
#
#
#
# Elastic Constant Matrix: (Units=GPa)
#
#
# Indices 1 2 3 4 5 6 
#
# 1 111.4710 34.3499 53.5879 0.0000 0.0000 0.0000
# 2 34.3499 70.2697 41.0032 0.0000 0.0000 0.0000
# 3 53.5879 41.0032 183.2239 0.0000 0.0000 0.0000
# 4 0.0000 0.0000 0.0000 35.1537 0.0000 0.0000
# 5 0.0000 0.0000 0.0000 0.0000 11.2562 0.0000
# 6 0.0000 0.0000 0.0000 0.0000 0.0000 24.4125
#
#
#
# Elastic Compliance Matrix: (Units=1/GPa)
#
#
# Indices 1 2 3 4 5 6 
#
# 1 0.011413 -0.004177 -0.002403 0.000000 0.000000 0.000000
# 2 -0.004177 0.017897 -0.002783 0.000000 0.000000 0.000000
# 3 -0.002403 -0.002783 0.006784 0.000000 0.000000 0.000000
# 4 0.000000 0.000000 0.000000 0.028447 0.000000 0.000000
# 5 0.000000 0.000000 0.000000 0.000000 0.088840 0.000000
# 6 0.000000 0.000000 0.000000 0.000000 0.000000 0.040963
#
#
# Mechanical properties :
#
#
# Convention : Reuss Voigt Hill
#
# Bulk Modulus (GPa) = 57.58206 69.20518 63.39362
# Shear Modulus (GPa) = 22.84573 29.89939 26.37256
#
# Velocity S-wave (km/s) = 3.36384 3.84825 3.61417
# Velocity P-wave (km/s) = 6.60358 7.34999 6.98676
#
# Compressibility (1/GPa) = 0.01736652
#
# Stress axis : x y z
#
# Youngs Moduli (GPa) = 87.61611 55.87580 147.41361
#
# Poissons Ratio (x) = 0.23338 0.35429
# Poissons Ratio (y) = 0.36596 0.41032
# Poissons Ratio (z) = 0.21058 0.15553
#
# Static dielectric constant tensor:
#      x y z
#    x 3.648650 0.000000 0.000000 
#    y 0.000000 3.558920 0.000000 
#    z 0.000000 0.000000 3.958020 
# 
# 
# High freq. dielectric constant tensor:
#      x y z
#    x 1.786610 0.000000 0.000000 
#    y 0.000000 1.786000 0.000000 
#    z 0.000000 0.000000 1.812130 
# 
# From -- ./inp_files/28642.got.cif
#   From: 2010.06.25/outbox.cif.g09.slc.cpg/sg48_15_cif.got.tgz:28642.got - 2010.06.26 18:06:46.
