data_PCOD8201255
_publ_section_title
;
Structure prediction by ZEFSAII (Michael W. Deem and Ramdas Pophale) SiO2 
 PCOD8201255
Probable space group: P N N N
;
_chemical_formula_sum "Si O2"
_cell_formula_units_Z 34
_cell_length_a 8.257641
_cell_length_b 17.040288
_cell_length_c 14.134679
_cell_angle_alpha 90.000000
_cell_angle_beta 90.000000
_cell_angle_gamma 90.000000
_cell_volume 1988.927161
_symmetry_space_group_name_H-M "P N N N"
_symmetry_group_IT_number 48
_space_group.IT_coordinate_system_code '2'
_symmetry_cell_setting 'orthorhombic'
loop_
_space_group_symop_operation_xyz
x,y,z
1/2-x,1/2-y,z
x,1/2-y,1/2-z
1/2-x,y,1/2-z
-x,-y,-z
1/2+x,1/2+y,-z
-x,1/2+y,1/2+z
1/2+x,-y,1/2+z
loop_
_atom_site_type_symbol
_atom_site_label
_atom_site_fract_x
_atom_site_fract_y
_atom_site_fract_z
Si Si1 0.553094 0.918688 0.047072
Si Si2 0.873203 0.510074 0.416562
Si Si3 0.750000 0.250000 0.250000
Si Si4 0.610770 0.118183 0.125706
Si Si5 0.937690 0.481087 0.770730
O O1 0.748259 0.920146 0.055091
O O2 0.474409 0.912765 0.151728
O O3 0.480574 0.855483 0.972698
O O4 0.500000 0.000000 0.000000
O O5 0.778158 0.428618 0.395652
O O6 0.000000 0.500000 0.500000
O O7 0.965059 0.539564 0.323670
O O8 0.639084 0.197376 0.182650
O O9 0.493863 0.064841 0.189508
O O10 0.750000 0.484689 0.750000
#
# Coordination Sequence:
#
# PCOD8201255 Si02
#       5
#     8   8   2   8   8
#     4   8  16  28  44  69  96 127 164 209 255 293
#     4  10  16  28  49  74 100 127 164 220 265 292
#     4  12  20  36  50  64 114 148 170 198 244 344
#     4  10  19  32  46  70  98 142 170 196 257 307
#     4  10  16  28  48  76 102 125 164 218 262 297
#
# _framework density 17.094643000000001
#
# number of rings (size 3 to 8) (size 9 to 14) (size 15 to 20)
#    0.000    2.824    2.353    6.353    0.000    0.000 
#    0.000    0.588    0.000    0.000    0.000    7.412 
#    0.000   15.059    0.000    0.000    0.000    0.000 
#
# Total GULP energy -421233.573730 kJ/mol
# GULP energy per Si atom -12389.222757 kJ/mol
# Density = 1.705574 g / cm^3
# Si number density = 17.094643 Si / 1000 Ang^3
#
#
#
# Elastic Constant Matrix: (Units=GPa)
#
#
# Indices 1 2 3 4 5 6 
#
# 1 152.6200 25.5343 82.3825 0.0000 0.0000 0.0000
# 2 25.5343 44.1214 33.0007 0.0000 0.0000 0.0000
# 3 82.3825 33.0007 175.6222 0.0000 0.0000 0.0000
# 4 0.0000 0.0000 0.0000 25.5669 0.0000 0.0000
# 5 0.0000 0.0000 0.0000 0.0000 44.9013 0.0000
# 6 0.0000 0.0000 0.0000 0.0000 0.0000 10.6195
#
#
#
# Elastic Compliance Matrix: (Units=1/GPa)
#
#
# Indices 1 2 3 4 5 6 
#
# 1 0.008984 -0.002382 -0.003767 0.000000 0.000000 0.000000
# 2 -0.002382 0.027003 -0.003957 0.000000 0.000000 0.000000
# 3 -0.003767 -0.003957 0.008204 0.000000 0.000000 0.000000
# 4 0.000000 0.000000 0.000000 0.039113 0.000000 0.000000
# 5 0.000000 0.000000 0.000000 0.000000 0.022271 0.000000
# 6 0.000000 0.000000 0.000000 0.000000 0.000000 0.094166
#
#
# Mechanical properties :
#
#
# Convention : Reuss Voigt Hill
#
# Bulk Modulus (GPa) = 41.70062 72.68873 57.19467
# Shear Modulus (GPa) = 21.93506 31.64730 26.79118
#
# Velocity S-wave (km/s) = 3.58600 4.30734 3.96312
# Velocity P-wave (km/s) = 6.44925 8.20678 7.38052
#
# Compressibility (1/GPa) = 0.02398046
#
# Stress axis : x y z
#
# Youngs Moduli (GPa) = 111.30961 37.03339 121.88531
#
# Poissons Ratio (x) = 0.08821 0.45910
# Poissons Ratio (y) = 0.26513 0.48226
# Poissons Ratio (z) = 0.41927 0.14653
#
# Static dielectric constant tensor:
#      x y z
#    x 3.421300 0.000000 0.000000 
#    y 0.000000 2.765640 0.000000 
#    z 0.000000 0.000000 4.233690 
# 
# 
# High freq. dielectric constant tensor:
#      x y z
#    x 1.672990 0.000000 0.000000 
#    y 0.000000 1.573740 0.000000 
#    z 0.000000 0.000000 1.694300 
# 
# From -- ./inp_files/12488.got.cif
#   From: 2010.06.25/outbox.cif.g09.slc.cpg/sg48_7_cif.got.tgz:12488.got - 2010.06.26 18:06:46.
