data_PCOD8201764
_publ_section_title
;
Structure prediction by ZEFSAII (Michael W. Deem and Ramdas Pophale) SiO2 
 PCOD8201764
Probable space group: P N N N
;
_chemical_formula_sum "Si O2"
_cell_formula_units_Z 56
_cell_length_a 15.558690
_cell_length_b 8.185611
_cell_length_c 19.609933
_cell_angle_alpha 90.000000
_cell_angle_beta 90.000000
_cell_angle_gamma 90.000000
_cell_volume 2497.469767
_symmetry_space_group_name_H-M "P N N N"
_symmetry_group_IT_number 48
_space_group.IT_coordinate_system_code '2'
_symmetry_cell_setting 'orthorhombic'
loop_
_space_group_symop_operation_xyz
x,y,z
1/2-x,1/2-y,z
x,1/2-y,1/2-z
1/2-x,y,1/2-z
-x,-y,-z
1/2+x,1/2+y,-z
-x,1/2+y,1/2+z
1/2+x,-y,1/2+z
loop_
_atom_site_type_symbol
_atom_site_label
_atom_site_fract_x
_atom_site_fract_y
_atom_site_fract_z
Si Si1 0.157217 0.055351 0.762627
Si Si2 0.931784 0.367116 0.377451
Si Si3 0.510592 0.825895 0.444612
Si Si4 0.845599 0.191241 0.492426
Si Si5 0.907453 0.687750 0.821762
Si Si6 0.658926 0.817964 0.966804
Si Si7 0.503779 0.874524 0.189186
O O1 0.161945 0.250000 0.750000
O O2 0.250000 0.974601 0.750000
O O3 0.083415 0.003249 0.709097
O O4 0.129851 0.991932 0.836865
O O5 0.874176 0.228176 0.414315
O O6 0.978488 0.479212 0.434823
O O7 0.003737 0.286838 0.330252
O O8 0.411167 0.788833 0.459579
O O9 0.576266 0.772366 0.503241
O O10 0.532685 0.727887 0.375914
O O11 0.750000 0.250000 0.507966
O O12 0.851750 0.002113 0.508972
O O13 0.866101 0.750000 0.750000
O O14 0.843230 0.712838 0.885195
O O15 0.922926 0.492527 0.821889
O O16 0.750000 0.750000 0.994586
O O17 0.480573 0.750000 0.250000
#
# Coordination Sequence:
#
# PCOD8201764 Si02
#       7
#     8   8   8   8   8   8   8
#     4  10  21  40  63 103 144 186 230 281 353 435
#     4  12  24  42  72 107 140 195 232 296 352 436
#     4  12  23  46  77 100 146 193 238 288 365 430
#     4  12  27  46  69 109 141 183 245 302 359 431
#     4  12  24  44  75 101 137 181 245 293 357 426
#     4  12  28  49  73 101 141 194 241 304 360 428
#     4  11  21  43  70 102 137 191 233 283 363 435
#
# _framework density 22.422692999999999
#
# number of rings (size 3 to 8) (size 9 to 14) (size 15 to 20)
#    0.000    0.429    7.143    2.571    2.000    3.714 
#    0.000    0.714    0.000    0.429    0.000    0.000 
#    0.000    0.000    0.000    0.000    0.000    0.000 
#
# Total GULP energy -694172.454681 kJ/mol
# GULP energy per Si atom -12395.936691 kJ/mol
# Density = 2.237166 g / cm^3
# Si number density = 22.422693 Si / 1000 Ang^3
#
#
#
# Elastic Constant Matrix: (Units=GPa)
#
#
# Indices 1 2 3 4 5 6 
#
# 1 118.7917 30.1680 27.9386 0.0000 0.0000 0.0000
# 2 30.1680 107.9404 37.4249 0.0000 0.0000 0.0000
# 3 27.9386 37.4249 121.7003 0.0000 0.0000 0.0000
# 4 0.0000 0.0000 0.0000 43.4788 0.0000 0.0000
# 5 0.0000 0.0000 0.0000 0.0000 18.4971 0.0000
# 6 0.0000 0.0000 0.0000 0.0000 0.0000 24.4654
#
#
#
# Elastic Compliance Matrix: (Units=1/GPa)
#
#
# Indices 1 2 3 4 5 6 
#
# 1 0.009298 -0.002080 -0.001495 0.000000 0.000000 0.000000
# 2 -0.002080 0.010836 -0.002855 0.000000 0.000000 0.000000
# 3 -0.001495 -0.002855 0.009438 0.000000 0.000000 0.000000
# 4 0.000000 0.000000 0.000000 0.023000 0.000000 0.000000
# 5 0.000000 0.000000 0.000000 0.000000 0.054062 0.000000
# 6 0.000000 0.000000 0.000000 0.000000 0.000000 0.040874
#
#
# Mechanical properties :
#
#
# Convention : Reuss Voigt Hill
#
# Bulk Modulus (GPa) = 59.83722 59.94394 59.89058
# Shear Modulus (GPa) = 30.13182 34.14834 32.14008
#
# Velocity S-wave (km/s) = 3.66978 3.90672 3.79010
# Velocity P-wave (km/s) = 6.68583 6.86597 6.77650
#
# Compressibility (1/GPa) = 0.01671201
#
# Stress axis : x y z
#
# Youngs Moduli (GPa) = 107.55021 92.28896 105.95610
#
# Poissons Ratio (x) = 0.19200 0.15838
# Poissons Ratio (y) = 0.22375 0.30245
# Poissons Ratio (z) = 0.16076 0.26344
#
# Static dielectric constant tensor:
#      x y z
#    x 4.865850 0.000000 0.000000 
#    y 0.000000 4.395810 0.000000 
#    z 0.000000 0.000000 4.183780 
# 
# 
# High freq. dielectric constant tensor:
#      x y z
#    x 1.869510 0.000000 0.000000 
#    y 0.000000 1.895080 0.000000 
#    z 0.000000 0.000000 1.895230 
# 
# From -- ./inp_files/34490.got.cif
#   From: 2010.06.25/outbox.cif.g09.slc.cpg/sg48_18_cif.got.tgz:34490.got - 2010.06.26 18:06:46.
