data_PCOD8201389
_publ_section_title
;
Structure prediction by ZEFSAII (Michael W. Deem and Ramdas Pophale) SiO2 
 PCOD8201389
Probable space group: P N N N
;
_chemical_formula_sum "Si O2"
_cell_formula_units_Z 64
_cell_length_a 9.292226
_cell_length_b 19.761790
_cell_length_c 19.978582
_cell_angle_alpha 90.000000
_cell_angle_beta 90.000000
_cell_angle_gamma 90.000000
_cell_volume 3668.687368
_symmetry_space_group_name_H-M "P N N N"
_symmetry_group_IT_number 48
_space_group.IT_coordinate_system_code '2'
_symmetry_cell_setting 'orthorhombic'
loop_
_space_group_symop_operation_xyz
x,y,z
1/2-x,1/2-y,z
x,1/2-y,1/2-z
1/2-x,y,1/2-z
-x,-y,-z
1/2+x,1/2+y,-z
-x,1/2+y,1/2+z
1/2+x,-y,1/2+z
loop_
_atom_site_type_symbol
_atom_site_label
_atom_site_fract_x
_atom_site_fract_y
_atom_site_fract_z
Si Si1 0.339001 0.181659 0.431665
Si Si2 0.667754 0.314272 0.044649
Si Si3 0.779003 0.123969 0.178333
Si Si4 0.372591 0.080083 0.025235
Si Si5 0.520331 0.933103 0.830532
Si Si6 0.329143 0.923753 0.036771
Si Si7 0.719956 0.044081 0.821617
Si Si8 0.093327 0.088757 0.188421
O O1 0.250000 0.250000 0.425360
O O2 0.496934 0.195717 0.461974
O O3 0.260732 0.131320 0.485001
O O4 0.348247 0.149401 0.357376
O O5 0.750000 0.250000 0.012556
O O6 0.716971 0.318399 0.122072
O O7 0.718440 0.383001 0.008996
O O8 0.750000 0.160414 0.250000
O O9 0.650587 0.070693 0.168848
O O10 0.923297 0.079206 0.174759
O O11 0.424990 0.097553 0.100180
O O12 0.317017 0.003167 0.018048
O O13 0.503674 0.097076 0.974530
O O14 0.604821 0.894963 0.768718
O O15 0.558907 0.012568 0.822910
O O16 0.276126 0.907882 0.113249
O O17 0.750000 0.081604 0.750000
O O18 0.829813 0.981252 0.830898
#
# Coordination Sequence:
#
# PCOD8201389 Si02
#       8
#     8   8   8   8   8   8   8   8
#     4  11  22  35  50  73 107 140 180 221 255 307
#     4  11  23  36  53  73 102 141 178 223 265 309
#     4   9  18  31  49  70 102 143 177 208 251 299
#     4  10  19  33  52  77 102 135 178 216 261 312
#     4   9  15  29  51  67 102 135 171 214 251 303
#     4  10  19  34  55  77 102 136 173 217 267 315
#     4   9  17  31  54  76 105 131 167 214 266 317
#     4   9  17  31  46  71  99 136 175 214 253 296
#
# _framework density 17.444932000000001
#
# number of rings (size 3 to 8) (size 9 to 14) (size 15 to 20)
#    0.000    2.250    3.750    0.750    0.000    0.750 
#    0.000    1.250    2.750    0.375    0.000    0.000 
#    0.000    1.000    0.000    0.000    0.000    0.000 
#
# Total GULP energy -792884.333469 kJ/mol
# GULP energy per Si atom -12388.817710 kJ/mol
# Density = 1.740523 g / cm^3
# Si number density = 17.444932 Si / 1000 Ang^3
#
#
#
# Elastic Constant Matrix: (Units=GPa)
#
#
# Indices 1 2 3 4 5 6 
#
# 1 109.1536 52.6515 49.3721 0.0000 0.0000 0.0000
# 2 52.6515 66.8524 34.1913 0.0000 0.0000 0.0000
# 3 49.3721 34.1913 88.3114 0.0000 0.0000 0.0000
# 4 0.0000 0.0000 0.0000 17.1554 0.0000 0.0000
# 5 0.0000 0.0000 0.0000 0.0000 23.4670 0.0000
# 6 0.0000 0.0000 0.0000 0.0000 0.0000 21.2732
#
#
#
# Elastic Compliance Matrix: (Units=1/GPa)
#
#
# Indices 1 2 3 4 5 6 
#
# 1 0.016509 -0.010326 -0.005231 0.000000 0.000000 0.000000
# 2 -0.010326 0.025111 -0.003949 0.000000 0.000000 0.000000
# 3 -0.005231 -0.003949 0.015777 0.000000 0.000000 0.000000
# 4 0.000000 0.000000 0.000000 0.058291 0.000000 0.000000
# 5 0.000000 0.000000 0.000000 0.000000 0.042613 0.000000
# 6 0.000000 0.000000 0.000000 0.000000 0.000000 0.047007
#
#
# Mechanical properties :
#
#
# Convention : Reuss Voigt Hill
#
# Bulk Modulus (GPa) = 54.39748 59.63859 57.01803
# Shear Modulus (GPa) = 19.96414 20.91929 20.44171
#
# Velocity S-wave (km/s) = 3.38658 3.46665 3.42685
# Velocity P-wave (km/s) = 6.82217 7.09116 6.95796
#
# Compressibility (1/GPa) = 0.01838321
#
# Stress axis : x y z
#
# Youngs Moduli (GPa) = 60.57415 39.82360 63.38244
#
# Poissons Ratio (x) = 0.41123 0.33158
# Poissons Ratio (y) = 0.62550 0.25030
# Poissons Ratio (z) = 0.31689 0.15726
#
# Static dielectric constant tensor:
#      x y z
#    x 3.593850 0.000000 0.000000 
#    y 0.000000 2.822230 0.000000 
#    z 0.000000 0.000000 3.447900 
# 
# 
# High freq. dielectric constant tensor:
#      x y z
#    x 1.692920 0.000000 0.000000 
#    y 0.000000 1.619230 0.000000 
#    z 0.000000 0.000000 1.665390 
# 
# From -- ./inp_files/33781.got.cif
#   From: 2010.06.25/outbox.cif.g09.slc.cpg/sg48_17_cif.got.tgz:33781.got - 2010.06.26 18:06:46.
