data_PCOD8201734
_publ_section_title
;
Structure prediction by ZEFSAII (Michael W. Deem and Ramdas Pophale) SiO2 
 PCOD8201734
Probable space group: P N N N
;
_chemical_formula_sum "Si O2"
_cell_formula_units_Z 48
_cell_length_a 14.153607
_cell_length_b 5.975858
_cell_length_c 26.553321
_cell_angle_alpha 90.000000
_cell_angle_beta 90.000000
_cell_angle_gamma 90.000000
_cell_volume 2245.878446
_symmetry_space_group_name_H-M "P N N N"
_symmetry_group_IT_number 48
_space_group.IT_coordinate_system_code '2'
_symmetry_cell_setting 'orthorhombic'
loop_
_space_group_symop_operation_xyz
x,y,z
1/2-x,1/2-y,z
x,1/2-y,1/2-z
1/2-x,y,1/2-z
-x,-y,-z
1/2+x,1/2+y,-z
-x,1/2+y,1/2+z
1/2+x,-y,1/2+z
loop_
_atom_site_type_symbol
_atom_site_label
_atom_site_fract_x
_atom_site_fract_y
_atom_site_fract_z
Si Si1 0.062881 0.160856 0.428356
Si Si2 0.668552 0.065617 0.838045
Si Si3 0.990713 0.373255 0.702553
Si Si4 0.117106 0.115551 0.537995
Si Si5 0.415121 0.990512 0.609096
Si Si6 0.250000 0.750000 0.927640
Si Si7 0.132829 0.250000 0.250000
O O1 0.113528 0.207710 0.481135
O O2 0.016850 0.393832 0.409021
O O3 0.142061 0.074700 0.388313
O O4 0.980697 0.984383 0.440636
O O5 0.750000 0.250000 0.847802
O O6 0.574563 0.194229 0.824594
O O7 0.694954 0.902367 0.789940
O O8 0.036948 0.250000 0.750000
O O9 0.933183 0.595576 0.715822
O O10 0.076765 0.425674 0.665876
O O11 0.132406 0.328701 0.572815
O O12 0.207380 0.949397 0.537941
O O13 0.336258 0.800660 0.609753
#
# Coordination Sequence:
#
# PCOD8201734 Si02
#       7
#     8   8   8   8   8   4   4
#     4  10  21  38  63  95 127 172 208 263 318 389
#     4  11  23  39  62  98 129 166 215 267 316 387
#     4  10  22  38  66  90 122 165 207 260 319 387
#     4  10  21  39  62  92 132 164 214 258 328 381
#     4  11  20  42  64  93 126 168 217 258 327 379
#     4  10  24  36  64  93 124 170 205 272 312 392
#     4  10  22  43  60  89 122 170 210 263 328 376
#
# _framework density 21.372484
#
# number of rings (size 3 to 8) (size 9 to 14) (size 15 to 20)
#    0.000    1.667    3.333    1.000    1.167    4.333 
#    0.000    1.667    0.000    7.500    2.167    0.000 
#    0.000    0.000    0.000    0.000    0.000    0.000 
#
# Total GULP energy -594855.809417 kJ/mol
# GULP energy per Si atom -12392.829363 kJ/mol
# Density = 2.132384 g / cm^3
# Si number density = 21.372484 Si / 1000 Ang^3
#
#
#
# Elastic Constant Matrix: (Units=GPa)
#
#
# Indices 1 2 3 4 5 6 
#
# 1 84.2221 30.0517 56.2391 0.0000 0.0000 0.0000
# 2 30.0517 94.0918 48.1266 0.0000 0.0000 0.0000
# 3 56.2391 48.1266 161.2487 0.0000 0.0000 0.0000
# 4 0.0000 0.0000 0.0000 29.8450 0.0000 0.0000
# 5 0.0000 0.0000 0.0000 0.0000 -20.5641 0.0000
# 6 0.0000 0.0000 0.0000 0.0000 0.0000 35.6308
#
#
#
# Elastic Compliance Matrix: (Units=1/GPa)
#
#
# Indices 1 2 3 4 5 6 
#
# 1 0.016026 -0.002667 -0.004793 0.000000 0.000000 0.000000
# 2 -0.002667 0.012986 -0.002946 0.000000 0.000000 0.000000
# 3 -0.004793 -0.002946 0.008753 0.000000 0.000000 0.000000
# 4 0.000000 0.000000 0.000000 0.033506 0.000000 0.000000
# 5 0.000000 0.000000 0.000000 0.000000 -0.048628 0.000000
# 6 0.000000 0.000000 0.000000 0.000000 0.000000 0.028066
#
#
# Mechanical properties :
#
#
# Convention : Reuss Voigt Hill
#
# Bulk Modulus (GPa) = 58.98724 67.59969 63.29347
# Shear Modulus (GPa) = 64.79104 22.65868 43.72486
#
# Velocity S-wave (km/s) = 5.51189 3.25957 4.52801
# Velocity P-wave (km/s) = 8.25636 6.77233 7.55089
#
# Compressibility (1/GPa) = 0.01695282
#
# Stress axis : x y z
#
# Youngs Moduli (GPa) = 62.39993 77.00375 114.25106
#
# Poissons Ratio (x) = 0.20534 0.54765
# Poissons Ratio (y) = 0.16640 0.33657
# Poissons Ratio (z) = 0.29911 0.22684
#
# Static dielectric constant tensor:
#      x y z
#    x 3.630780 0.000000 0.000000 
#    y 0.000000 4.460240 0.000000 
#    z 0.000000 0.000000 3.997310 
# 
# 
# High freq. dielectric constant tensor:
#      x y z
#    x 1.821170 0.000000 0.000000 
#    y 0.000000 1.853270 0.000000 
#    z 0.000000 0.000000 1.839240 
# 
# From -- ./inp_files/6493.got.cif
#   From: 2010.06.25/outbox.cif.g09.slc.cpg/sg48_4_cif.got.tgz:6493.got - 2010.06.26 18:06:46.
