data_PCOD8201279
_publ_section_title
;
Structure prediction by ZEFSAII (Michael W. Deem and Ramdas Pophale) SiO2 
 PCOD8201279
Probable space group: P N N N
;
_chemical_formula_sum "Si O2"
_cell_formula_units_Z 52
_cell_length_a 25.375823
_cell_length_b 8.892888
_cell_length_c 12.930382
_cell_angle_alpha 90.000000
_cell_angle_beta 90.000000
_cell_angle_gamma 90.000000
_cell_volume 2917.926273
_symmetry_space_group_name_H-M "P N N N"
_symmetry_group_IT_number 48
_space_group.IT_coordinate_system_code '2'
_symmetry_cell_setting 'orthorhombic'
loop_
_space_group_symop_operation_xyz
x,y,z
1/2-x,1/2-y,z
x,1/2-y,1/2-z
1/2-x,y,1/2-z
-x,-y,-z
1/2+x,1/2+y,-z
-x,1/2+y,1/2+z
1/2+x,-y,1/2+z
loop_
_atom_site_type_symbol
_atom_site_label
_atom_site_fract_x
_atom_site_fract_y
_atom_site_fract_z
Si Si1 0.138552 0.054806 0.831215
Si Si2 0.336285 0.391408 0.606815
Si Si3 0.995028 0.324034 0.900435
Si Si4 0.520551 0.970655 0.307571
Si Si5 0.422464 0.077890 0.060147
Si Si6 0.454718 0.250000 0.250000
Si Si7 0.759849 0.413592 0.371365
O O1 0.141801 0.023017 0.707971
O O2 0.160343 0.216999 0.864805
O O3 0.078092 0.023235 0.862436
O O4 0.178206 0.944728 0.892011
O O5 0.368926 0.424589 0.503309
O O6 0.277602 0.454701 0.581718
O O7 0.027240 0.408447 0.808996
O O8 0.985518 0.149147 0.872760
O O9 0.938849 0.404798 0.917462
O O10 0.030436 0.336747 0.001851
O O11 0.492664 0.131671 0.309015
O O12 0.416475 0.166724 0.168589
O O13 0.750000 0.250000 0.421872
O O14 0.750000 0.411270 0.250000
#
# Coordination Sequence:
#
# PCOD8201279 Si02
#       7
#     8   8   8   8   8   4   8
#     4  10  17  30  49  73  94 133 166 195 244 309
#     4  10  17  31  52  68  97 135 167 198 243 306
#     4   9  17  31  51  66 100 132 177 192 244 309
#     4  10  17  33  47  73  98 136 163 211 245 301
#     4  10  18  33  47  72  96 138 168 209 245 297
#     4  10  24  30  46  70 108 132 176 216 248 278
#     4   9  19  31  44  71 103 124 154 199 247 297
#
# _framework density 17.820875000000001
#
# number of rings (size 3 to 8) (size 9 to 14) (size 15 to 20)
#    0.000    2.308    3.077    1.385    0.000    4.923 
#    0.000    0.000    0.000    0.000    0.000    2.154 
#    0.000    1.231    0.000    0.000    0.000    0.000 
#
# Total GULP energy -644408.031563 kJ/mol
# GULP energy per Si atom -12392.462145 kJ/mol
# Density = 1.778031 g / cm^3
# Si number density = 17.820875 Si / 1000 Ang^3
#
#
#
# Elastic Constant Matrix: (Units=GPa)
#
#
# Indices 1 2 3 4 5 6 
#
# 1 91.2329 48.5755 36.4901 0.0000 0.0000 0.0000
# 2 48.5755 103.2804 28.9745 0.0000 0.0000 0.0000
# 3 36.4901 28.9745 59.8772 0.0000 0.0000 0.0000
# 4 0.0000 0.0000 0.0000 18.3026 0.0000 0.0000
# 5 0.0000 0.0000 0.0000 0.0000 19.1111 0.0000
# 6 0.0000 0.0000 0.0000 0.0000 0.0000 18.0568
#
#
#
# Elastic Compliance Matrix: (Units=1/GPa)
#
#
# Indices 1 2 3 4 5 6 
#
# 1 0.017157 -0.005943 -0.007580 0.000000 0.000000 0.000000
# 2 -0.005943 0.013262 -0.002796 0.000000 0.000000 0.000000
# 3 -0.007580 -0.002796 0.022673 0.000000 0.000000 0.000000
# 4 0.000000 0.000000 0.000000 0.054637 0.000000 0.000000
# 5 0.000000 0.000000 0.000000 0.000000 0.052326 0.000000
# 6 0.000000 0.000000 0.000000 0.000000 0.000000 0.055381
#
#
# Mechanical properties :
#
#
# Convention : Reuss Voigt Hill
#
# Bulk Modulus (GPa) = 48.88850 53.60785 51.24817
# Shear Modulus (GPa) = 19.61630 20.45080 20.03355
#
# Velocity S-wave (km/s) = 3.32135 3.39126 3.35649
# Velocity P-wave (km/s) = 6.49626 6.74396 6.62127
#
# Compressibility (1/GPa) = 0.02045471
#
# Stress axis : x y z
#
# Youngs Moduli (GPa) = 58.28589 75.40475 44.10539
#
# Poissons Ratio (x) = 0.44812 0.33431
# Poissons Ratio (y) = 0.34638 0.12331
# Poissons Ratio (z) = 0.44180 0.21081
#
# Static dielectric constant tensor:
#      x y z
#    x 3.134630 0.000000 0.000000 
#    y 0.000000 3.440930 0.000000 
#    z 0.000000 0.000000 3.081200 
# 
# 
# High freq. dielectric constant tensor:
#      x y z
#    x 1.662970 0.000000 0.000000 
#    y 0.000000 1.693670 0.000000 
#    z 0.000000 0.000000 1.650350 
# 
# From -- ./inp_files/28842.got.cif
#   From: 2010.06.25/outbox.cif.g09.slc.cpg/sg48_15_cif.got.tgz:28842.got - 2010.06.26 18:06:46.
