data_PCOD8201818
_publ_section_title
;
Structure prediction by ZEFSAII (Michael W. Deem and Ramdas Pophale) SiO2 
 PCOD8201818
Probable space group: P N N N
;
_chemical_formula_sum "Si O2"
_cell_formula_units_Z 52
_cell_length_a 13.857891
_cell_length_b 8.691721
_cell_length_c 20.975042
_cell_angle_alpha 90.000000
_cell_angle_beta 90.000000
_cell_angle_gamma 90.000000
_cell_volume 2526.421202
_symmetry_space_group_name_H-M "P N N N"
_symmetry_group_IT_number 48
_space_group.IT_coordinate_system_code '2'
_symmetry_cell_setting 'orthorhombic'
loop_
_space_group_symop_operation_xyz
x,y,z
1/2-x,1/2-y,z
x,1/2-y,1/2-z
1/2-x,y,1/2-z
-x,-y,-z
1/2+x,1/2+y,-z
-x,1/2+y,1/2+z
1/2+x,-y,1/2+z
loop_
_atom_site_type_symbol
_atom_site_label
_atom_site_fract_x
_atom_site_fract_y
_atom_site_fract_z
Si Si1 0.355833 0.144886 0.367701
Si Si2 0.591636 0.250000 0.750000
Si Si3 0.937850 0.682095 0.044419
Si Si4 0.250000 0.496519 0.250000
Si Si5 0.860238 0.300506 0.317085
Si Si6 0.003087 0.865956 0.592129
Si Si7 0.972109 0.917651 0.147620
Si Si8 0.250000 0.250000 0.018705
O O1 0.284134 0.114226 0.308148
O O2 0.405194 0.317406 0.368630
O O3 0.297869 0.123776 0.433714
O O4 0.443753 0.031762 0.370682
O O5 0.659530 0.394648 0.730188
O O6 0.517453 0.290959 0.805935
O O7 0.981178 0.549067 0.089707
O O8 0.937855 0.839998 0.082869
O O9 0.826112 0.656043 0.024486
O O10 0.000745 0.697418 0.980349
O O11 0.750000 0.250000 0.316081
O O12 0.908670 0.250000 0.250000
O O13 0.904363 0.208231 0.375555
O O14 0.881687 0.484328 0.323828
#
# Coordination Sequence:
#
# PCOD8201818 Si02
#       8
#     8   4   8   4   8   8   8   4
#     4   9  20  40  59  92 128 161 209 251 316 378
#     4   9  20  36  62  99 128 158 214 257 326 379
#     4  10  22  40  63  90 127 165 213 258 319 371
#     4   9  18  37  62  94 129 169 204 260 310 396
#     4  10  23  42  63  91 123 161 218 266 312 379
#     4   9  21  41  61  92 127 169 204 262 313 378
#     4  10  22  41  65  90 124 172 202 265 317 389
#     4  10  22  37  56  93 122 156 216 262 296 382
#
# _framework density 20.582474999999999
#
# number of rings (size 3 to 8) (size 9 to 14) (size 15 to 20)
#    0.000    2.462    0.000    0.000    4.308    9.538 
#   19.385    0.000    0.000    0.923    0.000    0.000 
#    0.000    0.000    0.000    0.000    0.000    0.000 
#
# Total GULP energy -644238.587041 kJ/mol
# GULP energy per Si atom -12389.203597 kJ/mol
# Density = 2.053563 g / cm^3
# Si number density = 20.582475 Si / 1000 Ang^3
#
#
#
# Elastic Constant Matrix: (Units=GPa)
#
#
# Indices 1 2 3 4 5 6 
#
# 1 116.5969 51.6550 55.3633 0.0000 0.0000 0.0000
# 2 51.6550 104.1959 67.1960 0.0000 0.0000 0.0000
# 3 55.3633 67.1960 99.3853 0.0000 0.0000 0.0000
# 4 0.0000 0.0000 0.0000 44.9973 0.0000 0.0000
# 5 0.0000 0.0000 0.0000 0.0000 27.2773 0.0000
# 6 0.0000 0.0000 0.0000 0.0000 0.0000 22.1344
#
#
#
# Elastic Compliance Matrix: (Units=1/GPa)
#
#
# Indices 1 2 3 4 5 6 
#
# 1 0.012149 -0.002940 -0.004779 0.000000 0.000000 0.000000
# 2 -0.002940 0.017729 -0.010349 0.000000 0.000000 0.000000
# 3 -0.004779 -0.010349 0.019721 0.000000 0.000000 0.000000
# 4 0.000000 0.000000 0.000000 0.022224 0.000000 0.000000
# 5 0.000000 0.000000 0.000000 0.000000 0.036660 0.000000
# 6 0.000000 0.000000 0.000000 0.000000 0.000000 0.045178
#
#
# Mechanical properties :
#
#
# Convention : Reuss Voigt Hill
#
# Bulk Modulus (GPa) = 74.28591 74.28962 74.28776
# Shear Modulus (GPa) = 25.73524 28.61274 27.17399
#
# Velocity S-wave (km/s) = 3.53986 3.73252 3.63747
# Velocity P-wave (km/s) = 7.27170 7.39916 7.33571
#
# Compressibility (1/GPa) = 0.01346150
#
# Stress axis : x y z
#
# Youngs Moduli (GPa) = 82.31395 56.40464 50.70658
#
# Poissons Ratio (x) = 0.16585 0.24235
# Poissons Ratio (y) = 0.24204 0.52476
# Poissons Ratio (z) = 0.39341 0.58373
#
# Static dielectric constant tensor:
#      x y z
#    x 3.873810 0.000000 0.000000 
#    y 0.000000 3.998440 0.000000 
#    z 0.000000 0.000000 3.961190 
# 
# 
# High freq. dielectric constant tensor:
#      x y z
#    x 1.809610 0.000000 0.000000 
#    y 0.000000 1.795330 0.000000 
#    z 0.000000 0.000000 1.808590 
# 
# From -- ./inp_files/34442.got.cif
#   From: 2010.06.25/outbox.cif.g09.slc.cpg/sg48_18_cif.got.tgz:34442.got - 2010.06.26 18:06:46.
