data_PCOD8201702
_publ_section_title
;
Structure prediction by ZEFSAII (Michael W. Deem and Ramdas Pophale) SiO2 
 PCOD8201702
Probable space group: P N N N
;
_chemical_formula_sum "Si O2"
_cell_formula_units_Z 32
_cell_length_a 7.915845
_cell_length_b 13.395947
_cell_length_c 15.337081
_cell_angle_alpha 90.000000
_cell_angle_beta 90.000000
_cell_angle_gamma 90.000000
_cell_volume 1626.347751
_symmetry_space_group_name_H-M "P N N N"
_symmetry_group_IT_number 48
_space_group.IT_coordinate_system_code '2'
_symmetry_cell_setting 'orthorhombic'
loop_
_space_group_symop_operation_xyz
x,y,z
1/2-x,1/2-y,z
x,1/2-y,1/2-z
1/2-x,y,1/2-z
-x,-y,-z
1/2+x,1/2+y,-z
-x,1/2+y,1/2+z
1/2+x,-y,1/2+z
loop_
_atom_site_type_symbol
_atom_site_label
_atom_site_fract_x
_atom_site_fract_y
_atom_site_fract_z
Si Si1 0.380527 0.635434 0.169177
Si Si2 0.800766 0.141710 0.489754
Si Si3 0.592162 0.687714 0.402129
Si Si4 0.293183 0.491709 0.839196
O O1 0.250000 0.631206 0.250000
O O2 0.467215 0.745468 0.158996
O O3 0.515970 0.546605 0.169051
O O4 0.280310 0.614225 0.081420
O O5 0.750000 0.250000 0.453280
O O6 0.001573 0.143960 0.510881
O O7 0.739223 0.060532 0.421565
O O8 0.750000 0.750000 0.438917
O O9 0.661057 0.600360 0.340708
O O10 0.250000 0.551119 0.750000
#
# Coordination Sequence:
#
# PCOD8201702 Si02
#       4
#     8   8   8   8
#     4  10  21  37  57  84 112 141 181 236 294 343
#     4  10  21  37  56  78 109 150 187 228 279 339
#     4   9  20  35  56  84 112 141 183 237 294 343
#     4  11  22  35  54  82 112 147 187 230 279 341
#
# _framework density 19.675988
#
# number of rings (size 3 to 8) (size 9 to 14) (size 15 to 20)
#    0.000    2.000    0.000    3.000    0.000   17.500 
#    0.000    0.000    0.000    0.000    0.000   21.000 
#    0.000    0.000    0.000    0.000    0.000    0.000 
#
# Total GULP energy -396552.285029 kJ/mol
# GULP energy per Si atom -12392.258907 kJ/mol
# Density = 1.963120 g / cm^3
# Si number density = 19.675988 Si / 1000 Ang^3
#
#
#
# Elastic Constant Matrix: (Units=GPa)
#
#
# Indices 1 2 3 4 5 6 
#
# 1 142.1467 59.1480 77.6620 0.0000 0.0000 0.0000
# 2 59.1480 80.8698 78.3213 0.0000 0.0000 0.0000
# 3 77.6620 78.3213 152.6380 0.0000 0.0000 0.0000
# 4 0.0000 0.0000 0.0000 13.0741 0.0000 0.0000
# 5 0.0000 0.0000 0.0000 0.0000 23.8886 0.0000
# 6 0.0000 0.0000 0.0000 0.0000 0.0000 22.6910
#
#
#
# Elastic Compliance Matrix: (Units=1/GPa)
#
#
# Indices 1 2 3 4 5 6 
#
# 1 0.010698 -0.005075 -0.002839 0.000000 0.000000 0.000000
# 2 -0.005075 0.026988 -0.011266 0.000000 0.000000 0.000000
# 3 -0.002839 -0.011266 0.013777 0.000000 0.000000 0.000000
# 4 0.000000 0.000000 0.000000 0.076487 0.000000 0.000000
# 5 0.000000 0.000000 0.000000 0.000000 0.041861 0.000000
# 6 0.000000 0.000000 0.000000 0.000000 0.000000 0.044070
#
#
# Mechanical properties :
#
#
# Convention : Reuss Voigt Hill
#
# Bulk Modulus (GPa) = 76.31849 89.54634 82.93242
# Shear Modulus (GPa) = 19.48488 22.63229 21.05858
#
# Velocity S-wave (km/s) = 3.15030 3.39521 3.27504
# Velocity P-wave (km/s) = 7.21833 7.80892 7.51943
#
# Compressibility (1/GPa) = 0.01310298
#
# Stress axis : x y z
#
# Youngs Moduli (GPa) = 93.47791 37.05299 72.58541
#
# Poissons Ratio (x) = 0.18803 0.20607
# Poissons Ratio (y) = 0.47437 0.81776
# Poissons Ratio (z) = 0.26539 0.41745
#
# Static dielectric constant tensor:
#      x y z
#    x 4.244010 0.000000 0.000000 
#    y 0.000000 3.425300 0.000000 
#    z 0.000000 0.000000 3.416880 
# 
# 
# High freq. dielectric constant tensor:
#      x y z
#    x 1.792590 0.000000 0.000000 
#    y 0.000000 1.741040 0.000000 
#    z 0.000000 0.000000 1.759770 
# 
# From -- ./inp_files/18187.got.cif
#   From: 2010.06.25/outbox.cif.g09.slc.cpg/sg48_10_cif.got.tgz:18187.got - 2010.06.26 18:06:46.
