data_PCOD8201357
_publ_section_title
;
Structure prediction by ZEFSAII (Michael W. Deem and Ramdas Pophale) SiO2 
 PCOD8201357
Probable space group: P N N N
;
_chemical_formula_sum "Si O2"
_cell_formula_units_Z 42
_cell_length_a 27.935953
_cell_length_b 7.330902
_cell_length_c 9.752977
_cell_angle_alpha 90.000000
_cell_angle_beta 90.000000
_cell_angle_gamma 90.000000
_cell_volume 1997.368081
_symmetry_space_group_name_H-M "P N N N"
_symmetry_group_IT_number 48
_space_group.IT_coordinate_system_code '2'
_symmetry_cell_setting 'orthorhombic'
loop_
_space_group_symop_operation_xyz
x,y,z
1/2-x,1/2-y,z
x,1/2-y,1/2-z
1/2-x,y,1/2-z
-x,-y,-z
1/2+x,1/2+y,-z
-x,1/2+y,1/2+z
1/2+x,-y,1/2+z
loop_
_atom_site_type_symbol
_atom_site_label
_atom_site_fract_x
_atom_site_fract_y
_atom_site_fract_z
Si Si1 0.750000 0.750000 0.250000
Si Si2 0.319762 0.553838 0.719386
Si Si3 0.403583 0.492284 0.529681
Si Si4 0.581419 0.547755 0.767913
Si Si5 0.609665 0.561664 0.055226
Si Si6 0.475187 0.036665 0.748643
O O1 0.716915 0.604409 0.334674
O O2 0.294853 0.750000 0.750000
O O3 0.359783 0.594188 0.604090
O O4 0.342009 0.482493 0.862965
O O5 0.406544 0.562664 0.371998
O O6 0.394238 0.278000 0.543793
O O7 0.454087 0.533513 0.605066
O O8 0.601779 0.750000 0.750000
O O9 0.524330 0.562682 0.788659
O O10 0.607652 0.467651 0.903719
O O11 0.564105 0.482243 0.135753
O O12 0.485859 0.250000 0.750000
#
# Coordination Sequence:
#
# PCOD8201357 Si02
#       6
#     2   8   8   8   8   8
#     4  12  22  44  68  88 120 128 186 246 288 346
#     4  11  22  38  65  90 108 145 180 228 294 347
#     4   9  18  35  51  76 116 153 188 238 285 328
#     4  10  19  29  51  77 111 160 198 227 280 331
#     4   9  18  35  51  76 116 153 188 238 285 328
#     4   9  17  28  45  70 114 159 199 242 273 309
#
# _framework density 21.027673
#
# number of rings (size 3 to 8) (size 9 to 14) (size 15 to 20)
#    0.000    2.286    1.905    2.571    0.000    4.571 
#    0.000    0.000    0.000    2.286    0.000    2.667 
#    0.000    0.000    0.000    0.000    0.000    0.000 
#
# Total GULP energy -520322.774245 kJ/mol
# GULP energy per Si atom -12388.637482 kJ/mol
# Density = 2.097981 g / cm^3
# Si number density = 21.027673 Si / 1000 Ang^3
#
#
#
# Elastic Constant Matrix: (Units=GPa)
#
#
# Indices 1 2 3 4 5 6 
#
# 1 79.8730 11.9506 29.8921 0.0000 0.0000 0.0000
# 2 11.9506 59.1787 3.8228 0.0000 0.0000 0.0000
# 3 29.8921 3.8228 156.5932 0.0000 0.0000 0.0000
# 4 0.0000 0.0000 0.0000 8.2337 0.0000 0.0000
# 5 0.0000 0.0000 0.0000 0.0000 7.1384 0.0000
# 6 0.0000 0.0000 0.0000 0.0000 0.0000 24.4603
#
#
#
# Elastic Compliance Matrix: (Units=1/GPa)
#
#
# Indices 1 2 3 4 5 6 
#
# 1 0.013882 -0.002636 -0.002586 0.000000 0.000000 0.000000
# 2 -0.002636 0.017425 0.000078 0.000000 0.000000 0.000000
# 3 -0.002586 0.000078 0.006878 0.000000 0.000000 0.000000
# 4 0.000000 0.000000 0.000000 0.121452 0.000000 0.000000
# 5 0.000000 0.000000 0.000000 0.000000 0.140088 0.000000
# 6 0.000000 0.000000 0.000000 0.000000 0.000000 0.040883
#
#
# Mechanical properties :
#
#
# Convention : Reuss Voigt Hill
#
# Bulk Modulus (GPa) = 35.84634 42.99732 39.42183
# Shear Modulus (GPa) = 13.88140 24.63177 19.25658
#
# Velocity S-wave (km/s) = 2.57212 3.42628 3.02946
# Velocity P-wave (km/s) = 5.08973 6.01206 5.57002
#
# Compressibility (1/GPa) = 0.02789685
#
# Stress axis : x y z
#
# Youngs Moduli (GPa) = 72.03593 57.38774 145.39886
#
# Poissons Ratio (x) = 0.15129 0.37594
# Poissons Ratio (y) = 0.18991 -0.01132
# Poissons Ratio (z) = 0.18625 -0.00447
#
# Static dielectric constant tensor:
#      x y z
#    x 3.560150 0.000000 0.000000 
#    y 0.000000 3.645830 0.000000 
#    z 0.000000 0.000000 4.245020 
# 
# 
# High freq. dielectric constant tensor:
#      x y z
#    x 1.787420 0.000000 0.000000 
#    y 0.000000 1.825750 0.000000 
#    z 0.000000 0.000000 1.811770 
# 
# From -- ./inp_files/16290.got.cif
#   From: 2010.06.25/outbox.cif.g09.slc.cpg/sg48_9_cif.got.tgz:16290.got - 2010.06.26 18:06:46.
