data_PCOD8201845
_publ_section_title
;
Structure prediction by ZEFSAII (Michael W. Deem and Ramdas Pophale) SiO2 
 PCOD8201845
Probable space group: P N N N
;
_chemical_formula_sum "Si O2"
_cell_formula_units_Z 56
_cell_length_a 12.218545
_cell_length_b 14.865084
_cell_length_c 14.658212
_cell_angle_alpha 90.000000
_cell_angle_beta 90.000000
_cell_angle_gamma 90.000000
_cell_volume 2662.366616
_symmetry_space_group_name_H-M "P N N N"
_symmetry_group_IT_number 48
_space_group.IT_coordinate_system_code '2'
_symmetry_cell_setting 'orthorhombic'
loop_
_space_group_symop_operation_xyz
x,y,z
1/2-x,1/2-y,z
x,1/2-y,1/2-z
1/2-x,y,1/2-z
-x,-y,-z
1/2+x,1/2+y,-z
-x,1/2+y,1/2+z
1/2+x,-y,1/2+z
loop_
_atom_site_type_symbol
_atom_site_label
_atom_site_fract_x
_atom_site_fract_y
_atom_site_fract_z
Si Si1 0.878353 0.932444 0.922085
Si Si2 0.874231 0.522084 0.227699
Si Si3 0.987500 0.846481 0.757365
Si Si4 0.671135 0.665300 0.594022
Si Si5 0.625684 0.232021 0.858141
Si Si6 0.992678 0.601281 0.392135
Si Si7 0.975180 0.591521 0.053850
O O1 0.943899 0.859795 0.860305
O O2 0.748015 0.922743 0.914010
O O3 0.906286 0.031914 0.887503
O O4 0.911530 0.920446 0.026240
O O5 0.750000 0.501487 0.250000
O O6 0.884847 0.568273 0.129775
O O7 0.934099 0.426001 0.226297
O O8 0.923883 0.592225 0.299677
O O9 0.050069 0.750000 0.750000
O O10 0.881161 0.838556 0.693482
O O11 0.750000 0.750000 0.578224
O O12 0.577752 0.662864 0.516201
O O13 0.750000 0.250000 0.891016
O O14 0.617785 0.250000 0.750000
O O15 0.543139 0.301068 0.905718
O O16 0.582478 0.134625 0.894791
O O17 0.000000 0.500000 0.000000
#
# Coordination Sequence:
#
# PCOD8201845 Si02
#       7
#     8   8   8   8   8   8   8
#     4  10  22  38  68  93 128 181 224 279 341 402
#     4  11  24  45  68  95 136 186 226 283 360 414
#     4  11  23  41  62  99 136 171 231 285 337 420
#     4  12  23  40  68 100 136 179 226 284 351 407
#     4  11  25  46  72  99 135 181 232 288 351 406
#     4  10  22  44  65  95 131 172 235 279 330 423
#     4  12  26  46  68 107 144 178 239 295 347 425
#
# _framework density 21.033916999999999
#
# number of rings (size 3 to 8) (size 9 to 14) (size 15 to 20)
#    0.000    1.000    4.286    2.143    2.000    0.286 
#    2.571    0.714    0.000    0.000    0.000    0.000 
#    0.000    0.000    0.000    0.000    0.000    0.000 
#
# Total GULP energy -694407.467080 kJ/mol
# GULP energy per Si atom -12400.133341 kJ/mol
# Density = 2.098604 g / cm^3
# Si number density = 21.033917 Si / 1000 Ang^3
#
#
#
# Elastic Constant Matrix: (Units=GPa)
#
#
# Indices 1 2 3 4 5 6 
#
# 1 99.1961 39.6370 22.3142 0.0000 0.0000 0.0000
# 2 39.6370 97.8219 28.4308 0.0000 0.0000 0.0000
# 3 22.3142 28.4308 109.3785 0.0000 0.0000 0.0000
# 4 0.0000 0.0000 0.0000 32.2210 0.0000 0.0000
# 5 0.0000 0.0000 0.0000 0.0000 26.8718 0.0000
# 6 0.0000 0.0000 0.0000 0.0000 0.0000 31.3237
#
#
#
# Elastic Compliance Matrix: (Units=1/GPa)
#
#
# Indices 1 2 3 4 5 6 
#
# 1 0.012198 -0.004564 -0.001302 0.000000 0.000000 0.000000
# 2 -0.004564 0.012766 -0.002387 0.000000 0.000000 0.000000
# 3 -0.001302 -0.002387 0.010029 0.000000 0.000000 0.000000
# 4 0.000000 0.000000 0.000000 0.031036 0.000000 0.000000
# 5 0.000000 0.000000 0.000000 0.000000 0.037214 0.000000
# 6 0.000000 0.000000 0.000000 0.000000 0.000000 0.031925
#
#
# Mechanical properties :
#
#
# Convention : Reuss Voigt Hill
#
# Bulk Modulus (GPa) = 54.09598 54.12895 54.11246
# Shear Modulus (GPa) = 31.67876 32.48427 32.08151
#
# Velocity S-wave (km/s) = 3.88503 3.93412 3.90965
# Velocity P-wave (km/s) = 6.77488 6.81369 6.79431
#
# Compressibility (1/GPa) = 0.01848566
#
# Stress axis : x y z
#
# Youngs Moduli (GPa) = 81.98309 78.33458 99.71393
#
# Poissons Ratio (x) = 0.35752 0.12984
# Poissons Ratio (y) = 0.37417 0.23803
# Poissons Ratio (z) = 0.10675 0.18699
#
# Static dielectric constant tensor:
#      x y z
#    x 3.810830 0.000000 0.000000 
#    y 0.000000 4.000370 0.000000 
#    z 0.000000 0.000000 3.887150 
# 
# 
# High freq. dielectric constant tensor:
#      x y z
#    x 1.812800 0.000000 0.000000 
#    y 0.000000 1.829950 0.000000 
#    z 0.000000 0.000000 1.837650 
# 
# From -- ./inp_files/21352.got.cif
#   From: 2010.06.25/outbox.cif.g09.slc.cpg/sg48_11_cif.got.tgz:21352.got - 2010.06.26 18:06:46.
