data_PCOD8201401
_publ_section_title
;
Structure prediction by ZEFSAII (Michael W. Deem and Ramdas Pophale) SiO2 
 PCOD8201401
Probable space group: P N N N
;
_chemical_formula_sum "Si O2"
_cell_formula_units_Z 64
_cell_length_a 8.593129
_cell_length_b 20.604325
_cell_length_c 19.750904
_cell_angle_alpha 90.000000
_cell_angle_beta 90.000000
_cell_angle_gamma 90.000000
_cell_volume 3497.008606
_symmetry_space_group_name_H-M "P N N N"
_symmetry_group_IT_number 48
_space_group.IT_coordinate_system_code '2'
_symmetry_cell_setting 'orthorhombic'
loop_
_space_group_symop_operation_xyz
x,y,z
1/2-x,1/2-y,z
x,1/2-y,1/2-z
1/2-x,y,1/2-z
-x,-y,-z
1/2+x,1/2+y,-z
-x,1/2+y,1/2+z
1/2+x,-y,1/2+z
loop_
_atom_site_type_symbol
_atom_site_label
_atom_site_fract_x
_atom_site_fract_y
_atom_site_fract_z
Si Si1 0.913785 0.910816 0.526917
Si Si2 0.562402 0.549612 0.944995
Si Si3 0.585569 0.511623 0.394130
Si Si4 0.335335 0.682733 0.370354
Si Si5 0.918208 0.777930 0.465325
Si Si6 0.570724 0.948545 0.360968
Si Si7 0.092188 0.930085 0.274631
Si Si8 0.428897 0.646115 0.033502
O O1 0.742980 0.933755 0.548951
O O2 0.917122 0.832284 0.524704
O O3 0.045003 0.939058 0.578233
O O4 0.953469 0.936821 0.452372
O O5 0.539454 0.511695 0.874277
O O6 0.500000 0.500000 0.000000
O O7 0.447658 0.610919 0.960137
O O8 0.758516 0.521328 0.366995
O O9 0.473345 0.523764 0.331766
O O10 0.250000 0.750000 0.351040
O O11 0.511230 0.693271 0.396087
O O12 0.353595 0.639959 0.303419
O O13 0.240199 0.644887 0.430652
O O14 0.750000 0.750000 0.449177
O O15 0.030441 0.719470 0.486016
O O16 0.532034 0.921252 0.286413
O O17 0.550131 0.889179 0.414450
O O18 0.250000 0.964635 0.250000
#
# Coordination Sequence:
#
# PCOD8201401 Si02
#       8
#     8   8   8   8   8   8   8   8
#     4  11  21  35  59  84 113 152 187 244 303 345
#     4  10  19  33  57  81 112 145 189 237 300 346
#     4  11  23  36  56  85 111 149 198 244 297 346
#     4  10  23  37  54  80 115 161 203 236 291 341
#     4  11  20  37  57  84 119 151 193 245 287 352
#     4  11  22  38  57  85 116 155 198 241 292 349
#     4  12  23  39  58  77 119 157 203 243 285 345
#     4  10  20  36  56  82 116 151 190 239 295 344
#
# _framework density 18.301356999999999
#
# number of rings (size 3 to 8) (size 9 to 14) (size 15 to 20)
#    0.000    1.250    6.250    1.125    3.500    0.250 
#    0.000    0.000    0.000    0.750    0.000    0.875 
#    0.000    2.000    0.000    0.000    0.000    0.000 
#
# Total GULP energy -792961.414885 kJ/mol
# GULP energy per Si atom -12390.022108 kJ/mol
# Density = 1.825970 g / cm^3
# Si number density = 18.301357 Si / 1000 Ang^3
#
#
#
# Elastic Constant Matrix: (Units=GPa)
#
#
# Indices 1 2 3 4 5 6 
#
# 1 113.3063 50.6413 31.3186 0.0000 0.0000 0.0000
# 2 50.6413 108.2770 44.3560 0.0000 0.0000 0.0000
# 3 31.3186 44.3560 55.4577 0.0000 0.0000 0.0000
# 4 0.0000 0.0000 0.0000 24.8546 0.0000 0.0000
# 5 0.0000 0.0000 0.0000 0.0000 30.9980 0.0000
# 6 0.0000 0.0000 0.0000 0.0000 0.0000 26.8576
#
#
#
# Elastic Compliance Matrix: (Units=1/GPa)
#
#
# Indices 1 2 3 4 5 6 
#
# 1 0.011544 -0.004058 -0.003274 0.000000 0.000000 0.000000
# 2 -0.004058 0.015163 -0.009836 0.000000 0.000000 0.000000
# 3 -0.003274 -0.009836 0.027747 0.000000 0.000000 0.000000
# 4 0.000000 0.000000 0.000000 0.040234 0.000000 0.000000
# 5 0.000000 0.000000 0.000000 0.000000 0.032260 0.000000
# 6 0.000000 0.000000 0.000000 0.000000 0.000000 0.037233
#
#
# Mechanical properties :
#
#
# Convention : Reuss Voigt Hill
#
# Bulk Modulus (GPa) = 49.70339 58.85251 54.27795
# Shear Modulus (GPa) = 24.36371 26.59037 25.47704
#
# Velocity S-wave (km/s) = 3.65259 3.81585 3.73511
# Velocity P-wave (km/s) = 6.70864 7.18621 6.95152
#
# Compressibility (1/GPa) = 0.02011935
#
# Stress axis : x y z
#
# Youngs Moduli (GPa) = 86.62309 65.95074 36.03971
#
# Poissons Ratio (x) = 0.26764 0.11798
# Poissons Ratio (y) = 0.35154 0.35447
# Poissons Ratio (z) = 0.28356 0.64867
#
# Static dielectric constant tensor:
#      x y z
#    x 3.446430 0.000000 0.000000 
#    y 0.000000 3.922320 0.000000 
#    z 0.000000 0.000000 3.435780 
# 
# 
# High freq. dielectric constant tensor:
#      x y z
#    x 1.725890 0.000000 0.000000 
#    y 0.000000 1.704530 0.000000 
#    z 0.000000 0.000000 1.670070 
# 
# From -- ./inp_files/33697.got.cif
#   From: 2010.06.25/outbox.cif.g09.slc.cpg/sg48_17_cif.got.tgz:33697.got - 2010.06.26 18:06:46.
