data_PCOD8201729
_publ_section_title
;
Structure prediction by ZEFSAII (Michael W. Deem and Ramdas Pophale) SiO2 
 PCOD8201729
Probable space group: P N N N
;
_chemical_formula_sum "Si O2"
_cell_formula_units_Z 64
_cell_length_a 24.739618
_cell_length_b 14.367449
_cell_length_c 8.596361
_cell_angle_alpha 90.000000
_cell_angle_beta 90.000000
_cell_angle_gamma 90.000000
_cell_volume 3055.535254
_symmetry_space_group_name_H-M "P N N N"
_symmetry_group_IT_number 48
_space_group.IT_coordinate_system_code '2'
_symmetry_cell_setting 'orthorhombic'
loop_
_space_group_symop_operation_xyz
x,y,z
1/2-x,1/2-y,z
x,1/2-y,1/2-z
1/2-x,y,1/2-z
-x,-y,-z
1/2+x,1/2+y,-z
-x,1/2+y,1/2+z
1/2+x,-y,1/2+z
loop_
_atom_site_type_symbol
_atom_site_label
_atom_site_fract_x
_atom_site_fract_y
_atom_site_fract_z
Si Si1 0.386465 0.811319 0.018338
Si Si2 0.295805 0.496701 0.962231
Si Si3 0.627626 0.379923 0.860264
Si Si4 0.175703 0.972127 0.612335
Si Si5 0.603109 0.641544 0.409040
Si Si6 0.997736 0.835929 0.628632
Si Si7 0.375846 0.159128 0.553459
Si Si8 0.541982 0.537735 0.879433
O O1 0.381885 0.699257 0.007033
O O2 0.369867 0.835629 0.192524
O O3 0.341912 0.866162 0.918266
O O4 0.445398 0.839828 0.959200
O O5 0.318945 0.526734 0.796214
O O6 0.231490 0.499343 0.970834
O O7 0.319424 0.392701 0.985055
O O8 0.317668 0.565801 0.095114
O O9 0.578722 0.450132 0.847914
O O10 0.132162 0.045382 0.540474
O O11 0.545750 0.660229 0.489923
O O12 0.638309 0.731541 0.462480
O O13 0.598563 0.638551 0.222941
O O14 0.993206 0.750000 0.750000
O O15 0.990336 0.930924 0.725874
O O16 0.422579 0.125833 0.435866
O O17 0.500000 0.500000 0.000000
#
# Coordination Sequence:
#
# PCOD8201729 Si02
#       8
#     8   8   8   8   8   8   8   8
#     4  11  26  41  62  92 123 168 214 259 307 388
#     4   9  21  42  65  92 127 161 208 269 318 376
#     4  10  24  43  61  88 126 164 210 258 316 369
#     4  10  22  40  65  95 122 165 216 260 319 371
#     4  10  21  38  62  93 129 165 205 255 305 388
#     4  12  25  39  62  94 130 165 210 261 321 383
#     4   9  20  38  62  93 127 163 206 250 313 380
#     4  11  23  38  61  87 123 168 200 251 315 374
#
# _framework density 20.945595999999998
#
# number of rings (size 3 to 8) (size 9 to 14) (size 15 to 20)
#    0.000    1.750    1.250    1.500    8.750    3.500 
#    0.000    5.000    0.000    0.000    0.000    0.000 
#    0.000    0.000    0.000    0.000    0.000    0.000 
#
# Total GULP energy -793148.191071 kJ/mol
# GULP energy per Si atom -12392.940485 kJ/mol
# Density = 2.089792 g / cm^3
# Si number density = 20.945596 Si / 1000 Ang^3
#
#
#
# Elastic Constant Matrix: (Units=GPa)
#
#
# Indices 1 2 3 4 5 6 
#
# 1 91.7167 17.5280 27.7588 0.0000 0.0000 0.0000
# 2 17.5280 106.5268 24.7160 0.0000 0.0000 0.0000
# 3 27.7588 24.7160 52.5571 0.0000 0.0000 0.0000
# 4 0.0000 0.0000 0.0000 31.8125 0.0000 0.0000
# 5 0.0000 0.0000 0.0000 0.0000 26.9985 0.0000
# 6 0.0000 0.0000 0.0000 0.0000 0.0000 10.5225
#
#
#
# Elastic Compliance Matrix: (Units=1/GPa)
#
#
# Indices 1 2 3 4 5 6 
#
# 1 0.013013 -0.000613 -0.006585 0.000000 0.000000 0.000000
# 2 -0.000613 0.010566 -0.004645 0.000000 0.000000 0.000000
# 3 -0.006585 -0.004645 0.024689 0.000000 0.000000 0.000000
# 4 0.000000 0.000000 0.000000 0.031434 0.000000 0.000000
# 5 0.000000 0.000000 0.000000 0.000000 0.037039 0.000000
# 6 0.000000 0.000000 0.000000 0.000000 0.000000 0.095035
#
#
# Mechanical properties :
#
#
# Convention : Reuss Voigt Hill
#
# Bulk Modulus (GPa) = 40.67961 43.42293 42.05127
# Shear Modulus (GPa) = 20.52070 25.91987 23.22029
#
# Velocity S-wave (km/s) = 3.13343 3.52161 3.33318
# Velocity P-wave (km/s) = 5.70569 6.10835 5.91045
#
# Compressibility (1/GPa) = 0.02458234
#
# Stress axis : x y z
#
# Youngs Moduli (GPa) = 76.84461 94.64385 40.50380
#
# Poissons Ratio (x) = 0.05806 0.26670
# Poissons Ratio (y) = 0.04714 0.18813
# Poissons Ratio (z) = 0.50600 0.43960
#
# Static dielectric constant tensor:
#      x y z
#    x 3.635420 0.000000 0.000000 
#    y 0.000000 4.384430 0.000000 
#    z 0.000000 0.000000 3.816700 
# 
# 
# High freq. dielectric constant tensor:
#      x y z
#    x 1.807300 0.000000 0.000000 
#    y 0.000000 1.836250 0.000000 
#    z 0.000000 0.000000 1.819390 
# 
# From -- ./inp_files/16033.got.cif
#   From: 2010.06.25/outbox.cif.g09.slc.cpg/sg48_9_cif.got.tgz:16033.got - 2010.06.26 18:06:46.
