data_PCOD8201070
_publ_section_title
;
Structure prediction by ZEFSAII (Michael W. Deem and Ramdas Pophale) SiO2 
 PCOD8201070
Probable space group: P M M M
;
_chemical_formula_sum "Si O2"
_cell_formula_units_Z 52
_cell_length_a 9.458849
_cell_length_b 9.334108
_cell_length_c 33.529344
_cell_angle_alpha 90.000000
_cell_angle_beta 90.000000
_cell_angle_gamma 90.000000
_cell_volume 2960.303036
_symmetry_space_group_name_H-M "P M M M"
_symmetry_group_IT_number 47
_symmetry_cell_setting 'orthorhombic'
loop_
_space_group_symop_operation_xyz
x,y,z
-x,-y,z
x,-y,-z
-x,y,-z
-x,-y,-z
x,y,-z
-x,y,z
x,-y,z
loop_
_atom_site_type_symbol
_atom_site_label
_atom_site_fract_x
_atom_site_fract_y
_atom_site_fract_z
Si Si1 0.165618 0.837000 0.045015
Si Si2 0.840092 0.829939 0.500000
Si Si3 0.658671 0.330464 0.891294
Si Si4 0.332017 0.338182 0.346445
Si Si5 0.335702 0.167328 0.575909
Si Si6 0.331697 0.340420 0.803163
Si Si7 0.331215 0.838379 0.271043
O O1 0.241964 0.733408 0.075345
O O2 0.000000 0.814041 0.049963
O O3 0.207565 0.000000 0.054694
O O4 0.212149 0.798024 0.000000
O O5 0.756644 0.775873 0.538924
O O6 0.000000 0.768676 0.500000
O O7 0.841700 0.000000 0.500000
O O8 0.500000 0.271746 0.897683
O O9 0.660499 0.500000 0.895230
O O10 0.715071 0.286810 0.847161
O O11 0.500000 0.340937 0.344536
O O12 0.271636 0.500000 0.346486
O O13 0.282192 0.256001 0.386031
O O14 0.272109 0.253214 0.308201
O O15 0.500000 0.196457 0.566259
O O16 0.310329 0.000000 0.584695
O O17 0.500000 0.346787 0.801877
O O18 0.272123 0.500000 0.794473
O O19 0.272882 0.232178 0.769745
O O20 0.500000 0.838628 0.271388
O O21 0.272748 0.000000 0.274023
#
# Coordination Sequence:
#
# PCOD8201070 Si02
#       7
#     8   4   8   8   8   8   8
#     4   9  19  35  51  67  90 121 157 196 237 281
#     4   9  17  29  46  67  88 112 144 179 216 260
#     4   9  18  31  47  70  98 125 155 192 233 278
#     4   9  16  25  38  58  85 116 147 179 218 261
#     4   9  16  27  44  65  88 113 143 180 218 255
#     4   8  14  25  39  57  87 123 151 178 218 266
#     4   9  15  22  35  58  87 117 149 183 217 256
#
# _framework density 17.565771000000002
#
# number of rings (size 3 to 8) (size 9 to 14) (size 15 to 20)
#    0.000    3.154    0.000    2.538    0.000    6.462 
#    0.000    4.231    0.000    2.769    0.000    1.077 
#    0.000    6.154    0.000    0.000    0.000    0.000 
#
# Total GULP energy -644608.766944 kJ/mol
# GULP energy per Si atom -12396.322441 kJ/mol
# Density = 1.752579 g / cm^3
# Si number density = 17.565771 Si / 1000 Ang^3
#
#
#
# Elastic Constant Matrix: (Units=GPa)
#
#
# Indices 1 2 3 4 5 6 
#
# 1 32.0615 21.5736 40.9277 0.0000 0.0000 0.0000
# 2 21.5736 90.8408 74.7615 0.0000 0.0000 0.0000
# 3 40.9277 74.7615 169.0285 0.0000 0.0000 0.0000
# 4 0.0000 0.0000 0.0000 33.4804 0.0000 0.0000
# 5 0.0000 0.0000 0.0000 0.0000 -2.2407 0.0000
# 6 0.0000 0.0000 0.0000 0.0000 0.0000 14.7926
#
#
#
# Elastic Compliance Matrix: (Units=1/GPa)
#
#
# Indices 1 2 3 4 5 6 
#
# 1 0.045573 -0.002738 -0.009824 0.000000 0.000000 0.000000
# 2 -0.002738 0.017473 -0.007066 0.000000 0.000000 0.000000
# 3 -0.009824 -0.007066 0.011420 0.000000 0.000000 0.000000
# 4 0.000000 0.000000 0.000000 0.029868 0.000000 0.000000
# 5 0.000000 0.000000 0.000000 0.000000 -0.446287 0.000000
# 6 0.000000 0.000000 0.000000 0.000000 0.000000 0.067601
#
#
# Mechanical properties :
#
#
# Convention : Reuss Voigt Hill
#
# Bulk Modulus (GPa) = 28.39992 62.93961 45.66976
# Shear Modulus (GPa) = -22.38545 19.51765 -1.43390
#
# Velocity S-wave (km/s) = -3.57372 3.33696 -0.90448
# Velocity P-wave (km/s) = 0.90871 7.12430 4.99650
#
# Compressibility (1/GPa) = 0.03521137
#
# Stress axis : x y z
#
# Youngs Moduli (GPa) = 21.94296 57.22969 87.56645
#
# Poissons Ratio (x) = 0.15671 0.86022
# Poissons Ratio (y) = 0.06008 0.61870
# Poissons Ratio (z) = 0.21556 0.40436
#
# Static dielectric constant tensor:
#      x y z
#    x 2.790960 0.000000 0.000000 
#    y 0.000000 3.274180 0.000000 
#    z 0.000000 0.000000 3.512790 
# 
# 
# High freq. dielectric constant tensor:
#      x y z
#    x 1.618170 0.000000 0.000000 
#    y 0.000000 1.672650 0.000000 
#    z 0.000000 0.000000 1.696350 
# 
# From -- ./inp_files/34513.got.cif
#   From: 2010.03.12/outbox.cif.g09.slc.cpg/sg47_18_cif.got.tgz:34513.got - 2010.04.14 03:12:58.
