data_PCOD8201081
_publ_section_title
;
Structure prediction by ZEFSAII (Michael W. Deem and Ramdas Pophale) SiO2 
 PCOD8201081
Probable space group: P M M M
;
_chemical_formula_sum "Si O2"
_cell_formula_units_Z 52
_cell_length_a 33.589367
_cell_length_b 9.611638
_cell_length_c 9.562879
_cell_angle_alpha 90.000000
_cell_angle_beta 90.000000
_cell_angle_gamma 90.000000
_cell_volume 3087.364356
_symmetry_space_group_name_H-M "P M M M"
_symmetry_group_IT_number 47
_symmetry_cell_setting 'orthorhombic'
loop_
_space_group_symop_operation_xyz
x,y,z
-x,-y,z
x,-y,-z
-x,y,-z
-x,-y,-z
x,y,-z
-x,y,z
x,-y,z
loop_
_atom_site_type_symbol
_atom_site_label
_atom_site_fract_x
_atom_site_fract_y
_atom_site_fract_z
Si Si1 0.574211 0.660730 0.163231
Si Si2 0.500000 0.157910 0.165978
Si Si3 0.276522 0.845172 0.666413
Si Si4 0.956076 0.656265 0.833850
Si Si5 0.810566 0.165626 0.344199
Si Si6 0.116300 0.162080 0.837143
Si Si7 0.348982 0.661064 0.338157
O O1 0.562753 0.500000 0.192203
O O2 0.538719 0.758691 0.218574
O O3 0.612887 0.706336 0.249169
O O4 0.582874 0.684717 0.000000
O O5 0.500000 0.000000 0.225711
O O6 0.500000 0.155467 0.000000
O O7 0.276650 0.850232 0.500000
O O8 0.232995 0.787688 0.713360
O O9 0.311129 0.744500 0.722006
O O10 0.284220 0.000000 0.726819
O O11 0.946523 0.500000 0.782500
O O12 0.922449 0.759921 0.775424
O O13 0.000000 0.701859 0.779271
O O14 0.956069 0.661896 0.000000
O O15 0.818340 0.225344 0.500000
O O16 0.844855 0.221341 0.241597
O O17 0.810782 0.000000 0.349331
O O18 0.109760 0.000000 0.807585
O O19 0.122633 0.193217 0.000000
O O20 0.357447 0.696597 0.500000
O O21 0.339160 0.500000 0.317044
#
# Coordination Sequence:
#
# PCOD8201081 Si02
#       7
#     8   4   8   8   8   8   8
#     4   9  17  30  47  64  84 113 144 169 200 247
#     4   9  17  29  46  67  88 110 140 177 208 236
#     4   8  14  26  44  62  80 108 143 170 196 240
#     4   8  14  25  40  57  79 108 137 162 195 244
#     4   8  14  26  43  60  80 109 140 165 196 244
#     4   9  16  25  40  63  85 102 128 171 211 236
#     4   9  17  29  45  65  87 109 136 173 211 241
#
# _framework density 16.842845000000001
#
# number of rings (size 3 to 8) (size 9 to 14) (size 15 to 20)
#    0.000    3.462    0.000    1.615    0.000    1.846 
#    0.000    3.462    0.000    5.077    0.000    3.231 
#    0.000    0.000    0.000    0.000    0.000    0.000 
#
# Total GULP energy -644497.723991 kJ/mol
# GULP energy per Si atom -12394.187000 kJ/mol
# Density = 1.680451 g / cm^3
# Si number density = 16.842845 Si / 1000 Ang^3
#
#
#
# Elastic Constant Matrix: (Units=GPa)
#
#
# Indices 1 2 3 4 5 6 
#
# 1 193.3702 82.3803 50.2928 0.0000 0.0000 0.0000
# 2 82.3803 71.7055 26.0006 0.0000 0.0000 0.0000
# 3 50.2928 26.0006 34.9852 0.0000 0.0000 0.0000
# 4 0.0000 0.0000 0.0000 11.1990 0.0000 0.0000
# 5 0.0000 0.0000 0.0000 0.0000 20.7414 0.0000
# 6 0.0000 0.0000 0.0000 0.0000 0.0000 28.5014
#
#
#
# Elastic Compliance Matrix: (Units=1/GPa)
#
#
# Indices 1 2 3 4 5 6 
#
# 1 0.012135 -0.010425 -0.009696 0.000000 0.000000 0.000000
# 2 -0.010425 0.028047 -0.005857 0.000000 0.000000 0.000000
# 3 -0.009696 -0.005857 0.046875 0.000000 0.000000 0.000000
# 4 0.000000 0.000000 0.000000 0.089293 0.000000 0.000000
# 5 0.000000 0.000000 0.000000 0.000000 0.048213 0.000000
# 6 0.000000 0.000000 0.000000 0.000000 0.000000 0.035086
#
#
# Mechanical properties :
#
#
# Convention : Reuss Voigt Hill
#
# Bulk Modulus (GPa) = 28.49054 68.60093 48.54573
# Shear Modulus (GPa) = 15.46515 21.51417 18.48966
#
# Velocity S-wave (km/s) = 3.03347 3.57788 3.31686
# Velocity P-wave (km/s) = 5.40569 7.60833 6.59955
#
# Compressibility (1/GPa) = 0.03509937
#
# Stress axis : x y z
#
# Youngs Moduli (GPa) = 82.40801 35.65410 21.33316
#
# Poissons Ratio (x) = 0.37171 0.20685
# Poissons Ratio (y) = 0.85913 0.12496
# Poissons Ratio (z) = 0.79905 0.20884
#
# Static dielectric constant tensor:
#      x y z
#    x 3.573610 0.000000 0.000000 
#    y 0.000000 3.134190 0.000000 
#    z 0.000000 0.000000 2.834640 
# 
# 
# High freq. dielectric constant tensor:
#      x y z
#    x 1.663990 0.000000 0.000000 
#    y 0.000000 1.631680 0.000000 
#    z 0.000000 0.000000 1.603980 
# 
# From -- ./inp_files/20029.got.cif
#   From: 2010.03.12/outbox.cif.g09.slc.cpg/sg47_11_cif.got.tgz:20029.got - 2010.04.14 03:12:58.
