data_PCOD8201772
_publ_section_title
;
Structure prediction by ZEFSAII (Michael W. Deem and Ramdas Pophale) SiO2 
 PCOD8201772
Probable space group: P N N N
;
_chemical_formula_sum "Si O2"
_cell_formula_units_Z 56
_cell_length_a 20.159316
_cell_length_b 7.946002
_cell_length_c 15.691442
_cell_angle_alpha 90.000000
_cell_angle_beta 90.000000
_cell_angle_gamma 90.000000
_cell_volume 2513.548783
_symmetry_space_group_name_H-M "P N N N"
_symmetry_group_IT_number 48
_space_group.IT_coordinate_system_code '2'
_symmetry_cell_setting 'orthorhombic'
loop_
_space_group_symop_operation_xyz
x,y,z
1/2-x,1/2-y,z
x,1/2-y,1/2-z
1/2-x,y,1/2-z
-x,-y,-z
1/2+x,1/2+y,-z
-x,1/2+y,1/2+z
1/2+x,-y,1/2+z
loop_
_atom_site_type_symbol
_atom_site_label
_atom_site_fract_x
_atom_site_fract_y
_atom_site_fract_z
Si Si1 0.173840 0.948115 0.550557
Si Si2 0.684047 0.077842 0.704078
Si Si3 0.945729 0.866983 0.824855
Si Si4 0.100503 0.240582 0.002729
Si Si5 0.557911 0.864751 0.328665
Si Si6 0.674634 0.051343 0.240652
Si Si7 0.682557 0.404732 0.989809
O O1 0.150087 0.994088 0.645763
O O2 0.253386 0.936816 0.548150
O O3 0.145343 0.766186 0.521012
O O4 0.149123 0.099049 0.490070
O O5 0.661213 0.250000 0.750000
O O6 0.750000 0.003358 0.750000
O O7 0.704541 0.119945 0.607542
O O8 0.624979 0.942452 0.705289
O O9 0.973484 0.750000 0.750000
O O10 0.942067 0.755138 0.910880
O O11 0.998684 0.008223 0.844137
O O12 0.135076 0.060453 0.999586
O O13 0.059775 0.248459 0.914512
O O14 0.537313 0.750000 0.250000
O O15 0.628230 0.957502 0.309476
O O16 0.669892 0.250000 0.250000
O O17 0.750000 0.986907 0.250000
#
# Coordination Sequence:
#
# PCOD8201772 Si02
#       7
#     8   8   8   8   8   8   8
#     4  11  20  38  62 101 136 182 222 269 347 402
#     4  10  21  40  66  97 131 178 224 284 345 401
#     4  11  27  44  69  96 132 178 229 290 340 408
#     4  11  24  44  67  98 133 181 230 276 341 406
#     4  12  24  47  67  95 137 178 226 284 343 411
#     4  11  22  38  68 101 135 174 223 274 338 408
#     4  10  22  36  64  99 146 177 218 287 331 410
#
# _framework density 22.279257999999999
#
# number of rings (size 3 to 8) (size 9 to 14) (size 15 to 20)
#    0.000    1.143    1.429    6.857    4.000    0.571 
#    0.000    0.714    0.000    0.000    0.000    0.000 
#    0.000    0.000    0.000    0.000    0.000    0.000 
#
# Total GULP energy -694417.423379 kJ/mol
# GULP energy per Si atom -12400.311132 kJ/mol
# Density = 2.222855 g / cm^3
# Si number density = 22.279258 Si / 1000 Ang^3
#
#
#
# Elastic Constant Matrix: (Units=GPa)
#
#
# Indices 1 2 3 4 5 6 
#
# 1 72.1538 14.4317 20.3949 0.0000 0.0000 0.0000
# 2 14.4317 82.9771 29.0908 0.0000 0.0000 0.0000
# 3 20.3949 29.0908 153.4476 0.0000 0.0000 0.0000
# 4 0.0000 0.0000 0.0000 40.1734 0.0000 0.0000
# 5 0.0000 0.0000 0.0000 0.0000 30.8414 0.0000
# 6 0.0000 0.0000 0.0000 0.0000 0.0000 -503.9967
#
#
#
# Elastic Compliance Matrix: (Units=1/GPa)
#
#
# Indices 1 2 3 4 5 6 
#
# 1 0.014705 -0.002006 -0.001574 0.000000 0.000000 0.000000
# 2 -0.002006 0.013183 -0.002233 0.000000 0.000000 0.000000
# 3 -0.001574 -0.002233 0.007149 0.000000 0.000000 0.000000
# 4 0.000000 0.000000 0.000000 0.024892 0.000000 0.000000
# 5 0.000000 0.000000 0.000000 0.000000 0.032424 0.000000
# 6 0.000000 0.000000 0.000000 0.000000 0.000000 -0.001984
#
#
# Mechanical properties :
#
#
# Convention : Reuss Voigt Hill
#
# Bulk Modulus (GPa) = 42.71203 48.49037 45.60120
# Shear Modulus (GPa) = 45.53757 -70.28565 -12.37404
#
# Velocity S-wave (km/s) = 4.52591 -5.62282 -2.35926
# Velocity P-wave (km/s) = 6.82089 4.51029 3.61814
#
# Compressibility (1/GPa) = 0.02341261
#
# Stress axis : x y z
#
# Youngs Moduli (GPa) = 68.00202 75.85458 139.87195
#
# Poissons Ratio (x) = 0.15214 0.22020
# Poissons Ratio (y) = 0.13639 0.31229
# Poissons Ratio (z) = 0.10705 0.16936
#
# Static dielectric constant tensor:
#      x y z
#    x 3.718650 0.000000 0.000000 
#    y 0.000000 4.111740 0.000000 
#    z 0.000000 0.000000 4.364160 
# 
# 
# High freq. dielectric constant tensor:
#      x y z
#    x 1.854020 0.000000 0.000000 
#    y 0.000000 1.880590 0.000000 
#    z 0.000000 0.000000 1.901060 
# 
# From -- ./inp_files/28331.got.cif
#   From: 2010.06.25/outbox.cif.g09.slc.cpg/sg48_15_cif.got.tgz:28331.got - 2010.06.26 18:06:46.
