data_PCOD8201643
_publ_section_title
;
Structure prediction by ZEFSAII (Michael W. Deem and Ramdas Pophale) SiO2 
 PCOD8201643
Probable space group: P N N N
;
_chemical_formula_sum "Si O2"
_cell_formula_units_Z 56
_cell_length_a 9.577719
_cell_length_b 21.169530
_cell_length_c 13.378128
_cell_angle_alpha 90.000000
_cell_angle_beta 90.000000
_cell_angle_gamma 90.000000
_cell_volume 2712.493175
_symmetry_space_group_name_H-M "P N N N"
_symmetry_group_IT_number 48
_space_group.IT_coordinate_system_code '2'
_symmetry_cell_setting 'orthorhombic'
loop_
_space_group_symop_operation_xyz
x,y,z
1/2-x,1/2-y,z
x,1/2-y,1/2-z
1/2-x,y,1/2-z
-x,-y,-z
1/2+x,1/2+y,-z
-x,1/2+y,1/2+z
1/2+x,-y,1/2+z
loop_
_atom_site_type_symbol
_atom_site_label
_atom_site_fract_x
_atom_site_fract_y
_atom_site_fract_z
Si Si1 0.589024 0.176704 0.763902
Si Si2 0.381228 0.542154 0.908085
Si Si3 0.964374 0.594807 0.412885
Si Si4 0.878287 0.288972 0.969496
Si Si5 0.122568 0.203833 0.043678
Si Si6 0.336485 0.865841 0.840777
Si Si7 0.902745 0.615423 0.719058
O O1 0.544660 0.250000 0.750000
O O2 0.750000 0.162199 0.750000
O O3 0.507236 0.128317 0.691611
O O4 0.555406 0.166171 0.882927
O O5 0.369323 0.466943 0.897259
O O6 0.237733 0.566722 0.859904
O O7 0.518609 0.563296 0.846426
O O8 0.402606 0.570442 0.020601
O O9 0.864958 0.643163 0.472234
O O10 0.750000 0.250000 0.918164
O O11 0.812124 0.327780 0.059060
O O12 0.982140 0.239007 0.016241
O O13 0.250000 0.250000 0.025640
O O14 0.116412 0.180956 0.158561
O O15 0.250000 0.832844 0.750000
O O16 0.501416 0.871353 0.816921
O O17 0.750000 0.589703 0.750000
#
# Coordination Sequence:
#
# PCOD8201643 Si02
#       7
#     8   8   8   8   8   8   8
#     4  11  19  34  58  89 127 163 202 255 314 379
#     4   9  20  39  66  89 116 166 217 254 314 380
#     4  10  20  40  63  86 124 168 208 256 316 385
#     4  12  21  35  59  89 123 161 206 253 312 384
#     4  11  23  38  60  90 124 161 201 250 325 397
#     4  10  21  37  60  90 123 159 212 268 307 376
#     4  10  21  39  60  87 121 159 203 266 320 379
#
# _framework density 20.645212999999998
#
# number of rings (size 3 to 8) (size 9 to 14) (size 15 to 20)
#    0.000    1.571    2.857    4.286    0.000    4.000 
#    0.000    7.143    0.000   13.714    0.000    0.000 
#    0.000    0.000    0.000    0.000    0.000    0.000 
#
# Total GULP energy -693990.285750 kJ/mol
# GULP energy per Si atom -12392.683674 kJ/mol
# Density = 2.059822 g / cm^3
# Si number density = 20.645213 Si / 1000 Ang^3
#
#
#
# Elastic Constant Matrix: (Units=GPa)
#
#
# Indices 1 2 3 4 5 6 
#
# 1 113.5475 46.0853 29.1230 0.0000 0.0000 0.0000
# 2 46.0853 134.9210 59.1449 0.0000 0.0000 0.0000
# 3 29.1230 59.1449 140.1400 0.0000 0.0000 0.0000
# 4 0.0000 0.0000 0.0000 34.9241 0.0000 0.0000
# 5 0.0000 0.0000 0.0000 0.0000 22.9975 0.0000
# 6 0.0000 0.0000 0.0000 0.0000 0.0000 12.9619
#
#
#
# Elastic Compliance Matrix: (Units=1/GPa)
#
#
# Indices 1 2 3 4 5 6 
#
# 1 0.010298 -0.003165 -0.000804 0.000000 0.000000 0.000000
# 2 -0.003165 0.010067 -0.003591 0.000000 0.000000 0.000000
# 3 -0.000804 -0.003591 0.008818 0.000000 0.000000 0.000000
# 4 0.000000 0.000000 0.000000 0.028634 0.000000 0.000000
# 5 0.000000 0.000000 0.000000 0.000000 0.043483 0.000000
# 6 0.000000 0.000000 0.000000 0.000000 0.000000 0.077149
#
#
# Mechanical properties :
#
#
# Convention : Reuss Voigt Hill
#
# Bulk Modulus (GPa) = 71.10954 73.03498 72.07226
# Shear Modulus (GPa) = 25.21986 31.12705 28.17345
#
# Velocity S-wave (km/s) = 3.49891 3.88714 3.69812
# Velocity P-wave (km/s) = 7.13032 7.45651 7.29524
#
# Compressibility (1/GPa) = 0.01406281
#
# Stress axis : x y z
#
# Youngs Moduli (GPa) = 97.10925 99.33532 113.39923
#
# Poissons Ratio (x) = 0.31438 0.09121
# Poissons Ratio (y) = 0.30733 0.40721
# Poissons Ratio (z) = 0.07811 0.35671
#
# Static dielectric constant tensor:
#      x y z
#    x 3.366860 0.000000 0.000000 
#    y 0.000000 3.664960 0.000000 
#    z 0.000000 0.000000 4.252420 
# 
# 
# High freq. dielectric constant tensor:
#      x y z
#    x 1.784110 0.000000 0.000000 
#    y 0.000000 1.792610 0.000000 
#    z 0.000000 0.000000 1.825750 
# 
# From -- ./inp_files/25632.got.cif
#   From: 2010.06.25/outbox.cif.g09.slc.cpg/sg48_13_cif.got.tgz:25632.got - 2010.06.26 18:06:46.
