data_PCOD8201416
_publ_section_title
;
Structure prediction by ZEFSAII (Michael W. Deem and Ramdas Pophale) SiO2 
 PCOD8201416
Probable space group: P N N N
;
_chemical_formula_sum "Si O2"
_cell_formula_units_Z 64
_cell_length_a 8.360642
_cell_length_b 24.083664
_cell_length_c 16.673216
_cell_angle_alpha 90.000000
_cell_angle_beta 90.000000
_cell_angle_gamma 90.000000
_cell_volume 3357.233620
_symmetry_space_group_name_H-M "P N N N"
_symmetry_group_IT_number 48
_space_group.IT_coordinate_system_code '2'
_symmetry_cell_setting 'orthorhombic'
loop_
_space_group_symop_operation_xyz
x,y,z
1/2-x,1/2-y,z
x,1/2-y,1/2-z
1/2-x,y,1/2-z
-x,-y,-z
1/2+x,1/2+y,-z
-x,1/2+y,1/2+z
1/2+x,-y,1/2+z
loop_
_atom_site_type_symbol
_atom_site_label
_atom_site_fract_x
_atom_site_fract_y
_atom_site_fract_z
Si Si1 0.935699 0.935883 0.267924
Si Si2 0.143896 0.354864 0.325460
Si Si3 0.441081 0.633994 0.409599
Si Si4 0.560791 0.745331 0.098780
Si Si5 0.136101 0.649693 0.323636
Si Si6 0.565618 0.437514 0.267761
Si Si7 0.957315 0.633937 0.910571
Si Si8 0.938348 0.743529 0.581669
O O1 0.750000 0.930797 0.250000
O O2 0.971619 0.911076 0.354884
O O3 0.032568 0.904164 0.198736
O O4 0.994227 0.999413 0.269215
O O5 0.250000 0.333574 0.250000
O O6 0.265094 0.371814 0.397455
O O7 0.022808 0.306191 0.355973
O O8 0.037662 0.407182 0.300650
O O9 0.492637 0.694692 0.379935
O O10 0.248077 0.632275 0.399173
O O11 0.496515 0.619492 0.498909
O O12 0.750000 0.750000 0.111006
O O13 0.483763 0.700092 0.157418
O O14 0.508050 0.728484 0.008481
O O15 0.250000 0.667508 0.250000
O O16 0.750000 0.433419 0.250000
O O17 0.545905 0.409069 0.353853
O O18 0.014435 0.697491 0.891186
O O19 0.750000 0.750000 0.581370
#
# Coordination Sequence:
#
# PCOD8201416 Si02
#       8
#     8   8   8   8   8   8   8   8
#     4  10  22  40  57  74 103 142 183 226 271 322
#     4   9  18  33  57  80 108 143 180 218 262 321
#     4  10  21  36  56  83 110 137 178 224 268 320
#     4  10  19  34  56  81 112 144 175 212 264 327
#     4  10  22  37  56  80 109 140 179 226 274 320
#     4  10  22  38  54  77 108 140 180 228 272 316
#     4   9  19  35  56  81 108 142 178 215 266 322
#     4   8  16  31  53  82 109 138 175 212 253 312
#
# _framework density 19.063314999999999
#
# number of rings (size 3 to 8) (size 9 to 14) (size 15 to 20)
#    0.000    2.500    0.000    1.875    0.000   15.250 
#    0.000    5.625    0.000    3.750    0.000    0.000 
#    0.000    0.000    0.000    0.000    0.000    0.000 
#
# Total GULP energy -793364.945918 kJ/mol
# GULP energy per Si atom -12396.327280 kJ/mol
# Density = 1.901993 g / cm^3
# Si number density = 19.063315 Si / 1000 Ang^3
#
#
#
# Elastic Constant Matrix: (Units=GPa)
#
#
# Indices 1 2 3 4 5 6 
#
# 1 83.6777 64.7296 56.6152 0.0000 0.0000 0.0000
# 2 64.7296 176.0171 81.4004 0.0000 0.0000 0.0000
# 3 56.6152 81.4004 99.0366 0.0000 0.0000 0.0000
# 4 0.0000 0.0000 0.0000 8.3998 0.0000 0.0000
# 5 0.0000 0.0000 0.0000 0.0000 31.9820 0.0000
# 6 0.0000 0.0000 0.0000 0.0000 0.0000 31.4097
#
#
#
# Elastic Compliance Matrix: (Units=1/GPa)
#
#
# Indices 1 2 3 4 5 6 
#
# 1 0.020713 -0.003454 -0.009002 0.000000 0.000000 0.000000
# 2 -0.003454 0.009741 -0.006032 0.000000 0.000000 0.000000
# 3 -0.009002 -0.006032 0.020201 0.000000 0.000000 0.000000
# 4 0.000000 0.000000 0.000000 0.119051 0.000000 0.000000
# 5 0.000000 0.000000 0.000000 0.000000 0.031268 0.000000
# 6 0.000000 0.000000 0.000000 0.000000 0.000000 0.031837
#
#
# Mechanical properties :
#
#
# Convention : Reuss Voigt Hill
#
# Bulk Modulus (GPa) = 73.10173 84.91354 79.00763
# Shear Modulus (GPa) = 18.22517 24.75735 21.49126
#
# Velocity S-wave (km/s) = 3.09533 3.60764 3.36126
# Velocity P-wave (km/s) = 7.15576 7.87357 7.52323
#
# Compressibility (1/GPa) = 0.01367957
#
# Stress axis : x y z
#
# Youngs Moduli (GPa) = 48.27849 102.65960 49.50313
#
# Poissons Ratio (x) = 0.35461 0.44561
# Poissons Ratio (y) = 0.16677 0.29858
# Poissons Ratio (z) = 0.43459 0.61920
#
# Static dielectric constant tensor:
#      x y z
#    x 3.551640 0.000000 0.000000 
#    y 0.000000 3.696090 0.000000 
#    z 0.000000 0.000000 3.577900 
# 
# 
# High freq. dielectric constant tensor:
#      x y z
#    x 1.734670 0.000000 0.000000 
#    y 0.000000 1.739690 0.000000 
#    z 0.000000 0.000000 1.738600 
# 
# From -- ./inp_files/30598.got.cif
#   From: 2010.06.25/outbox.cif.g09.slc.cpg/sg48_16_cif.got.tgz:30598.got - 2010.06.26 18:06:46.
