data_PCOD8201682
_publ_section_title
;
Structure prediction by ZEFSAII (Michael W. Deem and Ramdas Pophale) SiO2 
 PCOD8201682
Probable space group: P N N N
;
_chemical_formula_sum "Si O2"
_cell_formula_units_Z 48
_cell_length_a 29.400656
_cell_length_b 9.181623
_cell_length_c 8.897565
_cell_angle_alpha 90.000000
_cell_angle_beta 90.000000
_cell_angle_gamma 90.000000
_cell_volume 2401.859762
_symmetry_space_group_name_H-M "P N N N"
_symmetry_group_IT_number 48
_space_group.IT_coordinate_system_code '2'
_symmetry_cell_setting 'orthorhombic'
loop_
_space_group_symop_operation_xyz
x,y,z
1/2-x,1/2-y,z
x,1/2-y,1/2-z
1/2-x,y,1/2-z
-x,-y,-z
1/2+x,1/2+y,-z
-x,1/2+y,1/2+z
1/2+x,-y,1/2+z
loop_
_atom_site_type_symbol
_atom_site_label
_atom_site_fract_x
_atom_site_fract_y
_atom_site_fract_z
Si Si1 0.437447 0.953516 0.060240
Si Si2 0.518211 0.723168 0.421660
Si Si3 0.163825 0.605556 0.064693
Si Si4 0.748107 0.914542 0.929759
Si Si5 0.663431 0.430278 0.917563
Si Si6 0.078481 0.388591 0.350467
O O1 0.463734 0.797473 0.045554
O O2 0.384877 0.953919 0.013689
O O3 0.443898 0.997004 0.235886
O O4 0.459444 0.067286 0.948656
O O5 0.529366 0.750000 0.250000
O O6 0.539533 0.844784 0.530742
O O7 0.204640 0.503063 0.002614
O O8 0.163502 0.771624 0.003666
O O9 0.168876 0.599711 0.242413
O O10 0.750000 0.750000 0.991373
O O11 0.750000 0.915189 0.750000
O O12 0.793530 0.990306 0.990674
O O13 0.619486 0.534109 0.941915
O O14 0.096150 0.250000 0.250000
#
# Coordination Sequence:
#
# PCOD8201682 Si02
#       6
#     8   8   8   8   8   8
#     4   9  20  36  53  77 105 145 179 225 276 314
#     4  10  21  35  54  76 107 143 184 231 265 318
#     4   9  17  30  46  70 109 138 174 219 268 331
#     4   9  17  24  43  73 106 138 170 214 269 327
#     4   9  17  27  47  74 103 143 173 215 275 325
#     4   9  19  33  54  76 106 142 188 229 265 328
#
# _framework density 19.984514000000001
#
# number of rings (size 3 to 8) (size 9 to 14) (size 15 to 20)
#    0.000    2.833    0.000    0.500   14.000    2.667 
#    0.000    0.000    0.000    0.000    0.000    2.333 
#    0.000    2.667    0.000    0.667    0.000    0.000 
#
# Total GULP energy -594688.612882 kJ/mol
# GULP energy per Si atom -12389.346102 kJ/mol
# Density = 1.993903 g / cm^3
# Si number density = 19.984514 Si / 1000 Ang^3
#
#
#
# Elastic Constant Matrix: (Units=GPa)
#
#
# Indices 1 2 3 4 5 6 
#
# 1 170.7498 75.9235 34.7655 0.0000 0.0000 0.0000
# 2 75.9235 116.8473 13.6278 0.0000 0.0000 0.0000
# 3 34.7655 13.6278 38.0569 0.0000 0.0000 0.0000
# 4 0.0000 0.0000 0.0000 12.2706 0.0000 0.0000
# 5 0.0000 0.0000 0.0000 0.0000 11.1432 0.0000
# 6 0.0000 0.0000 0.0000 0.0000 0.0000 45.3879
#
#
#
# Elastic Compliance Matrix: (Units=1/GPa)
#
#
# Indices 1 2 3 4 5 6 
#
# 1 0.009708 -0.005504 -0.006898 0.000000 0.000000 0.000000
# 2 -0.005504 0.012051 0.000712 0.000000 0.000000 0.000000
# 3 -0.006898 0.000712 0.032323 0.000000 0.000000 0.000000
# 4 0.000000 0.000000 0.000000 0.081496 0.000000 0.000000
# 5 0.000000 0.000000 0.000000 0.000000 0.089741 0.000000
# 6 0.000000 0.000000 0.000000 0.000000 0.000000 0.022032
#
#
# Mechanical properties :
#
#
# Convention : Reuss Voigt Hill
#
# Bulk Modulus (GPa) = 32.56940 63.80974 48.18957
# Shear Modulus (GPa) = 17.79593 27.18281 22.48937
#
# Velocity S-wave (km/s) = 2.98734 3.69208 3.35825
# Velocity P-wave (km/s) = 5.31334 7.08337 6.26122
#
# Compressibility (1/GPa) = 0.03070366
#
# Stress axis : x y z
#
# Youngs Moduli (GPa) = 103.00725 82.97990 30.93810
#
# Poissons Ratio (x) = 0.45668 0.21340
# Poissons Ratio (y) = 0.56690 -0.02203
# Poissons Ratio (z) = 0.71051 -0.05910
#
# Static dielectric constant tensor:
#      x y z
#    x 3.906980 0.000000 0.000000 
#    y 0.000000 4.015600 0.000000 
#    z 0.000000 0.000000 2.944170 
# 
# 
# High freq. dielectric constant tensor:
#      x y z
#    x 1.791120 0.000000 0.000000 
#    y 0.000000 1.794030 0.000000 
#    z 0.000000 0.000000 1.702420 
# 
# From -- ./inp_files/16779.got.cif
#   From: 2010.06.25/outbox.cif.g09.slc.cpg/sg48_9_cif.got.tgz:16779.got - 2010.06.26 18:06:46.
