data_PCOD8201786
_publ_section_title
;
Structure prediction by ZEFSAII (Michael W. Deem and Ramdas Pophale) SiO2 
 PCOD8201786
Probable space group: P N N N
;
_chemical_formula_sum "Si O2"
_cell_formula_units_Z 64
_cell_length_a 21.369608
_cell_length_b 8.798273
_cell_length_c 15.990149
_cell_angle_alpha 90.000000
_cell_angle_beta 90.000000
_cell_angle_gamma 90.000000
_cell_volume 3006.398179
_symmetry_space_group_name_H-M "P N N N"
_symmetry_group_IT_number 48
_space_group.IT_coordinate_system_code '2'
_symmetry_cell_setting 'orthorhombic'
loop_
_space_group_symop_operation_xyz
x,y,z
1/2-x,1/2-y,z
x,1/2-y,1/2-z
1/2-x,y,1/2-z
-x,-y,-z
1/2+x,1/2+y,-z
-x,1/2+y,1/2+z
1/2+x,-y,1/2+z
loop_
_atom_site_type_symbol
_atom_site_label
_atom_site_fract_x
_atom_site_fract_y
_atom_site_fract_z
Si Si1 0.027515 0.961913 0.410566
Si Si2 0.834845 0.583611 0.521185
Si Si3 0.898134 0.225928 0.991336
Si Si4 0.718945 0.098618 0.028224
Si Si5 0.566286 0.597702 0.271264
Si Si6 0.544559 0.166295 0.335886
Si Si7 0.814918 0.684862 0.129350
Si Si8 0.906308 0.745063 0.845647
O O1 0.052772 0.788680 0.422031
O O2 0.972128 0.986971 0.343852
O O3 0.082762 0.075348 0.381680
O O4 0.000000 0.000000 0.500000
O O5 0.887881 0.453501 0.518169
O O6 0.767754 0.498887 0.528587
O O7 0.838047 0.697974 0.442502
O O8 0.849117 0.681091 0.603425
O O9 0.838240 0.334231 0.974343
O O10 0.920752 0.246978 0.087196
O O11 0.750000 0.250000 0.069903
O O12 0.694507 0.986860 0.098581
O O13 0.527095 0.750000 0.250000
O O14 0.570933 0.502127 0.185053
O O15 0.633882 0.660604 0.299739
O O16 0.560483 0.250000 0.250000
O O17 0.470622 0.159837 0.355437
O O18 0.750000 0.750000 0.167237
O O19 0.884287 0.750000 0.750000
#
# Coordination Sequence:
#
# PCOD8201786 Si02
#       8
#     8   8   8   8   8   8   8   8
#     4  12  22  38  61  89 122 168 212 264 317 389
#     4  10  22  38  63  93 124 164 214 275 309 384
#     4  11  22  36  65  92 121 166 217 259 325 379
#     4   9  19  38  63  93 118 154 215 268 311 368
#     4  12  25  39  59  93 133 167 210 263 335 377
#     4  11  21  38  57  89 132 167 203 262 319 398
#     4  10  21  41  65  89 126 170 219 263 314 388
#     4  11  22  39  58  90 129 167 208 259 339 393
#
# _framework density 21.287932999999999
#
# number of rings (size 3 to 8) (size 9 to 14) (size 15 to 20)
#    0.000    1.250    3.750    3.750    1.750    0.750 
#    0.000    0.000    0.000   27.000    0.000   10.500 
#    0.000    0.000    0.000    0.000    0.000    0.000 
#
# Total GULP energy -792922.780712 kJ/mol
# GULP energy per Si atom -12389.418449 kJ/mol
# Density = 2.123948 g / cm^3
# Si number density = 21.287933 Si / 1000 Ang^3
#
#
#
# Elastic Constant Matrix: (Units=GPa)
#
#
# Indices 1 2 3 4 5 6 
#
# 1 75.3807 34.9503 35.3953 0.0000 0.0000 0.0000
# 2 34.9503 128.0463 38.1267 0.0000 0.0000 0.0000
# 3 35.3953 38.1267 91.4551 0.0000 0.0000 0.0000
# 4 0.0000 0.0000 0.0000 38.9674 0.0000 0.0000
# 5 0.0000 0.0000 0.0000 0.0000 16.0150 0.0000
# 6 0.0000 0.0000 0.0000 0.0000 0.0000 36.0496
#
#
#
# Elastic Compliance Matrix: (Units=1/GPa)
#
#
# Indices 1 2 3 4 5 6 
#
# 1 0.017228 -0.003102 -0.005374 0.000000 0.000000 0.000000
# 2 -0.003102 0.009475 -0.002749 0.000000 0.000000 0.000000
# 3 -0.005374 -0.002749 0.014161 0.000000 0.000000 0.000000
# 4 0.000000 0.000000 0.000000 0.025662 0.000000 0.000000
# 5 0.000000 0.000000 0.000000 0.000000 0.062442 0.000000
# 6 0.000000 0.000000 0.000000 0.000000 0.000000 0.027740
#
#
# Mechanical properties :
#
#
# Convention : Reuss Voigt Hill
#
# Bulk Modulus (GPa) = 54.31351 56.86962 55.59156
# Shear Modulus (GPa) = 26.98382 30.63370 28.80876
#
# Velocity S-wave (km/s) = 3.56415 3.79755 3.68270
# Velocity P-wave (km/s) = 6.51972 6.78241 6.65236
#
# Compressibility (1/GPa) = 0.01841163
#
# Stress axis : x y z
#
# Youngs Moduli (GPa) = 58.04559 105.54004 70.61868
#
# Poissons Ratio (x) = 0.32740 0.37953
# Poissons Ratio (y) = 0.18006 0.19416
# Poissons Ratio (z) = 0.31196 0.29018
#
# Static dielectric constant tensor:
#      x y z
#    x 3.902740 0.000000 0.000000 
#    y 0.000000 4.373020 0.000000 
#    z 0.000000 0.000000 3.631150 
# 
# 
# High freq. dielectric constant tensor:
#      x y z
#    x 1.825200 0.000000 0.000000 
#    y 0.000000 1.862410 0.000000 
#    z 0.000000 0.000000 1.809660 
# 
# From -- ./inp_files/28634.got.cif
#   From: 2010.06.25/outbox.cif.g09.slc.cpg/sg48_15_cif.got.tgz:28634.got - 2010.06.26 18:06:46.
