data_PCOD8201252
_publ_section_title
;
Structure prediction by ZEFSAII (Michael W. Deem and Ramdas Pophale) SiO2 
 PCOD8201252
Probable space group: P N N N
;
_chemical_formula_sum "Si O2"
_cell_formula_units_Z 60
_cell_length_a 29.083186
_cell_length_b 27.082951
_cell_length_c 5.321065
_cell_angle_alpha 90.000000
_cell_angle_beta 90.000000
_cell_angle_gamma 90.000000
_cell_volume 4191.182084
_symmetry_space_group_name_H-M "P N N N"
_symmetry_group_IT_number 48
_space_group.IT_coordinate_system_code '2'
_symmetry_cell_setting 'orthorhombic'
loop_
_space_group_symop_operation_xyz
x,y,z
1/2-x,1/2-y,z
x,1/2-y,1/2-z
1/2-x,y,1/2-z
-x,-y,-z
1/2+x,1/2+y,-z
-x,1/2+y,1/2+z
1/2+x,-y,1/2+z
loop_
_atom_site_type_symbol
_atom_site_label
_atom_site_fract_x
_atom_site_fract_y
_atom_site_fract_z
Si Si1 0.619449 0.048610 0.993418
Si Si2 0.290189 0.663820 0.557567
Si Si3 0.277707 0.944108 0.012407
Si Si4 0.013248 0.442666 0.508785
Si Si5 0.914840 0.398722 0.498180
Si Si6 0.954802 0.966316 0.509539
Si Si7 0.808347 0.250000 0.750000
Si Si8 0.373011 0.699606 0.865322
O O1 0.672381 0.030525 0.012090
O O2 0.611136 0.083205 0.749556
O O3 0.590574 0.998779 0.964902
O O4 0.605542 0.075148 0.252089
O O5 0.250000 0.657088 0.750000
O O6 0.290018 0.612446 0.407893
O O7 0.276045 0.712733 0.404999
O O8 0.341496 0.671469 0.662273
O O9 0.250000 0.967081 0.250000
O O10 0.250000 0.950135 0.750000
O O11 0.968666 0.408571 0.526190
O O12 0.000000 0.500000 0.500000
O O13 0.041671 0.430600 0.254007
O O14 0.045321 0.433478 0.754285
O O15 0.910391 0.339249 0.467032
O O16 0.000000 0.000000 0.500000
O O17 0.839894 0.286025 0.589824
O O18 0.395645 0.750000 0.750000
#
# Coordination Sequence:
#
# PCOD8201252 Si02
#       8
#     8   8   8   8   8   8   4   8
#     4  12  20  31  52  64  84 113 130 164 223 260
#     4  10  22  34  44  56  68  93 128 185 231 258
#     4  11  24  37  45  61  82 105 145 176 205 264
#     4  10  16  28  43  70  94 100 118 159 193 280
#     4  12  20  31  50  65  83 110 132 158 228 260
#     4  10  16  29  43  72  92 100 122 157 200 273
#     4  10  22  37  44  52  72  88 140 180 224 266
#     4  10  23  36  43  58  74 102 141 175 209 265
#
# _framework density 14.315770000000001
#
# number of rings (size 3 to 8) (size 9 to 14) (size 15 to 20)
#    0.000    1.333    6.667    1.600    7.467    2.933 
#    0.000    0.000    0.000    0.000    0.000    0.000 
#    0.000    0.000    0.000    0.000    0.000    0.000 
#
# Total GULP energy -743488.384715 kJ/mol
# GULP energy per Si atom -12391.473079 kJ/mol
# Density = 1.428319 g / cm^3
# Si number density = 14.315770 Si / 1000 Ang^3
#
#
#
# Elastic Constant Matrix: (Units=GPa)
#
#
# Indices 1 2 3 4 5 6 
#
# 1 85.2233 37.9383 27.9499 0.0000 0.0000 0.0000
# 2 37.9383 34.8444 13.3540 0.0000 0.0000 0.0000
# 3 27.9499 13.3540 112.9837 0.0000 0.0000 0.0000
# 4 0.0000 0.0000 0.0000 5.1337 0.0000 0.0000
# 5 0.0000 0.0000 0.0000 0.0000 12.1230 0.0000
# 6 0.0000 0.0000 0.0000 0.0000 0.0000 25.1942
#
#
#
# Elastic Compliance Matrix: (Units=1/GPa)
#
#
# Indices 1 2 3 4 5 6 
#
# 1 0.023669 -0.024643 -0.002943 0.000000 0.000000 0.000000
# 2 -0.024643 0.055718 -0.000489 0.000000 0.000000 0.000000
# 3 -0.002943 -0.000489 0.009637 0.000000 0.000000 0.000000
# 4 0.000000 0.000000 0.000000 0.194790 0.000000 0.000000
# 5 0.000000 0.000000 0.000000 0.000000 0.082488 0.000000
# 6 0.000000 0.000000 0.000000 0.000000 0.000000 0.039692
#
#
# Mechanical properties :
#
#
# Convention : Reuss Voigt Hill
#
# Bulk Modulus (GPa) = 30.41959 43.50398 36.96178
# Shear Modulus (GPa) = 10.56856 18.74413 14.65635
#
# Velocity S-wave (km/s) = 2.72002 3.62240 3.20314
# Velocity P-wave (km/s) = 5.58210 6.92463 6.28929
#
# Compressibility (1/GPa) = 0.03287356
#
# Stress axis : x y z
#
# Youngs Moduli (GPa) = 42.24912 17.94760 103.77097
#
# Poissons Ratio (x) = 0.44228 0.30536
# Poissons Ratio (y) = 1.04115 0.05078
# Poissons Ratio (z) = 0.12432 0.00878
#
# Static dielectric constant tensor:
#      x y z
#    x 2.728180 0.000000 0.000000 
#    y 0.000000 2.600370 0.000000 
#    z 0.000000 0.000000 4.298770 
# 
# 
# High freq. dielectric constant tensor:
#      x y z
#    x 1.524360 0.000000 0.000000 
#    y 0.000000 1.488100 0.000000 
#    z 0.000000 0.000000 1.580460 
# 
# From -- ./inp_files/7181.got.cif
#   From: 2010.06.25/outbox.cif.g09.slc.cpg/sg48_4_cif.got.tgz:7181.got - 2010.06.26 18:06:46.
