data_PCOD8201399
_publ_section_title
;
Structure prediction by ZEFSAII (Michael W. Deem and Ramdas Pophale) SiO2 
 PCOD8201399
Probable space group: P N N N
;
_chemical_formula_sum "Si O2"
_cell_formula_units_Z 56
_cell_length_a 20.130669
_cell_length_b 11.437896
_cell_length_c 12.243631
_cell_angle_alpha 90.000000
_cell_angle_beta 90.000000
_cell_angle_gamma 90.000000
_cell_volume 2819.126628
_symmetry_space_group_name_H-M "P N N N"
_symmetry_group_IT_number 48
_space_group.IT_coordinate_system_code '2'
_symmetry_cell_setting 'orthorhombic'
loop_
_space_group_symop_operation_xyz
x,y,z
1/2-x,1/2-y,z
x,1/2-y,1/2-z
1/2-x,y,1/2-z
-x,-y,-z
1/2+x,1/2+y,-z
-x,1/2+y,1/2+z
1/2+x,-y,1/2+z
loop_
_atom_site_type_symbol
_atom_site_label
_atom_site_fract_x
_atom_site_fract_y
_atom_site_fract_z
Si Si1 0.092133 0.616453 0.960809
Si Si2 0.571652 0.567904 0.869827
Si Si3 0.874972 0.756242 0.504028
Si Si4 0.929217 0.382381 0.452988
Si Si5 0.799434 0.943893 0.401379
Si Si6 0.151421 0.069615 0.837621
Si Si7 0.459524 0.056515 0.121907
O O1 0.102583 0.754805 0.961941
O O2 0.165062 0.562954 0.939986
O O3 0.039190 0.573827 0.867982
O O4 0.060957 0.570208 0.074948
O O5 0.631612 0.657292 0.901568
O O6 0.506070 0.628488 0.920376
O O7 0.572728 0.561557 0.740517
O O8 0.580837 0.442682 0.928062
O O9 0.810537 0.838047 0.487661
O O10 0.885458 0.681960 0.391296
O O11 0.934530 0.844330 0.536545
O O12 0.893715 0.455495 0.356685
O O13 0.834531 0.904640 0.288465
O O14 0.721380 0.961397 0.395383
#
# Coordination Sequence:
#
# PCOD8201399 Si02
#       7
#     8   8   8   8   8   8   8
#     4  10  21  36  54  82 114 145 183 226 275 333
#     4  10  20  35  56  82 112 144 181 229 281 331
#     4  10  19  33  56  81 109 143 182 229 276 319
#     4  10  21  36  54  82 114 145 183 226 275 333
#     4  10  21  36  56  83 115 150 185 225 276 332
#     4  10  21  36  56  83 115 150 185 225 276 332
#     4  10  20  35  56  82 112 144 181 229 281 331
#
# _framework density 19.864308000000001
#
# number of rings (size 3 to 8) (size 9 to 14) (size 15 to 20)
#    0.000    2.000    1.429    2.143    0.000    4.000 
#    0.000    2.857    0.000   35.143    0.000    8.000 
#    0.000    0.000    0.000    0.000    0.000    0.000 
#
# Total GULP energy -693888.104874 kJ/mol
# GULP energy per Si atom -12390.859016 kJ/mol
# Density = 1.981910 g / cm^3
# Si number density = 19.864308 Si / 1000 Ang^3
#
#
#
# Elastic Constant Matrix: (Units=GPa)
#
#
# Indices 1 2 3 4 5 6 
#
# 1 58.3338 18.2602 21.5582 0.0000 0.0000 0.0000
# 2 18.2602 105.4522 31.2988 0.0000 0.0000 0.0000
# 3 21.5582 31.2988 94.2673 0.0000 0.0000 0.0000
# 4 0.0000 0.0000 0.0000 18.8505 0.0000 0.0000
# 5 0.0000 0.0000 0.0000 0.0000 28.0114 0.0000
# 6 0.0000 0.0000 0.0000 0.0000 0.0000 21.3222
#
#
#
# Elastic Compliance Matrix: (Units=1/GPa)
#
#
# Indices 1 2 3 4 5 6 
#
# 1 0.019191 -0.002241 -0.003645 0.000000 0.000000 0.000000
# 2 -0.002241 0.010781 -0.003067 0.000000 0.000000 0.000000
# 3 -0.003645 -0.003067 0.012460 0.000000 0.000000 0.000000
# 4 0.000000 0.000000 0.000000 0.053049 0.000000 0.000000
# 5 0.000000 0.000000 0.000000 0.000000 0.035700 0.000000
# 6 0.000000 0.000000 0.000000 0.000000 0.000000 0.046900
#
#
# Mechanical properties :
#
#
# Convention : Reuss Voigt Hill
#
# Bulk Modulus (GPa) = 40.77254 44.47643 42.62448
# Shear Modulus (GPa) = 24.49023 26.09920 25.29472
#
# Velocity S-wave (km/s) = 3.51504 3.62867 3.57231
# Velocity P-wave (km/s) = 6.08639 6.32417 6.20642
#
# Compressibility (1/GPa) = 0.02452631
#
# Stress axis : x y z
#
# Youngs Moduli (GPa) = 52.10693 92.75217 80.25688
#
# Poissons Ratio (x) = 0.20790 0.29251
# Poissons Ratio (y) = 0.11679 0.24615
# Poissons Ratio (z) = 0.18991 0.28448
#
# Static dielectric constant tensor:
#      x y z
#    x 3.463930 0.000000 0.000000 
#    y 0.000000 3.677010 0.000000 
#    z 0.000000 0.000000 3.523980 
# 
# 
# High freq. dielectric constant tensor:
#      x y z
#    x 1.753070 0.000000 0.000000 
#    y 0.000000 1.784680 0.000000 
#    z 0.000000 0.000000 1.760120 
# 
# From -- ./inp_files/22879.got.cif
#   From: 2010.06.25/outbox.cif.g09.slc.cpg/sg48_12_cif.got.tgz:22879.got - 2010.06.26 18:06:46.
