data_PCOD8201741
_publ_section_title
;
Structure prediction by ZEFSAII (Michael W. Deem and Ramdas Pophale) SiO2 
 PCOD8201741
Probable space group: P N N N
;
_chemical_formula_sum "Si O2"
_cell_formula_units_Z 64
_cell_length_a 11.737805
_cell_length_b 30.204084
_cell_length_c 9.267331
_cell_angle_alpha 90.000000
_cell_angle_beta 90.000000
_cell_angle_gamma 90.000000
_cell_volume 3285.543599
_symmetry_space_group_name_H-M "P N N N"
_symmetry_group_IT_number 48
_space_group.IT_coordinate_system_code '2'
_symmetry_cell_setting 'orthorhombic'
loop_
_space_group_symop_operation_xyz
x,y,z
1/2-x,1/2-y,z
x,1/2-y,1/2-z
1/2-x,y,1/2-z
-x,-y,-z
1/2+x,1/2+y,-z
-x,1/2+y,1/2+z
1/2+x,-y,1/2+z
loop_
_atom_site_type_symbol
_atom_site_label
_atom_site_fract_x
_atom_site_fract_y
_atom_site_fract_z
Si Si1 0.586946 0.960573 0.971956
Si Si2 0.694113 0.011096 0.471278
Si Si3 0.122421 0.199624 0.426385
Si Si4 0.485645 0.622852 0.049288
Si Si5 0.995916 0.872910 0.385526
Si Si6 0.022492 0.038486 0.152149
Si Si7 0.115230 0.199191 0.097354
Si Si8 0.760410 0.399892 0.913956
O O1 0.714753 0.971525 0.029652
O O2 0.577257 0.947485 0.803601
O O3 0.559369 0.917022 0.056918
O O4 0.500000 0.000000 0.000000
O O5 0.601194 0.001999 0.597097
O O6 0.609709 0.019928 0.332347
O O7 0.768994 0.054804 0.496760
O O8 0.059934 0.170732 0.547352
O O9 0.080236 0.191499 0.263568
O O10 0.097828 0.250930 0.459214
O O11 0.254499 0.186635 0.432071
O O12 0.522743 0.621973 0.215423
O O13 0.349334 0.627546 0.035195
O O14 0.528744 0.579896 0.959925
O O15 0.533598 0.668211 0.991369
O O16 0.127809 0.870204 0.434913
O O17 0.750000 0.415404 0.750000
#
# Coordination Sequence:
#
# PCOD8201741 Si02
#       8
#     8   8   8   8   8   8   8   8
#     4  12  24  37  57  85 119 155 199 252 295 339
#     4  10  21  39  60  76 110 158 208 239 290 346
#     4   9  20  39  66  87 117 147 190 234 289 363
#     4  10  22  39  61  83 116 155 197 239 291 354
#     4  11  23  38  57  90 117 150 196 248 288 340
#     4  10  23  39  59  81 111 162 201 245 294 354
#     4   9  19  41  64  88 114 155 183 228 302 360
#     4   9  18  37  57  76 113 157 194 233 287 343
#
# _framework density 19.479272999999999
#
# number of rings (size 3 to 8) (size 9 to 14) (size 15 to 20)
#    0.000    2.000    1.250    2.625    7.000    1.500 
#    0.000    3.750    0.000    3.750    0.000    0.000 
#    0.000    0.000    0.000    0.000    0.000    0.000 
#
# Total GULP energy -793135.712547 kJ/mol
# GULP energy per Si atom -12392.745509 kJ/mol
# Density = 1.943494 g / cm^3
# Si number density = 19.479273 Si / 1000 Ang^3
#
#
#
# Elastic Constant Matrix: (Units=GPa)
#
#
# Indices 1 2 3 4 5 6 
#
# 1 87.1094 44.6742 39.3978 0.0000 0.0000 0.0000
# 2 44.6742 96.1239 51.1364 0.0000 0.0000 0.0000
# 3 39.3978 51.1364 93.3047 0.0000 0.0000 0.0000
# 4 0.0000 0.0000 0.0000 36.7438 0.0000 0.0000
# 5 0.0000 0.0000 0.0000 0.0000 25.6700 0.0000
# 6 0.0000 0.0000 0.0000 0.0000 0.0000 35.3589
#
#
#
# Elastic Compliance Matrix: (Units=1/GPa)
#
#
# Indices 1 2 3 4 5 6 
#
# 1 0.015962 -0.005410 -0.003775 0.000000 0.000000 0.000000
# 2 -0.005410 0.016518 -0.006769 0.000000 0.000000 0.000000
# 3 -0.003775 -0.006769 0.016021 0.000000 0.000000 0.000000
# 4 0.000000 0.000000 0.000000 0.027215 0.000000 0.000000
# 5 0.000000 0.000000 0.000000 0.000000 0.038956 0.000000
# 6 0.000000 0.000000 0.000000 0.000000 0.000000 0.028281
#
#
# Mechanical properties :
#
#
# Convention : Reuss Voigt Hill
#
# Bulk Modulus (GPa) = 60.26231 60.77276 60.51754
# Shear Modulus (GPa) = 27.71734 28.97652 28.34693
#
# Velocity S-wave (km/s) = 3.77625 3.86107 3.81889
# Velocity P-wave (km/s) = 7.07228 7.15147 7.11199
#
# Compressibility (1/GPa) = 0.01659412
#
# Stress axis : x y z
#
# Youngs Moduli (GPa) = 62.65008 60.53827 62.41795
#
# Poissons Ratio (x) = 0.32752 0.23561
# Poissons Ratio (y) = 0.33895 0.42248
# Poissons Ratio (z) = 0.23648 0.40976
#
# Static dielectric constant tensor:
#      x y z
#    x 3.964510 0.000000 0.000000 
#    y 0.000000 3.236270 0.000000 
#    z 0.000000 0.000000 3.585480 
# 
# 
# High freq. dielectric constant tensor:
#      x y z
#    x 1.766460 0.000000 0.000000 
#    y 0.000000 1.746040 0.000000 
#    z 0.000000 0.000000 1.756620 
# 
# From -- ./inp_files/11587.got.cif
#   From: 2010.06.25/outbox.cif.g09.slc.cpg/sg48_6_cif.got.tgz:11587.got - 2010.06.26 18:06:46.
