data_PCOD8201238
_publ_section_title
;
Structure prediction by ZEFSAII (Michael W. Deem and Ramdas Pophale) SiO2 
 PCOD8201238
Probable space group: P M M M
;
_chemical_formula_sum "Si O2"
_cell_formula_units_Z 32
_cell_length_a 7.877107
_cell_length_b 13.093768
_cell_length_c 14.857827
_cell_angle_alpha 90.000000
_cell_angle_beta 90.000000
_cell_angle_gamma 90.000000
_cell_volume 1532.451306
_symmetry_space_group_name_H-M "P M M M"
_symmetry_group_IT_number 47
_symmetry_cell_setting 'orthorhombic'
loop_
_space_group_symop_operation_xyz
x,y,z
-x,-y,z
x,-y,-z
-x,y,-z
-x,-y,-z
x,y,-z
-x,y,z
x,-y,z
loop_
_atom_site_type_symbol
_atom_site_label
_atom_site_fract_x
_atom_site_fract_y
_atom_site_fract_z
Si Si1 0.500000 0.112033 0.893917
Si Si2 0.198079 0.387746 0.732218
Si Si3 0.698944 0.000000 0.397920
Si Si4 0.193671 0.745973 0.103385
Si Si5 0.198417 0.783394 0.600740
O O1 0.326981 0.168378 0.864466
O O2 0.500000 0.000000 0.847835
O O3 0.500000 0.099987 0.000000
O O4 0.281877 0.500000 0.719210
O O5 0.227431 0.352924 0.835189
O O6 0.280311 0.305315 0.663196
O O7 0.000000 0.395510 0.711757
O O8 0.766364 0.894558 0.353763
O O9 0.500000 0.000000 0.391556
O O10 0.767521 0.000000 0.500000
O O11 0.000000 0.786831 0.117102
O O12 0.224939 0.713669 0.000000
O O13 0.278973 0.776903 0.500000
O O14 0.000000 0.765593 0.595352
#
# Coordination Sequence:
#
# PCOD8201238 Si02
#       5
#     4   8   4   8   8
#     4   9  18  34  55  79 108 141 179 222 266 318
#     4   9  18  33  52  76 105 135 173 218 262 314
#     4   9  17  31  51  73 100 133 168 210 256 308
#     4   9  18  34  55  78 107 142 178 219 267 315
#     4   9  17  31  52  76 102 133 169 211 260 311
#
# _framework density 20.881577
#
# number of rings (size 3 to 8) (size 9 to 14) (size 15 to 20)
#    0.000    3.000    0.000    0.375    0.000    3.000 
#    4.500    8.125    0.000    2.250    0.000    3.500 
#    0.000    0.000    0.000    0.000    0.000    0.000 
#
# Total GULP energy -396522.196474 kJ/mol
# GULP energy per Si atom -12391.318640 kJ/mol
# Density = 2.083405 g / cm^3
# Si number density = 20.881577 Si / 1000 Ang^3
#
#
#
# Elastic Constant Matrix: (Units=GPa)
#
#
# Indices 1 2 3 4 5 6 
#
# 1 60.9068 40.8869 18.7711 0.0000 0.0000 0.0000
# 2 40.8869 221.3413 78.7847 0.0000 0.0000 0.0000
# 3 18.7711 78.7847 92.0899 0.0000 0.0000 0.0000
# 4 0.0000 0.0000 0.0000 33.7804 0.0000 0.0000
# 5 0.0000 0.0000 0.0000 0.0000 8.2284 0.0000
# 6 0.0000 0.0000 0.0000 0.0000 0.0000 6.2424
#
#
#
# Elastic Compliance Matrix: (Units=1/GPa)
#
#
# Indices 1 2 3 4 5 6 
#
# 1 0.018841 -0.003039 -0.001241 0.000000 0.000000 0.000000
# 2 -0.003039 0.006986 -0.005357 0.000000 0.000000 0.000000
# 3 -0.001241 -0.005357 0.015695 0.000000 0.000000 0.000000
# 4 0.000000 0.000000 0.000000 0.029603 0.000000 0.000000
# 5 0.000000 0.000000 0.000000 0.000000 0.121530 0.000000
# 6 0.000000 0.000000 0.000000 0.000000 0.000000 0.160194
#
#
# Mechanical properties :
#
#
# Convention : Reuss Voigt Hill
#
# Bulk Modulus (GPa) = 44.94684 72.35815 58.65249
# Shear Modulus (GPa) = 13.17389 25.37660 19.27524
#
# Velocity S-wave (km/s) = 2.51447 3.48984 3.04151
# Velocity P-wave (km/s) = 5.47736 7.13902 6.36266
#
# Compressibility (1/GPa) = 0.02224851
#
# Stress axis : x y z
#
# Youngs Moduli (GPa) = 53.07628 143.14028 63.71363
#
# Poissons Ratio (x) = 0.43496 0.07905
# Poissons Ratio (y) = 0.16128 0.34134
# Poissons Ratio (z) = 0.06585 0.76686
#
# Static dielectric constant tensor:
#      x y z
#    x 3.524750 0.000000 0.000000 
#    y 0.000000 4.153980 0.000000 
#    z 0.000000 0.000000 3.815070 
# 
# 
# High freq. dielectric constant tensor:
#      x y z
#    x 1.794410 0.000000 0.000000 
#    y 0.000000 1.814260 0.000000 
#    z 0.000000 0.000000 1.804760 
# 
# From -- ./inp_files/5239.got.cif
#   From: 2010.03.12/outbox.cif.g09.slc.cpg/sg47_3_cif.got.tgz:5239.got - 2010.04.14 03:12:58.
