data_PCOD8201795
_publ_section_title
;
Structure prediction by ZEFSAII (Michael W. Deem and Ramdas Pophale) SiO2 
 PCOD8201795
Probable space group: P N N N
;
_chemical_formula_sum "Si O2"
_cell_formula_units_Z 64
_cell_length_a 29.113987
_cell_length_b 11.496757
_cell_length_c 8.848172
_cell_angle_alpha 90.000000
_cell_angle_beta 90.000000
_cell_angle_gamma 90.000000
_cell_volume 2961.628578
_symmetry_space_group_name_H-M "P N N N"
_symmetry_group_IT_number 48
_space_group.IT_coordinate_system_code '2'
_symmetry_cell_setting 'orthorhombic'
loop_
_space_group_symop_operation_xyz
x,y,z
1/2-x,1/2-y,z
x,1/2-y,1/2-z
1/2-x,y,1/2-z
-x,-y,-z
1/2+x,1/2+y,-z
-x,1/2+y,1/2+z
1/2+x,-y,1/2+z
loop_
_atom_site_type_symbol
_atom_site_label
_atom_site_fract_x
_atom_site_fract_y
_atom_site_fract_z
Si Si1 0.112749 0.310088 0.414934
Si Si2 0.990840 0.486923 0.251202
Si Si3 0.802478 0.771804 0.428427
Si Si4 0.063073 0.553649 0.471012
Si Si5 0.149691 0.864716 0.157043
Si Si6 0.059950 0.402933 0.017280
Si Si7 0.196071 0.756934 0.583654
Si Si8 0.155968 0.508846 0.053602
O O1 0.115849 0.250000 0.250000
O O2 0.163894 0.318043 0.485838
O O3 0.089331 0.433842 0.430334
O O4 0.081019 0.223441 0.512081
O O5 0.017098 0.566581 0.373007
O O6 0.950354 0.425782 0.351665
O O7 0.970006 0.571862 0.128494
O O8 0.026955 0.401049 0.166832
O O9 0.750000 0.750000 0.477492
O O10 0.808526 0.750000 0.250000
O O11 0.816315 0.901344 0.483147
O O12 0.098449 0.649543 0.411923
O O13 0.160233 0.750000 0.250000
O O14 0.160127 0.978693 0.261713
O O15 0.182751 0.858495 0.011663
O O16 0.101061 0.497456 0.028629
O O17 0.250000 0.750000 0.588878
O O18 0.174856 0.750000 0.750000
O O19 0.176012 0.875512 0.517638
#
# Coordination Sequence:
#
# PCOD8201795 Si02
#       8
#     8   8   8   8   8   8   8   8
#     4  11  22  40  62  91 130 164 207 260 326 387
#     4  10  22  39  62  87 125 162 214 257 316 376
#     4  10  24  42  66 102 127 169 219 262 320 394
#     4  11  22  40  61  96 122 163 213 267 315 373
#     4  10  22  43  65  92 131 172 210 264 321 386
#     4  10  21  42  61  89 127 168 204 260 321 381
#     4  10  24  42  66 100 126 166 223 266 323 383
#     4  10  21  42  66  89 138 172 207 265 327 381
#
# _framework density 21.609731
#
# number of rings (size 3 to 8) (size 9 to 14) (size 15 to 20)
#    0.000    1.750    2.500    0.750    5.250    5.500 
#    4.500    5.000    0.000    0.000    0.000    0.000 
#    0.000    0.000    0.000    0.000    0.000    0.000 
#
# Total GULP energy -792934.460339 kJ/mol
# GULP energy per Si atom -12389.600943 kJ/mol
# Density = 2.156055 g / cm^3
# Si number density = 21.609731 Si / 1000 Ang^3
#
#
#
# Elastic Constant Matrix: (Units=GPa)
#
#
# Indices 1 2 3 4 5 6 
#
# 1 118.6297 31.4799 62.7880 0.0000 0.0000 0.0000
# 2 31.4799 52.2891 28.2558 0.0000 0.0000 0.0000
# 3 62.7880 28.2558 147.0460 0.0000 0.0000 0.0000
# 4 0.0000 0.0000 0.0000 20.2744 0.0000 0.0000
# 5 0.0000 0.0000 0.0000 0.0000 41.2384 0.0000
# 6 0.0000 0.0000 0.0000 0.0000 0.0000 22.7427
#
#
#
# Elastic Compliance Matrix: (Units=1/GPa)
#
#
# Indices 1 2 3 4 5 6 
#
# 1 0.011937 -0.004946 -0.004147 0.000000 0.000000 0.000000
# 2 -0.004946 0.023389 -0.002383 0.000000 0.000000 0.000000
# 3 -0.004147 -0.002383 0.009029 0.000000 0.000000 0.000000
# 4 0.000000 0.000000 0.000000 0.049323 0.000000 0.000000
# 5 0.000000 0.000000 0.000000 0.000000 0.024249 0.000000
# 6 0.000000 0.000000 0.000000 0.000000 0.000000 0.043970
#
#
# Mechanical properties :
#
#
# Convention : Reuss Voigt Hill
#
# Bulk Modulus (GPa) = 46.71716 62.55691 54.63703
# Shear Modulus (GPa) = 26.04401 29.88049 27.96225
#
# Velocity S-wave (km/s) = 3.47536 3.72255 3.60108
# Velocity P-wave (km/s) = 6.14571 6.89114 6.52907
#
# Compressibility (1/GPa) = 0.02140541
#
# Stress axis : x y z
#
# Youngs Moduli (GPa) = 83.77562 42.75435 110.75410
#
# Poissons Ratio (x) = 0.21144 0.45925
# Poissons Ratio (y) = 0.41432 0.26389
# Poissons Ratio (z) = 0.34738 0.10187
#
# Static dielectric constant tensor:
#      x y z
#    x 4.159780 0.000000 0.000000 
#    y 0.000000 3.740350 0.000000 
#    z 0.000000 0.000000 4.432330 
# 
# 
# High freq. dielectric constant tensor:
#      x y z
#    x 1.859940 0.000000 0.000000 
#    y 0.000000 1.822480 0.000000 
#    z 0.000000 0.000000 1.868150 
# 
# From -- ./inp_files/16939.got.cif
#   From: 2010.06.25/outbox.cif.g09.slc.cpg/sg48_9_cif.got.tgz:16939.got - 2010.06.26 18:06:46.
