data_PCOD8201649
_publ_section_title
;
Structure prediction by ZEFSAII (Michael W. Deem and Ramdas Pophale) SiO2 
 PCOD8201649
Probable space group: P N N N
;
_chemical_formula_sum "Si O2"
_cell_formula_units_Z 40
_cell_length_a 12.070015
_cell_length_b 16.507569
_cell_length_c 9.374371
_cell_angle_alpha 90.000000
_cell_angle_beta 90.000000
_cell_angle_gamma 90.000000
_cell_volume 1867.811600
_symmetry_space_group_name_H-M "P N N N"
_symmetry_group_IT_number 48
_space_group.IT_coordinate_system_code '2'
_symmetry_cell_setting 'orthorhombic'
loop_
_space_group_symop_operation_xyz
x,y,z
1/2-x,1/2-y,z
x,1/2-y,1/2-z
1/2-x,y,1/2-z
-x,-y,-z
1/2+x,1/2+y,-z
-x,1/2+y,1/2+z
1/2+x,-y,1/2+z
loop_
_atom_site_type_symbol
_atom_site_label
_atom_site_fract_x
_atom_site_fract_y
_atom_site_fract_z
Si Si1 0.458643 0.911382 0.037027
Si Si2 0.284012 0.570186 0.090639
Si Si3 0.386058 0.165337 0.168744
Si Si4 0.839047 0.603462 0.549119
Si Si5 0.988796 0.163093 0.825481
O O1 0.327519 0.898510 0.015138
O O2 0.499822 0.901173 0.198758
O O3 0.509672 0.841834 0.935545
O O4 0.500000 0.000000 0.000000
O O5 0.250000 0.543334 0.250000
O O6 0.326512 0.490630 0.004735
O O7 0.375830 0.641533 0.087838
O O8 0.378133 0.250000 0.250000
O O9 0.400307 0.100788 0.297022
O O10 0.278192 0.148638 0.071308
O O11 0.906332 0.654430 0.430414
O O12 0.980284 0.250000 0.750000
#
# Coordination Sequence:
#
# PCOD8201649 Si02
#       5
#     8   8   8   8   8
#     4  11  22  43  67  94 135 176 224 277 332 405
#     4  10  20  40  67  91 128 181 217 265 331 406
#     4  11  22  39  67  95 131 177 220 272 347 397
#     4  11  20  41  64  93 132 174 224 270 333 405
#     4  11  25  41  66 100 134 171 227 280 336 393
#
# _framework density 21.415436
#
# number of rings (size 3 to 8) (size 9 to 14) (size 15 to 20)
#    0.000    1.200    4.000    4.200    0.000    4.400 
#    0.000    4.000    0.000    2.400    0.000    0.000 
#    0.000    0.000    0.000    0.000    0.000    0.000 
#
# Total GULP energy -495799.767473 kJ/mol
# GULP energy per Si atom -12394.994187 kJ/mol
# Density = 2.136669 g / cm^3
# Si number density = 21.415436 Si / 1000 Ang^3
#
#
#
# Elastic Constant Matrix: (Units=GPa)
#
#
# Indices 1 2 3 4 5 6 
#
# 1 165.1905 81.8912 87.4403 0.0000 0.0000 0.0000
# 2 81.8912 122.3212 36.1213 0.0000 0.0000 0.0000
# 3 87.4403 36.1213 81.1258 0.0000 0.0000 0.0000
# 4 0.0000 0.0000 0.0000 30.5099 0.0000 0.0000
# 5 0.0000 0.0000 0.0000 0.0000 39.4468 0.0000
# 6 0.0000 0.0000 0.0000 0.0000 0.0000 30.7905
#
#
#
# Elastic Compliance Matrix: (Units=1/GPa)
#
#
# Indices 1 2 3 4 5 6 
#
# 1 0.018666 -0.007548 -0.016758 0.000000 0.000000 0.000000
# 2 -0.007548 0.012465 0.002585 0.000000 0.000000 0.000000
# 3 -0.016758 0.002585 0.029238 0.000000 0.000000 0.000000
# 4 0.000000 0.000000 0.000000 0.032776 0.000000 0.000000
# 5 0.000000 0.000000 0.000000 0.000000 0.025351 0.000000
# 6 0.000000 0.000000 0.000000 0.000000 0.000000 0.032478
#
#
# Mechanical properties :
#
#
# Convention : Reuss Voigt Hill
#
# Bulk Modulus (GPa) = 59.07575 86.61591 72.84583
# Shear Modulus (GPa) = 24.99293 31.02843 28.01068
#
# Velocity S-wave (km/s) = 3.41992 3.81055 3.62051
# Velocity P-wave (km/s) = 6.57571 7.73910 7.18101
#
# Compressibility (1/GPa) = 0.01692742
#
# Stress axis : x y z
#
# Youngs Moduli (GPa) = 53.57371 80.22594 34.20216
#
# Poissons Ratio (x) = 0.60552 0.57316
# Poissons Ratio (y) = 0.40436 -0.08842
# Poissons Ratio (z) = 0.89779 -0.20740
#
# Static dielectric constant tensor:
#      x y z
#    x 4.047710 0.000000 0.000000 
#    y 0.000000 3.869390 0.000000 
#    z 0.000000 0.000000 4.054240 
# 
# 
# High freq. dielectric constant tensor:
#      x y z
#    x 1.838880 0.000000 0.000000 
#    y 0.000000 1.844690 0.000000 
#    z 0.000000 0.000000 1.824530 
# 
# From -- ./inp_files/10721.got.cif
#   From: 2010.06.25/outbox.cif.g09.slc.cpg/sg48_6_cif.got.tgz:10721.got - 2010.06.26 18:06:46.
