data_PCOD8201917
_publ_section_title
;
Structure prediction by ZEFSAII (Michael W. Deem and Ramdas Pophale) SiO2 
 PCOD8201917
Probable space group: P N N N
;
_chemical_formula_sum "Si O2"
_cell_formula_units_Z 52
_cell_length_a 14.753902
_cell_length_b 19.298522
_cell_length_c 9.065704
_cell_angle_alpha 90.000000
_cell_angle_beta 90.000000
_cell_angle_gamma 90.000000
_cell_volume 2581.264323
_symmetry_space_group_name_H-M "P N N N"
_symmetry_group_IT_number 48
_space_group.IT_coordinate_system_code '2'
_symmetry_cell_setting 'orthorhombic'
loop_
_space_group_symop_operation_xyz
x,y,z
1/2-x,1/2-y,z
x,1/2-y,1/2-z
1/2-x,y,1/2-z
-x,-y,-z
1/2+x,1/2+y,-z
-x,1/2+y,1/2+z
1/2+x,-y,1/2+z
loop_
_atom_site_type_symbol
_atom_site_label
_atom_site_fract_x
_atom_site_fract_y
_atom_site_fract_z
Si Si1 0.404200 0.990340 0.429358
Si Si2 0.352995 0.928759 0.709639
Si Si3 0.666769 0.631008 0.852273
Si Si4 0.492088 0.680311 0.681178
Si Si5 0.933032 0.806822 0.365278
Si Si6 0.750000 0.750000 0.457344
Si Si7 0.983148 0.965348 0.338802
O O1 0.348479 0.061932 0.447995
O O2 0.500000 0.000000 0.500000
O O3 0.357577 0.929464 0.528444
O O4 0.422951 0.973266 0.256110
O O5 0.250000 0.919262 0.750000
O O6 0.408491 0.870809 0.797955
O O7 0.394947 0.000605 0.765658
O O8 0.750000 0.613404 0.750000
O O9 0.579386 0.645443 0.753712
O O10 0.686971 0.698882 0.947749
O O11 0.456955 0.750000 0.750000
O O12 0.516113 0.704317 0.517757
O O13 0.972979 0.750000 0.250000
O O14 0.822962 0.795814 0.366970
O O15 0.956312 0.885421 0.327519
O O16 0.000000 0.000000 0.500000
#
# Coordination Sequence:
#
# PCOD8201917 Si02
#       7
#     8   8   8   8   8   4   8
#     4  10  23  41  69  92 130 178 230 279 332 407
#     4  11  26  43  68 100 128 178 235 293 340 402
#     4  12  21  40  68 101 134 181 223 266 345 434
#     4  12  23  44  70  89 133 182 225 280 342 421
#     4  12  27  40  64 103 141 179 221 280 359 427
#     4  12  26  38  62 110 142 176 214 276 368 436
#     4  11  23  45  69  98 140 183 229 281 353 426
#
# _framework density 20.145168000000002
#
# number of rings (size 3 to 8) (size 9 to 14) (size 15 to 20)
#    0.000    0.615    7.692    0.462    8.615    0.308 
#    0.000    0.000    0.000    0.000    0.000    0.000 
#    0.000    0.000    0.000    0.000    0.000    0.000 
#
# Total GULP energy -644247.581926 kJ/mol
# GULP energy per Si atom -12389.376576 kJ/mol
# Density = 2.009932 g / cm^3
# Si number density = 20.145168 Si / 1000 Ang^3
#
#
#
# Elastic Constant Matrix: (Units=GPa)
#
#
# Indices 1 2 3 4 5 6 
#
# 1 118.3626 46.6884 37.0694 0.0000 0.0000 0.0000
# 2 46.6884 140.3891 41.4289 0.0000 0.0000 0.0000
# 3 37.0694 41.4289 118.4556 0.0000 0.0000 0.0000
# 4 0.0000 0.0000 0.0000 43.4609 0.0000 0.0000
# 5 0.0000 0.0000 0.0000 0.0000 27.7589 0.0000
# 6 0.0000 0.0000 0.0000 0.0000 0.0000 43.4912
#
#
#
# Elastic Compliance Matrix: (Units=1/GPa)
#
#
# Indices 1 2 3 4 5 6 
#
# 1 0.010232 -0.002741 -0.002244 0.000000 0.000000 0.000000
# 2 -0.002741 0.008677 -0.002177 0.000000 0.000000 0.000000
# 3 -0.002244 -0.002177 0.009905 0.000000 0.000000 0.000000
# 4 0.000000 0.000000 0.000000 0.023009 0.000000 0.000000
# 5 0.000000 0.000000 0.000000 0.000000 0.036024 0.000000
# 6 0.000000 0.000000 0.000000 0.000000 0.000000 0.022993
#
#
# Mechanical properties :
#
#
# Convention : Reuss Voigt Hill
#
# Bulk Modulus (GPa) = 69.00313 69.73121 69.36717
# Shear Modulus (GPa) = 38.46300 39.74358 39.10329
#
# Velocity S-wave (km/s) = 4.37428 4.44651 4.41054
# Velocity P-wave (km/s) = 7.73562 7.81354 7.77468
#
# Compressibility (1/GPa) = 0.01449210
#
# Stress axis : x y z
#
# Youngs Moduli (GPa) = 97.72888 115.24711 100.95447
#
# Poissons Ratio (x) = 0.31588 0.22649
# Poissons Ratio (y) = 0.26786 0.21978
# Poissons Ratio (z) = 0.21926 0.25089
#
# Static dielectric constant tensor:
#      x y z
#    x 3.702650 0.000000 0.000000 
#    y 0.000000 3.873940 0.000000 
#    z 0.000000 0.000000 6.410500 
# 
# 
# High freq. dielectric constant tensor:
#      x y z
#    x 1.769080 0.000000 0.000000 
#    y 0.000000 1.792270 0.000000 
#    z 0.000000 0.000000 1.800150 
# 
# From -- ./inp_files/13046.got.cif
#   From: 2010.06.25/outbox.cif.g09.slc.cpg/sg48_7_cif.got.tgz:13046.got - 2010.06.26 18:06:46.
