data_PCOD8201826
_publ_section_title
;
Structure prediction by ZEFSAII (Michael W. Deem and Ramdas Pophale) SiO2 
 PCOD8201826
Probable space group: P N N N
;
_chemical_formula_sum "Si O2"
_cell_formula_units_Z 58
_cell_length_a 8.954017
_cell_length_b 11.538425
_cell_length_c 27.522794
_cell_angle_alpha 90.000000
_cell_angle_beta 90.000000
_cell_angle_gamma 90.000000
_cell_volume 2843.524442
_symmetry_space_group_name_H-M "P N N N"
_symmetry_group_IT_number 48
_space_group.IT_coordinate_system_code '2'
_symmetry_cell_setting 'orthorhombic'
loop_
_space_group_symop_operation_xyz
x,y,z
1/2-x,1/2-y,z
x,1/2-y,1/2-z
1/2-x,y,1/2-z
-x,-y,-z
1/2+x,1/2+y,-z
-x,1/2+y,1/2+z
1/2+x,-y,1/2+z
loop_
_atom_site_type_symbol
_atom_site_label
_atom_site_fract_x
_atom_site_fract_y
_atom_site_fract_z
Si Si1 0.805086 0.876788 0.146065
Si Si2 0.776207 0.989679 0.970628
Si Si3 0.945534 0.652377 0.458348
Si Si4 0.750000 0.250000 0.250000
Si Si5 0.422203 0.939766 0.813785
Si Si6 0.072276 0.376082 0.740085
Si Si7 0.602550 0.322390 0.480855
Si Si8 0.374929 0.153330 0.104146
O O1 0.750000 0.750000 0.164672
O O2 0.860346 0.857706 0.091917
O O3 0.943226 0.907239 0.182608
O O4 0.684302 0.981404 0.150843
O O5 0.703497 0.958078 0.919446
O O6 0.827606 0.875435 0.999219
O O7 0.917843 0.065282 0.957855
O O8 0.653430 0.048427 0.005851
O O9 0.011818 0.778168 0.471317
O O10 0.657262 0.165920 0.214302
O O11 0.553265 0.883071 0.845047
O O12 0.500576 0.025649 0.774300
O O13 0.000394 0.250000 0.750000
O O14 0.250000 0.381063 0.750000
O O15 0.750000 0.250000 0.470136
O O16 0.504393 0.306349 0.432767
O O17 0.250000 0.250000 0.114129
#
# Coordination Sequence:
#
# PCOD8201826 Si02
#       8
#     8   8   8   2   8   8   8   8
#     4  11  20  34  68 102 129 159 218 280 345 397
#     4  10  22  41  58  86 136 176 220 264 319 393
#     4  10  22  37  61  95 131 176 211 270 330 389
#     4  12  24  44  68  92 132 168 234 278 320 416
#     4  11  24  40  64  99 126 174 222 278 340 403
#     4   9  15  36  59  92 130 150 198 282 338 383
#     4  10  22  40  61  92 130 174 221 264 315 392
#     4  12  25  41  64  92 134 179 222 269 325 398
#
# _framework density 20.397221999999999
#
# number of rings (size 3 to 8) (size 9 to 14) (size 15 to 20)
#    0.000    1.517    6.207    1.241    4.828    1.103 
#    0.000    0.345    0.000    0.000    0.000    0.966 
#    0.000    0.000    0.000    0.000    0.000    0.000 
#
# Total GULP energy -718612.070595 kJ/mol
# GULP energy per Si atom -12389.863286 kJ/mol
# Density = 2.035080 g / cm^3
# Si number density = 20.397222 Si / 1000 Ang^3
#
#
#
# Elastic Constant Matrix: (Units=GPa)
#
#
# Indices 1 2 3 4 5 6 
#
# 1 88.8256 50.0666 47.1532 0.0000 0.0000 0.0000
# 2 50.0666 113.2769 42.0021 0.0000 0.0000 0.0000
# 3 47.1532 42.0021 120.2029 0.0000 0.0000 0.0000
# 4 0.0000 0.0000 0.0000 29.3906 0.0000 0.0000
# 5 0.0000 0.0000 0.0000 0.0000 18.2145 0.0000
# 6 0.0000 0.0000 0.0000 0.0000 0.0000 23.7105
#
#
#
# Elastic Compliance Matrix: (Units=1/GPa)
#
#
# Indices 1 2 3 4 5 6 
#
# 1 0.016982 -0.005785 -0.004640 0.000000 0.000000 0.000000
# 2 -0.005785 0.012113 -0.001963 0.000000 0.000000 0.000000
# 3 -0.004640 -0.001963 0.010825 0.000000 0.000000 0.000000
# 4 0.000000 0.000000 0.000000 0.034025 0.000000 0.000000
# 5 0.000000 0.000000 0.000000 0.000000 0.054901 0.000000
# 6 0.000000 0.000000 0.000000 0.000000 0.000000 0.042175
#
#
# Mechanical properties :
#
#
# Convention : Reuss Voigt Hill
#
# Bulk Modulus (GPa) = 66.03595 66.74990 66.39293
# Shear Modulus (GPa) = 24.89459 26.46867 25.68163
#
# Velocity S-wave (km/s) = 3.49734 3.60621 3.55219
# Velocity P-wave (km/s) = 6.98239 7.08066 7.03170
#
# Compressibility (1/GPa) = 0.01514327
#
# Stress axis : x y z
#
# Youngs Moduli (GPa) = 58.88526 82.55702 92.37454
#
# Poissons Ratio (x) = 0.47762 0.42864
# Poissons Ratio (y) = 0.34067 0.18134
# Poissons Ratio (z) = 0.27324 0.16207
#
# Static dielectric constant tensor:
#      x y z
#    x 3.605380 0.000000 0.000000 
#    y 0.000000 4.017910 0.000000 
#    z 0.000000 0.000000 3.918780 
# 
# 
# High freq. dielectric constant tensor:
#      x y z
#    x 1.770330 0.000000 0.000000 
#    y 0.000000 1.808630 0.000000 
#    z 0.000000 0.000000 1.801900 
# 
# From -- ./inp_files/37545.got.cif
#   From: 2010.06.25/outbox.cif.g09.slc.cpg/sg48_19_cif.got.tgz:37545.got - 2010.06.26 18:06:46.
