data_PCOD8201781
_publ_section_title
;
Structure prediction by ZEFSAII (Michael W. Deem and Ramdas Pophale) SiO2 
 PCOD8201781
Probable space group: P N N N
;
_chemical_formula_sum "Si O2"
_cell_formula_units_Z 56
_cell_length_a 8.772399
_cell_length_b 14.224715
_cell_length_c 22.499641
_cell_angle_alpha 90.000000
_cell_angle_beta 90.000000
_cell_angle_gamma 90.000000
_cell_volume 2807.614904
_symmetry_space_group_name_H-M "P N N N"
_symmetry_group_IT_number 48
_space_group.IT_coordinate_system_code '2'
_symmetry_cell_setting 'orthorhombic'
loop_
_space_group_symop_operation_xyz
x,y,z
1/2-x,1/2-y,z
x,1/2-y,1/2-z
1/2-x,y,1/2-z
-x,-y,-z
1/2+x,1/2+y,-z
-x,1/2+y,1/2+z
1/2+x,-y,1/2+z
loop_
_atom_site_type_symbol
_atom_site_label
_atom_site_fract_x
_atom_site_fract_y
_atom_site_fract_z
Si Si1 0.552404 0.838438 0.360159
Si Si2 0.404663 0.652763 0.780790
Si Si3 0.094843 0.128760 0.657704
Si Si4 0.635003 0.978988 0.043943
Si Si5 0.075027 0.533310 0.264760
Si Si6 0.431552 0.101455 0.508722
Si Si7 0.337796 0.841468 0.580852
O O1 0.723208 0.863651 0.340549
O O2 0.515916 0.730800 0.344306
O O3 0.443065 0.909460 0.325656
O O4 0.516982 0.852673 0.429320
O O5 0.458165 0.750000 0.750000
O O6 0.250000 0.616513 0.750000
O O7 0.535688 0.576010 0.772761
O O8 0.373387 0.667055 0.850003
O O9 0.051615 0.068795 0.599812
O O10 0.034754 0.076767 0.715432
O O11 0.747308 0.905396 0.009961
O O12 0.733972 0.067995 0.065908
O O13 0.500000 0.000000 0.000000
O O14 0.250000 0.541922 0.250000
O O15 0.500171 0.161086 0.454142
O O16 0.500000 0.000000 0.500000
O O17 0.250000 0.750000 0.558600
#
# Coordination Sequence:
#
# PCOD8201781 Si02
#       7
#     8   8   8   8   8   8   8
#     4  10  21  41  63  88 121 168 211 252 309 386
#     4  11  22  43  70  90 118 167 223 261 310 388
#     4  10  22  39  64  88 120 167 215 253 308 386
#     4  10  22  39  62  93 130 163 210 263 324 387
#     4  12  25  39  61  92 130 160 203 269 328 375
#     4   9  20  39  61  87 124 164 204 254 314 377
#     4  11  22  39  66  95 122 167 216 265 320 386
#
# _framework density 19.945755999999999
#
# number of rings (size 3 to 8) (size 9 to 14) (size 15 to 20)
#    0.000    1.571    1.429    5.143    2.000    6.000 
#    0.000    0.000    3.143    0.000    0.000    0.000 
#    0.000    0.000    0.000    0.000    0.000    0.000 
#
# Total GULP energy -694326.471602 kJ/mol
# GULP energy per Si atom -12398.686993 kJ/mol
# Density = 1.990036 g / cm^3
# Si number density = 19.945756 Si / 1000 Ang^3
#
#
#
# Elastic Constant Matrix: (Units=GPa)
#
#
# Indices 1 2 3 4 5 6 
#
# 1 62.6076 33.7399 57.8401 0.0000 0.0000 0.0000
# 2 33.7399 121.3769 44.8800 0.0000 0.0000 0.0000
# 3 57.8401 44.8800 143.2667 0.0000 0.0000 0.0000
# 4 0.0000 0.0000 0.0000 22.6327 0.0000 0.0000
# 5 0.0000 0.0000 0.0000 0.0000 32.4110 0.0000
# 6 0.0000 0.0000 0.0000 0.0000 0.0000 21.9288
#
#
#
# Elastic Compliance Matrix: (Units=1/GPa)
#
#
# Indices 1 2 3 4 5 6 
#
# 1 0.027040 -0.003936 -0.009684 0.000000 0.000000 0.000000
# 2 -0.003936 0.009891 -0.001509 0.000000 0.000000 0.000000
# 3 -0.009684 -0.001509 0.011362 0.000000 0.000000 0.000000
# 4 0.000000 0.000000 0.000000 0.044184 0.000000 0.000000
# 5 0.000000 0.000000 0.000000 0.000000 0.030854 0.000000
# 6 0.000000 0.000000 0.000000 0.000000 0.000000 0.045602
#
#
# Mechanical properties :
#
#
# Convention : Reuss Voigt Hill
#
# Bulk Modulus (GPa) = 55.44695 66.68568 61.06632
# Shear Modulus (GPa) = 24.36616 28.11391 26.24004
#
# Velocity S-wave (km/s) = 3.49896 3.75843 3.63101
# Velocity P-wave (km/s) = 6.64702 7.23467 6.94706
#
# Compressibility (1/GPa) = 0.01803526
#
# Stress axis : x y z
#
# Youngs Moduli (GPa) = 36.98248 101.10184 88.00976
#
# Poissons Ratio (x) = 0.39792 0.85226
# Poissons Ratio (y) = 0.14556 0.13285
# Poissons Ratio (z) = 0.35813 0.15261
#
# Static dielectric constant tensor:
#      x y z
#    x 3.440830 0.000000 0.000000 
#    y 0.000000 3.960030 0.000000 
#    z 0.000000 0.000000 3.844220 
# 
# 
# High freq. dielectric constant tensor:
#      x y z
#    x 1.760290 0.000000 0.000000 
#    y 0.000000 1.789640 0.000000 
#    z 0.000000 0.000000 1.791110 
# 
# From -- ./inp_files/33597.got.cif
#   From: 2010.06.25/outbox.cif.g09.slc.cpg/sg48_17_cif.got.tgz:33597.got - 2010.06.26 18:06:46.
