data_PCOD8201754
_publ_section_title
;
Structure prediction by ZEFSAII (Michael W. Deem and Ramdas Pophale) SiO2 
 PCOD8201754
Probable space group: P N N N
;
_chemical_formula_sum "Si O2"
_cell_formula_units_Z 48
_cell_length_a 10.263643
_cell_length_b 14.607630
_cell_length_c 16.076230
_cell_angle_alpha 90.000000
_cell_angle_beta 90.000000
_cell_angle_gamma 90.000000
_cell_volume 2410.268964
_symmetry_space_group_name_H-M "P N N N"
_symmetry_group_IT_number 48
_space_group.IT_coordinate_system_code '2'
_symmetry_cell_setting 'orthorhombic'
loop_
_space_group_symop_operation_xyz
x,y,z
1/2-x,1/2-y,z
x,1/2-y,1/2-z
1/2-x,y,1/2-z
-x,-y,-z
1/2+x,1/2+y,-z
-x,1/2+y,1/2+z
1/2+x,-y,1/2+z
loop_
_atom_site_type_symbol
_atom_site_label
_atom_site_fract_x
_atom_site_fract_y
_atom_site_fract_z
Si Si1 0.049803 0.031263 0.588690
Si Si2 0.400302 0.235135 0.848747
Si Si3 0.624800 0.348312 0.208947
Si Si4 0.175869 0.554326 0.557346
Si Si5 0.103197 0.026106 0.255543
Si Si6 0.543852 0.410778 0.895010
O O1 0.059426 0.138101 0.611912
O O2 0.190022 0.984828 0.592856
O O3 0.000000 0.000000 0.500000
O O4 0.942546 0.992011 0.651326
O O5 0.250000 0.250000 0.870965
O O6 0.422075 0.250000 0.750000
O O7 0.490699 0.307776 0.896412
O O8 0.618445 0.250000 0.250000
O O9 0.750000 0.400817 0.250000
O O10 0.647142 0.352034 0.109230
O O11 0.486858 0.394131 0.221910
O O12 0.165754 0.579615 0.459599
O O13 0.071017 0.477287 0.578160
O O14 0.250000 0.062915 0.250000
O O15 0.092694 0.935819 0.197526
#
# Coordination Sequence:
#
# PCOD8201754 Si02
#       6
#     8   8   8   8   8   8
#     4  12  24  40  64  98 136 180 227 287 354 430
#     4  11  22  40  71 102 129 174 244 296 347 422
#     4  10  21  39  67  92 122 171 228 279 331 415
#     4  10  21  40  65  93 128 174 221 277 350 415
#     4  11  23  41  63  93 133 178 220 280 353 410
#     4  10  21  40  66  94 131 169 219 291 346 411
#
# _framework density 19.91479
#
# number of rings (size 3 to 8) (size 9 to 14) (size 15 to 20)
#    0.000    1.333    5.000    1.000    0.000    1.667 
#    0.000    3.333    0.000    0.000    0.000    0.000 
#    0.000    0.000    0.000    0.000    0.000    0.000 
#
# Total GULP energy -594628.233225 kJ/mol
# GULP energy per Si atom -12388.088192 kJ/mol
# Density = 1.986946 g / cm^3
# Si number density = 19.914790 Si / 1000 Ang^3
#
#
#
# Elastic Constant Matrix: (Units=GPa)
#
#
# Indices 1 2 3 4 5 6 
#
# 1 131.0712 38.4067 46.7529 0.0000 0.0000 0.0000
# 2 38.4067 110.9233 54.8755 0.0000 0.0000 0.0000
# 3 46.7529 54.8755 159.6255 0.0000 0.0000 0.0000
# 4 0.0000 0.0000 0.0000 30.0234 0.0000 0.0000
# 5 0.0000 0.0000 0.0000 0.0000 34.0823 0.0000
# 6 0.0000 0.0000 0.0000 0.0000 0.0000 13.1447
#
#
#
# Elastic Compliance Matrix: (Units=1/GPa)
#
#
# Indices 1 2 3 4 5 6 
#
# 1 0.008932 -0.002167 -0.001871 0.000000 0.000000 0.000000
# 2 -0.002167 0.011388 -0.003280 0.000000 0.000000 0.000000
# 3 -0.001871 -0.003280 0.007940 0.000000 0.000000 0.000000
# 4 0.000000 0.000000 0.000000 0.033307 0.000000 0.000000
# 5 0.000000 0.000000 0.000000 0.000000 0.029341 0.000000
# 6 0.000000 0.000000 0.000000 0.000000 0.000000 0.076076
#
#
# Mechanical properties :
#
#
# Convention : Reuss Voigt Hill
#
# Bulk Modulus (GPa) = 73.40114 75.74335 74.57225
# Shear Modulus (GPa) = 26.85817 32.88906 29.87362
#
# Velocity S-wave (km/s) = 3.67639 4.06826 3.87728
# Velocity P-wave (km/s) = 7.41341 7.75783 7.58758
#
# Compressibility (1/GPa) = 0.01362377
#
# Stress axis : x y z
#
# Youngs Moduli (GPa) = 111.95924 87.80872 125.93803
#
# Poissons Ratio (x) = 0.19028 0.23564
# Poissons Ratio (y) = 0.24261 0.41313
# Poissons Ratio (z) = 0.20949 0.28805
#
# Static dielectric constant tensor:
#      x y z
#    x 4.100430 0.000000 0.000000 
#    y 0.000000 3.860600 0.000000 
#    z 0.000000 0.000000 3.954230 
# 
# 
# High freq. dielectric constant tensor:
#      x y z
#    x 1.784980 0.000000 0.000000 
#    y 0.000000 1.760770 0.000000 
#    z 0.000000 0.000000 1.787330 
# 
# From -- ./inp_files/30254.got.cif
#   From: 2010.06.25/outbox.cif.g09.slc.cpg/sg48_16_cif.got.tgz:30254.got - 2010.06.26 18:06:46.
