data_PCOD8201390
_publ_section_title
;
Structure prediction by ZEFSAII (Michael W. Deem and Ramdas Pophale) SiO2 
 PCOD8201390
Probable space group: P N N N
;
_chemical_formula_sum "Si O2"
_cell_formula_units_Z 64
_cell_length_a 5.174454
_cell_length_b 32.362301
_cell_length_c 19.288109
_cell_angle_alpha 90.000000
_cell_angle_beta 90.000000
_cell_angle_gamma 90.000000
_cell_volume 3229.933457
_symmetry_space_group_name_H-M "P N N N"
_symmetry_group_IT_number 48
_space_group.IT_coordinate_system_code '2'
_symmetry_cell_setting 'orthorhombic'
loop_
_space_group_symop_operation_xyz
x,y,z
1/2-x,1/2-y,z
x,1/2-y,1/2-z
1/2-x,y,1/2-z
-x,-y,-z
1/2+x,1/2+y,-z
-x,1/2+y,1/2+z
1/2+x,-y,1/2+z
loop_
_atom_site_type_symbol
_atom_site_label
_atom_site_fract_x
_atom_site_fract_y
_atom_site_fract_z
Si Si1 0.266982 0.092251 0.829484
Si Si2 0.244544 0.015557 0.459217
Si Si3 0.690507 0.664132 0.433409
Si Si4 0.322298 0.389396 0.429039
Si Si5 0.266916 0.539547 0.169693
Si Si6 0.493345 0.768757 0.673145
Si Si7 0.333753 0.650580 0.887537
Si Si8 0.191598 0.703193 0.473444
O O1 0.250000 0.104845 0.750000
O O2 0.242547 0.134479 0.870335
O O3 0.536574 0.070749 0.848284
O O4 0.035292 0.061555 0.848727
O O5 0.188777 0.064008 0.455162
O O6 0.500000 0.000000 0.500000
O O7 0.248435 0.999908 0.379943
O O8 0.000000 0.000000 0.500000
O O9 0.674984 0.638715 0.503794
O O10 0.415526 0.686274 0.422422
O O11 0.916270 0.698413 0.435617
O O12 0.563802 0.374925 0.379328
O O13 0.056161 0.383704 0.387895
O O14 0.250000 0.524988 0.250000
O O15 0.750000 0.750000 0.635102
O O16 0.500823 0.750000 0.750000
O O17 0.437440 0.818095 0.673284
O O18 0.250000 0.750000 0.631820
O O19 0.320249 0.677479 0.956292
O O20 0.250000 0.750000 0.492052
#
# Coordination Sequence:
#
# PCOD8201390 Si02
#       8
#     8   8   8   8   8   8   8   8
#     4  10  20  36  59  85 109 146 185 232 282 332
#     4  12  23  37  61  90 120 155 200 246 294 352
#     4  10  19  33  52  77 112 136 178 230 275 328
#     4  10  21  34  53  82 114 147 180 233 296 342
#     4  10  21  37  59  84 116 151 194 235 284 348
#     4  10  20  34  56  80 104 138 185 247 292 339
#     4  10  20  35  54  77 110 143 182 235 291 345
#     4  10  20  32  51  77 103 144 176 217 274 333
#
# _framework density 19.814648999999999
#
# number of rings (size 3 to 8) (size 9 to 14) (size 15 to 20)
#    0.000    1.750    0.000    5.250    0.000    4.000 
#    0.000    0.000    8.250    2.250    0.000    0.000 
#    0.000    0.000    0.000    0.000    0.000    0.000 
#
# Total GULP energy -792988.600325 kJ/mol
# GULP energy per Si atom -12390.446880 kJ/mol
# Density = 1.976955 g / cm^3
# Si number density = 19.814649 Si / 1000 Ang^3
#
#
#
# Elastic Constant Matrix: (Units=GPa)
#
#
# Indices 1 2 3 4 5 6 
#
# 1 156.7044 48.1120 40.1623 0.0000 0.0000 0.0000
# 2 48.1120 87.6192 19.8736 0.0000 0.0000 0.0000
# 3 40.1623 19.8736 47.0876 0.0000 0.0000 0.0000
# 4 0.0000 0.0000 0.0000 -42.1484 0.0000 0.0000
# 5 0.0000 0.0000 0.0000 0.0000 8.9270 0.0000
# 6 0.0000 0.0000 0.0000 0.0000 0.0000 32.4883
#
#
#
# Elastic Compliance Matrix: (Units=1/GPa)
#
#
# Indices 1 2 3 4 5 6 
#
# 1 0.009075 -0.003569 -0.006234 0.000000 0.000000 0.000000
# 2 -0.003569 0.014025 -0.002875 0.000000 0.000000 0.000000
# 3 -0.006234 -0.002875 0.027768 0.000000 0.000000 0.000000
# 4 0.000000 0.000000 0.000000 -0.023726 0.000000 0.000000
# 5 0.000000 0.000000 0.000000 0.000000 0.112019 0.000000
# 6 0.000000 0.000000 0.000000 0.000000 0.000000 0.030780
#
#
# Mechanical properties :
#
#
# Convention : Reuss Voigt Hill
#
# Bulk Modulus (GPa) = 39.19854 56.41190 47.80522
# Shear Modulus (GPa) = 24.53370 12.07093 18.30232
#
# Velocity S-wave (km/s) = 3.52257 2.47086 3.04250
# Velocity P-wave (km/s) = 6.03077 6.05572 6.04326
#
# Compressibility (1/GPa) = 0.02551116
#
# Stress axis : x y z
#
# Youngs Moduli (GPa) = 110.19328 71.30134 36.01329
#
# Poissons Ratio (x) = 0.25448 0.22450
# Poissons Ratio (y) = 0.39329 0.10354
# Poissons Ratio (z) = 0.68693 0.20500
#
# Static dielectric constant tensor:
#      x y z
#    x -1.412800 0.000000 0.000000 
#    y 0.000000 3.728040 0.000000 
#    z 0.000000 0.000000 3.458760 
# 
# 
# High freq. dielectric constant tensor:
#      x y z
#    x 1.805160 0.000000 0.000000 
#    y 0.000000 1.765370 0.000000 
#    z 0.000000 0.000000 1.741790 
# 
# From -- ./inp_files/29684.got.cif
#   From: 2010.06.25/outbox.cif.g09.slc.cpg/sg48_15_cif.got.tgz:29684.got - 2010.06.26 18:06:46.
