data_PCOD8201603
_publ_section_title
;
Structure prediction by ZEFSAII (Michael W. Deem and Ramdas Pophale) SiO2 
 PCOD8201603
Probable space group: P N N N
;
_chemical_formula_sum "Si O2"
_cell_formula_units_Z 64
_cell_length_a 11.607602
_cell_length_b 8.840866
_cell_length_c 31.306372
_cell_angle_alpha 90.000000
_cell_angle_beta 90.000000
_cell_angle_gamma 90.000000
_cell_volume 3212.699149
_symmetry_space_group_name_H-M "P N N N"
_symmetry_group_IT_number 48
_space_group.IT_coordinate_system_code '2'
_symmetry_cell_setting 'orthorhombic'
loop_
_space_group_symop_operation_xyz
x,y,z
1/2-x,1/2-y,z
x,1/2-y,1/2-z
1/2-x,y,1/2-z
-x,-y,-z
1/2+x,1/2+y,-z
-x,1/2+y,1/2+z
1/2+x,-y,1/2+z
loop_
_atom_site_type_symbol
_atom_site_label
_atom_site_fract_x
_atom_site_fract_y
_atom_site_fract_z
Si Si1 0.742406 0.924235 0.964658
Si Si2 0.764943 0.427933 0.353404
Si Si3 0.614794 0.927147 0.754125
Si Si4 0.526646 0.426779 0.572922
Si Si5 0.858472 0.355436 0.597444
Si Si6 0.769112 0.577874 0.059912
Si Si7 0.006999 0.413874 0.676430
Si Si8 0.023654 0.061317 0.669037
O O1 0.750000 0.750000 0.953500
O O2 0.612587 0.976701 0.955903
O O3 0.828098 0.009627 0.933730
O O4 0.784536 0.955066 0.013382
O O5 0.750000 0.250000 0.348717
O O6 0.780804 0.469907 0.403451
O O7 0.878214 0.487600 0.329852
O O8 0.654134 0.501224 0.330794
O O9 0.590104 0.750000 0.750000
O O10 0.750000 0.963119 0.750000
O O11 0.550714 0.024784 0.718851
O O12 0.562772 0.976699 0.799355
O O13 0.552959 0.247658 0.570644
O O14 0.402981 0.456678 0.553458
O O15 0.533121 0.470485 0.622977
O O16 0.750000 0.250000 0.611219
O O17 0.916385 0.434473 0.638060
O O18 0.750000 0.750000 0.075183
O O19 0.035225 0.237211 0.681042
#
# Coordination Sequence:
#
# PCOD8201603 Si02
#       8
#     8   8   8   8   8   8   8   8
#     4  10  21  34  54  85 119 154 197 249 303 355
#     4  11  23  40  64  92 123 158 200 253 312 362
#     4  11  26  42  62  97 130 157 195 253 304 355
#     4   9  19  37  59  79 115 155 198 246 294 354
#     4   9  20  36  57  86 114 157 198 247 299 356
#     4  10  20  38  58  83 115 157 205 247 292 357
#     4  11  23  41  66  89 121 164 207 247 299 366
#     4  10  22  42  65  90 120 161 208 246 298 364
#
# _framework density 19.920946000000001
#
# number of rings (size 3 to 8) (size 9 to 14) (size 15 to 20)
#    0.000    1.875    0.000    4.125    5.250    5.500 
#    0.000    8.125    0.000    0.000    0.000    0.000 
#    0.000    0.000    0.000    0.000    0.000    0.000 
#
# Total GULP energy -793562.954145 kJ/mol
# GULP energy per Si atom -12399.421159 kJ/mol
# Density = 1.987560 g / cm^3
# Si number density = 19.920946 Si / 1000 Ang^3
#
#
#
# Elastic Constant Matrix: (Units=GPa)
#
#
# Indices 1 2 3 4 5 6 
#
# 1 76.6573 38.3309 51.1844 0.0000 0.0000 0.0000
# 2 38.3309 117.6203 61.8091 0.0000 0.0000 0.0000
# 3 51.1844 61.8091 97.2077 0.0000 0.0000 0.0000
# 4 0.0000 0.0000 0.0000 45.3025 0.0000 0.0000
# 5 0.0000 0.0000 0.0000 0.0000 20.7584 0.0000
# 6 0.0000 0.0000 0.0000 0.0000 0.0000 30.0970
#
#
#
# Elastic Compliance Matrix: (Units=1/GPa)
#
#
# Indices 1 2 3 4 5 6 
#
# 1 0.020293 -0.001499 -0.009732 0.000000 0.000000 0.000000
# 2 -0.001499 0.012879 -0.007400 0.000000 0.000000 0.000000
# 3 -0.009732 -0.007400 0.020117 0.000000 0.000000 0.000000
# 4 0.000000 0.000000 0.000000 0.022074 0.000000 0.000000
# 5 0.000000 0.000000 0.000000 0.000000 0.048173 0.000000
# 6 0.000000 0.000000 0.000000 0.000000 0.000000 0.033226
#
#
# Mechanical properties :
#
#
# Convention : Reuss Voigt Hill
#
# Bulk Modulus (GPa) = 62.39480 66.01488 64.20484
# Shear Modulus (GPa) = 25.07964 28.57563 26.82763
#
# Velocity S-wave (km/s) = 3.55203 3.79152 3.67373
# Velocity P-wave (km/s) = 6.94347 7.23726 7.09188
#
# Compressibility (1/GPa) = 0.01602698
#
# Stress axis : x y z
#
# Youngs Moduli (GPa) = 49.27895 77.64587 49.71015
#
# Poissons Ratio (x) = 0.11639 0.48377
# Poissons Ratio (y) = 0.07387 0.36784
# Poissons Ratio (z) = 0.47958 0.57456
#
# Static dielectric constant tensor:
#      x y z
#    x 4.186250 0.000000 0.000000 
#    y 0.000000 3.644250 0.000000 
#    z 0.000000 0.000000 3.631830 
# 
# 
# High freq. dielectric constant tensor:
#      x y z
#    x 1.785540 0.000000 0.000000 
#    y 0.000000 1.779670 0.000000 
#    z 0.000000 0.000000 1.780260 
# 
# From -- ./inp_files/38964.got.cif
#   From: 2010.06.25/outbox.cif.g09.slc.cpg/sg48_20_cif.got.tgz:38964.got - 2010.06.26 18:06:46.
