data_PCOD8201254
_publ_section_title
;
Structure prediction by ZEFSAII (Michael W. Deem and Ramdas Pophale) SiO2 
 PCOD8201254
Probable space group: P N N N
;
_chemical_formula_sum "Si O2"
_cell_formula_units_Z 64
_cell_length_a 19.526164
_cell_length_b 9.070661
_cell_length_c 23.035442
_cell_angle_alpha 90.000000
_cell_angle_beta 90.000000
_cell_angle_gamma 90.000000
_cell_volume 4079.927246
_symmetry_space_group_name_H-M "P N N N"
_symmetry_group_IT_number 48
_space_group.IT_coordinate_system_code '2'
_symmetry_cell_setting 'orthorhombic'
loop_
_space_group_symop_operation_xyz
x,y,z
1/2-x,1/2-y,z
x,1/2-y,1/2-z
1/2-x,y,1/2-z
-x,-y,-z
1/2+x,1/2+y,-z
-x,1/2+y,1/2+z
1/2+x,-y,1/2+z
loop_
_atom_site_type_symbol
_atom_site_label
_atom_site_fract_x
_atom_site_fract_y
_atom_site_fract_z
Si Si1 0.315589 0.157794 0.503199
Si Si2 0.965935 0.985585 0.411030
Si Si3 0.655842 0.306695 0.392971
Si Si4 0.784184 0.974886 0.311241
Si Si5 0.722344 0.102935 0.987982
Si Si6 0.847316 0.960077 0.120449
Si Si7 0.917053 0.775227 0.313683
Si Si8 0.403315 0.088439 0.032047
O O1 0.250000 0.250000 0.523605
O O2 0.359961 0.119385 0.559322
O O3 0.364184 0.253789 0.459901
O O4 0.285644 0.007833 0.476407
O O5 0.964940 0.872179 0.356597
O O6 0.940286 0.904437 0.469384
O O7 0.918881 0.126348 0.401074
O O8 0.042002 0.053296 0.417927
O O9 0.687211 0.368111 0.333265
O O10 0.707537 0.358542 0.444207
O O11 0.644381 0.133950 0.386941
O O12 0.750000 0.004463 0.250000
O O13 0.727567 0.916961 0.356128
O O14 0.843594 0.854126 0.307142
O O15 0.750000 0.250000 0.956252
O O16 0.652200 0.042170 0.961403
O O17 0.905515 0.889960 0.161712
O O18 0.950910 0.750000 0.250000
#
# Coordination Sequence:
#
# PCOD8201254 Si02
#       8
#     8   8   8   8   8   8   8   8
#     4  10  17  27  45  64  85 116 152 193 236 285
#     4   9  19  35  45  59  88 124 166 185 224 278
#     4  10  20  30  42  60  93 128 153 197 234 274
#     4  11  20  30  41  59  90 122 162 201 239 266
#     4  10  16  28  46  71  93 111 147 191 248 278
#     4  12  19  28  41  62  91 119 158 200 242 266
#     4  11  21  32  45  63  85 123 163 205 232 271
#     4   9  18  31  49  63  85 126 154 189 226 281
#
# _framework density 15.686553999999999
#
# number of rings (size 3 to 8) (size 9 to 14) (size 15 to 20)
#    0.000    1.750    5.000    1.500    0.000    1.000 
#    0.000    1.875    0.000    0.000    0.000    0.000 
#    0.000    0.500    0.000    1.125    0.000    0.000 
#
# Total GULP energy -793033.706135 kJ/mol
# GULP energy per Si atom -12391.151658 kJ/mol
# Density = 1.565085 g / cm^3
# Si number density = 15.686554 Si / 1000 Ang^3
#
#
#
# Elastic Constant Matrix: (Units=GPa)
#
#
# Indices 1 2 3 4 5 6 
#
# 1 83.5328 45.8523 38.1069 0.0000 0.0000 0.0000
# 2 45.8523 116.7905 31.4806 0.0000 0.0000 0.0000
# 3 38.1069 31.4806 54.2754 0.0000 0.0000 0.0000
# 4 0.0000 0.0000 0.0000 11.6679 0.0000 0.0000
# 5 0.0000 0.0000 0.0000 0.0000 20.5955 0.0000
# 6 0.0000 0.0000 0.0000 0.0000 0.0000 16.8934
#
#
#
# Elastic Compliance Matrix: (Units=1/GPa)
#
#
# Indices 1 2 3 4 5 6 
#
# 1 0.019587 -0.004721 -0.011014 0.000000 0.000000 0.000000
# 2 -0.004721 0.011287 -0.003232 0.000000 0.000000 0.000000
# 3 -0.011014 -0.003232 0.028032 0.000000 0.000000 0.000000
# 4 0.000000 0.000000 0.000000 0.085705 0.000000 0.000000
# 5 0.000000 0.000000 0.000000 0.000000 0.048554 0.000000
# 6 0.000000 0.000000 0.000000 0.000000 0.000000 0.059195
#
#
# Mechanical properties :
#
#
# Convention : Reuss Voigt Hill
#
# Bulk Modulus (GPa) = 47.68193 53.94203 50.81198
# Shear Modulus (GPa) = 16.81887 19.10864 17.96375
#
# Velocity S-wave (km/s) = 3.27797 3.49399 3.38771
# Velocity P-wave (km/s) = 6.69250 7.12316 6.91118
#
# Compressibility (1/GPa) = 0.02097230
#
# Stress axis : x y z
#
# Youngs Moduli (GPa) = 51.05334 88.59694 35.67351
#
# Poissons Ratio (x) = 0.41829 0.39291
# Poissons Ratio (y) = 0.24104 0.11529
# Poissons Ratio (z) = 0.56230 0.28633
#
# Static dielectric constant tensor:
#      x y z
#    x 2.850070 0.000000 0.000000 
#    y 0.000000 3.218800 0.000000 
#    z 0.000000 0.000000 2.734110 
# 
# 
# High freq. dielectric constant tensor:
#      x y z
#    x 1.572150 0.000000 0.000000 
#    y 0.000000 1.618940 0.000000 
#    z 0.000000 0.000000 1.554930 
# 
# From -- ./inp_files/16116.got.cif
#   From: 2010.06.25/outbox.cif.g09.slc.cpg/sg48_9_cif.got.tgz:16116.got - 2010.06.26 18:06:46.
