data_PCOD8201464
_publ_section_title
;
Structure prediction by ZEFSAII (Michael W. Deem and Ramdas Pophale) SiO2 
 PCOD8201464
Probable space group: P N N N
;
_chemical_formula_sum "Si O2"
_cell_formula_units_Z 56
_cell_length_a 6.237874
_cell_length_b 13.842357
_cell_length_c 32.190436
_cell_angle_alpha 90.000000
_cell_angle_beta 90.000000
_cell_angle_gamma 90.000000
_cell_volume 2779.543677
_symmetry_space_group_name_H-M "P N N N"
_symmetry_group_IT_number 48
_space_group.IT_coordinate_system_code '2'
_symmetry_cell_setting 'orthorhombic'
loop_
_space_group_symop_operation_xyz
x,y,z
1/2-x,1/2-y,z
x,1/2-y,1/2-z
1/2-x,y,1/2-z
-x,-y,-z
1/2+x,1/2+y,-z
-x,1/2+y,1/2+z
1/2+x,-y,1/2+z
loop_
_atom_site_type_symbol
_atom_site_label
_atom_site_fract_x
_atom_site_fract_y
_atom_site_fract_z
Si Si1 0.791314 0.856159 0.202041
Si Si2 0.146880 0.649536 0.657579
Si Si3 0.812210 0.430729 0.486092
Si Si4 0.365950 0.011454 0.294691
Si Si5 0.889054 0.658336 0.574243
Si Si6 0.485529 0.008420 0.851363
Si Si7 0.578049 0.022203 0.939296
O O1 0.750000 0.750000 0.182455
O O2 0.750000 0.851143 0.250000
O O3 0.610466 0.920832 0.182213
O O4 0.026036 0.905552 0.197065
O O5 0.250000 0.750000 0.673042
O O6 0.332532 0.581873 0.638656
O O7 0.041574 0.596829 0.698166
O O8 0.977813 0.668252 0.620866
O O9 0.687879 0.400343 0.528959
O O10 0.646925 0.489178 0.457859
O O11 0.000000 0.500000 0.500000
O O12 0.913442 0.343929 0.459056
O O13 0.250000 0.019278 0.250000
O O14 0.202678 0.031224 0.331747
O O15 0.750000 0.750000 0.562183
O O16 0.739436 0.565792 0.569422
O O17 0.529581 0.067494 0.894079
#
# Coordination Sequence:
#
# PCOD8201464 Si02
#       7
#     8   8   8   8   8   8   8
#     4  10  22  40  64  96 122 152 208 271 317 377
#     4  11  24  38  61  94 130 166 222 264 310 373
#     4   9  20  35  57  87 115 155 204 253 310 369
#     4  11  23  42  66  90 128 169 212 257 325 383
#     4  11  21  34  60  91 120 157 214 266 306 364
#     4  11  21  39  65  90 125 166 210 262 314 383
#     4  10  19  37  60  87 117 165 204 247 313 381
#
# _framework density 20.147189999999998
#
# number of rings (size 3 to 8) (size 9 to 14) (size 15 to 20)
#    0.000    1.571    4.286    0.857    0.000    0.571 
#    0.000    2.143    0.000   20.571    0.000    0.000 
#    0.000    0.000    0.000    0.000    0.000    0.000 
#
# Total GULP energy -693860.223298 kJ/mol
# GULP energy per Si atom -12390.361130 kJ/mol
# Density = 2.010133 g / cm^3
# Si number density = 20.147190 Si / 1000 Ang^3
#
#
#
# Elastic Constant Matrix: (Units=GPa)
#
#
# Indices 1 2 3 4 5 6 
#
# 1 110.4543 35.6687 42.8237 0.0000 0.0000 0.0000
# 2 35.6687 93.7672 27.4166 0.0000 0.0000 0.0000
# 3 42.8237 27.4166 103.4931 0.0000 0.0000 0.0000
# 4 0.0000 0.0000 0.0000 11.9373 0.0000 0.0000
# 5 0.0000 0.0000 0.0000 0.0000 33.1428 0.0000
# 6 0.0000 0.0000 0.0000 0.0000 0.0000 29.8354
#
#
#
# Elastic Compliance Matrix: (Units=1/GPa)
#
#
# Indices 1 2 3 4 5 6 
#
# 1 0.011642 -0.003274 -0.003950 0.000000 0.000000 0.000000
# 2 -0.003274 0.012481 -0.001952 0.000000 0.000000 0.000000
# 3 -0.003950 -0.001952 0.011814 0.000000 0.000000 0.000000
# 4 0.000000 0.000000 0.000000 0.083771 0.000000 0.000000
# 5 0.000000 0.000000 0.000000 0.000000 0.030172 0.000000
# 6 0.000000 0.000000 0.000000 0.000000 0.000000 0.033517
#
#
# Mechanical properties :
#
#
# Convention : Reuss Voigt Hill
#
# Bulk Modulus (GPa) = 56.86375 57.72585 57.29480
# Shear Modulus (GPa) = 24.08360 28.43682 26.26021
#
# Velocity S-wave (km/s) = 3.46118 3.76101 3.61420
# Velocity P-wave (km/s) = 6.65270 6.89743 6.77617
#
# Compressibility (1/GPa) = 0.01758590
#
# Stress axis : x y z
#
# Youngs Moduli (GPa) = 85.89488 80.12402 84.64538
#
# Poissons Ratio (x) = 0.26230 0.33436
# Poissons Ratio (y) = 0.28119 0.16520
# Poissons Ratio (z) = 0.33929 0.15638
#
# Static dielectric constant tensor:
#      x y z
#    x 4.082950 0.000000 0.000000 
#    y 0.000000 3.667940 0.000000 
#    z 0.000000 0.000000 3.932780 
# 
# 
# High freq. dielectric constant tensor:
#      x y z
#    x 1.812150 0.000000 0.000000 
#    y 0.000000 1.745910 0.000000 
#    z 0.000000 0.000000 1.796810 
# 
# From -- ./inp_files/24551.got.cif
#   From: 2010.06.25/outbox.cif.g09.slc.cpg/sg48_13_cif.got.tgz:24551.got - 2010.06.26 18:06:46.
