data_PCOD8201718
_publ_section_title
;
Structure prediction by ZEFSAII (Michael W. Deem and Ramdas Pophale) SiO2 
 PCOD8201718
Probable space group: P N N N
;
_chemical_formula_sum "Si O2"
_cell_formula_units_Z 32
_cell_length_a 10.894202
_cell_length_b 15.664611
_cell_length_c 8.378889
_cell_angle_alpha 90.000000
_cell_angle_beta 90.000000
_cell_angle_gamma 90.000000
_cell_volume 1429.886202
_symmetry_space_group_name_H-M "P N N N"
_symmetry_group_IT_number 48
_space_group.IT_coordinate_system_code '2'
_symmetry_cell_setting 'orthorhombic'
loop_
_space_group_symop_operation_xyz
x,y,z
1/2-x,1/2-y,z
x,1/2-y,1/2-z
1/2-x,y,1/2-z
-x,-y,-z
1/2+x,1/2+y,-z
-x,1/2+y,1/2+z
1/2+x,-y,1/2+z
loop_
_atom_site_type_symbol
_atom_site_label
_atom_site_fract_x
_atom_site_fract_y
_atom_site_fract_z
Si Si1 0.545387 0.250000 0.750000
Si Si2 0.296532 0.488634 0.998971
Si Si3 0.250000 0.881620 0.250000
Si Si4 0.490261 0.964689 0.738564
Si Si5 0.438705 0.384244 0.546540
O O1 0.634340 0.174268 0.691546
O O2 0.457929 0.286916 0.608602
O O3 0.218891 0.559067 0.096807
O O4 0.404864 0.449791 0.107470
O O5 0.355683 0.532566 0.842208
O O6 0.204976 0.411136 0.955157
O O7 0.510450 0.054590 0.829039
O O8 0.499969 0.889933 0.870637
#
# Coordination Sequence:
#
# PCOD8201718 Si02
#       5
#     4   8   4   8   8
#     4  11  24  36  63  96 144 177 215 288 372 402
#     4  11  20  39  71 101 128 181 243 289 324 419
#     4  11  20  42  66  94 133 184 226 284 345 412
#     4  10  21  37  69 100 129 174 250 276 329 422
#     4  11  20  40  62 104 134 176 226 290 349 416
#
# _framework density 22.379401999999999
#
# number of rings (size 3 to 8) (size 9 to 14) (size 15 to 20)
#    0.000    1.250    5.000    2.250    0.000    0.000 
#    0.000    3.750    0.000    3.000   19.500    0.000 
#    0.000    0.000    0.000    0.000    0.000    0.000 
#
# Total GULP energy -396520.687804 kJ/mol
# GULP energy per Si atom -12391.271494 kJ/mol
# Density = 2.232847 g / cm^3
# Si number density = 22.379402 Si / 1000 Ang^3
#
#
#
# Elastic Constant Matrix: (Units=GPa)
#
#
# Indices 1 2 3 4 5 6 
#
# 1 161.0576 57.3679 72.1487 0.0000 0.0000 0.0000
# 2 57.3679 98.9301 53.6480 0.0000 0.0000 0.0000
# 3 72.1487 53.6480 133.0962 0.0000 0.0000 0.0000
# 4 0.0000 0.0000 0.0000 43.6972 0.0000 0.0000
# 5 0.0000 0.0000 0.0000 0.0000 45.9932 0.0000
# 6 0.0000 0.0000 0.0000 0.0000 0.0000 34.6415
#
#
#
# Elastic Compliance Matrix: (Units=1/GPa)
#
#
# Indices 1 2 3 4 5 6 
#
# 1 0.008961 -0.003279 -0.003536 0.000000 0.000000 0.000000
# 2 -0.003279 0.014135 -0.003920 0.000000 0.000000 0.000000
# 3 -0.003536 -0.003920 0.011010 0.000000 0.000000 0.000000
# 4 0.000000 0.000000 0.000000 0.022885 0.000000 0.000000
# 5 0.000000 0.000000 0.000000 0.000000 0.021742 0.000000
# 6 0.000000 0.000000 0.000000 0.000000 0.000000 0.028867
#
#
# Mechanical properties :
#
#
# Convention : Reuss Voigt Hill
#
# Bulk Modulus (GPa) = 79.13542 84.37923 81.75733
# Shear Modulus (GPa) = 37.51427 38.86100 38.18763
#
# Velocity S-wave (km/s) = 4.09869 4.17161 4.13531
# Velocity P-wave (km/s) = 7.60504 7.80954 7.70797
#
# Compressibility (1/GPa) = 0.01263657
#
# Stress axis : x y z
#
# Youngs Moduli (GPa) = 111.59716 70.74467 90.82444
#
# Poissons Ratio (x) = 0.23196 0.32114
# Poissons Ratio (y) = 0.36590 0.35606
# Poissons Ratio (z) = 0.39459 0.27734
#
# Static dielectric constant tensor:
#      x y z
#    x 4.122140 0.000000 0.000000 
#    y 0.000000 3.690160 0.000000 
#    z 0.000000 0.000000 4.319930 
# 
# 
# High freq. dielectric constant tensor:
#      x y z
#    x 1.911840 0.000000 0.000000 
#    y 0.000000 1.827050 0.000000 
#    z 0.000000 0.000000 1.884580 
# 
# From -- ./inp_files/10330.got.cif
#   From: 2010.06.25/outbox.cif.g09.slc.cpg/sg48_6_cif.got.tgz:10330.got - 2010.06.26 18:06:46.
