data_PCOD8201664
_publ_section_title
;
Structure prediction by ZEFSAII (Michael W. Deem and Ramdas Pophale) SiO2 
 PCOD8201664
Probable space group: P N N N
;
_chemical_formula_sum "Si O2"
_cell_formula_units_Z 48
_cell_length_a 9.007993
_cell_length_b 12.575773
_cell_length_c 18.118695
_cell_angle_alpha 90.000000
_cell_angle_beta 90.000000
_cell_angle_gamma 90.000000
_cell_volume 2052.530616
_symmetry_space_group_name_H-M "P N N N"
_symmetry_group_IT_number 48
_space_group.IT_coordinate_system_code '2'
_symmetry_cell_setting 'orthorhombic'
loop_
_space_group_symop_operation_xyz
x,y,z
1/2-x,1/2-y,z
x,1/2-y,1/2-z
1/2-x,y,1/2-z
-x,-y,-z
1/2+x,1/2+y,-z
-x,1/2+y,1/2+z
1/2+x,-y,1/2+z
loop_
_atom_site_type_symbol
_atom_site_label
_atom_site_fract_x
_atom_site_fract_y
_atom_site_fract_z
Si Si1 0.263636 0.000513 0.457865
Si Si2 0.101105 0.704067 0.023608
Si Si3 0.593327 0.493119 0.214117
Si Si4 0.587084 0.226092 0.357030
Si Si5 0.867521 0.904307 0.689296
Si Si6 0.066959 0.120578 0.922293
O O1 0.122438 0.923723 0.479052
O O2 0.411700 0.934605 0.443518
O O3 0.212232 0.067370 0.387074
O O4 0.296867 0.080278 0.526044
O O5 0.250000 0.750000 0.061190
O O6 0.959118 0.750978 0.069092
O O7 0.080280 0.755692 0.943679
O O8 0.750000 0.471096 0.250000
O O9 0.547445 0.396348 0.159200
O O10 0.468249 0.502049 0.278537
O O11 0.601587 0.598382 0.163617
O O12 0.750000 0.250000 0.325399
O O13 0.472463 0.302637 0.317008
O O14 0.750000 0.871483 0.750000
#
# Coordination Sequence:
#
# PCOD8201664 Si02
#       6
#     8   8   8   8   8   8
#     4  10  21  42  68 100 135 183 235 292 348 427
#     4   9  20  39  71  95 125 182 236 278 347 421
#     4  12  24  42  68  98 140 188 222 286 372 433
#     4  11  22  41  65 100 135 177 227 284 360 445
#     4  12  26  42  65 103 141 175 233 295 358 428
#     4  10  20  43  68  97 141 182 235 287 350 434
#
# _framework density 23.385764000000002
#
# number of rings (size 3 to 8) (size 9 to 14) (size 15 to 20)
#    0.000    1.333    3.333    4.500    0.000    2.000 
#    0.000    0.833    0.000    1.000    0.000    0.000 
#    0.000    0.000    0.000    0.000    0.000    0.000 
#
# Total GULP energy -594913.495835 kJ/mol
# GULP energy per Si atom -12394.031163 kJ/mol
# Density = 2.333254 g / cm^3
# Si number density = 23.385764 Si / 1000 Ang^3
#
#
#
# Elastic Constant Matrix: (Units=GPa)
#
#
# Indices 1 2 3 4 5 6 
#
# 1 98.7990 56.6551 51.2226 0.0000 0.0000 0.0000
# 2 56.6551 96.3337 40.7863 0.0000 0.0000 0.0000
# 3 51.2226 40.7863 118.8445 0.0000 0.0000 0.0000
# 4 0.0000 0.0000 0.0000 7.0859 0.0000 0.0000
# 5 0.0000 0.0000 0.0000 0.0000 27.0486 0.0000
# 6 0.0000 0.0000 0.0000 0.0000 0.0000 35.8593
#
#
#
# Elastic Compliance Matrix: (Units=1/GPa)
#
#
# Indices 1 2 3 4 5 6 
#
# 1 0.017189 -0.008158 -0.004609 0.000000 0.000000 0.000000
# 2 -0.008158 0.016017 -0.001981 0.000000 0.000000 0.000000
# 3 -0.004609 -0.001981 0.011081 0.000000 0.000000 0.000000
# 4 0.000000 0.000000 0.000000 0.141124 0.000000 0.000000
# 5 0.000000 0.000000 0.000000 0.000000 0.036971 0.000000
# 6 0.000000 0.000000 0.000000 0.000000 0.000000 0.027887
#
#
# Mechanical properties :
#
#
# Convention : Reuss Voigt Hill
#
# Bulk Modulus (GPa) = 67.60586 67.92280 67.76433
# Shear Modulus (GPa) = 17.56274 25.01964 21.29119
#
# Velocity S-wave (km/s) = 2.74341 3.27443 3.02061
# Velocity P-wave (km/s) = 6.24554 6.58813 6.41912
#
# Compressibility (1/GPa) = 0.01479162
#
# Stress axis : x y z
#
# Youngs Moduli (GPa) = 58.17671 62.43401 90.24772
#
# Poissons Ratio (x) = 0.50932 0.41594
# Poissons Ratio (y) = 0.47459 0.17876
# Poissons Ratio (z) = 0.26813 0.12367
#
# Static dielectric constant tensor:
#      x y z
#    x 4.520210 0.000000 0.000000 
#    y 0.000000 4.189100 0.000000 
#    z 0.000000 0.000000 4.300450 
# 
# 
# High freq. dielectric constant tensor:
#      x y z
#    x 1.933040 0.000000 0.000000 
#    y 0.000000 1.897250 0.000000 
#    z 0.000000 0.000000 1.920890 
# 
# From -- ./inp_files/30276.got.cif
#   From: 2010.06.25/outbox.cif.g09.slc.cpg/sg48_16_cif.got.tgz:30276.got - 2010.06.26 18:06:46.
