data_PCOD8201011
_publ_section_title
;
Structure prediction by ZEFSAII (Michael W. Deem and Ramdas Pophale) SiO2 
 PCOD8201011
Probable space group: P M M M
;
_chemical_formula_sum "Si O2"
_cell_formula_units_Z 44
_cell_length_a 9.617703
_cell_length_b 14.541366
_cell_length_c 15.932734
_cell_angle_alpha 90.000000
_cell_angle_beta 90.000000
_cell_angle_gamma 90.000000
_cell_volume 2228.265175
_symmetry_space_group_name_H-M "P M M M"
_symmetry_group_IT_number 47
_symmetry_cell_setting 'orthorhombic'
loop_
_space_group_symop_operation_xyz
x,y,z
-x,-y,z
x,-y,-z
-x,y,-z
-x,-y,-z
x,y,-z
-x,y,z
x,-y,z
loop_
_atom_site_type_symbol
_atom_site_label
_atom_site_fract_x
_atom_site_fract_y
_atom_site_fract_z
Si Si1 0.344242 0.610070 0.000000
Si Si2 0.154139 0.608611 0.147272
Si Si3 0.165554 0.214414 0.408368
Si Si4 0.835017 0.399464 0.666067
Si Si5 0.839401 0.108144 0.753354
Si Si6 0.657529 0.109323 0.093175
O O1 0.264469 0.649723 0.081417
O O2 0.347878 0.500000 0.000000
O O3 0.500000 0.650436 0.000000
O O4 0.143699 0.500000 0.134958
O O5 0.209868 0.631147 0.240317
O O6 0.000000 0.651032 0.132045
O O7 0.220144 0.180705 0.500000
O O8 0.216792 0.320113 0.396697
O O9 0.222396 0.151277 0.332789
O O10 0.000000 0.210349 0.406872
O O11 0.771676 0.500000 0.641756
O O12 0.000000 0.407995 0.664762
O O13 0.758337 0.149155 0.834149
O O14 0.000000 0.135120 0.765542
O O15 0.818060 0.000000 0.745075
O O16 0.500000 0.138932 0.113978
O O17 0.670356 0.000000 0.092521
O O18 0.700074 0.146389 0.000000
#
# Coordination Sequence:
#
# PCOD8201011 Si02
#       6
#     4   8   8   8   8   8
#     4   9  15  21  33  57  85 109 138 175 212 256
#     4   8  13  22  37  56  78 106 139 174 214 261
#     4   9  17  28  43  65  93 123 155 194 237 279
#     4   8  14  25  42  63  85 112 150 194 236 276
#     4   9  17  28  44  69 100 131 159 187 224 274
#     4   8  14  26  46  71  96 124 159 195 232 275
#
# _framework density 19.746302
#
# number of rings (size 3 to 8) (size 9 to 14) (size 15 to 20)
#    0.000    3.545    0.000    1.909    0.000    2.182 
#    0.000    5.455    2.000    1.636    0.000    2.545 
#    0.000    0.000    0.000    8.727    0.000    9.091 
#
# Total GULP energy -545183.886645 kJ/mol
# GULP energy per Si atom -12390.542878 kJ/mol
# Density = 1.970136 g / cm^3
# Si number density = 19.746302 Si / 1000 Ang^3
#
#
#
# Elastic Constant Matrix: (Units=GPa)
#
#
# Indices 1 2 3 4 5 6 
#
# 1 59.9792 16.5385 56.4557 0.0000 0.0000 0.0000
# 2 16.5385 27.4098 41.6650 0.0000 0.0000 0.0000
# 3 56.4557 41.6650 180.1364 0.0000 0.0000 0.0000
# 4 0.0000 0.0000 0.0000 28.8051 0.0000 0.0000
# 5 0.0000 0.0000 0.0000 0.0000 9.6302 0.0000
# 6 0.0000 0.0000 0.0000 0.0000 0.0000 6.0443
#
#
#
# Elastic Compliance Matrix: (Units=1/GPa)
#
#
# Indices 1 2 3 4 5 6 
#
# 1 0.024036 -0.004707 -0.006444 0.000000 0.000000 0.000000
# 2 -0.004707 0.057188 -0.011752 0.000000 0.000000 0.000000
# 3 -0.006444 -0.011752 0.010289 0.000000 0.000000 0.000000
# 4 0.000000 0.000000 0.000000 0.034716 0.000000 0.000000
# 5 0.000000 0.000000 0.000000 0.000000 0.103840 0.000000
# 6 0.000000 0.000000 0.000000 0.000000 0.000000 0.165446
#
#
# Mechanical properties :
#
#
# Convention : Reuss Voigt Hill
#
# Bulk Modulus (GPa) = 21.87896 55.20486 38.54191
# Shear Modulus (GPa) = 10.95155 19.08699 15.01927
#
# Velocity S-wave (km/s) = 2.35758 3.11241 2.76091
# Velocity P-wave (km/s) = 4.30290 6.39796 5.45201
#
# Compressibility (1/GPa) = 0.04570601
#
# Stress axis : x y z
#
# Youngs Moduli (GPa) = 41.60408 17.48633 97.18870
#
# Poissons Ratio (x) = 0.08231 0.62632
# Poissons Ratio (y) = 0.19583 1.14217
# Poissons Ratio (z) = 0.26811 0.20550
#
# Static dielectric constant tensor:
#      x y z
#    x 3.320710 0.000000 0.000000 
#    y 0.000000 3.466730 0.000000 
#    z 0.000000 0.000000 4.022540 
# 
# 
# High freq. dielectric constant tensor:
#      x y z
#    x 1.707730 0.000000 0.000000 
#    y 0.000000 1.756710 0.000000 
#    z 0.000000 0.000000 1.776060 
# 
# From -- ./inp_files/20935.got.cif
#   From: 2010.03.12/outbox.cif.g09.slc.cpg/sg47_11_cif.got.tgz:20935.got - 2010.04.14 03:12:58.
