data_PCOD8201232
_publ_section_title
;
Structure prediction by ZEFSAII (Michael W. Deem and Ramdas Pophale) SiO2 
 PCOD8201232
Probable space group: P M M M
;
_chemical_formula_sum "Si O2"
_cell_formula_units_Z 44
_cell_length_a 7.786723
_cell_length_b 13.809697
_cell_length_c 23.305219
_cell_angle_alpha 90.000000
_cell_angle_beta 90.000000
_cell_angle_gamma 90.000000
_cell_volume 2506.063457
_symmetry_space_group_name_H-M "P M M M"
_symmetry_group_IT_number 47
_symmetry_cell_setting 'orthorhombic'
loop_
_space_group_symop_operation_xyz
x,y,z
-x,-y,z
x,-y,-z
-x,y,-z
-x,-y,-z
x,y,-z
-x,y,z
x,-y,z
loop_
_atom_site_type_symbol
_atom_site_label
_atom_site_fract_x
_atom_site_fract_y
_atom_site_fract_z
Si Si1 0.199372 0.709837 0.737498
Si Si2 0.699620 0.210581 0.562476
Si Si3 0.500000 0.614365 0.936321
Si Si4 0.198744 0.613816 0.146799
Si Si5 0.296412 0.108095 0.675008
Si Si6 0.795915 0.392021 0.624931
O O1 0.271001 0.672549 0.798148
O O2 0.236905 0.823842 0.727621
O O3 0.281243 0.649091 0.684900
O O4 0.000000 0.688377 0.738821
O O5 0.780797 0.183898 0.500000
O O6 0.500000 0.187936 0.559958
O O7 0.781986 0.147704 0.614438
O O8 0.730640 0.324446 0.573477
O O9 0.500000 0.500000 0.941152
O O10 0.675541 0.646899 0.904551
O O11 0.500000 0.660955 0.000000
O O12 0.216147 0.500000 0.160076
O O13 0.000000 0.639488 0.131318
O O14 0.500000 0.108336 0.671860
O O15 0.225191 0.000000 0.685819
O O16 0.724782 0.500000 0.614908
O O17 0.000000 0.391027 0.626639
#
# Coordination Sequence:
#
# PCOD8201232 Si02
#       6
#     8   8   4   8   8   8
#     4   9  17  29  46  66  88 115 147 185 228 275
#     4   9  18  31  44  59  81 109 143 182 222 270
#     4   9  18  30  44  68 101 137 174 201 223 257
#     4   9  17  29  46  69  98 132 166 198 231 268
#     4   9  18  31  46  64  85 110 141 182 233 283
#     4   9  17  29  44  61  83 111 142 179 223 269
#
# _framework density 17.557417000000001
#
# number of rings (size 3 to 8) (size 9 to 14) (size 15 to 20)
#    0.000    3.000    0.000    0.545    1.273    4.364 
#    0.000    5.455    0.000    0.000    0.000    5.091 
#    0.000    1.455    0.000    4.000    0.000    0.182 
#
# Total GULP energy -545292.936446 kJ/mol
# GULP energy per Si atom -12393.021283 kJ/mol
# Density = 1.751746 g / cm^3
# Si number density = 17.557417 Si / 1000 Ang^3
#
#
#
# Elastic Constant Matrix: (Units=GPa)
#
#
# Indices 1 2 3 4 5 6 
#
# 1 42.0346 5.9250 33.6159 0.0000 0.0000 0.0000
# 2 5.9250 83.1205 41.0601 0.0000 0.0000 0.0000
# 3 33.6159 41.0601 129.4001 0.0000 0.0000 0.0000
# 4 0.0000 0.0000 0.0000 16.0931 0.0000 0.0000
# 5 0.0000 0.0000 0.0000 0.0000 19.3155 0.0000
# 6 0.0000 0.0000 0.0000 0.0000 0.0000 18.9707
#
#
#
# Elastic Compliance Matrix: (Units=1/GPa)
#
#
# Indices 1 2 3 4 5 6 
#
# 1 0.030321 0.002051 -0.008528 0.000000 0.000000 0.000000
# 2 0.002051 0.014406 -0.005104 0.000000 0.000000 0.000000
# 3 -0.008528 -0.005104 0.011563 0.000000 0.000000 0.000000
# 4 0.000000 0.000000 0.000000 0.062138 0.000000 0.000000
# 5 0.000000 0.000000 0.000000 0.000000 0.051772 0.000000
# 6 0.000000 0.000000 0.000000 0.000000 0.000000 0.052713
#
#
# Mechanical properties :
#
#
# Convention : Reuss Voigt Hill
#
# Bulk Modulus (GPa) = 30.18563 46.19525 38.19044
# Shear Modulus (GPa) = 19.44649 22.47282 20.95965
#
# Velocity S-wave (km/s) = 3.33166 3.58154 3.45886
# Velocity P-wave (km/s) = 5.65949 6.59328 6.14415
#
# Compressibility (1/GPa) = 0.03312835
#
# Stress axis : x y z
#
# Youngs Moduli (GPa) = 32.98097 69.41653 86.48398
#
# Poissons Ratio (x) = -0.14239 0.73750
# Poissons Ratio (y) = -0.06765 0.44141
# Poissons Ratio (z) = 0.28125 0.35430
#
# Static dielectric constant tensor:
#      x y z
#    x 3.130460 0.000000 0.000000 
#    y 0.000000 3.249420 0.000000 
#    z 0.000000 0.000000 3.445500 
# 
# 
# High freq. dielectric constant tensor:
#      x y z
#    x 1.672390 0.000000 0.000000 
#    y 0.000000 1.652870 0.000000 
#    z 0.000000 0.000000 1.658330 
# 
# From -- ./inp_files/29444.got.cif
#   From: 2010.03.12/outbox.cif.g09.slc.cpg/sg47_15_cif.got.tgz:29444.got - 2010.04.14 03:12:58.
