data_PCOD8201674
_publ_section_title
;
Structure prediction by ZEFSAII (Michael W. Deem and Ramdas Pophale) SiO2 
 PCOD8201674
Probable space group: P N N N
;
_chemical_formula_sum "Si O2"
_cell_formula_units_Z 32
_cell_length_a 5.122471
_cell_length_b 27.535444
_cell_length_c 10.634383
_cell_angle_alpha 90.000000
_cell_angle_beta 90.000000
_cell_angle_gamma 90.000000
_cell_volume 1499.974547
_symmetry_space_group_name_H-M "P N N N"
_symmetry_group_IT_number 48
_space_group.IT_coordinate_system_code '2'
_symmetry_cell_setting 'orthorhombic'
loop_
_space_group_symop_operation_xyz
x,y,z
1/2-x,1/2-y,z
x,1/2-y,1/2-z
1/2-x,y,1/2-z
-x,-y,-z
1/2+x,1/2+y,-z
-x,1/2+y,1/2+z
1/2+x,-y,1/2+z
loop_
_atom_site_type_symbol
_atom_site_label
_atom_site_fract_x
_atom_site_fract_y
_atom_site_fract_z
Si Si1 0.767861 0.196241 0.898068
Si Si2 0.750000 0.035718 0.250000
Si Si3 0.553845 0.442844 0.997769
Si Si4 0.232462 0.136696 0.601410
Si Si5 0.750000 0.031206 0.750000
O O1 0.750000 0.250000 0.959261
O O2 0.750000 0.201885 0.750000
O O3 0.537798 0.160337 0.944051
O O4 0.042882 0.174324 0.938662
O O5 0.701420 0.070132 0.372038
O O6 0.500031 0.002162 0.226731
O O7 0.286611 0.412407 0.979585
O O8 0.727923 0.433183 0.871726
O O9 0.500000 0.500000 0.000000
O O10 0.250000 0.124586 0.750000
#
# Coordination Sequence:
#
# PCOD8201674 Si02
#       5
#     8   4   8   8   4
#     4   9  18  34  54  81 115 148 186 244 313 372
#     4  10  22  40  52  80 109 166 207 256 300 338
#     4  10  23  37  58  81 122 163 212 251 293 356
#     4  10  21  32  54  83 113 156 199 242 299 367
#     4  10  22  36  58  76 111 158 217 256 298 344
#
# _framework density 21.333697000000001
#
# number of rings (size 3 to 8) (size 9 to 14) (size 15 to 20)
#    0.000    2.250    0.000    1.500   12.250    7.000 
#    0.000    0.000    0.000    0.000    0.000    0.875 
#    0.000    4.000    0.500    0.000    0.000    0.000 
#
# Total GULP energy -396634.866570 kJ/mol
# GULP energy per Si atom -12394.839580 kJ/mol
# Density = 2.128514 g / cm^3
# Si number density = 21.333697 Si / 1000 Ang^3
#
#
#
# Elastic Constant Matrix: (Units=GPa)
#
#
# Indices 1 2 3 4 5 6 
#
# 1 108.8414 28.6507 32.3258 0.0000 0.0000 0.0000
# 2 28.6507 115.2711 30.3800 0.0000 0.0000 0.0000
# 3 32.3258 30.3800 135.2952 0.0000 0.0000 0.0000
# 4 0.0000 0.0000 0.0000 10.5658 0.0000 0.0000
# 5 0.0000 0.0000 0.0000 0.0000 22.7252 0.0000
# 6 0.0000 0.0000 0.0000 0.0000 0.0000 22.3829
#
#
#
# Elastic Compliance Matrix: (Units=1/GPa)
#
#
# Indices 1 2 3 4 5 6 
#
# 1 0.010320 -0.002036 -0.002009 0.000000 0.000000 0.000000
# 2 -0.002036 0.009622 -0.001674 0.000000 0.000000 0.000000
# 3 -0.002009 -0.001674 0.008247 0.000000 0.000000 0.000000
# 4 0.000000 0.000000 0.000000 0.094645 0.000000 0.000000
# 5 0.000000 0.000000 0.000000 0.000000 0.044004 0.000000
# 6 0.000000 0.000000 0.000000 0.000000 0.000000 0.044677
#
#
# Mechanical properties :
#
#
# Convention : Reuss Voigt Hill
#
# Bulk Modulus (GPa) = 59.69297 60.23565 59.96431
# Shear Modulus (GPa) = 21.87832 29.00487 25.44160
#
# Velocity S-wave (km/s) = 3.20586 3.69125 3.45708
# Velocity P-wave (km/s) = 6.46102 6.81640 6.64109
#
# Compressibility (1/GPa) = 0.01675239
#
# Stress axis : x y z
#
# Youngs Moduli (GPa) = 96.89821 103.92375 121.25439
#
# Poissons Ratio (x) = 0.21156 0.24356
# Poissons Ratio (y) = 0.19725 0.20302
# Poissons Ratio (z) = 0.19464 0.17400
#
# Static dielectric constant tensor:
#      x y z
#    x 3.840710 0.000000 0.000000 
#    y 0.000000 3.926610 0.000000 
#    z 0.000000 0.000000 4.412260 
# 
# 
# High freq. dielectric constant tensor:
#      x y z
#    x 1.851630 0.000000 0.000000 
#    y 0.000000 1.826230 0.000000 
#    z 0.000000 0.000000 1.790190 
# 
# From -- ./inp_files/17602.got.cif
#   From: 2010.06.25/outbox.cif.g09.slc.cpg/sg48_9_cif.got.tgz:17602.got - 2010.06.26 18:06:46.
