data_PCOD8201667
_publ_section_title
;
Structure prediction by ZEFSAII (Michael W. Deem and Ramdas Pophale) SiO2 
 PCOD8201667
Probable space group: P N N N
;
_chemical_formula_sum "Si O2"
_cell_formula_units_Z 46
_cell_length_a 9.430490
_cell_length_b 12.599476
_cell_length_c 19.239488
_cell_angle_alpha 90.000000
_cell_angle_beta 90.000000
_cell_angle_gamma 90.000000
_cell_volume 2286.021196
_symmetry_space_group_name_H-M "P N N N"
_symmetry_group_IT_number 48
_space_group.IT_coordinate_system_code '2'
_symmetry_cell_setting 'orthorhombic'
loop_
_space_group_symop_operation_xyz
x,y,z
1/2-x,1/2-y,z
x,1/2-y,1/2-z
1/2-x,y,1/2-z
-x,-y,-z
1/2+x,1/2+y,-z
-x,1/2+y,1/2+z
1/2+x,-y,1/2+z
loop_
_atom_site_type_symbol
_atom_site_label
_atom_site_fract_x
_atom_site_fract_y
_atom_site_fract_z
Si Si1 0.874701 0.324996 0.624197
Si Si2 0.103335 0.086258 0.346748
Si Si3 0.906562 0.708637 0.475395
Si Si4 0.750000 0.080183 0.750000
Si Si5 0.250000 0.250000 0.250000
Si Si6 0.716772 0.506492 0.968209
Si Si7 0.868253 0.336654 0.066289
O O1 0.750000 0.250000 0.594526
O O2 0.855435 0.344703 0.705971
O O3 0.872635 0.435660 0.584097
O O4 0.025884 0.275646 0.602178
O O5 0.151314 0.184540 0.301010
O O6 0.937066 0.106683 0.364930
O O7 0.142416 0.982750 0.300615
O O8 0.177640 0.078576 0.421946
O O9 0.750000 0.750000 0.472091
O O10 0.895795 0.584255 0.494999
O O11 0.006511 0.771796 0.528360
O O12 0.803980 0.432746 0.021389
O O13 0.750000 0.250000 0.088283
#
# Coordination Sequence:
#
# PCOD8201667 Si02
#       7
#     8   8   8   4   2   8   8
#     4  11  21  41  63  94 125 166 219 257 314 385
#     4  10  21  38  64  89 121 167 213 260 313 386
#     4  12  23  36  63 101 129 164 202 270 336 384
#     4   9  23  39  67  86 116 178 220 262 300 384
#     4  10  20  44  60  88 122 164 228 246 306 396
#     4  11  21  38  64  96 130 158 205 271 330 384
#     4  12  23  40  62  99 133 164 210 268 341 397
#
# _framework density 20.122298000000001
#
# number of rings (size 3 to 8) (size 9 to 14) (size 15 to 20)
#    0.000    1.043    5.217    2.348    0.000    0.000 
#    0.000    0.435    0.000    6.261    0.000    0.000 
#    0.000    0.000    0.000    0.000    0.000    0.000 
#
# Total GULP energy -569895.016119 kJ/mol
# GULP energy per Si atom -12389.022090 kJ/mol
# Density = 2.007650 g / cm^3
# Si number density = 20.122298 Si / 1000 Ang^3
#
#
#
# Elastic Constant Matrix: (Units=GPa)
#
#
# Indices 1 2 3 4 5 6 
#
# 1 97.1247 18.3757 39.6967 0.0000 0.0000 0.0000
# 2 18.3757 71.9074 23.1209 0.0000 0.0000 0.0000
# 3 39.6967 23.1209 91.2477 0.0000 0.0000 0.0000
# 4 0.0000 0.0000 0.0000 32.5736 0.0000 0.0000
# 5 0.0000 0.0000 0.0000 0.0000 29.8470 0.0000
# 6 0.0000 0.0000 0.0000 0.0000 0.0000 36.8896
#
#
#
# Elastic Compliance Matrix: (Units=1/GPa)
#
#
# Indices 1 2 3 4 5 6 
#
# 1 0.012689 -0.001598 -0.005115 0.000000 0.000000 0.000000
# 2 -0.001598 0.015341 -0.003192 0.000000 0.000000 0.000000
# 3 -0.005115 -0.003192 0.013993 0.000000 0.000000 0.000000
# 4 0.000000 0.000000 0.000000 0.030700 0.000000 0.000000
# 5 0.000000 0.000000 0.000000 0.000000 0.033504 0.000000
# 6 0.000000 0.000000 0.000000 0.000000 0.000000 0.027108
#
#
# Mechanical properties :
#
#
# Convention : Reuss Voigt Hill
#
# Bulk Modulus (GPa) = 45.01841 46.96293 45.99067
# Shear Modulus (GPa) = 31.14269 31.80113 31.47191
#
# Velocity S-wave (km/s) = 3.93831 3.97973 3.95907
# Velocity P-wave (km/s) = 6.56516 6.67136 6.61848
#
# Compressibility (1/GPa) = 0.02221313
#
# Stress axis : x y z
#
# Youngs Moduli (GPa) = 78.80758 65.18268 71.46186
#
# Poissons Ratio (x) = 0.10415 0.36556
# Poissons Ratio (y) = 0.12592 0.22812
# Poissons Ratio (z) = 0.40314 0.20807
#
# Static dielectric constant tensor:
#      x y z
#    x 4.064830 0.000000 0.000000 
#    y 0.000000 4.094640 0.000000 
#    z 0.000000 0.000000 3.763770 
# 
# 
# High freq. dielectric constant tensor:
#      x y z
#    x 1.774340 0.000000 0.000000 
#    y 0.000000 1.807530 0.000000 
#    z 0.000000 0.000000 1.771800 
# 
# From -- ./inp_files/33523.got.cif
#   From: 2010.06.25/outbox.cif.g09.slc.cpg/sg48_17_cif.got.tgz:33523.got - 2010.06.26 18:06:46.
