data_PCOD8201807
_publ_section_title
;
Structure prediction by ZEFSAII (Michael W. Deem and Ramdas Pophale) SiO2 
 PCOD8201807
Probable space group: P N N N
;
_chemical_formula_sum "Si O2"
_cell_formula_units_Z 32
_cell_length_a 8.977895
_cell_length_b 13.968981
_cell_length_c 11.987866
_cell_angle_alpha 90.000000
_cell_angle_beta 90.000000
_cell_angle_gamma 90.000000
_cell_volume 1503.422786
_symmetry_space_group_name_H-M "P N N N"
_symmetry_group_IT_number 48
_space_group.IT_coordinate_system_code '2'
_symmetry_cell_setting 'orthorhombic'
loop_
_space_group_symop_operation_xyz
x,y,z
1/2-x,1/2-y,z
x,1/2-y,1/2-z
1/2-x,y,1/2-z
-x,-y,-z
1/2+x,1/2+y,-z
-x,1/2+y,1/2+z
1/2+x,-y,1/2+z
loop_
_atom_site_type_symbol
_atom_site_label
_atom_site_fract_x
_atom_site_fract_y
_atom_site_fract_z
Si Si1 0.250000 0.457013 0.250000
Si Si2 0.077544 0.779009 0.086059
Si Si3 0.988717 0.095773 0.707435
Si Si4 0.990263 0.333589 0.340841
Si Si5 0.250000 0.966935 0.750000
O O1 0.352546 0.525628 0.327477
O O2 0.356266 0.391583 0.173517
O O3 0.250000 0.750000 0.089982
O O4 0.041133 0.870905 0.163637
O O5 0.990302 0.687078 0.130619
O O6 0.012483 0.791782 0.963781
O O7 0.137602 0.035728 0.684835
O O8 0.979666 0.250000 0.250000
O O9 0.845427 0.401290 0.333598
#
# Coordination Sequence:
#
# PCOD8201807 Si02
#       5
#     4   8   8   8   4
#     4  10  21  43  68  94 130 168 228 263 315 396
#     4  11  21  41  73  95 135 173 220 269 343 387
#     4  10  21  44  67 102 128 173 220 281 324 393
#     4  11  24  45  62  95 135 178 214 269 339 394
#     4  10  23  41  66  94 138 166 226 273 323 388
#
# _framework density 21.284763999999999
#
# number of rings (size 3 to 8) (size 9 to 14) (size 15 to 20)
#    0.000    1.500    2.500    3.000    0.000    6.000 
#   18.000    3.750    0.000    0.000    0.000    0.000 
#    0.000    0.000    0.000    0.000    0.000    0.000 
#
# Total GULP energy -396682.074188 kJ/mol
# GULP energy per Si atom -12396.314818 kJ/mol
# Density = 2.123632 g / cm^3
# Si number density = 21.284764 Si / 1000 Ang^3
#
#
#
# Elastic Constant Matrix: (Units=GPa)
#
#
# Indices 1 2 3 4 5 6 
#
# 1 147.6107 67.9806 40.4021 0.0000 0.0000 0.0000
# 2 67.9806 140.4783 61.8438 0.0000 0.0000 0.0000
# 3 40.4021 61.8438 149.5810 0.0000 0.0000 0.0000
# 4 0.0000 0.0000 0.0000 18.8908 0.0000 0.0000
# 5 0.0000 0.0000 0.0000 0.0000 15.5213 0.0000
# 6 0.0000 0.0000 0.0000 0.0000 0.0000 -0.1648
#
#
#
# Elastic Compliance Matrix: (Units=1/GPa)
#
#
# Indices 1 2 3 4 5 6 
#
# 1 0.008786 -0.003921 -0.000752 0.000000 0.000000 0.000000
# 2 -0.003921 0.010452 -0.003262 0.000000 0.000000 0.000000
# 3 -0.000752 -0.003262 0.008237 0.000000 0.000000 0.000000
# 4 0.000000 0.000000 0.000000 0.052936 0.000000 0.000000
# 5 0.000000 0.000000 0.000000 0.000000 0.064428 0.000000
# 6 0.000000 0.000000 0.000000 0.000000 0.000000 -6.067074
#
#
# Mechanical properties :
#
#
# Convention : Reuss Voigt Hill
#
# Bulk Modulus (GPa) = 86.16937 86.45812 86.31375
# Shear Modulus (GPa) = -0.84710 24.67902 11.91596
#
# Velocity S-wave (km/s) = -0.63154 3.40879 2.36865
# Velocity P-wave (km/s) = 6.32773 7.49674 6.93690
#
# Compressibility (1/GPa) = 0.01160505
#
# Stress axis : x y z
#
# Youngs Moduli (GPa) = 113.81667 95.67498 121.39866
#
# Poissons Ratio (x) = 0.37511 0.09131
# Poissons Ratio (y) = 0.44624 0.39605
# Poissons Ratio (z) = 0.08561 0.31213
#
# Static dielectric constant tensor:
#      x y z
#    x 4.056390 0.000000 0.000000 
#    y 0.000000 4.315110 0.000000 
#    z 0.000000 0.000000 3.480830 
# 
# 
# High freq. dielectric constant tensor:
#      x y z
#    x 1.848000 0.000000 0.000000 
#    y 0.000000 1.864690 0.000000 
#    z 0.000000 0.000000 1.795890 
# 
# From -- ./inp_files/10195.got.cif
#   From: 2010.06.25/outbox.cif.g09.slc.cpg/sg48_6_cif.got.tgz:10195.got - 2010.06.26 18:06:46.
