data_PCOD8201005
_publ_section_title
;
Structure prediction by ZEFSAII (Michael W. Deem and Ramdas Pophale) SiO2 
 PCOD8201005
Probable space group: P M M M
;
_chemical_formula_sum "Si O2"
_cell_formula_units_Z 40
_cell_length_a 9.524905
_cell_length_b 9.470142
_cell_length_c 25.895826
_cell_angle_alpha 90.000000
_cell_angle_beta 90.000000
_cell_angle_gamma 90.000000
_cell_volume 2335.860551
_symmetry_space_group_name_H-M "P M M M"
_symmetry_group_IT_number 47
_symmetry_cell_setting 'orthorhombic'
loop_
_space_group_symop_operation_xyz
x,y,z
-x,-y,z
x,-y,-z
-x,y,-z
-x,-y,-z
x,y,-z
-x,y,z
x,-y,z
loop_
_atom_site_type_symbol
_atom_site_label
_atom_site_fract_x
_atom_site_fract_y
_atom_site_fract_z
Si Si1 0.832347 0.159034 0.000000
Si Si2 0.843930 0.668044 0.792171
Si Si3 0.337142 0.336498 0.697241
Si Si4 0.662351 0.834990 0.597125
Si Si5 0.840864 0.167758 0.500000
Si Si6 0.167300 0.657781 0.905357
O O1 0.773519 0.237926 0.050813
O O2 0.000000 0.160435 0.000000
O O3 0.773988 0.000000 0.000000
O O4 0.848527 0.500000 0.791787
O O5 0.743516 0.724980 0.747041
O O6 0.786496 0.715152 0.848675
O O7 0.000000 0.729082 0.782417
O O8 0.500000 0.313602 0.708475
O O9 0.300941 0.500000 0.687171
O O10 0.288175 0.248906 0.647589
O O11 0.500000 0.803629 0.583546
O O12 0.758052 0.778152 0.550370
O O13 0.686323 0.000000 0.607424
O O14 0.000000 0.227410 0.500000
O O15 0.841544 0.000000 0.500000
O O16 0.226722 0.500000 0.915559
O O17 0.000000 0.651945 0.906974
#
# Coordination Sequence:
#
# PCOD8201005 Si02
#       6
#     4   8   8   8   4   8
#     4   9  15  21  31  51  80 107 128 160 208 249
#     4   8  14  25  41  60  82 109 139 169 204 248
#     4   9  17  29  45  65  87 110 138 173 210 245
#     4   9  17  30  47  64  83 110 142 172 204 246
#     4   9  17  29  46  67  88 110 140 177 210 240
#     4   8  13  22  36  52  71 100 137 168 194 235
#
# _framework density 17.124310000000001
#
# number of rings (size 3 to 8) (size 9 to 14) (size 15 to 20)
#    0.000    3.400    0.000    1.800    0.000    3.200 
#    0.000    1.500    0.000    4.200    0.000    0.700 
#    0.000    5.600    0.000    0.000    0.000    0.000 
#
# Total GULP energy -495803.477496 kJ/mol
# GULP energy per Si atom -12395.086937 kJ/mol
# Density = 1.708533 g / cm^3
# Si number density = 17.124310 Si / 1000 Ang^3
#
#
#
# Elastic Constant Matrix: (Units=GPa)
#
#
# Indices 1 2 3 4 5 6 
#
# 1 54.9266 24.9889 67.7257 0.0000 0.0000 0.0000
# 2 24.9889 58.1566 63.8603 0.0000 0.0000 0.0000
# 3 67.7257 63.8603 198.9079 0.0000 0.0000 0.0000
# 4 0.0000 0.0000 0.0000 16.3305 0.0000 0.0000
# 5 0.0000 0.0000 0.0000 0.0000 14.0612 0.0000
# 6 0.0000 0.0000 0.0000 0.0000 0.0000 10.3934
#
#
#
# Elastic Compliance Matrix: (Units=1/GPa)
#
#
# Indices 1 2 3 4 5 6 
#
# 1 0.031658 -0.002729 -0.009903 0.000000 0.000000 0.000000
# 2 -0.002729 0.026793 -0.007673 0.000000 0.000000 0.000000
# 3 -0.009903 -0.007673 0.010863 0.000000 0.000000 0.000000
# 4 0.000000 0.000000 0.000000 0.061235 0.000000 0.000000
# 5 0.000000 0.000000 0.000000 0.000000 0.071118 0.000000
# 6 0.000000 0.000000 0.000000 0.000000 0.000000 0.096215
#
#
# Mechanical properties :
#
#
# Convention : Reuss Voigt Hill
#
# Bulk Modulus (GPa) = 34.83768 69.46010 52.14889
# Shear Modulus (GPa) = 14.36534 18.51808 16.44171
#
# Velocity S-wave (km/s) = 2.89949 3.29202 3.10197
# Velocity P-wave (km/s) = 5.62117 7.42295 6.58399
#
# Compressibility (1/GPa) = 0.02870455
#
# Stress axis : x y z
#
# Youngs Moduli (GPa) = 31.58717 37.32340 92.05704
#
# Poissons Ratio (x) = 0.10184 0.91167
# Poissons Ratio (y) = 0.08619 0.70635
# Poissons Ratio (z) = 0.31282 0.28638
#
# Static dielectric constant tensor:
#      x y z
#    x 2.986750 0.000000 0.000000 
#    y 0.000000 2.973320 0.000000 
#    z 0.000000 0.000000 3.575080 
# 
# 
# High freq. dielectric constant tensor:
#      x y z
#    x 1.622410 0.000000 0.000000 
#    y 0.000000 1.625550 0.000000 
#    z 0.000000 0.000000 1.677800 
# 
# From -- ./inp_files/1813.got.cif
#   From: 2010.03.12/outbox.cif.g09.slc.cpg/sg47_1_cif.got.tgz:1813.got - 2010.04.14 03:12:58.
