data_PCOD8201742
_publ_section_title
;
Structure prediction by ZEFSAII (Michael W. Deem and Ramdas Pophale) SiO2 
 PCOD8201742
Probable space group: P N N N
;
_chemical_formula_sum "Si O2"
_cell_formula_units_Z 58
_cell_length_a 7.029079
_cell_length_b 25.024386
_cell_length_c 16.434059
_cell_angle_alpha 90.000000
_cell_angle_beta 90.000000
_cell_angle_gamma 90.000000
_cell_volume 2890.724456
_symmetry_space_group_name_H-M "P N N N"
_symmetry_group_IT_number 48
_space_group.IT_coordinate_system_code '2'
_symmetry_cell_setting 'orthorhombic'
loop_
_space_group_symop_operation_xyz
x,y,z
1/2-x,1/2-y,z
x,1/2-y,1/2-z
1/2-x,y,1/2-z
-x,-y,-z
1/2+x,1/2+y,-z
-x,1/2+y,1/2+z
1/2+x,-y,1/2+z
loop_
_atom_site_type_symbol
_atom_site_label
_atom_site_fract_x
_atom_site_fract_y
_atom_site_fract_z
Si Si1 0.250000 0.750000 0.250000
Si Si2 0.608699 0.178557 0.887898
Si Si3 0.004662 0.136201 0.936083
Si Si4 0.180799 0.406315 0.832412
Si Si5 0.451475 0.950429 0.556876
Si Si6 0.177442 0.305711 0.026156
Si Si7 0.134099 0.972813 0.674358
Si Si8 0.279534 0.398713 0.341973
O O1 0.395896 0.782569 0.190621
O O2 0.833239 0.165861 0.891589
O O3 0.492032 0.124894 0.872670
O O4 0.519379 0.201716 0.973211
O O5 0.126294 0.092184 0.885843
O O6 0.910818 0.104053 0.009265
O O7 0.156724 0.180349 0.962747
O O8 0.250000 0.377610 0.750000
O O9 0.096209 0.464466 0.812595
O O10 0.251076 0.965972 0.592929
O O11 0.605130 0.934663 0.625779
O O12 0.500000 0.000000 0.500000
O O13 0.250000 0.250000 0.066002
O O14 0.162198 0.350003 0.097814
O O15 0.250000 0.948324 0.750000
O O16 0.941755 0.942146 0.662166
O O17 0.250000 0.376006 0.250000
#
# Coordination Sequence:
#
# PCOD8201742 Si02
#       8
#     2   8   8   8   8   8   8   8
#     4  12  24  40  66  92 124 172 228 268 320 388
#     4  11  23  41  63  92 125 172 216 270 329 383
#     4  10  21  39  60  90 125 160 214 258 317 393
#     4  10  22  36  55  89 127 165 207 254 309 377
#     4  11  22  38  62  95 130 168 210 260 316 390
#     4  10  23  43  65  91 124 163 215 280 334 388
#     4  11  22  39  62  91 132 170 206 256 317 387
#     4  11  24  42  66  96 127 174 222 268 334 395
#
# _framework density 20.064174000000001
#
# number of rings (size 3 to 8) (size 9 to 14) (size 15 to 20)
#    0.000    1.379    2.759    2.483    1.931    1.931 
#    1.241    2.759    0.000    0.000    0.000    0.000 
#    0.000    0.000    0.000    0.000    0.000    0.000 
#
# Total GULP energy -718727.248388 kJ/mol
# GULP energy per Si atom -12391.849110 kJ/mol
# Density = 2.001851 g / cm^3
# Si number density = 20.064174 Si / 1000 Ang^3
#
#
#
# Elastic Constant Matrix: (Units=GPa)
#
#
# Indices 1 2 3 4 5 6 
#
# 1 92.1298 33.6235 36.7805 0.0000 0.0000 0.0000
# 2 33.6235 82.2036 30.1252 0.0000 0.0000 0.0000
# 3 36.7805 30.1252 110.2439 0.0000 0.0000 0.0000
# 4 0.0000 0.0000 0.0000 33.1082 0.0000 0.0000
# 5 0.0000 0.0000 0.0000 0.0000 36.0302 0.0000
# 6 0.0000 0.0000 0.0000 0.0000 0.0000 20.6466
#
#
#
# Elastic Compliance Matrix: (Units=1/GPa)
#
#
# Indices 1 2 3 4 5 6 
#
# 1 0.013822 -0.004405 -0.003408 0.000000 0.000000 0.000000
# 2 -0.004405 0.014922 -0.002608 0.000000 0.000000 0.000000
# 3 -0.003408 -0.002608 0.010920 0.000000 0.000000 0.000000
# 4 0.000000 0.000000 0.000000 0.030204 0.000000 0.000000
# 5 0.000000 0.000000 0.000000 0.000000 0.027754 0.000000
# 6 0.000000 0.000000 0.000000 0.000000 0.000000 0.048434
#
#
# Mechanical properties :
#
#
# Convention : Reuss Voigt Hill
#
# Bulk Modulus (GPa) = 53.12485 53.95952 53.54219
# Shear Modulus (GPa) = 28.87271 30.22688 29.54980
#
# Velocity S-wave (km/s) = 3.79755 3.88559 3.84182
# Velocity P-wave (km/s) = 6.76487 6.86165 6.81343
#
# Compressibility (1/GPa) = 0.01882358
#
# Stress axis : x y z
#
# Youngs Moduli (GPa) = 72.34666 67.01327 91.57136
#
# Poissons Ratio (x) = 0.29518 0.31206
# Poissons Ratio (y) = 0.31868 0.23883
# Poissons Ratio (z) = 0.24655 0.17478
#
# Static dielectric constant tensor:
#      x y z
#    x 3.562860 0.000000 0.000000 
#    y 0.000000 3.501210 0.000000 
#    z 0.000000 0.000000 3.749500 
# 
# 
# High freq. dielectric constant tensor:
#      x y z
#    x 1.783170 0.000000 0.000000 
#    y 0.000000 1.780760 0.000000 
#    z 0.000000 0.000000 1.788950 
# 
# From -- ./inp_files/29620.got.cif
#   From: 2010.06.25/outbox.cif.g09.slc.cpg/sg48_15_cif.got.tgz:29620.got - 2010.06.26 18:06:46.
