data_PCOD8201461
_publ_section_title
;
Structure prediction by ZEFSAII (Michael W. Deem and Ramdas Pophale) SiO2 
 PCOD8201461
Probable space group: P N N N
;
_chemical_formula_sum "Si O2"
_cell_formula_units_Z 44
_cell_length_a 12.083809
_cell_length_b 18.050047
_cell_length_c 10.515524
_cell_angle_alpha 90.000000
_cell_angle_beta 90.000000
_cell_angle_gamma 90.000000
_cell_volume 2293.575855
_symmetry_space_group_name_H-M "P N N N"
_symmetry_group_IT_number 48
_space_group.IT_coordinate_system_code '2'
_symmetry_cell_setting 'orthorhombic'
loop_
_space_group_symop_operation_xyz
x,y,z
1/2-x,1/2-y,z
x,1/2-y,1/2-z
1/2-x,y,1/2-z
-x,-y,-z
1/2+x,1/2+y,-z
-x,1/2+y,1/2+z
1/2+x,-y,1/2+z
loop_
_atom_site_type_symbol
_atom_site_label
_atom_site_fract_x
_atom_site_fract_y
_atom_site_fract_z
Si Si1 0.773984 0.829192 0.949692
Si Si2 0.646938 0.453438 0.544201
Si Si3 0.250000 0.053120 0.250000
Si Si4 0.205432 0.672159 0.391677
Si Si5 0.952825 0.677376 0.336438
Si Si6 0.907517 0.588945 0.102315
O O1 0.750000 0.750000 0.882528
O O2 0.812071 0.891998 0.849192
O O3 0.872538 0.815530 0.046460
O O4 0.662464 0.851586 0.023694
O O5 0.662785 0.502210 0.673619
O O6 0.746388 0.395316 0.524292
O O7 0.643619 0.507123 0.421189
O O8 0.533525 0.407736 0.552653
O O9 0.250000 0.750000 0.447853
O O10 0.250000 0.661928 0.250000
O O11 0.074160 0.665303 0.393472
O O12 0.952190 0.750000 0.250000
O O13 0.909593 0.608234 0.251843
#
# Coordination Sequence:
#
# PCOD8201461 Si02
#       6
#     8   8   4   8   8   8
#     4  11  23  35  56  82 118 154 187 240 284 347
#     4  10  19  37  58  81 117 153 191 231 277 356
#     4  10  21  40  55  80 116 154 198 224 289 346
#     4  11  19  33  59  85 112 151 196 245 282 336
#     4  12  20  34  55  88 119 142 196 247 291 331
#     4  10  20  33  56  83 115 156 181 226 296 337
#
# _framework density 19.184018999999999
#
# number of rings (size 3 to 8) (size 9 to 14) (size 15 to 20)
#    0.000    1.273    6.364    0.818    0.000    0.000 
#    0.000   10.000    0.000    0.000    0.000    0.000 
#    0.000    0.000    0.000    0.000    0.000    0.000 
#
# Total GULP energy -545462.531532 kJ/mol
# GULP energy per Si atom -12396.875717 kJ/mol
# Density = 1.914036 g / cm^3
# Si number density = 19.184019 Si / 1000 Ang^3
#
#
#
# Elastic Constant Matrix: (Units=GPa)
#
#
# Indices 1 2 3 4 5 6 
#
# 1 127.1507 60.7599 38.0229 0.0000 0.0000 0.0000
# 2 60.7599 125.2405 38.1428 0.0000 0.0000 0.0000
# 3 38.0229 38.1428 48.4344 0.0000 0.0000 0.0000
# 4 0.0000 0.0000 0.0000 16.8633 0.0000 0.0000
# 5 0.0000 0.0000 0.0000 0.0000 15.6070 0.0000
# 6 0.0000 0.0000 0.0000 0.0000 0.0000 48.1079
#
#
#
# Elastic Compliance Matrix: (Units=1/GPa)
#
#
# Indices 1 2 3 4 5 6 
#
# 1 0.011451 -0.003707 -0.006071 0.000000 0.000000 0.000000
# 2 -0.003707 0.011704 -0.006307 0.000000 0.000000 0.000000
# 3 -0.006071 -0.006307 0.030379 0.000000 0.000000 0.000000
# 4 0.000000 0.000000 0.000000 0.059300 0.000000 0.000000
# 5 0.000000 0.000000 0.000000 0.000000 0.064074 0.000000
# 6 0.000000 0.000000 0.000000 0.000000 0.000000 0.020787
#
#
# Mechanical properties :
#
#
# Convention : Reuss Voigt Hill
#
# Bulk Modulus (GPa) = 46.80460 63.85299 55.32880
# Shear Modulus (GPa) = 21.09836 27.04232 24.07034
#
# Velocity S-wave (km/s) = 3.31990 3.75857 3.54603
# Velocity P-wave (km/s) = 6.25670 7.22444 6.75792
#
# Compressibility (1/GPa) = 0.02136542
#
# Stress axis : x y z
#
# Youngs Moduli (GPa) = 87.32624 85.44268 32.91751
#
# Poissons Ratio (x) = 0.31671 0.19983
# Poissons Ratio (y) = 0.32369 0.20761
# Poissons Ratio (z) = 0.53013 0.53888
#
# Static dielectric constant tensor:
#      x y z
#    x 3.622020 0.000000 0.000000 
#    y 0.000000 3.948960 0.000000 
#    z 0.000000 0.000000 3.432420 
# 
# 
# High freq. dielectric constant tensor:
#      x y z
#    x 1.745900 0.000000 0.000000 
#    y 0.000000 1.766450 0.000000 
#    z 0.000000 0.000000 1.706380 
# 
# From -- ./inp_files/20080.got.cif
#   From: 2010.06.25/outbox.cif.g09.slc.cpg/sg48_11_cif.got.tgz:20080.got - 2010.06.26 18:06:46.
