data_PCOD8201744
_publ_section_title
;
Structure prediction by ZEFSAII (Michael W. Deem and Ramdas Pophale) SiO2 
 PCOD8201744
Probable space group: P N N N
;
_chemical_formula_sum "Si O2"
_cell_formula_units_Z 58
_cell_length_a 10.701338
_cell_length_b 18.858361
_cell_length_c 14.827884
_cell_angle_alpha 90.000000
_cell_angle_beta 90.000000
_cell_angle_gamma 90.000000
_cell_volume 2992.410750
_symmetry_space_group_name_H-M "P N N N"
_symmetry_group_IT_number 48
_space_group.IT_coordinate_system_code '2'
_symmetry_cell_setting 'orthorhombic'
loop_
_space_group_symop_operation_xyz
x,y,z
1/2-x,1/2-y,z
x,1/2-y,1/2-z
1/2-x,y,1/2-z
-x,-y,-z
1/2+x,1/2+y,-z
-x,1/2+y,1/2+z
1/2+x,-y,1/2+z
loop_
_atom_site_type_symbol
_atom_site_label
_atom_site_fract_x
_atom_site_fract_y
_atom_site_fract_z
Si Si1 0.275835 0.326129 0.579997
Si Si2 0.388520 0.427183 0.712586
Si Si3 0.122787 0.780401 0.852017
Si Si4 0.146025 0.574537 0.557962
Si Si5 0.960175 0.578124 0.401810
Si Si6 0.914407 0.814722 0.602053
Si Si7 0.067761 0.955326 0.576673
Si Si8 0.250000 0.250000 0.250000
O O1 0.250000 0.250000 0.626504
O O2 0.383142 0.364148 0.639163
O O3 0.152732 0.372662 0.566176
O O4 0.322047 0.312770 0.480360
O O5 0.250000 0.438796 0.750000
O O6 0.482848 0.407315 0.794689
O O7 0.431322 0.499503 0.667538
O O8 0.250000 0.750000 0.894374
O O9 0.109666 0.750000 0.750000
O O10 0.123454 0.865607 0.864674
O O11 0.008819 0.750857 0.910448
O O12 0.079724 0.503831 0.592068
O O13 0.293360 0.563684 0.542128
O O14 0.082883 0.595372 0.461380
O O15 0.834628 0.803825 0.692478
O O16 0.991310 0.886895 0.605728
O O17 0.000000 0.000000 0.500000
#
# Coordination Sequence:
#
# PCOD8201744 Si02
#       8
#     8   8   8   8   8   8   8   2
#     4  11  21  40  66  88 128 170 219 275 326 384
#     4  10  21  39  60  96 121 164 222 269 316 383
#     4  11  24  38  62  97 127 172 217 260 330 401
#     4  11  22  41  64  92 132 168 217 271 329 399
#     4  10  23  39  65  94 125 167 216 280 324 374
#     4  12  24  41  62  92 137 172 213 268 333 407
#     4  12  23  43  66  90 131 177 216 270 336 397
#     4  12  28  44  58 104 138 176 220 276 344 404
#
# _framework density 19.382365
#
# number of rings (size 3 to 8) (size 9 to 14) (size 15 to 20)
#    0.000    0.966    6.897    0.828    1.931    2.483 
#    4.966    0.000    0.000    0.000    0.000    0.966 
#    0.000    0.000    0.000    0.000    0.000    0.000 
#
# Total GULP energy -719017.673260 kJ/mol
# GULP energy per Si atom -12396.856436 kJ/mol
# Density = 1.933825 g / cm^3
# Si number density = 19.382365 Si / 1000 Ang^3
#
#
#
# Elastic Constant Matrix: (Units=GPa)
#
#
# Indices 1 2 3 4 5 6 
#
# 1 104.5279 47.0537 55.8338 0.0000 0.0000 0.0000
# 2 47.0537 133.7333 41.1119 0.0000 0.0000 0.0000
# 3 55.8338 41.1119 125.4434 0.0000 0.0000 0.0000
# 4 0.0000 0.0000 0.0000 35.2987 0.0000 0.0000
# 5 0.0000 0.0000 0.0000 0.0000 17.9248 0.0000
# 6 0.0000 0.0000 0.0000 0.0000 0.0000 32.6922
#
#
#
# Elastic Compliance Matrix: (Units=1/GPa)
#
#
# Indices 1 2 3 4 5 6 
#
# 1 0.013736 -0.003284 -0.005037 0.000000 0.000000 0.000000
# 2 -0.003284 0.009101 -0.001521 0.000000 0.000000 0.000000
# 3 -0.005037 -0.001521 0.010712 0.000000 0.000000 0.000000
# 4 0.000000 0.000000 0.000000 0.028330 0.000000 0.000000
# 5 0.000000 0.000000 0.000000 0.000000 0.055789 0.000000
# 6 0.000000 0.000000 0.000000 0.000000 0.000000 0.030588
#
#
# Mechanical properties :
#
#
# Convention : Reuss Voigt Hill
#
# Bulk Modulus (GPa) = 72.12986 72.41149 72.27067
# Shear Modulus (GPa) = 28.97508 31.83014 30.40261
#
# Velocity S-wave (km/s) = 3.87061 4.05683 3.96482
# Velocity P-wave (km/s) = 7.56773 7.70613 7.63724
#
# Compressibility (1/GPa) = 0.01386388
#
# Stress axis : x y z
#
# Youngs Moduli (GPa) = 72.80118 109.88196 93.35143
#
# Poissons Ratio (x) = 0.36090 0.47025
# Poissons Ratio (y) = 0.23911 0.14196
# Poissons Ratio (z) = 0.36673 0.16710
#
# Static dielectric constant tensor:
#      x y z
#    x 3.738830 0.000000 0.000000 
#    y 0.000000 3.831270 0.000000 
#    z 0.000000 0.000000 3.861520 
# 
# 
# High freq. dielectric constant tensor:
#      x y z
#    x 1.745640 0.000000 0.000000 
#    y 0.000000 1.767670 0.000000 
#    z 0.000000 0.000000 1.754630 
# 
# From -- ./inp_files/26697.got.cif
#   From: 2010.06.25/outbox.cif.g09.slc.cpg/sg48_14_cif.got.tgz:26697.got - 2010.06.26 18:06:46.
