data_PCOD8201160
_publ_section_title
;
Structure prediction by ZEFSAII (Michael W. Deem and Ramdas Pophale) SiO2 
 PCOD8201160
Probable space group: P M M M
;
_chemical_formula_sum "Si O2"
_cell_formula_units_Z 44
_cell_length_a 9.580373
_cell_length_b 7.737181
_cell_length_c 32.197683
_cell_angle_alpha 90.000000
_cell_angle_beta 90.000000
_cell_angle_gamma 90.000000
_cell_volume 2386.655827
_symmetry_space_group_name_H-M "P M M M"
_symmetry_group_IT_number 47
_symmetry_cell_setting 'orthorhombic'
loop_
_space_group_symop_operation_xyz
x,y,z
-x,-y,z
x,-y,-z
-x,y,-z
-x,-y,-z
x,y,-z
-x,y,z
x,-y,z
loop_
_atom_site_type_symbol
_atom_site_label
_atom_site_fract_x
_atom_site_fract_y
_atom_site_fract_z
Si Si1 0.166988 0.000000 0.267346
Si Si2 0.150727 0.698981 0.879665
Si Si3 0.166487 0.693638 0.210158
Si Si4 0.657469 0.703797 0.500000
Si Si5 0.656357 0.796355 0.954196
Si Si6 0.835901 0.000000 0.359941
Si Si7 0.836897 0.700273 0.421174
O O1 0.223844 0.827788 0.244369
O O2 0.230115 0.000000 0.313891
O O3 0.000000 0.000000 0.267401
O O4 0.124071 0.500000 0.871516
O O5 0.213844 0.765522 0.835642
O O6 0.250325 0.718882 0.918491
O O7 0.000000 0.787763 0.889362
O O8 0.225034 0.500000 0.219705
O O9 0.000000 0.689462 0.210760
O O10 0.646901 0.500000 0.500000
O O11 0.500000 0.783227 0.500000
O O12 0.743810 0.763595 0.459797
O O13 0.500000 0.725287 0.948283
O O14 0.657604 0.000000 0.950325
O O15 0.711775 0.740630 0.000000
O O16 0.790466 0.824249 0.383433
O O17 0.000000 0.000000 0.355154
O O18 0.807516 0.500000 0.409172
O O19 0.000000 0.725449 0.432590
#
# Coordination Sequence:
#
# PCOD8201160 Si02
#       7
#     4   8   8   4   8   4   8
#     4   9  16  26  43  66  92 125 156 187 235 284
#     4   9  18  31  47  70  96 120 152 193 234 279
#     4   8  15  27  42  65  96 123 150 189 235 282
#     4   9  17  30  49  72  95 123 164 203 233 276
#     4   9  19  34  48  65  92 124 157 191 228 276
#     4   9  18  29  42  67  96 123 163 198 227 284
#     4   9  17  30  47  67  96 130 158 193 240 279
#
# _framework density 18.435839000000001
#
# number of rings (size 3 to 8) (size 9 to 14) (size 15 to 20)
#    0.000    3.182    0.000    1.909    1.273    3.636 
#    0.000    8.636    0.000    0.000    0.000    2.545 
#    0.000    2.909    0.000    0.000    0.000    0.000 
#
# Total GULP energy -545151.567731 kJ/mol
# GULP energy per Si atom -12389.808358 kJ/mol
# Density = 1.839388 g / cm^3
# Si number density = 18.435839 Si / 1000 Ang^3
#
#
#
# Elastic Constant Matrix: (Units=GPa)
#
#
# Indices 1 2 3 4 5 6 
#
# 1 47.9386 20.2122 47.5592 0.0000 0.0000 0.0000
# 2 20.2122 84.7891 65.9113 0.0000 0.0000 0.0000
# 3 47.5592 65.9113 181.5428 0.0000 0.0000 0.0000
# 4 0.0000 0.0000 0.0000 27.5998 0.0000 0.0000
# 5 0.0000 0.0000 0.0000 0.0000 -5.5149 0.0000
# 6 0.0000 0.0000 0.0000 0.0000 0.0000 12.0450
#
#
#
# Elastic Compliance Matrix: (Units=1/GPa)
#
#
# Indices 1 2 3 4 5 6 
#
# 1 0.028299 -0.001370 -0.006916 0.000000 0.000000 0.000000
# 2 -0.001370 0.016498 -0.005631 0.000000 0.000000 0.000000
# 3 -0.006916 -0.005631 0.009365 0.000000 0.000000 0.000000
# 4 0.000000 0.000000 0.000000 0.036232 0.000000 0.000000
# 5 0.000000 0.000000 0.000000 0.000000 -0.181327 0.000000
# 6 0.000000 0.000000 0.000000 0.000000 0.000000 0.083022
#
#
# Mechanical properties :
#
#
# Convention : Reuss Voigt Hill
#
# Bulk Modulus (GPa) = 37.98268 64.62620 51.30444
# Shear Modulus (GPa) = 174.22942 18.86518 96.54730
#
# Velocity S-wave (km/s) = 9.73196 3.20236 7.24452
# Velocity P-wave (km/s) = 12.12141 6.98600 9.89275
#
# Compressibility (1/GPa) = 0.02632779
#
# Stress axis : x y z
#
# Youngs Moduli (GPa) = 35.33686 60.61467 106.78516
#
# Poissons Ratio (x) = 0.08301 0.73856
# Poissons Ratio (y) = 0.04839 0.60130
# Poissons Ratio (z) = 0.24440 0.34131
#
# Static dielectric constant tensor:
#      x y z
#    x 0.796570 0.000000 0.000000 
#    y 0.000000 3.425930 0.000000 
#    z 0.000000 0.000000 5.219930 
# 
# 
# High freq. dielectric constant tensor:
#      x y z
#    x 1.661590 0.000000 0.000000 
#    y 0.000000 1.715360 0.000000 
#    z 0.000000 0.000000 1.719570 
# 
# From -- ./inp_files/2351.got.cif
#   From: 2010.03.12/outbox.cif.g09.slc.cpg/sg47_2_cif.got.tgz:2351.got - 2010.04.14 03:12:58.
