data_PCOD8201555
_publ_section_title
;
Structure prediction by ZEFSAII (Michael W. Deem and Ramdas Pophale) SiO2 
 PCOD8201555
Probable space group: P N N N
;
_chemical_formula_sum "Si O2"
_cell_formula_units_Z 42
_cell_length_a 17.344312
_cell_length_b 9.022639
_cell_length_c 14.094873
_cell_angle_alpha 90.000000
_cell_angle_beta 90.000000
_cell_angle_gamma 90.000000
_cell_volume 2205.727337
_symmetry_space_group_name_H-M "P N N N"
_symmetry_group_IT_number 48
_space_group.IT_coordinate_system_code '2'
_symmetry_cell_setting 'orthorhombic'
loop_
_space_group_symop_operation_xyz
x,y,z
1/2-x,1/2-y,z
x,1/2-y,1/2-z
1/2-x,y,1/2-z
-x,-y,-z
1/2+x,1/2+y,-z
-x,1/2+y,1/2+z
1/2+x,-y,1/2+z
loop_
_atom_site_type_symbol
_atom_site_label
_atom_site_fract_x
_atom_site_fract_y
_atom_site_fract_z
Si Si1 0.250000 0.750000 0.750000
Si Si2 0.481053 0.409034 0.593465
Si Si3 0.371659 0.913170 0.622927
Si Si4 0.441840 0.899506 0.439868
Si Si5 0.528385 0.906355 0.724927
Si Si6 0.335574 0.256540 0.861532
O O1 0.298424 0.856007 0.681140
O O2 0.500000 0.500000 0.500000
O O3 0.522458 0.251957 0.597041
O O4 0.511593 0.500913 0.681654
O O5 0.388666 0.379060 0.600469
O O6 0.371674 0.858124 0.512384
O O7 0.448317 0.858211 0.675407
O O8 0.375197 0.089560 0.613272
O O9 0.500000 0.000000 0.500000
O O10 0.418357 0.996609 0.346977
O O11 0.570464 0.750000 0.750000
O O12 0.250000 0.250000 0.907627
O O13 0.328747 0.250000 0.750000
#
# Coordination Sequence:
#
# PCOD8201555 Si02
#       6
#     2   8   8   8   8   8
#     4  12  24  36  58  92 126 168 188 252 304 408
#     4  12  22  34  58  87 120 159 209 249 306 359
#     4  11  22  35  57  83 127 154 195 236 311 363
#     4  10  20  36  55  81 119 155 194 250 296 354
#     4  11  21  36  56  84 120 152 200 255 301 354
#     4  11  21  35  55  81 120 160 193 239 303 369
#
# _framework density 19.041336999999999
#
# number of rings (size 3 to 8) (size 9 to 14) (size 15 to 20)
#    0.000    0.952    6.667    4.000    0.000    0.000 
#    0.000    0.000    0.000    0.000    0.000   10.667 
#    0.000    0.000    0.000    0.000    0.000    0.000 
#
# Total GULP energy -520518.491963 kJ/mol
# GULP energy per Si atom -12393.297428 kJ/mol
# Density = 1.899800 g / cm^3
# Si number density = 19.041337 Si / 1000 Ang^3
#
#
#
# Elastic Constant Matrix: (Units=GPa)
#
#
# Indices 1 2 3 4 5 6 
#
# 1 60.4584 20.5154 45.9571 0.0000 0.0000 0.0000
# 2 20.5154 120.4963 58.4923 0.0000 0.0000 0.0000
# 3 45.9571 58.4923 154.6897 0.0000 0.0000 0.0000
# 4 0.0000 0.0000 0.0000 35.3211 0.0000 0.0000
# 5 0.0000 0.0000 0.0000 0.0000 30.5283 0.0000
# 6 0.0000 0.0000 0.0000 0.0000 0.0000 51.6592
#
#
#
# Elastic Compliance Matrix: (Units=1/GPa)
#
#
# Indices 1 2 3 4 5 6 
#
# 1 0.021411 -0.000683 -0.006103 0.000000 0.000000 0.000000
# 2 -0.000683 0.010187 -0.003649 0.000000 0.000000 0.000000
# 3 -0.006103 -0.003649 0.009657 0.000000 0.000000 0.000000
# 4 0.000000 0.000000 0.000000 0.028312 0.000000 0.000000
# 5 0.000000 0.000000 0.000000 0.000000 0.032756 0.000000
# 6 0.000000 0.000000 0.000000 0.000000 0.000000 0.019358
#
#
# Mechanical properties :
#
#
# Convention : Reuss Voigt Hill
#
# Bulk Modulus (GPa) = 49.05394 65.06378 57.05886
# Shear Modulus (GPa) = 33.47944 37.54704 35.51324
#
# Velocity S-wave (km/s) = 4.19770 4.44539 4.32332
# Velocity P-wave (km/s) = 7.02225 7.78413 7.41298
#
# Compressibility (1/GPa) = 0.02038572
#
# Stress axis : x y z
#
# Youngs Moduli (GPa) = 46.70479 98.16851 103.54735
#
# Poissons Ratio (x) = 0.06704 0.63193
# Poissons Ratio (y) = 0.03189 0.37784
# Poissons Ratio (z) = 0.28503 0.35821
#
# Static dielectric constant tensor:
#      x y z
#    x 3.467830 0.000000 0.000000 
#    y 0.000000 3.617320 0.000000 
#    z 0.000000 0.000000 4.129750 
# 
# 
# High freq. dielectric constant tensor:
#      x y z
#    x 1.687660 0.000000 0.000000 
#    y 0.000000 1.760710 0.000000 
#    z 0.000000 0.000000 1.749200 
# 
# From -- ./inp_files/12908.got.cif
#   From: 2010.06.25/outbox.cif.g09.slc.cpg/sg48_7_cif.got.tgz:12908.got - 2010.06.26 18:06:46.
