data_PCOD8201633
_publ_section_title
;
Structure prediction by ZEFSAII (Michael W. Deem and Ramdas Pophale) SiO2 
 PCOD8201633
Probable space group: P N N N
;
_chemical_formula_sum "Si O2"
_cell_formula_units_Z 46
_cell_length_a 23.952183
_cell_length_b 7.873813
_cell_length_c 10.918377
_cell_angle_alpha 90.000000
_cell_angle_beta 90.000000
_cell_angle_gamma 90.000000
_cell_volume 2059.151418
_symmetry_space_group_name_H-M "P N N N"
_symmetry_group_IT_number 48
_space_group.IT_coordinate_system_code '2'
_symmetry_cell_setting 'orthorhombic'
loop_
_space_group_symop_operation_xyz
x,y,z
1/2-x,1/2-y,z
x,1/2-y,1/2-z
1/2-x,y,1/2-z
-x,-y,-z
1/2+x,1/2+y,-z
-x,1/2+y,1/2+z
1/2+x,-y,1/2+z
loop_
_atom_site_type_symbol
_atom_site_label
_atom_site_fract_x
_atom_site_fract_y
_atom_site_fract_z
Si Si1 0.250000 0.750000 0.750000
Si Si2 0.072757 0.565662 0.288574
Si Si3 0.540117 0.481504 0.316293
Si Si4 0.750000 0.750000 0.567965
Si Si5 0.654007 0.750000 0.750000
Si Si6 0.070971 0.846178 0.950181
Si Si7 0.683602 0.003314 0.415059
Si Si8 0.382323 0.250000 0.750000
O O1 0.209918 0.638236 0.671669
O O2 0.098654 0.750000 0.250000
O O3 0.117442 0.413181 0.288405
O O4 0.042615 0.585238 0.423586
O O5 0.025917 0.518219 0.186873
O O6 0.555992 0.433903 0.176962
O O7 0.555337 0.350421 0.424762
O O8 0.577794 0.645289 0.343323
O O9 0.694988 0.691788 0.641454
O O10 0.732263 0.919780 0.496017
O O11 0.135872 0.887410 0.985016
O O12 0.657395 0.853927 0.336989
#
# Coordination Sequence:
#
# PCOD8201633 Si02
#       8
#     2   8   8   4   4   8   8   4
#     4  12  24  38  66 106 134 170 232 296 360 422
#     4  12  25  44  69 104 139 192 236 291 354 430
#     4  10  21  41  68  98 144 176 230 286 358 426
#     4  11  24  47  70  94 128 197 232 289 354 410
#     4  11  26  48  67  98 143 178 254 295 334 420
#     4  10  22  42  65  97 138 181 227 293 351 417
#     4  11  22  40  67  96 135 175 224 285 353 413
#     4  10  20  39  64 104 134 171 218 282 346 442
#
# _framework density 22.339300000000001
#
# number of rings (size 3 to 8) (size 9 to 14) (size 15 to 20)
#    0.000    1.217    2.609    4.696    0.000    3.478 
#    0.000    0.870    0.000    0.000    0.000    0.000 
#    0.000    0.000    0.000    0.000    0.000    0.000 
#
# Total GULP energy -569885.293381 kJ/mol
# GULP energy per Si atom -12388.810726 kJ/mol
# Density = 2.228845 g / cm^3
# Si number density = 22.339300 Si / 1000 Ang^3
#
#
#
# Elastic Constant Matrix: (Units=GPa)
#
#
# Indices 1 2 3 4 5 6 
#
# 1 123.2580 70.8313 35.6563 0.0000 0.0000 0.0000
# 2 70.8313 149.8283 49.6714 0.0000 0.0000 0.0000
# 3 35.6563 49.6714 92.4090 0.0000 0.0000 0.0000
# 4 0.0000 0.0000 0.0000 37.6868 0.0000 0.0000
# 5 0.0000 0.0000 0.0000 0.0000 37.0010 0.0000
# 6 0.0000 0.0000 0.0000 0.0000 0.0000 31.2471
#
#
#
# Elastic Compliance Matrix: (Units=1/GPa)
#
#
# Indices 1 2 3 4 5 6 
#
# 1 0.011387 -0.004778 -0.001825 0.000000 0.000000 0.000000
# 2 -0.004778 0.010126 -0.003600 0.000000 0.000000 0.000000
# 3 -0.001825 -0.003600 0.013461 0.000000 0.000000 0.000000
# 4 0.000000 0.000000 0.000000 0.026534 0.000000 0.000000
# 5 0.000000 0.000000 0.000000 0.000000 0.027026 0.000000
# 6 0.000000 0.000000 0.000000 0.000000 0.000000 0.032003
#
#
# Mechanical properties :
#
#
# Convention : Reuss Voigt Hill
#
# Bulk Modulus (GPa) = 68.64335 75.31258 71.97797
# Shear Modulus (GPa) = 34.29370 35.14273 34.71822
#
# Velocity S-wave (km/s) = 3.92232 3.97058 3.94652
# Velocity P-wave (km/s) = 7.16290 7.40317 7.28403
#
# Compressibility (1/GPa) = 0.01456805
#
# Stress axis : x y z
#
# Youngs Moduli (GPa) = 87.82086 98.75174 74.29089
#
# Poissons Ratio (x) = 0.47183 0.13561
# Poissons Ratio (y) = 0.41960 0.26741
# Poissons Ratio (z) = 0.16031 0.35546
#
# Static dielectric constant tensor:
#      x y z
#    x 4.312450 0.000000 0.000000 
#    y 0.000000 4.397410 0.000000 
#    z 0.000000 0.000000 4.034560 
# 
# 
# High freq. dielectric constant tensor:
#      x y z
#    x 1.884340 0.000000 0.000000 
#    y 0.000000 1.887950 0.000000 
#    z 0.000000 0.000000 1.876380 
# 
# From -- ./inp_files/23324.got.cif
#   From: 2010.06.25/outbox.cif.g09.slc.cpg/sg48_12_cif.got.tgz:23324.got - 2010.06.26 18:06:46.
