data_PCOD8201041
_publ_section_title
;
Structure prediction by ZEFSAII (Michael W. Deem and Ramdas Pophale) SiO2 
 PCOD8201041
Probable space group: P M M M
;
_chemical_formula_sum "Si O2"
_cell_formula_units_Z 48
_cell_length_a 13.523968
_cell_length_b 9.805656
_cell_length_c 23.862337
_cell_angle_alpha 90.000000
_cell_angle_beta 90.000000
_cell_angle_gamma 90.000000
_cell_volume 3164.417391
_symmetry_space_group_name_H-M "P M M M"
_symmetry_group_IT_number 47
_symmetry_cell_setting 'orthorhombic'
loop_
_space_group_symop_operation_xyz
x,y,z
-x,-y,z
x,-y,-z
-x,y,-z
-x,-y,-z
x,y,-z
-x,y,z
x,-y,z
loop_
_atom_site_type_symbol
_atom_site_label
_atom_site_fract_x
_atom_site_fract_y
_atom_site_fract_z
Si Si1 0.610668 0.344328 0.655101
Si Si2 0.117419 0.153008 0.061954
Si Si3 0.699672 0.841837 0.564046
Si Si4 0.889811 0.154723 0.369016
Si Si5 0.198384 0.342343 0.721241
Si Si6 0.885251 0.342749 0.160493
O O1 0.500000 0.320145 0.678433
O O2 0.625028 0.500000 0.634912
O O3 0.626791 0.247713 0.601728
O O4 0.687621 0.310306 0.704996
O O5 0.158469 0.256011 0.108769
O O6 0.000000 0.159860 0.061556
O O7 0.152861 0.000000 0.076589
O O8 0.156773 0.194907 0.000000
O O9 0.686002 0.797022 0.500000
O O10 0.813171 0.812592 0.581293
O O11 0.672143 0.000000 0.572533
O O12 0.874363 0.253403 0.316543
O O13 0.000000 0.177186 0.393106
O O14 0.875319 0.000000 0.347542
O O15 0.171198 0.500000 0.710981
O O16 0.180321 0.303243 0.785688
O O17 0.872393 0.500000 0.144260
O O18 0.000000 0.308647 0.173110
#
# Coordination Sequence:
#
# PCOD8201041 Si02
#       6
#     8   8   8   8   8   8
#     4   9  18  32  48  63  79 102 131 164 204 246
#     4   8  14  24  36  51  75 108 141 167 190 218
#     4   9  18  31  45  62  83 105 130 161 198 240
#     4   9  17  28  42  60  81 106 135 164 194 231
#     4   9  17  29  43  59  81 106 133 166 202 241
#     4   9  16  24  36  56  80 106 134 161 191 228
#
# _framework density 15.168669
#
# number of rings (size 3 to 8) (size 9 to 14) (size 15 to 20)
#    0.000    3.167    0.000    1.000    0.000    3.333 
#    0.000    6.667    0.000    0.000    0.000    4.667 
#    0.000    0.667    0.000    8.333    0.000    1.667 
#
# Total GULP energy -595034.234376 kJ/mol
# GULP energy per Si atom -12396.546550 kJ/mol
# Density = 1.513414 g / cm^3
# Si number density = 15.168669 Si / 1000 Ang^3
#
#
#
# Elastic Constant Matrix: (Units=GPa)
#
#
# Indices 1 2 3 4 5 6 
#
# 1 66.0210 26.0280 33.6627 0.0000 0.0000 0.0000
# 2 26.0280 58.8330 56.0994 0.0000 0.0000 0.0000
# 3 33.6627 56.0994 118.1788 0.0000 0.0000 0.0000
# 4 0.0000 0.0000 0.0000 29.3353 0.0000 0.0000
# 5 0.0000 0.0000 0.0000 0.0000 12.6401 0.0000
# 6 0.0000 0.0000 0.0000 0.0000 0.0000 16.4367
#
#
#
# Elastic Compliance Matrix: (Units=1/GPa)
#
#
# Indices 1 2 3 4 5 6 
#
# 1 0.018763 -0.005855 -0.002565 0.000000 0.000000 0.000000
# 2 -0.005855 0.032880 -0.013940 0.000000 0.000000 0.000000
# 3 -0.002565 -0.013940 0.015810 0.000000 0.000000 0.000000
# 4 0.000000 0.000000 0.000000 0.034089 0.000000 0.000000
# 5 0.000000 0.000000 0.000000 0.000000 0.079113 0.000000
# 6 0.000000 0.000000 0.000000 0.000000 0.000000 0.060839
#
#
# Mechanical properties :
#
#
# Convention : Reuss Voigt Hill
#
# Bulk Modulus (GPa) = 43.99073 52.73476 48.36274
# Shear Modulus (GPa) = 17.01882 20.16529 18.59205
#
# Velocity S-wave (km/s) = 3.35322 3.65005 3.50478
# Velocity P-wave (km/s) = 6.63748 7.25293 6.95202
#
# Compressibility (1/GPa) = 0.02273206
#
# Stress axis : x y z
#
# Youngs Moduli (GPa) = 53.29697 30.41354 63.25111
#
# Poissons Ratio (x) = 0.17806 0.16226
# Poissons Ratio (y) = 0.31203 0.88175
# Poissons Ratio (z) = 0.13672 0.42398
#
# Static dielectric constant tensor:
#      x y z
#    x 2.763200 0.000000 0.000000 
#    y 0.000000 3.036320 0.000000 
#    z 0.000000 0.000000 2.965280 
# 
# 
# High freq. dielectric constant tensor:
#      x y z
#    x 1.550950 0.000000 0.000000 
#    y 0.000000 1.587530 0.000000 
#    z 0.000000 0.000000 1.569840 
# 
# From -- ./inp_files/7469.got.cif
#   From: 2010.03.12/outbox.cif.g09.slc.cpg/sg47_4_cif.got.tgz:7469.got - 2010.04.14 03:12:58.
