data_PCOD8201629
_publ_section_title
;
Structure prediction by ZEFSAII (Michael W. Deem and Ramdas Pophale) SiO2 
 PCOD8201629
Probable space group: P N N N
;
_chemical_formula_sum "Si O2"
_cell_formula_units_Z 64
_cell_length_a 15.234379
_cell_length_b 12.256725
_cell_length_c 17.251191
_cell_angle_alpha 90.000000
_cell_angle_beta 90.000000
_cell_angle_gamma 90.000000
_cell_volume 3221.204383
_symmetry_space_group_name_H-M "P N N N"
_symmetry_group_IT_number 48
_space_group.IT_coordinate_system_code '2'
_symmetry_cell_setting 'orthorhombic'
loop_
_space_group_symop_operation_xyz
x,y,z
1/2-x,1/2-y,z
x,1/2-y,1/2-z
1/2-x,y,1/2-z
-x,-y,-z
1/2+x,1/2+y,-z
-x,1/2+y,1/2+z
1/2+x,-y,1/2+z
loop_
_atom_site_type_symbol
_atom_site_label
_atom_site_fract_x
_atom_site_fract_y
_atom_site_fract_z
Si Si1 0.295042 0.362988 0.538091
Si Si2 0.031235 0.102844 0.451463
Si Si3 0.481483 0.521997 0.302896
Si Si4 0.948852 0.251601 0.665792
Si Si5 0.331841 0.941217 0.306909
Si Si6 0.144201 0.011632 0.025858
Si Si7 0.160398 0.129512 0.715323
Si Si8 0.989985 0.169644 0.992990
O O1 0.250000 0.250000 0.518134
O O2 0.368044 0.377134 0.472454
O O3 0.223532 0.459934 0.531869
O O4 0.337129 0.361587 0.622554
O O5 0.017730 0.081121 0.359957
O O6 0.975221 0.212553 0.468104
O O7 0.000000 0.000000 0.500000
O O8 0.439321 0.623270 0.353615
O O9 0.417238 0.499916 0.230551
O O10 0.577990 0.549814 0.267977
O O11 0.999396 0.250000 0.750000
O O12 0.855680 0.313287 0.677622
O O13 0.005612 0.312347 0.599822
O O14 0.250000 0.952296 0.250000
O O15 0.314181 0.999679 0.388473
O O16 0.073482 0.109089 0.028131
O O17 0.098366 0.901035 0.995244
O O18 0.149427 0.250000 0.750000
O O19 0.250000 0.076883 0.750000
#
# Coordination Sequence:
#
# PCOD8201629 Si02
#       8
#     8   8   8   8   8   8   8   8
#     4  12  22  39  64  97 131 165 214 275 323 391
#     4  12  22  38  65  93 132 170 213 263 332 393
#     4  11  22  37  61  91 129 164 214 263 328 393
#     4   9  18  31  57  88 121 156 197 261 323 371
#     4  10  21  39  59  88 124 167 217 263 323 384
#     4  10  23  39  63  90 127 169 216 265 323 381
#     4  11  22  35  59  97 127 159 204 269 342 379
#     4  10  20  39  60  91 124 169 213 258 321 392
#
# _framework density 19.868344
#
# number of rings (size 3 to 8) (size 9 to 14) (size 15 to 20)
#    0.000    1.375    5.000    1.875    0.000    7.250 
#    0.000    1.250    0.000    0.000    0.000    0.000 
#    0.000    0.000    0.000    0.000    0.000    0.000 
#
# Total GULP energy -793129.831961 kJ/mol
# GULP energy per Si atom -12392.653624 kJ/mol
# Density = 1.982312 g / cm^3
# Si number density = 19.868344 Si / 1000 Ang^3
#
#
#
# Elastic Constant Matrix: (Units=GPa)
#
#
# Indices 1 2 3 4 5 6 
#
# 1 113.9013 27.1140 33.8267 0.0000 0.0000 0.0000
# 2 27.1140 99.8703 34.0079 0.0000 0.0000 0.0000
# 3 33.8267 34.0079 80.4659 0.0000 0.0000 0.0000
# 4 0.0000 0.0000 0.0000 34.2673 0.0000 0.0000
# 5 0.0000 0.0000 0.0000 0.0000 29.2231 0.0000
# 6 0.0000 0.0000 0.0000 0.0000 0.0000 20.0193
#
#
#
# Elastic Compliance Matrix: (Units=1/GPa)
#
#
# Indices 1 2 3 4 5 6 
#
# 1 0.010229 -0.001534 -0.003652 0.000000 0.000000 0.000000
# 2 -0.001534 0.011926 -0.004396 0.000000 0.000000 0.000000
# 3 -0.003652 -0.004396 0.015821 0.000000 0.000000 0.000000
# 4 0.000000 0.000000 0.000000 0.029182 0.000000 0.000000
# 5 0.000000 0.000000 0.000000 0.000000 0.034220 0.000000
# 6 0.000000 0.000000 0.000000 0.000000 0.000000 0.049952
#
#
# Mechanical properties :
#
#
# Convention : Reuss Voigt Hill
#
# Bulk Modulus (GPa) = 53.15380 53.79273 53.47327
# Shear Modulus (GPa) = 28.28637 29.98787 29.13712
#
# Velocity S-wave (km/s) = 3.77728 3.88922 3.83366
# Velocity P-wave (km/s) = 6.77014 6.87760 6.82409
#
# Compressibility (1/GPa) = 0.01881333
#
# Stress axis : x y z
#
# Youngs Moduli (GPa) = 97.75941 83.84921 63.20823
#
# Poissons Ratio (x) = 0.12859 0.23084
# Poissons Ratio (y) = 0.14992 0.27785
# Poissons Ratio (z) = 0.35703 0.36858
#
# Static dielectric constant tensor:
#      x y z
#    x 3.301220 0.000000 0.000000 
#    y 0.000000 3.632330 0.000000 
#    z 0.000000 0.000000 3.762640 
# 
# 
# High freq. dielectric constant tensor:
#      x y z
#    x 1.776540 0.000000 0.000000 
#    y 0.000000 1.753430 0.000000 
#    z 0.000000 0.000000 1.771080 
# 
# From -- ./inp_files/31698.got.cif
#   From: 2010.06.25/outbox.cif.g09.slc.cpg/sg48_16_cif.got.tgz:31698.got - 2010.06.26 18:06:46.
