data_PCOD8201076
_publ_section_title
;
Structure prediction by ZEFSAII (Michael W. Deem and Ramdas Pophale) SiO2 
 PCOD8201076
Probable space group: P M M M
;
_chemical_formula_sum "Si O2"
_cell_formula_units_Z 64
_cell_length_a 17.557391
_cell_length_b 9.382482
_cell_length_c 23.079149
_cell_angle_alpha 90.000000
_cell_angle_beta 90.000000
_cell_angle_gamma 90.000000
_cell_volume 3801.872181
_symmetry_space_group_name_H-M "P M M M"
_symmetry_group_IT_number 47
_symmetry_cell_setting 'orthorhombic'
loop_
_space_group_symop_operation_xyz
x,y,z
-x,-y,z
x,-y,-z
-x,y,-z
-x,-y,-z
x,y,-z
-x,y,z
x,-y,z
loop_
_atom_site_type_symbol
_atom_site_label
_atom_site_fract_x
_atom_site_fract_y
_atom_site_fract_z
Si Si1 0.416804 0.158711 0.931333
Si Si2 0.586884 0.664587 0.656383
Si Si3 0.273998 0.664784 0.935834
Si Si4 0.683174 0.839453 0.738166
Si Si5 0.086919 0.334470 0.729614
Si Si6 0.715808 0.665080 0.566473
Si Si7 0.784774 0.335425 0.817440
Si Si8 0.183196 0.839126 0.645530
O O1 0.500000 0.209763 0.908074
O O2 0.350401 0.263280 0.910848
O O3 0.399514 0.000000 0.907736
O O4 0.418864 0.156554 0.000000
O O5 0.500000 0.699195 0.639527
O O6 0.597660 0.500000 0.673621
O O7 0.610165 0.758438 0.712018
O O8 0.638741 0.703629 0.601015
O O9 0.293150 0.500000 0.941347
O O10 0.208591 0.691508 0.887158
O O11 0.249133 0.723221 0.000000
O O12 0.714388 0.757694 0.794255
O O13 0.748867 0.839130 0.690815
O O14 0.659686 0.000000 0.755360
O O15 0.098027 0.500000 0.713847
O O16 0.136023 0.292500 0.786591
O O17 0.111850 0.243215 0.673771
O O18 0.000000 0.298160 0.744787
O O19 0.700246 0.703669 0.500000
O O20 0.737269 0.500000 0.574887
O O21 0.787812 0.757089 0.588420
O O22 0.765740 0.500000 0.804323
O O23 0.158494 0.000000 0.629234
#
# Coordination Sequence:
#
# PCOD8201076 Si02
#       8
#     8   8   8   8   8   8   8   8
#     4   8  14  25  40  57  78 105 138 177 217 252
#     4   9  17  29  45  65  91 123 157 194 234 270
#     4   9  17  28  43  64  89 118 150 182 218 263
#     4   9  17  29  45  64  85 112 149 190 230 270
#     4   9  17  30  50  73  93 115 145 181 222 269
#     4   9  17  29  46  68  94 126 162 194 223 260
#     4   9  17  30  47  66  90 117 145 180 221 268
#     4   9  17  29  46  68  93 119 147 183 226 268
#
# _framework density 16.833812000000002
#
# number of rings (size 3 to 8) (size 9 to 14) (size 15 to 20)
#    0.000    3.125    0.000    1.125    0.000    4.750 
#    0.000    3.125    0.000    1.500    0.000    8.750 
#    0.000    0.000    0.000    9.375    0.000    9.750 
#
# Total GULP energy -793197.221504 kJ/mol
# GULP energy per Si atom -12393.706586 kJ/mol
# Density = 1.679550 g / cm^3
# Si number density = 16.833812 Si / 1000 Ang^3
#
#
#
# Elastic Constant Matrix: (Units=GPa)
#
#
# Indices 1 2 3 4 5 6 
#
# 1 92.5024 43.9043 53.6234 0.0000 0.0000 0.0000
# 2 43.9043 74.7618 45.0229 0.0000 0.0000 0.0000
# 3 53.6234 45.0229 95.5245 0.0000 0.0000 0.0000
# 4 0.0000 0.0000 0.0000 14.1564 0.0000 0.0000
# 5 0.0000 0.0000 0.0000 0.0000 18.0250 0.0000
# 6 0.0000 0.0000 0.0000 0.0000 0.0000 16.7422
#
#
#
# Elastic Compliance Matrix: (Units=1/GPa)
#
#
# Indices 1 2 3 4 5 6 
#
# 1 0.017883 -0.006223 -0.007106 0.000000 0.000000 0.000000
# 2 -0.006223 0.020842 -0.006330 0.000000 0.000000 0.000000
# 3 -0.007106 -0.006330 0.017441 0.000000 0.000000 0.000000
# 4 0.000000 0.000000 0.000000 0.070640 0.000000 0.000000
# 5 0.000000 0.000000 0.000000 0.000000 0.055479 0.000000
# 6 0.000000 0.000000 0.000000 0.000000 0.000000 0.059729
#
#
# Mechanical properties :
#
#
# Convention : Reuss Voigt Hill
#
# Bulk Modulus (GPa) = 59.35163 60.87666 60.11415
# Shear Modulus (GPa) = 17.42471 17.80058 17.61265
#
# Velocity S-wave (km/s) = 3.22079 3.25534 3.23811
# Velocity P-wave (km/s) = 7.01179 7.09729 7.05467
#
# Compressibility (1/GPa) = 0.01684874
#
# Stress axis : x y z
#
# Youngs Moduli (GPa) = 55.91780 47.97919 57.33557
#
# Poissons Ratio (x) = 0.29856 0.40743
# Poissons Ratio (y) = 0.34796 0.36295
# Poissons Ratio (z) = 0.39736 0.30372
#
# Static dielectric constant tensor:
#      x y z
#    x 3.061640 0.000000 0.000000 
#    y 0.000000 3.309030 0.000000 
#    z 0.000000 0.000000 3.117900 
# 
# 
# High freq. dielectric constant tensor:
#      x y z
#    x 1.621520 0.000000 0.000000 
#    y 0.000000 1.649850 0.000000 
#    z 0.000000 0.000000 1.634810 
# 
# From -- ./inp_files/28917.got.cif
#   From: 2010.03.12/outbox.cif.g09.slc.cpg/sg47_15_cif.got.tgz:28917.got - 2010.04.14 03:12:58.
