data_PCOD8201645
_publ_section_title
;
Structure prediction by ZEFSAII (Michael W. Deem and Ramdas Pophale) SiO2 
 PCOD8201645
Probable space group: P N N N
;
_chemical_formula_sum "Si O2"
_cell_formula_units_Z 64
_cell_length_a 8.895896
_cell_length_b 23.178869
_cell_length_c 14.245709
_cell_angle_alpha 90.000000
_cell_angle_beta 90.000000
_cell_angle_gamma 90.000000
_cell_volume 2937.419724
_symmetry_space_group_name_H-M "P N N N"
_symmetry_group_IT_number 48
_space_group.IT_coordinate_system_code '2'
_symmetry_cell_setting 'orthorhombic'
loop_
_space_group_symop_operation_xyz
x,y,z
1/2-x,1/2-y,z
x,1/2-y,1/2-z
1/2-x,y,1/2-z
-x,-y,-z
1/2+x,1/2+y,-z
-x,1/2+y,1/2+z
1/2+x,-y,1/2+z
loop_
_atom_site_type_symbol
_atom_site_label
_atom_site_fract_x
_atom_site_fract_y
_atom_site_fract_z
Si Si1 0.915405 0.329906 0.061135
Si Si2 0.825753 0.866634 0.148673
Si Si3 0.061464 0.549518 0.433294
Si Si4 0.588642 0.772637 0.483661
Si Si5 0.409178 0.640436 0.910578
Si Si6 0.146900 0.005440 0.375880
Si Si7 0.913727 0.878588 0.728591
Si Si8 0.065866 0.423458 0.952664
O O1 0.744598 0.322756 0.097829
O O2 0.019957 0.334064 0.153022
O O3 0.964005 0.278129 0.990501
O O4 0.933069 0.390325 0.006974
O O5 0.750000 0.861773 0.250000
O O6 0.904778 0.805656 0.118255
O O7 0.686027 0.876205 0.079239
O O8 0.939284 0.920685 0.136506
O O9 0.125256 0.595503 0.507039
O O10 0.190352 0.524995 0.363020
O O11 0.000000 0.500000 0.500000
O O12 0.750000 0.750000 0.512175
O O13 0.547765 0.819294 0.561790
O O14 0.466233 0.613471 0.813030
O O15 0.114190 0.055815 0.303416
O O16 0.149941 0.030533 0.481558
O O17 0.013323 0.957980 0.367173
O O18 0.750000 0.852142 0.750000
#
# Coordination Sequence:
#
# PCOD8201645 Si02
#       8
#     8   8   8   8   8   8   8   8
#     4  11  22  43  67  94 134 178 227 286 346 412
#     4  11  25  42  66 102 133 171 238 289 337 408
#     4  11  21  39  67  93 138 183 222 273 344 415
#     4  11  23  43  72  92 128 178 224 283 360 406
#     4  11  24  41  66 102 133 176 231 281 343 422
#     4  10  21  39  63  93 139 184 216 269 335 413
#     4  11  24  39  63 102 142 174 228 282 337 415
#     4  10  20  40  63  96 131 177 228 270 338 406
#
# _framework density 21.787828999999999
#
# number of rings (size 3 to 8) (size 9 to 14) (size 15 to 20)
#    0.000    1.250    3.750    2.250    3.500    2.750 
#    0.000    2.500    0.000    0.000    6.500    0.000 
#    0.000    0.000    0.000    0.000    0.000    0.000 
#
# Total GULP energy -793162.569218 kJ/mol
# GULP energy per Si atom -12393.165144 kJ/mol
# Density = 2.173824 g / cm^3
# Si number density = 21.787829 Si / 1000 Ang^3
#
#
#
# Elastic Constant Matrix: (Units=GPa)
#
#
# Indices 1 2 3 4 5 6 
#
# 1 145.8967 54.7556 55.8948 0.0000 0.0000 0.0000
# 2 54.7556 103.1899 43.1848 0.0000 0.0000 0.0000
# 3 55.8948 43.1848 92.9572 0.0000 0.0000 0.0000
# 4 0.0000 0.0000 0.0000 27.7162 0.0000 0.0000
# 5 0.0000 0.0000 0.0000 0.0000 34.9705 0.0000
# 6 0.0000 0.0000 0.0000 0.0000 0.0000 37.1135
#
#
#
# Elastic Compliance Matrix: (Units=1/GPa)
#
#
# Indices 1 2 3 4 5 6 
#
# 1 0.009774 -0.003385 -0.004304 0.000000 0.000000 0.000000
# 2 -0.003385 0.013202 -0.004098 0.000000 0.000000 0.000000
# 3 -0.004304 -0.004098 0.015250 0.000000 0.000000 0.000000
# 4 0.000000 0.000000 0.000000 0.036080 0.000000 0.000000
# 5 0.000000 0.000000 0.000000 0.000000 0.028596 0.000000
# 6 0.000000 0.000000 0.000000 0.000000 0.000000 0.026944
#
#
# Mechanical properties :
#
#
# Convention : Reuss Voigt Hill
#
# Bulk Modulus (GPa) = 68.25485 72.19047 70.22266
# Shear Modulus (GPa) = 31.58507 32.50726 32.04617
#
# Velocity S-wave (km/s) = 3.81158 3.86682 3.83930
# Velocity P-wave (km/s) = 7.12502 7.28984 7.20790
#
# Compressibility (1/GPa) = 0.01465097
#
# Stress axis : x y z
#
# Youngs Moduli (GPa) = 102.31713 75.74667 65.57557
#
# Poissons Ratio (x) = 0.25639 0.28226
# Poissons Ratio (y) = 0.34632 0.26872
# Poissons Ratio (z) = 0.44041 0.31040
#
# Static dielectric constant tensor:
#      x y z
#    x 4.055880 0.000000 0.000000 
#    y 0.000000 4.271840 0.000000 
#    z 0.000000 0.000000 3.716710 
# 
# 
# High freq. dielectric constant tensor:
#      x y z
#    x 1.867740 0.000000 0.000000 
#    y 0.000000 1.859460 0.000000 
#    z 0.000000 0.000000 1.830920 
# 
# From -- ./inp_files/25765.got.cif
#   From: 2010.06.25/outbox.cif.g09.slc.cpg/sg48_13_cif.got.tgz:25765.got - 2010.06.26 18:06:46.
