data_PCOD8201182
_publ_section_title
;
Structure prediction by ZEFSAII (Michael W. Deem and Ramdas Pophale) SiO2 
 PCOD8201182
Probable space group: P M M M
;
_chemical_formula_sum "Si O2"
_cell_formula_units_Z 40
_cell_length_a 27.923333
_cell_length_b 9.084939
_cell_length_c 7.576329
_cell_angle_alpha 90.000000
_cell_angle_beta 90.000000
_cell_angle_gamma 90.000000
_cell_volume 1921.976604
_symmetry_space_group_name_H-M "P M M M"
_symmetry_group_IT_number 47
_symmetry_cell_setting 'orthorhombic'
loop_
_space_group_symop_operation_xyz
x,y,z
-x,-y,z
x,-y,-z
-x,y,-z
-x,-y,-z
x,y,-z
-x,y,z
x,-y,z
loop_
_atom_site_type_symbol
_atom_site_label
_atom_site_fract_x
_atom_site_fract_y
_atom_site_fract_z
Si Si1 0.000000 0.666286 0.789655
Si Si2 0.813042 0.666206 0.210489
Si Si3 0.279687 0.834558 0.790397
Si Si4 0.446813 0.674311 0.500000
Si Si5 0.093446 0.166245 0.789699
Si Si6 0.624770 0.327123 0.798120
O O1 0.953211 0.749694 0.716877
O O2 0.000000 0.500000 0.716752
O O3 0.000000 0.665993 0.000000
O O4 0.813852 0.500000 0.283135
O O5 0.765988 0.747333 0.285758
O O6 0.859605 0.751070 0.282645
O O7 0.812675 0.666415 0.000000
O O8 0.327919 0.754240 0.728390
O O9 0.279219 0.000000 0.714578
O O10 0.277148 0.836104 0.000000
O O11 0.450856 0.500000 0.500000
O O12 0.500000 0.744752 0.500000
O O13 0.419163 0.726067 0.676315
O O14 0.093252 0.000000 0.716668
O O15 0.093348 0.165896 0.000000
O O16 0.634436 0.500000 0.778906
O O17 0.612367 0.284943 0.000000
#
# Coordination Sequence:
#
# PCOD8201182 Si02
#       6
#     4   8   8   4   8   8
#     4   9  15  21  27  35  51  81 125 176 229 284
#     4   9  15  22  33  50  72  98 132 177 228 282
#     4   9  16  26  41  61  85 113 146 186 233 285
#     4   9  18  32  51  77 105 131 165 208 247 286
#     4   9  15  21  28  39  58  87 126 174 228 284
#     4   9  17  30  49  72  98 129 164 202 245 292
#
# _framework density 20.811907999999999
#
# number of rings (size 3 to 8) (size 9 to 14) (size 15 to 20)
#    0.000    3.000    0.000    2.100    0.000    8.800 
#    0.000    2.500    0.000    1.200    0.000    2.800 
#    0.000    0.000    0.000    0.000    0.000    1.000 
#
# Total GULP energy -495944.808697 kJ/mol
# GULP energy per Si atom -12398.620217 kJ/mol
# Density = 2.076454 g / cm^3
# Si number density = 20.811908 Si / 1000 Ang^3
#
#
#
# Elastic Constant Matrix: (Units=GPa)
#
#
# Indices 1 2 3 4 5 6 
#
# 1 235.1417 100.9056 40.4184 0.0000 0.0000 0.0000
# 2 100.9056 159.5886 18.8773 0.0000 0.0000 0.0000
# 3 40.4184 18.8773 47.0056 0.0000 0.0000 0.0000
# 4 0.0000 0.0000 0.0000 -1.3532 0.0000 0.0000
# 5 0.0000 0.0000 0.0000 0.0000 -14.7442 0.0000
# 6 0.0000 0.0000 0.0000 0.0000 0.0000 21.1079
#
#
#
# Elastic Compliance Matrix: (Units=1/GPa)
#
#
# Indices 1 2 3 4 5 6 
#
# 1 0.006527 -0.003636 -0.004152 0.000000 0.000000 0.000000
# 2 -0.003636 0.008604 -0.000329 0.000000 0.000000 0.000000
# 3 -0.004152 -0.000329 0.024976 0.000000 0.000000 0.000000
# 4 0.000000 0.000000 0.000000 -0.738973 0.000000 0.000000
# 5 0.000000 0.000000 0.000000 0.000000 -0.067823 0.000000
# 6 0.000000 0.000000 0.000000 0.000000 0.000000 0.047376
#
#
# Mechanical properties :
#
#
# Convention : Reuss Voigt Hill
#
# Bulk Modulus (GPa) = 41.88765 84.68206 63.28486
# Shear Modulus (GPa) = -7.19298 19.77106 6.28904
#
# Velocity S-wave (km/s) = -1.86110 3.08553 1.74023
# Velocity P-wave (km/s) = 3.94363 7.31243 5.87468
#
# Compressibility (1/GPa) = 0.02387338
#
# Stress axis : x y z
#
# Youngs Moduli (GPa) = 153.22100 116.22862 40.03788
#
# Poissons Ratio (x) = 0.42255 0.16623
# Poissons Ratio (y) = 0.55704 0.01318
# Poissons Ratio (z) = 0.63616 0.03826
#
# Static dielectric constant tensor:
#      x y z
#    x 3.991710 0.000000 0.000000 
#    y 0.000000 3.816770 0.000000 
#    z 0.000000 0.000000 3.190920 
# 
# 
# High freq. dielectric constant tensor:
#      x y z
#    x 1.819590 0.000000 0.000000 
#    y 0.000000 1.808730 0.000000 
#    z 0.000000 0.000000 1.774010 
# 
# From -- ./inp_files/12979.got.cif
#   From: 2010.03.12/outbox.cif.g09.slc.cpg/sg47_7_cif.got.tgz:12979.got - 2010.04.14 03:12:58.
