data_PCOD8201948
_publ_section_title
;
Structure prediction by ZEFSAII (Michael W. Deem and Ramdas Pophale) SiO2 
 PCOD8201948
Probable space group: P N N N
;
_chemical_formula_sum "Si O2"
_cell_formula_units_Z 28
_cell_length_a 12.564668
_cell_length_b 5.246740
_cell_length_c 20.581511
_cell_angle_alpha 90.000000
_cell_angle_beta 90.000000
_cell_angle_gamma 90.000000
_cell_volume 1356.806191
_symmetry_space_group_name_H-M "P N N N"
_symmetry_group_IT_number 48
_space_group.IT_coordinate_system_code '2'
_symmetry_cell_setting 'orthorhombic'
loop_
_space_group_symop_operation_xyz
x,y,z
1/2-x,1/2-y,z
x,1/2-y,1/2-z
1/2-x,y,1/2-z
-x,-y,-z
1/2+x,1/2+y,-z
-x,1/2+y,1/2+z
1/2+x,-y,1/2+z
loop_
_atom_site_type_symbol
_atom_site_label
_atom_site_fract_x
_atom_site_fract_y
_atom_site_fract_z
Si Si1 0.948717 0.290667 0.885264
Si Si2 0.839504 0.576489 0.413845
Si Si3 0.482177 0.799491 0.676100
Si Si4 0.750000 0.250000 0.974875
O O1 0.847595 0.330010 0.930257
O O2 0.055111 0.247212 0.929171
O O3 0.955248 0.551271 0.846099
O O4 0.941599 0.048813 0.835122
O O5 0.750000 0.750000 0.378525
O O6 0.873185 0.344404 0.365630
O O7 0.789010 0.483473 0.481125
O O8 0.449585 0.750000 0.750000
#
# Coordination Sequence:
#
# PCOD8201948 Si02
#       4
#     8   8   8   4
#     4  10  25  42  71 100 132 184 219 281 341 393
#     4  10  24  40  70  99 135 180 217 282 338 397
#     4  10  23  48  68  97 136 176 229 277 333 403
#     4  12  24  44  66 106 140 172 232 276 342 404
#
# _framework density 20.636697999999999
#
# number of rings (size 3 to 8) (size 9 to 14) (size 15 to 20)
#    1.714    0.000    0.000    3.429    4.000    2.286 
#    0.000   15.000    0.000    0.000    0.000    0.000 
#    0.000    0.000    0.000    0.000    0.000    0.000 
#
# Total GULP energy -346914.008192 kJ/mol
# GULP energy per Si atom -12389.786007 kJ/mol
# Density = 2.058973 g / cm^3
# Si number density = 20.636698 Si / 1000 Ang^3
#
#
#
# Elastic Constant Matrix: (Units=GPa)
#
#
# Indices 1 2 3 4 5 6 
#
# 1 140.7272 45.4384 73.4814 0.0000 0.0000 0.0000
# 2 45.4384 158.1119 60.6991 0.0000 0.0000 0.0000
# 3 73.4814 60.6991 123.7773 0.0000 0.0000 0.0000
# 4 0.0000 0.0000 0.0000 -3.5727 0.0000 0.0000
# 5 0.0000 0.0000 0.0000 0.0000 22.2027 0.0000
# 6 0.0000 0.0000 0.0000 0.0000 0.0000 17.2468
#
#
#
# Elastic Compliance Matrix: (Units=1/GPa)
#
#
# Indices 1 2 3 4 5 6 
#
# 1 0.010372 -0.000760 -0.005785 0.000000 0.000000 0.000000
# 2 -0.000760 0.007847 -0.003397 0.000000 0.000000 0.000000
# 3 -0.005785 -0.003397 0.013179 0.000000 0.000000 0.000000
# 4 0.000000 0.000000 0.000000 -0.279901 0.000000 0.000000
# 5 0.000000 0.000000 0.000000 0.000000 0.045040 0.000000
# 6 0.000000 0.000000 0.000000 0.000000 0.000000 0.057982
#
#
# Mechanical properties :
#
#
# Convention : Reuss Voigt Hill
#
# Bulk Modulus (GPa) = 86.84519 86.87269 86.85894
# Shear Modulus (GPa) = -41.06421 23.37519 -8.84451
#
# Velocity S-wave (km/s) = -4.46563 3.36921 -2.07247
# Velocity P-wave (km/s) = 3.94780 7.57120 6.03772
#
# Compressibility (1/GPa) = 0.01151474
#
# Stress axis : x y z
#
# Youngs Moduli (GPa) = 96.41535 127.43492 75.87840
#
# Poissons Ratio (x) = 0.09684 0.43893
# Poissons Ratio (y) = 0.07327 0.25776
# Poissons Ratio (z) = 0.55773 0.43290
#
# Static dielectric constant tensor:
#      x y z
#    x 3.632180 0.000000 0.000000 
#    y 0.000000 3.822800 0.000000 
#    z 0.000000 0.000000 3.533170 
# 
# 
# High freq. dielectric constant tensor:
#      x y z
#    x 1.799310 0.000000 0.000000 
#    y 0.000000 1.823150 0.000000 
#    z 0.000000 0.000000 1.782270 
# 
# From -- ./inp_files/36076.got.cif
#   From: 2010.06.25/outbox.cif.g09.slc.cpg/sg48_19_cif.got.tgz:36076.got - 2010.06.26 18:06:46.
