data_PCOD8201366
_publ_section_title
;
Structure prediction by ZEFSAII (Michael W. Deem and Ramdas Pophale) SiO2 
 PCOD8201366
Probable space group: P N N N
;
_chemical_formula_sum "Si O2"
_cell_formula_units_Z 48
_cell_length_a 29.117820
_cell_length_b 16.709445
_cell_length_c 4.933181
_cell_angle_alpha 90.000000
_cell_angle_beta 90.000000
_cell_angle_gamma 90.000000
_cell_volume 2400.202768
_symmetry_space_group_name_H-M "P N N N"
_symmetry_group_IT_number 48
_space_group.IT_coordinate_system_code '2'
_symmetry_cell_setting 'orthorhombic'
loop_
_space_group_symop_operation_xyz
x,y,z
1/2-x,1/2-y,z
x,1/2-y,1/2-z
1/2-x,y,1/2-z
-x,-y,-z
1/2+x,1/2+y,-z
-x,1/2+y,1/2+z
1/2+x,-y,1/2+z
loop_
_atom_site_type_symbol
_atom_site_label
_atom_site_fract_x
_atom_site_fract_y
_atom_site_fract_z
Si Si1 0.400360 0.305437 0.012975
Si Si2 0.997223 0.195841 0.002712
Si Si3 0.697463 0.016457 0.189561
Si Si4 0.144275 0.834750 0.629598
Si Si5 0.591418 0.111161 0.637646
Si Si6 0.645157 0.963649 0.691180
O O1 0.383084 0.250000 0.250000
O O2 0.452158 0.338125 0.072489
O O3 0.367603 0.382169 0.036448
O O4 0.393778 0.250000 0.750000
O O5 0.977038 0.250000 0.250000
O O6 0.007453 0.250000 0.750000
O O7 0.962868 0.126507 0.902880
O O8 0.750000 0.996751 0.250000
O O9 0.688534 0.107468 0.080393
O O10 0.676442 0.012256 0.486232
O O11 0.673947 0.954414 0.973188
O O12 0.160893 0.750000 0.750000
O O13 0.115033 0.826465 0.350176
O O14 0.110983 0.877775 0.839374
O O15 0.600273 0.020282 0.744297
#
# Coordination Sequence:
#
# PCOD8201366 Si02
#       6
#     8   8   8   8   8   8
#     4  10  21  37  57  80 106 139 178 222 275 329
#     4  10  19  31  50  77 110 148 185 219 257 305
#     4  10  21  37  57  80 106 139 177 220 274 330
#     4  10  19  31  50  77 110 147 183 217 255 303
#     4  10  19  31  50  77 110 147 183 217 255 304
#     4  10  21  37  57  80 106 139 177 221 275 329
#
# _framework density 19.998311000000001
#
# number of rings (size 3 to 8) (size 9 to 14) (size 15 to 20)
#    0.000    2.000    0.000    4.500    0.000    1.000 
#    0.000    0.000    0.000   25.500    0.000    0.000 
#    0.000    0.000    0.000    0.000    0.000    0.000 
#
# Total GULP energy -594627.070024 kJ/mol
# GULP energy per Si atom -12388.063959 kJ/mol
# Density = 1.995279 g / cm^3
# Si number density = 19.998311 Si / 1000 Ang^3
#
#
#
# Elastic Constant Matrix: (Units=GPa)
#
#
# Indices 1 2 3 4 5 6 
#
# 1 78.8362 44.6022 15.9025 0.0000 0.0000 0.0000
# 2 44.6022 97.1636 21.9012 0.0000 0.0000 0.0000
# 3 15.9025 21.9012 103.9036 0.0000 0.0000 0.0000
# 4 0.0000 0.0000 0.0000 31.2582 0.0000 0.0000
# 5 0.0000 0.0000 0.0000 0.0000 29.3637 0.0000
# 6 0.0000 0.0000 0.0000 0.0000 0.0000 16.2002
#
#
#
# Elastic Compliance Matrix: (Units=1/GPa)
#
#
# Indices 1 2 3 4 5 6 
#
# 1 0.017237 -0.007683 -0.001019 0.000000 0.000000 0.000000
# 2 -0.007683 0.014230 -0.001824 0.000000 0.000000 0.000000
# 3 -0.001019 -0.001824 0.010165 0.000000 0.000000 0.000000
# 4 0.000000 0.000000 0.000000 0.031992 0.000000 0.000000
# 5 0.000000 0.000000 0.000000 0.000000 0.034056 0.000000
# 6 0.000000 0.000000 0.000000 0.000000 0.000000 0.061728
#
#
# Mechanical properties :
#
#
# Convention : Reuss Voigt Hill
#
# Bulk Modulus (GPa) = 48.58859 49.41281 49.00070
# Shear Modulus (GPa) = 25.34009 28.53092 26.93550
#
# Velocity S-wave (km/s) = 3.56351 3.78122 3.67398
# Velocity P-wave (km/s) = 6.42500 6.62009 6.52327
#
# Compressibility (1/GPa) = 0.02058096
#
# Stress axis : x y z
#
# Youngs Moduli (GPa) = 58.01623 70.27587 98.38079
#
# Poissons Ratio (x) = 0.53991 0.10022
# Poissons Ratio (y) = 0.44572 0.17940
# Poissons Ratio (z) = 0.05910 0.12815
#
# Static dielectric constant tensor:
#      x y z
#    x 3.538790 0.000000 0.000000 
#    y 0.000000 3.428990 0.000000 
#    z 0.000000 0.000000 3.765370 
# 
# 
# High freq. dielectric constant tensor:
#      x y z
#    x 1.754930 0.000000 0.000000 
#    y 0.000000 1.753980 0.000000 
#    z 0.000000 0.000000 1.804450 
# 
# From -- ./inp_files/6457.got.cif
#   From: 2010.06.25/outbox.cif.g09.slc.cpg/sg48_4_cif.got.tgz:6457.got - 2010.06.26 18:06:46.
