data_PCOD8201552
_publ_section_title
;
Structure prediction by ZEFSAII (Michael W. Deem and Ramdas Pophale) SiO2 
 PCOD8201552
Probable space group: P N N N
;
_chemical_formula_sum "Si O2"
_cell_formula_units_Z 40
_cell_length_a 16.618691
_cell_length_b 7.390310
_cell_length_c 14.363798
_cell_angle_alpha 90.000000
_cell_angle_beta 90.000000
_cell_angle_gamma 90.000000
_cell_volume 1764.122576
_symmetry_space_group_name_H-M "P N N N"
_symmetry_group_IT_number 48
_space_group.IT_coordinate_system_code '2'
_symmetry_cell_setting 'orthorhombic'
loop_
_space_group_symop_operation_xyz
x,y,z
1/2-x,1/2-y,z
x,1/2-y,1/2-z
1/2-x,y,1/2-z
-x,-y,-z
1/2+x,1/2+y,-z
-x,1/2+y,1/2+z
1/2+x,-y,1/2+z
loop_
_atom_site_type_symbol
_atom_site_label
_atom_site_fract_x
_atom_site_fract_y
_atom_site_fract_z
Si Si1 0.680660 0.883660 0.968040
Si Si2 0.588582 0.118444 0.828900
Si Si3 0.961015 0.654010 0.438777
Si Si4 0.440170 0.957465 0.744194
Si Si5 0.208846 0.443027 0.837342
O O1 0.750000 0.750000 0.931172
O O2 0.659098 0.013851 0.882370
O O3 0.603502 0.768198 0.001975
O O4 0.715323 0.007867 0.054767
O O5 0.626698 0.250000 0.750000
O O6 0.533747 0.220457 0.903937
O O7 0.533157 0.976935 0.771886
O O8 0.918226 0.545718 0.354748
O O9 0.000000 0.500000 0.500000
O O10 0.413783 0.750000 0.750000
O O11 0.386773 0.069458 0.818543
O O12 0.250000 0.250000 0.837134
O O13 0.250000 0.556305 0.750000
#
# Coordination Sequence:
#
# PCOD8201552 Si02
#       5
#     8   8   8   8   8
#     4  11  22  40  70  97 135 183 227 291 351 416
#     4  10  23  42  67  97 133 182 236 286 341 416
#     4  11  22  37  66  99 132 178 227 282 339 414
#     4  11  22  37  63  97 137 179 223 277 337 417
#     4  10  20  35  61  93 138 175 211 266 361 414
#
# _framework density 22.674164000000001
#
# number of rings (size 3 to 8) (size 9 to 14) (size 15 to 20)
#    0.000    1.400    2.000    5.400    5.600    0.400 
#    0.000    1.000    0.000   21.000    0.000    0.000 
#    0.000    0.000    0.000    0.000    0.000    0.000 
#
# Total GULP energy -495565.996966 kJ/mol
# GULP energy per Si atom -12389.149924 kJ/mol
# Density = 2.262256 g / cm^3
# Si number density = 22.674164 Si / 1000 Ang^3
#
#
#
# Elastic Constant Matrix: (Units=GPa)
#
#
# Indices 1 2 3 4 5 6 
#
# 1 91.6952 47.6548 67.5490 0.0000 0.0000 0.0000
# 2 47.6548 106.8216 63.2561 0.0000 0.0000 0.0000
# 3 67.5490 63.2561 139.7952 0.0000 0.0000 0.0000
# 4 0.0000 0.0000 0.0000 33.9121 0.0000 0.0000
# 5 0.0000 0.0000 0.0000 0.0000 44.5244 0.0000
# 6 0.0000 0.0000 0.0000 0.0000 0.0000 30.7885
#
#
#
# Elastic Compliance Matrix: (Units=1/GPa)
#
#
# Indices 1 2 3 4 5 6 
#
# 1 0.018076 -0.003950 -0.006947 0.000000 0.000000 0.000000
# 2 -0.003950 0.013651 -0.004268 0.000000 0.000000 0.000000
# 3 -0.006947 -0.004268 0.012441 0.000000 0.000000 0.000000
# 4 0.000000 0.000000 0.000000 0.029488 0.000000 0.000000
# 5 0.000000 0.000000 0.000000 0.000000 0.022460 0.000000
# 6 0.000000 0.000000 0.000000 0.000000 0.000000 0.032480
#
#
# Mechanical properties :
#
#
# Convention : Reuss Voigt Hill
#
# Bulk Modulus (GPa) = 72.26565 77.24797 74.75681
# Shear Modulus (GPa) = 30.57353 32.50180 31.53766
#
# Velocity S-wave (km/s) = 3.67602 3.79017 3.73353
# Velocity P-wave (km/s) = 7.06810 7.30045 7.18521
#
# Compressibility (1/GPa) = 0.01383783
#
# Stress axis : x y z
#
# Youngs Moduli (GPa) = 55.32084 73.25337 80.37653
#
# Poissons Ratio (x) = 0.28938 0.55837
# Poissons Ratio (y) = 0.21854 0.34307
# Poissons Ratio (z) = 0.38431 0.31266
#
# Static dielectric constant tensor:
#      x y z
#    x 4.066410 0.000000 0.000000 
#    y 0.000000 3.817930 0.000000 
#    z 0.000000 0.000000 6.536660 
# 
# 
# High freq. dielectric constant tensor:
#      x y z
#    x 1.884710 0.000000 0.000000 
#    y 0.000000 1.873170 0.000000 
#    z 0.000000 0.000000 1.904930 
# 
# From -- ./inp_files/27055.got.cif
#   From: 2010.06.25/outbox.cif.g09.slc.cpg/sg48_14_cif.got.tgz:27055.got - 2010.06.26 18:06:46.
