data_PCOD8201029
_publ_section_title
;
Structure prediction by ZEFSAII (Michael W. Deem and Ramdas Pophale) SiO2 
 PCOD8201029
Probable space group: P M M M
;
_chemical_formula_sum "Si O2"
_cell_formula_units_Z 40
_cell_length_a 24.190632
_cell_length_b 9.351839
_cell_length_c 10.290815
_cell_angle_alpha 90.000000
_cell_angle_beta 90.000000
_cell_angle_gamma 90.000000
_cell_volume 2328.059132
_symmetry_space_group_name_H-M "P M M M"
_symmetry_group_IT_number 47
_symmetry_cell_setting 'orthorhombic'
loop_
_space_group_symop_operation_xyz
x,y,z
-x,-y,z
x,-y,-z
-x,y,-z
-x,-y,-z
x,y,-z
-x,y,z
x,-y,z
loop_
_atom_site_type_symbol
_atom_site_label
_atom_site_fract_x
_atom_site_fract_y
_atom_site_fract_z
Si Si1 0.126130 0.829643 0.250035
Si Si2 0.238873 0.830212 0.644532
Si Si3 0.062914 0.170867 0.000000
Si Si4 0.435555 0.334396 0.853267
Si Si5 0.638329 0.168340 0.650406
Si Si6 0.938004 0.829492 0.500000
O O1 0.190221 0.776900 0.258532
O O2 0.096061 0.767435 0.123347
O O3 0.093133 0.770286 0.373763
O O4 0.124062 0.000000 0.247079
O O5 0.226472 0.770643 0.500000
O O6 0.299695 0.780217 0.690269
O O7 0.238569 0.000000 0.637481
O O8 0.000000 0.228570 0.000000
O O9 0.062229 0.000000 0.000000
O O10 0.500000 0.304507 0.833125
O O11 0.421877 0.500000 0.831508
O O12 0.403770 0.244612 0.745794
O O13 0.418190 0.288953 0.000000
O O14 0.626324 0.209356 0.500000
O O15 0.631582 0.000000 0.669775
O O16 0.000000 0.769034 0.500000
O O17 0.938109 0.000000 0.500000
#
# Coordination Sequence:
#
# PCOD8201029 Si02
#       6
#     8   8   4   8   8   4
#     4   9  14  21  31  42  62  95 133 175 218 258
#     4   8  13  24  39  54  76 107 142 180 222 266
#     4   9  16  22  26  38  64  94 128 177 228 262
#     4   9  19  36  54  71  95 127 160 193 231 277
#     4   9  18  31  48  72 100 126 156 197 239 279
#     4   9  14  18  28  44  58  84 134 181 210 248
#
# _framework density 17.181695000000001
#
# number of rings (size 3 to 8) (size 9 to 14) (size 15 to 20)
#    0.000    3.200    1.000    2.400    0.000    4.000 
#    1.800    3.000    0.000    0.000    0.000    0.000 
#    0.000    0.000    0.000    0.000    0.000    6.000 
#
# Total GULP energy -495657.986086 kJ/mol
# GULP energy per Si atom -12391.449652 kJ/mol
# Density = 1.714259 g / cm^3
# Si number density = 17.181695 Si / 1000 Ang^3
#
#
#
# Elastic Constant Matrix: (Units=GPa)
#
#
# Indices 1 2 3 4 5 6 
#
# 1 129.1647 33.9167 89.9320 0.0000 0.0000 0.0000
# 2 33.9167 21.2486 32.6901 0.0000 0.0000 0.0000
# 3 89.9320 32.6901 149.0259 0.0000 0.0000 0.0000
# 4 0.0000 0.0000 0.0000 16.5744 0.0000 0.0000
# 5 0.0000 0.0000 0.0000 0.0000 37.3690 0.0000
# 6 0.0000 0.0000 0.0000 0.0000 0.0000 -2.3481
#
#
#
# Elastic Compliance Matrix: (Units=1/GPa)
#
#
# Indices 1 2 3 4 5 6 
#
# 1 0.016504 -0.016635 -0.006311 0.000000 0.000000 0.000000
# 2 -0.016635 0.087800 -0.009221 0.000000 0.000000 0.000000
# 3 -0.006311 -0.009221 0.012541 0.000000 0.000000 0.000000
# 4 0.000000 0.000000 0.000000 0.060334 0.000000 0.000000
# 5 0.000000 0.000000 0.000000 0.000000 0.026760 0.000000
# 6 0.000000 0.000000 0.000000 0.000000 0.000000 -0.425884
#
#
# Mechanical properties :
#
#
# Convention : Reuss Voigt Hill
#
# Bulk Modulus (GPa) = 19.04312 68.05741 43.55026
# Shear Modulus (GPa) = -35.68680 19.84577 -7.92051
#
# Velocity S-wave (km/s) = -4.56238 3.40229 -2.14939
# Velocity P-wave (km/s) = 4.07999 7.42500 4.38658
#
# Compressibility (1/GPa) = 0.05251241
#
# Stress axis : x y z
#
# Youngs Moduli (GPa) = 60.59210 11.38948 79.73717
#
# Poissons Ratio (x) = 0.18946 0.50318
# Poissons Ratio (y) = 1.00792 0.73528
# Poissons Ratio (z) = 0.38237 0.10503
#
# Static dielectric constant tensor:
#      x y z
#    x 3.507850 0.000000 0.000000 
#    y 0.000000 2.507130 0.000000 
#    z 0.000000 0.000000 3.307570 
# 
# 
# High freq. dielectric constant tensor:
#      x y z
#    x 1.679750 0.000000 0.000000 
#    y 0.000000 1.586270 0.000000 
#    z 0.000000 0.000000 1.663920 
# 
# From -- ./inp_files/1895.got.cif
#   From: 2010.03.12/outbox.cif.g09.slc.cpg/sg47_1_cif.got.tgz:1895.got - 2010.04.14 03:12:58.
