data_PCOD8201212
_publ_section_title
;
Structure prediction by ZEFSAII (Michael W. Deem and Ramdas Pophale) SiO2 
 PCOD8201212
Probable space group: P M M M
;
_chemical_formula_sum "Si O2"
_cell_formula_units_Z 32
_cell_length_a 7.969022
_cell_length_b 12.758546
_cell_length_c 19.516969
_cell_angle_alpha 90.000000
_cell_angle_beta 90.000000
_cell_angle_gamma 90.000000
_cell_volume 1984.351400
_symmetry_space_group_name_H-M "P M M M"
_symmetry_group_IT_number 47
_symmetry_cell_setting 'orthorhombic'
loop_
_space_group_symop_operation_xyz
x,y,z
-x,-y,z
x,-y,-z
-x,y,-z
-x,-y,-z
x,y,-z
-x,y,z
x,-y,z
loop_
_atom_site_type_symbol
_atom_site_label
_atom_site_fract_x
_atom_site_fract_y
_atom_site_fract_z
Si Si1 0.198866 0.619493 0.688324
Si Si2 0.805179 0.778284 0.423935
Si Si3 0.686230 0.624381 0.163824
Si Si4 0.000000 0.374825 0.077652
Si Si5 0.688657 0.000000 0.418843
O O1 0.250593 0.500000 0.672163
O O2 0.271645 0.691441 0.627024
O O3 0.281712 0.660474 0.758367
O O4 0.000000 0.630079 0.696578
O O5 0.721772 0.768106 0.500000
O O6 0.777114 0.894179 0.392017
O O7 0.000000 0.756435 0.430974
O O8 0.500000 0.663184 0.140663
O O9 0.695600 0.500000 0.160718
O O10 0.831769 0.669980 0.114344
O O11 0.000000 0.500000 0.080519
O O12 0.000000 0.333638 0.000000
O O13 0.500000 0.000000 0.391670
O O14 0.701305 0.000000 0.500000
#
# Coordination Sequence:
#
# PCOD8201212 Si02
#       5
#     8   8   8   4   4
#     4   9  16  27  42  59  84 116 146 178 218 261
#     4   9  17  28  43  62  82 108 144 183 221 262
#     4   9  16  26  40  57  80 112 145 175 212 257
#     4   9  16  26  40  58  81 108 141 180 213 246
#     4   9  17  29  43  57  77 105 137 178 227 270
#
# _framework density 16.126175
#
# number of rings (size 3 to 8) (size 9 to 14) (size 15 to 20)
#    0.000    3.000    1.250    0.375    0.000    3.500 
#    0.000    5.000    0.000    0.000    0.000    7.000 
#    0.000    0.000    0.000    2.250    0.000    6.250 
#
# Total GULP energy -396563.596853 kJ/mol
# GULP energy per Si atom -12392.612402 kJ/mol
# Density = 1.608947 g / cm^3
# Si number density = 16.126175 Si / 1000 Ang^3
#
#
#
# Elastic Constant Matrix: (Units=GPa)
#
#
# Indices 1 2 3 4 5 6 
#
# 1 79.0326 17.9275 49.8719 0.0000 0.0000 0.0000
# 2 17.9275 61.8067 48.1451 0.0000 0.0000 0.0000
# 3 49.8719 48.1451 110.0186 0.0000 0.0000 0.0000
# 4 0.0000 0.0000 0.0000 2.3842 0.0000 0.0000
# 5 0.0000 0.0000 0.0000 0.0000 11.7553 0.0000
# 6 0.0000 0.0000 0.0000 0.0000 0.0000 7.8380
#
#
#
# Elastic Compliance Matrix: (Units=1/GPa)
#
#
# Indices 1 2 3 4 5 6 
#
# 1 0.017840 0.001707 -0.008834 0.000000 0.000000 0.000000
# 2 0.001707 0.024710 -0.011587 0.000000 0.000000 0.000000
# 3 -0.008834 -0.011587 0.018164 0.000000 0.000000 0.000000
# 4 0.000000 0.000000 0.000000 0.419423 0.000000 0.000000
# 5 0.000000 0.000000 0.000000 0.000000 0.085068 0.000000
# 6 0.000000 0.000000 0.000000 0.000000 0.000000 0.127583
#
#
# Mechanical properties :
#
#
# Convention : Reuss Voigt Hill
#
# Bulk Modulus (GPa) = 42.94373 53.63854 48.29113
# Shear Modulus (GPa) = 6.77526 13.38975 10.08251
#
# Velocity S-wave (km/s) = 2.05196 2.88464 2.50316
# Velocity P-wave (km/s) = 5.68346 6.66550 6.19397
#
# Compressibility (1/GPa) = 0.02328629
#
# Stress axis : x y z
#
# Youngs Moduli (GPa) = 56.05273 40.46893 55.05278
#
# Poissons Ratio (x) = -0.06906 0.48633
# Poissons Ratio (y) = -0.09566 0.63790
# Poissons Ratio (z) = 0.49516 0.46891
#
# Static dielectric constant tensor:
#      x y z
#    x 3.145940 0.000000 0.000000 
#    y 0.000000 2.822590 0.000000 
#    z 0.000000 0.000000 3.127430 
# 
# 
# High freq. dielectric constant tensor:
#      x y z
#    x 1.625190 0.000000 0.000000 
#    y 0.000000 1.566530 0.000000 
#    z 0.000000 0.000000 1.601210 
# 
# From -- ./inp_files/5415.got.cif
#   From: 2010.03.12/outbox.cif.g09.slc.cpg/sg47_3_cif.got.tgz:5415.got - 2010.04.14 03:12:58.
