data_PCOD8201519
_publ_section_title
;
Structure prediction by ZEFSAII (Michael W. Deem and Ramdas Pophale) SiO2 
 PCOD8201519
Probable space group: P N N N
;
_chemical_formula_sum "Si O2"
_cell_formula_units_Z 64
_cell_length_a 31.724198
_cell_length_b 12.301887
_cell_length_c 8.606721
_cell_angle_alpha 90.000000
_cell_angle_beta 90.000000
_cell_angle_gamma 90.000000
_cell_volume 3358.923479
_symmetry_space_group_name_H-M "P N N N"
_symmetry_group_IT_number 48
_space_group.IT_coordinate_system_code '2'
_symmetry_cell_setting 'orthorhombic'
loop_
_space_group_symop_operation_xyz
x,y,z
1/2-x,1/2-y,z
x,1/2-y,1/2-z
1/2-x,y,1/2-z
-x,-y,-z
1/2+x,1/2+y,-z
-x,1/2+y,1/2+z
1/2+x,-y,1/2+z
loop_
_atom_site_type_symbol
_atom_site_label
_atom_site_fract_x
_atom_site_fract_y
_atom_site_fract_z
Si Si1 0.087309 0.980581 0.583385
Si Si2 0.335022 0.015602 0.433106
Si Si3 0.116801 0.848085 0.862685
Si Si4 0.385067 0.274566 0.087782
Si Si5 0.053003 0.777694 0.430555
Si Si6 0.667726 0.931233 0.915190
Si Si7 0.751814 0.875262 0.066108
Si Si8 0.538518 0.806119 0.091666
O O1 0.094667 0.936224 0.755012
O O2 0.073859 0.894797 0.453820
O O3 0.132179 0.023992 0.528029
O O4 0.049562 0.066937 0.597847
O O5 0.347488 0.904687 0.526527
O O6 0.372338 0.102747 0.449012
O O7 0.329370 0.001107 0.246759
O O8 0.293152 0.064506 0.507132
O O9 0.134970 0.750000 0.750000
O O10 0.079260 0.809264 0.972579
O O11 0.409144 0.250000 0.250000
O O12 0.343748 0.196745 0.099899
O O13 0.419429 0.253528 0.959576
O O14 0.055961 0.750000 0.250000
O O15 0.005251 0.785754 0.501364
O O16 0.712764 0.941885 0.996353
O O17 0.750000 0.750000 0.009996
O O18 0.750000 0.881703 0.250000
O O19 0.526263 0.750000 0.250000
#
# Coordination Sequence:
#
# PCOD8201519 Si02
#       8
#     8   8   8   8   8   8   8   8
#     4  10  20  37  58  79 110 146 189 236 292 338
#     4  11  20  36  58  81 118 157 188 231 284 337
#     4  10  22  38  58  82 108 150 197 240 284 340
#     4   9  19  32  51  81 117 150 185 225 281 344
#     4  10  21  38  56  79 108 146 194 241 281 334
#     4  10  20  35  56  86 116 152 188 230 283 348
#     4  11  22  34  55  89 125 155 184 225 280 348
#     4  10  20  34  54  81 111 143 185 237 288 341
#
# _framework density 19.053725
#
# number of rings (size 3 to 8) (size 9 to 14) (size 15 to 20)
#    0.000    1.875    1.250    3.000    0.000    3.000 
#    0.000    6.875    0.000    8.625    0.000   11.375 
#    0.000    0.000    0.000    0.000    0.000    0.000 
#
# Total GULP energy -792954.233637 kJ/mol
# GULP energy per Si atom -12389.909901 kJ/mol
# Density = 1.901036 g / cm^3
# Si number density = 19.053725 Si / 1000 Ang^3
#
#
#
# Elastic Constant Matrix: (Units=GPa)
#
#
# Indices 1 2 3 4 5 6 
#
# 1 118.5619 51.8724 51.0726 0.0000 0.0000 0.0000
# 2 51.8724 95.6759 49.4290 0.0000 0.0000 0.0000
# 3 51.0726 49.4290 104.4559 0.0000 0.0000 0.0000
# 4 0.0000 0.0000 0.0000 32.1692 0.0000 0.0000
# 5 0.0000 0.0000 0.0000 0.0000 26.1879 0.0000
# 6 0.0000 0.0000 0.0000 0.0000 0.0000 30.4767
#
#
#
# Elastic Compliance Matrix: (Units=1/GPa)
#
#
# Indices 1 2 3 4 5 6 
#
# 1 0.012052 -0.004619 -0.003707 0.000000 0.000000 0.000000
# 2 -0.004619 0.015604 -0.005126 0.000000 0.000000 0.000000
# 3 -0.003707 -0.005126 0.013811 0.000000 0.000000 0.000000
# 4 0.000000 0.000000 0.000000 0.031086 0.000000 0.000000
# 5 0.000000 0.000000 0.000000 0.000000 0.038186 0.000000
# 6 0.000000 0.000000 0.000000 0.000000 0.000000 0.032812
#
#
# Mechanical properties :
#
#
# Convention : Reuss Voigt Hill
#
# Bulk Modulus (GPa) = 68.66023 69.27129 68.96576
# Shear Modulus (GPa) = 28.52101 28.85473 28.68787
#
# Velocity S-wave (km/s) = 3.87314 3.89574 3.88446
# Velocity P-wave (km/s) = 7.49099 7.52797 7.50950
#
# Compressibility (1/GPa) = 0.01456447
#
# Stress axis : x y z
#
# Youngs Moduli (GPa) = 82.97227 64.08479 72.40430
#
# Poissons Ratio (x) = 0.29602 0.26840
# Poissons Ratio (y) = 0.38326 0.37111
# Poissons Ratio (z) = 0.30758 0.32847
#
# Static dielectric constant tensor:
#      x y z
#    x 3.456670 0.000000 0.000000 
#    y 0.000000 3.547120 0.000000 
#    z 0.000000 0.000000 3.546850 
# 
# 
# High freq. dielectric constant tensor:
#      x y z
#    x 1.742550 0.000000 0.000000 
#    y 0.000000 1.728860 0.000000 
#    z 0.000000 0.000000 1.750940 
# 
# From -- ./inp_files/11575.got.cif
#   From: 2010.06.25/outbox.cif.g09.slc.cpg/sg48_6_cif.got.tgz:11575.got - 2010.06.26 18:06:46.
