data_PCOD8201188
_publ_section_title
;
Structure prediction by ZEFSAII (Michael W. Deem and Ramdas Pophale) SiO2 
 PCOD8201188
Probable space group: P M M M
;
_chemical_formula_sum "Si O2"
_cell_formula_units_Z 40
_cell_length_a 26.103326
_cell_length_b 9.117904
_cell_length_c 9.142008
_cell_angle_alpha 90.000000
_cell_angle_beta 90.000000
_cell_angle_gamma 90.000000
_cell_volume 2175.867571
_symmetry_space_group_name_H-M "P M M M"
_symmetry_group_IT_number 47
_symmetry_cell_setting 'orthorhombic'
loop_
_space_group_symop_operation_xyz
x,y,z
-x,-y,z
x,-y,-z
-x,y,-z
-x,-y,-z
x,y,-z
-x,y,z
x,-y,z
loop_
_atom_site_type_symbol
_atom_site_label
_atom_site_fract_x
_atom_site_fract_y
_atom_site_fract_z
Si Si1 0.000000 0.165841 0.325622
Si Si2 0.699827 0.329155 0.670230
Si Si3 0.900140 0.665832 0.325506
Si Si4 0.500000 0.324959 0.665396
Si Si5 0.199197 0.165490 0.325825
Si Si6 0.400862 0.674629 0.165073
O O1 0.050105 0.249102 0.265796
O O2 0.000000 0.165355 0.500000
O O3 0.000000 0.000000 0.265326
O O4 0.689846 0.298628 0.500000
O O5 0.709676 0.500000 0.699626
O O6 0.749104 0.242647 0.730121
O O7 0.650714 0.269194 0.757329
O O8 0.899908 0.666027 0.500000
O O9 0.901058 0.500000 0.265570
O O10 0.849672 0.746570 0.264053
O O11 0.500000 0.500000 0.666163
O O12 0.500000 0.265089 0.500000
O O13 0.449858 0.263626 0.747723
O O14 0.197928 0.167335 0.500000
O O15 0.197289 0.000000 0.265534
O O16 0.402074 0.500000 0.166788
O O17 0.402581 0.735151 0.000000
#
# Coordination Sequence:
#
# PCOD8201188 Si02
#       6
#     4   8   8   4   8   8
#     4   9  15  21  29  43  67 101 140 179 218 263
#     4   9  16  26  40  58  80 107 140 177 216 259
#     4   9  15  22  32  47  69  99 136 177 220 265
#     4   9  15  23  37  59  88 119 148 179 216 258
#     4   9  16  25  37  53  73  99 134 176 219 262
#     4   9  16  25  38  58  85 115 145 178 217 260
#
# _framework density 18.383472000000001
#
# number of rings (size 3 to 8) (size 9 to 14) (size 15 to 20)
#    0.000    3.000    0.000    2.400    0.000    9.600 
#    0.000    0.000    0.000    0.600    0.000    0.700 
#    0.000    5.600    0.000    0.900    0.000   19.600 
#
# Total GULP energy -495942.967494 kJ/mol
# GULP energy per Si atom -12398.574187 kJ/mol
# Density = 1.834163 g / cm^3
# Si number density = 18.383472 Si / 1000 Ang^3
#
#
#
# Elastic Constant Matrix: (Units=GPa)
#
#
# Indices 1 2 3 4 5 6 
#
# 1 217.6957 79.0434 54.1055 0.0000 0.0000 0.0000
# 2 79.0434 103.9801 23.3908 0.0000 0.0000 0.0000
# 3 54.1055 23.3908 58.9404 0.0000 0.0000 0.0000
# 4 0.0000 0.0000 0.0000 3.8492 0.0000 0.0000
# 5 0.0000 0.0000 0.0000 0.0000 3.0972 0.0000
# 6 0.0000 0.0000 0.0000 0.0000 0.0000 9.7051
#
#
#
# Elastic Compliance Matrix: (Units=1/GPa)
#
#
# Indices 1 2 3 4 5 6 
#
# 1 0.007517 -0.004570 -0.005087 0.000000 0.000000 0.000000
# 2 -0.004570 0.013338 -0.001098 0.000000 0.000000 0.000000
# 3 -0.005087 -0.001098 0.022072 0.000000 0.000000 0.000000
# 4 0.000000 0.000000 0.000000 0.259797 0.000000 0.000000
# 5 0.000000 0.000000 0.000000 0.000000 0.322871 0.000000
# 6 0.000000 0.000000 0.000000 0.000000 0.000000 0.103039
#
#
# Mechanical properties :
#
#
# Convention : Reuss Voigt Hill
#
# Bulk Modulus (GPa) = 46.69203 77.07730 61.88466
# Shear Modulus (GPa) = 6.60255 18.26872 12.43563
#
# Velocity S-wave (km/s) = 1.89720 3.15581 2.60370
# Velocity P-wave (km/s) = 5.50029 7.43622 6.54028
#
# Compressibility (1/GPa) = 0.02141693
#
# Stress axis : x y z
#
# Youngs Moduli (GPa) = 133.02785 74.97172 45.30677
#
# Poissons Ratio (x) = 0.34263 0.23047
# Poissons Ratio (y) = 0.60795 0.04976
# Poissons Ratio (z) = 0.67670 0.08233
#
# Static dielectric constant tensor:
#      x y z
#    x 3.662790 0.000000 0.000000 
#    y 0.000000 3.176130 0.000000 
#    z 0.000000 0.000000 2.875520 
# 
# 
# High freq. dielectric constant tensor:
#      x y z
#    x 1.734980 0.000000 0.000000 
#    y 0.000000 1.683610 0.000000 
#    z 0.000000 0.000000 1.651820 
# 
# From -- ./inp_files/13003.got.cif
#   From: 2010.03.12/outbox.cif.g09.slc.cpg/sg47_7_cif.got.tgz:13003.got - 2010.04.14 03:12:58.
