data_PCOD8201549
_publ_section_title
;
Structure prediction by ZEFSAII (Michael W. Deem and Ramdas Pophale) SiO2 
 PCOD8201549
Probable space group: P N N N
;
_chemical_formula_sum "Si O2"
_cell_formula_units_Z 60
_cell_length_a 11.989626
_cell_length_b 18.101113
_cell_length_c 13.603177
_cell_angle_alpha 90.000000
_cell_angle_beta 90.000000
_cell_angle_gamma 90.000000
_cell_volume 2952.237311
_symmetry_space_group_name_H-M "P N N N"
_symmetry_group_IT_number 48
_space_group.IT_coordinate_system_code '2'
_symmetry_cell_setting 'orthorhombic'
loop_
_space_group_symop_operation_xyz
x,y,z
1/2-x,1/2-y,z
x,1/2-y,1/2-z
1/2-x,y,1/2-z
-x,-y,-z
1/2+x,1/2+y,-z
-x,1/2+y,1/2+z
1/2+x,-y,1/2+z
loop_
_atom_site_type_symbol
_atom_site_label
_atom_site_fract_x
_atom_site_fract_y
_atom_site_fract_z
Si Si1 0.750000 0.750000 0.554151
Si Si2 0.503394 0.537453 0.860565
Si Si3 0.946816 0.714267 0.408563
Si Si4 0.129371 0.344475 0.777965
Si Si5 0.111264 0.901400 0.039880
Si Si6 0.942956 0.991298 0.347587
Si Si7 0.267139 0.099472 0.361401
Si Si8 0.658271 0.036309 0.956309
O O1 0.851423 0.718830 0.490144
O O2 0.784660 0.818899 0.622607
O O3 0.548483 0.455196 0.883199
O O4 0.462084 0.541998 0.747926
O O5 0.600725 0.597213 0.880833
O O6 0.403351 0.562786 0.931465
O O7 0.928409 0.649968 0.328121
O O8 0.944076 0.792508 0.351133
O O9 0.063900 0.683610 0.454995
O O10 0.250000 0.310691 0.750000
O O11 0.142723 0.425316 0.823795
O O12 0.244975 0.902245 0.059909
O O13 0.891272 0.041733 0.433345
O O14 0.058221 0.951102 0.379631
O O15 0.250000 0.072451 0.250000
O O16 0.205712 0.045699 0.437740
#
# Coordination Sequence:
#
# PCOD8201549 Si02
#       8
#     4   8   8   8   8   8   8   8
#     4  12  21  33  56  86 122 154 194 255 315 386
#     4  10  20  35  60  85 120 156 205 248 312 370
#     4  11  20  37  54  88 124 152 198 247 315 384
#     4  11  22  34  59  89 122 158 194 256 324 375
#     4  10  21  36  58  87 120 167 202 250 308 386
#     4  11  22  39  58  90 123 163 212 269 312 379
#     4  11  21  37  56  85 119 159 201 253 316 378
#     4  10  24  38  59  86 124 165 207 260 324 362
#
# _framework density 20.32357
#
# number of rings (size 3 to 8) (size 9 to 14) (size 15 to 20)
#    0.000    1.333    5.333    1.400    1.867    0.000 
#    0.000    0.667    0.000    1.600    0.000    0.000 
#    0.000    0.000    0.000    0.000    0.000    0.000 
#
# Total GULP energy -743462.009976 kJ/mol
# GULP energy per Si atom -12391.033500 kJ/mol
# Density = 2.027731 g / cm^3
# Si number density = 20.323570 Si / 1000 Ang^3
#
#
#
# Elastic Constant Matrix: (Units=GPa)
#
#
# Indices 1 2 3 4 5 6 
#
# 1 90.9588 29.4243 20.5313 0.0000 0.0000 0.0000
# 2 29.4243 72.9190 14.1750 0.0000 0.0000 0.0000
# 3 20.5313 14.1750 108.2364 0.0000 0.0000 0.0000
# 4 0.0000 0.0000 0.0000 -7.2109 0.0000 0.0000
# 5 0.0000 0.0000 0.0000 0.0000 23.8431 0.0000
# 6 0.0000 0.0000 0.0000 0.0000 0.0000 28.9281
#
#
#
# Elastic Compliance Matrix: (Units=1/GPa)
#
#
# Indices 1 2 3 4 5 6 
#
# 1 0.012986 -0.004886 -0.001823 0.000000 0.000000 0.000000
# 2 -0.004886 0.015910 -0.001157 0.000000 0.000000 0.000000
# 3 -0.001823 -0.001157 0.009736 0.000000 0.000000 0.000000
# 4 0.000000 0.000000 0.000000 -0.138680 0.000000 0.000000
# 5 0.000000 0.000000 0.000000 0.000000 0.041941 0.000000
# 6 0.000000 0.000000 0.000000 0.000000 0.000000 0.034568
#
#
# Mechanical properties :
#
#
# Convention : Reuss Voigt Hill
#
# Bulk Modulus (GPa) = 43.66691 44.48615 44.07653
# Shear Modulus (GPa) = -29057.00084 22.97764 -14517.01160
#
# Velocity S-wave (km/s) = -119.70059 3.36607 -84.60763
# Velocity P-wave (km/s) = 138.14042 6.08636 97.58517
#
# Compressibility (1/GPa) = 0.02290064
#
# Stress axis : x y z
#
# Youngs Moduli (GPa) = 77.00570 62.85270 102.70695
#
# Poissons Ratio (x) = 0.30708 0.18728
# Poissons Ratio (y) = 0.37622 0.11882
# Poissons Ratio (z) = 0.14042 0.07271
#
# Static dielectric constant tensor:
#      x y z
#    x 3.635500 0.000000 0.000000 
#    y 0.000000 3.333310 0.000000 
#    z 0.000000 0.000000 3.782040 
# 
# 
# High freq. dielectric constant tensor:
#      x y z
#    x 1.778520 0.000000 0.000000 
#    y 0.000000 1.761980 0.000000 
#    z 0.000000 0.000000 1.806850 
# 
# From -- ./inp_files/26789.got.cif
#   From: 2010.06.25/outbox.cif.g09.slc.cpg/sg48_14_cif.got.tgz:26789.got - 2010.06.26 18:06:46.
