data_PCOD8201858
_publ_section_title
;
Structure prediction by ZEFSAII (Michael W. Deem and Ramdas Pophale) SiO2 
 PCOD8201858
Probable space group: P N N N
;
_chemical_formula_sum "Si O2"
_cell_formula_units_Z 48
_cell_length_a 25.759978
_cell_length_b 8.436899
_cell_length_c 9.430421
_cell_angle_alpha 90.000000
_cell_angle_beta 90.000000
_cell_angle_gamma 90.000000
_cell_volume 2049.554254
_symmetry_space_group_name_H-M "P N N N"
_symmetry_group_IT_number 48
_space_group.IT_coordinate_system_code '2'
_symmetry_cell_setting 'orthorhombic'
loop_
_space_group_symop_operation_xyz
x,y,z
1/2-x,1/2-y,z
x,1/2-y,1/2-z
1/2-x,y,1/2-z
-x,-y,-z
1/2+x,1/2+y,-z
-x,1/2+y,1/2+z
1/2+x,-y,1/2+z
loop_
_atom_site_type_symbol
_atom_site_label
_atom_site_fract_x
_atom_site_fract_y
_atom_site_fract_z
Si Si1 0.876398 0.093338 0.973094
Si Si2 0.648680 0.927051 0.239470
Si Si3 0.523746 0.266253 0.588489
Si Si4 0.074041 0.093938 0.487980
Si Si5 0.299007 0.636874 0.526811
Si Si6 0.168244 0.413292 0.204943
O O1 0.938196 0.122839 0.957224
O O2 0.851056 0.264367 0.000107
O O3 0.850374 0.021830 0.833665
O O4 0.866425 0.978101 0.103279
O O5 0.671416 0.750000 0.250000
O O6 0.596890 0.934718 0.144935
O O7 0.693500 0.039992 0.173404
O O8 0.506844 0.250000 0.750000
O O9 0.470899 0.270900 0.494703
O O10 0.552275 0.432492 0.573487
O O11 0.119321 0.152987 0.384922
O O12 0.250000 0.750000 0.539605
O O13 0.292717 0.515004 0.394688
O O14 0.197078 0.250000 0.250000
#
# Coordination Sequence:
#
# PCOD8201858 Si02
#       6
#     8   8   8   8   8   8
#     4  12  22  42  72  98 136 186 236 291 344 420
#     4  11  24  45  68 102 145 182 227 296 361 415
#     4  11  20  39  64 101 140 189 247 290 325 416
#     4  10  22  40  63  97 147 188 236 285 345 408
#     4  11  25  47  72 102 133 180 234 283 356 443
#     4  11  23  45  69 104 143 181 230 298 360 410
#
# _framework density 23.419727000000002
#
# number of rings (size 3 to 8) (size 9 to 14) (size 15 to 20)
#    0.000    1.000    5.000    3.500    0.000    2.667 
#    6.000    7.500    0.000    0.000    0.000    0.000 
#    0.000    0.000    0.000    0.000    0.000    0.000 
#
# Total GULP energy -595241.242927 kJ/mol
# GULP energy per Si atom -12400.859228 kJ/mol
# Density = 2.336642 g / cm^3
# Si number density = 23.419727 Si / 1000 Ang^3
#
#
#
# Elastic Constant Matrix: (Units=GPa)
#
#
# Indices 1 2 3 4 5 6 
#
# 1 100.6795 42.7365 32.4578 0.0000 0.0000 0.0000
# 2 42.7365 121.6773 37.4078 0.0000 0.0000 0.0000
# 3 32.4578 37.4078 129.4074 0.0000 0.0000 0.0000
# 4 0.0000 0.0000 0.0000 49.1114 0.0000 0.0000
# 5 0.0000 0.0000 0.0000 0.0000 15.3877 0.0000
# 6 0.0000 0.0000 0.0000 0.0000 0.0000 17.8717
#
#
#
# Elastic Compliance Matrix: (Units=1/GPa)
#
#
# Indices 1 2 3 4 5 6 
#
# 1 0.012121 -0.003647 -0.001986 0.000000 0.000000 0.000000
# 2 -0.003647 0.010117 -0.002010 0.000000 0.000000 0.000000
# 3 -0.001986 -0.002010 0.008807 0.000000 0.000000 0.000000
# 4 0.000000 0.000000 0.000000 0.020362 0.000000 0.000000
# 5 0.000000 0.000000 0.000000 0.000000 0.064987 0.000000
# 6 0.000000 0.000000 0.000000 0.000000 0.000000 0.055954
#
#
# Mechanical properties :
#
#
# Convention : Reuss Voigt Hill
#
# Bulk Modulus (GPa) = 63.45368 64.10760 63.78064
# Shear Modulus (GPa) = 25.92206 32.41830 29.17018
#
# Velocity S-wave (km/s) = 3.33054 3.72456 3.53305
# Velocity P-wave (km/s) = 6.47634 6.77711 6.62843
#
# Compressibility (1/GPa) = 0.01575953
#
# Stress axis : x y z
#
# Youngs Moduli (GPa) = 82.50375 98.84195 113.55031
#
# Poissons Ratio (x) = 0.36043 0.22551
# Poissons Ratio (y) = 0.30085 0.22823
# Poissons Ratio (z) = 0.16385 0.19867
#
# Static dielectric constant tensor:
#      x y z
#    x 4.169150 0.000000 0.000000 
#    y 0.000000 4.265070 0.000000 
#    z 0.000000 0.000000 4.485780 
# 
# 
# High freq. dielectric constant tensor:
#      x y z
#    x 1.914990 0.000000 0.000000 
#    y 0.000000 1.936180 0.000000 
#    z 0.000000 0.000000 1.936290 
# 
# From -- ./inp_files/16786.got.cif
#   From: 2010.06.25/outbox.cif.g09.slc.cpg/sg48_9_cif.got.tgz:16786.got - 2010.06.26 18:06:46.
