data_PCOD8201114
_publ_section_title
;
Structure prediction by ZEFSAII (Michael W. Deem and Ramdas Pophale) SiO2 
 PCOD8201114
Probable space group: P M M M
;
_chemical_formula_sum "Si O2"
_cell_formula_units_Z 64
_cell_length_a 28.633598
_cell_length_b 13.814334
_cell_length_c 9.807521
_cell_angle_alpha 90.000000
_cell_angle_beta 90.000000
_cell_angle_gamma 90.000000
_cell_volume 3879.405009
_symmetry_space_group_name_H-M "P M M M"
_symmetry_group_IT_number 47
_symmetry_cell_setting 'orthorhombic'
loop_
_space_group_symop_operation_xyz
x,y,z
-x,-y,z
x,-y,-z
-x,y,-z
-x,-y,-z
x,y,-z
-x,y,z
x,-y,z
loop_
_atom_site_type_symbol
_atom_site_label
_atom_site_fract_x
_atom_site_fract_y
_atom_site_fract_z
Si Si1 0.685511 0.232142 0.656972
Si Si2 0.552258 0.735005 0.155348
Si Si3 0.052572 0.772995 0.842231
Si Si4 0.405967 0.111636 0.656843
Si Si5 0.944637 0.606077 0.349358
Si Si6 0.359051 0.612274 0.840780
Si Si7 0.858631 0.113574 0.151344
Si Si8 0.223625 0.887982 0.658330
O O1 0.686531 0.266885 0.500000
O O2 0.645742 0.152403 0.680542
O O3 0.677866 0.326012 0.752194
O O4 0.733109 0.179319 0.699485
O O5 0.500000 0.693469 0.176371
O O6 0.558167 0.828731 0.250499
O O7 0.588651 0.649965 0.192895
O O8 0.560132 0.769057 0.000000
O O9 0.073228 0.680822 0.762752
O O10 0.088408 0.858745 0.808062
O O11 0.000000 0.802433 0.794374
O O12 0.051974 0.745254 0.000000
O O13 0.421381 0.123077 0.500000
O O14 0.406729 0.000000 0.702016
O O15 0.928082 0.639103 0.500000
O O16 0.923857 0.500000 0.315635
O O17 0.000000 0.600771 0.344720
O O18 0.355993 0.500000 0.797929
O O19 0.347098 0.625827 0.000000
O O20 0.820528 0.153193 0.257582
O O21 0.856865 0.000000 0.153266
O O22 0.846751 0.153748 0.000000
O O23 0.211289 0.877865 0.500000
O O24 0.235125 0.000000 0.694356
#
# Coordination Sequence:
#
# PCOD8201114 Si02
#       8
#     8   8   8   8   8   8   8   8
#     4   9  17  30  49  71  92 114 143 181 224 270
#     4   9  18  31  45  63  89 121 156 191 225 262
#     4   9  17  28  43  64  89 119 154 188 221 258
#     4   9  17  29  45  65  90 119 149 182 222 269
#     4   8  14  25  41  61  84 109 138 175 220 264
#     4   9  18  32  49  69  92 118 150 188 228 268
#     4   9  18  31  45  64  92 123 153 184 218 258
#     4   9  17  30  49  71  93 117 145 178 219 267
#
# _framework density 16.497375000000002
#
# number of rings (size 3 to 8) (size 9 to 14) (size 15 to 20)
#    0.000    3.125    0.000    0.750    0.000    4.250 
#    0.000    5.000    0.000    3.000    0.000    7.000 
#    0.000    0.000    0.000    0.000    0.000    0.000 
#
# Total GULP energy -793306.389712 kJ/mol
# GULP energy per Si atom -12395.412339 kJ/mol
# Density = 1.645983 g / cm^3
# Si number density = 16.497375 Si / 1000 Ang^3
#
#
#
# Elastic Constant Matrix: (Units=GPa)
#
#
# Indices 1 2 3 4 5 6 
#
# 1 98.8581 43.3943 49.5325 0.0000 0.0000 0.0000
# 2 43.3943 82.4704 44.7049 0.0000 0.0000 0.0000
# 3 49.5325 44.7049 63.5781 0.0000 0.0000 0.0000
# 4 0.0000 0.0000 0.0000 27.7516 0.0000 0.0000
# 5 0.0000 0.0000 0.0000 0.0000 24.9052 0.0000
# 6 0.0000 0.0000 0.0000 0.0000 0.0000 18.8796
#
#
#
# Elastic Compliance Matrix: (Units=1/GPa)
#
#
# Indices 1 2 3 4 5 6 
#
# 1 0.016998 -0.002853 -0.011237 0.000000 0.000000 0.000000
# 2 -0.002853 0.020073 -0.011892 0.000000 0.000000 0.000000
# 3 -0.011237 -0.011892 0.032845 0.000000 0.000000 0.000000
# 4 0.000000 0.000000 0.000000 0.036034 0.000000 0.000000
# 5 0.000000 0.000000 0.000000 0.000000 0.040152 0.000000
# 6 0.000000 0.000000 0.000000 0.000000 0.000000 0.052967
#
#
# Mechanical properties :
#
#
# Convention : Reuss Voigt Hill
#
# Bulk Modulus (GPa) = 55.70126 57.79667 56.74896
# Shear Modulus (GPa) = 19.45409 21.45893 20.45651
#
# Velocity S-wave (km/s) = 3.43771 3.61050 3.52516
# Velocity P-wave (km/s) = 7.04231 7.24506 7.14440
#
# Compressibility (1/GPa) = 0.01795292
#
# Stress axis : x y z
#
# Youngs Moduli (GPa) = 58.83068 49.81885 30.44644
#
# Poissons Ratio (x) = 0.14213 0.34212
# Poissons Ratio (y) = 0.16783 0.36205
# Poissons Ratio (z) = 0.66107 0.59242
#
# Static dielectric constant tensor:
#      x y z
#    x 3.043260 0.000000 0.000000 
#    y 0.000000 3.117380 0.000000 
#    z 0.000000 0.000000 3.274670 
# 
# 
# High freq. dielectric constant tensor:
#      x y z
#    x 1.618620 0.000000 0.000000 
#    y 0.000000 1.621100 0.000000 
#    z 0.000000 0.000000 1.637660 
# 
# From -- ./inp_files/14287.got.cif
#   From: 2010.03.12/outbox.cif.g09.slc.cpg/sg47_8_cif.got.tgz:14287.got - 2010.04.14 03:12:58.
