data_PCOD8201316
_publ_section_title
;
Structure prediction by ZEFSAII (Michael W. Deem and Ramdas Pophale) SiO2 
 PCOD8201316
Probable space group: P N N N
;
_chemical_formula_sum "Si O2"
_cell_formula_units_Z 28
_cell_length_a 8.455364
_cell_length_b 7.739382
_cell_length_c 15.586346
_cell_angle_alpha 90.000000
_cell_angle_beta 90.000000
_cell_angle_gamma 90.000000
_cell_volume 1019.959446
_symmetry_space_group_name_H-M "P N N N"
_symmetry_group_IT_number 48
_space_group.IT_coordinate_system_code '2'
_symmetry_cell_setting 'orthorhombic'
loop_
_space_group_symop_operation_xyz
x,y,z
1/2-x,1/2-y,z
x,1/2-y,1/2-z
1/2-x,y,1/2-z
-x,-y,-z
1/2+x,1/2+y,-z
-x,1/2+y,1/2+z
1/2+x,-y,1/2+z
loop_
_atom_site_type_symbol
_atom_site_label
_atom_site_fract_x
_atom_site_fract_y
_atom_site_fract_z
Si Si1 0.541546 0.832479 0.387239
Si Si2 0.263128 0.028294 0.460747
Si Si3 0.546986 0.069905 0.106421
Si Si4 0.750000 0.465974 0.250000
O O1 0.629017 0.853154 0.478879
O O2 0.530433 0.631639 0.366975
O O3 0.642904 0.919280 0.312835
O O4 0.368253 0.918090 0.394756
O O5 0.150808 0.901527 0.519702
O O6 0.132063 0.142570 0.406656
O O7 0.636387 0.154232 0.188610
#
# Coordination Sequence:
#
# PCOD8201316 Si02
#       4
#     8   8   8   4
#     4  10  18  32  50  74  99 124 156 198 239 284
#     4   9  19  30  47  74  98 128 161 184 238 289
#     4  10  18  32  50  74  99 124 156 198 239 284
#     4  10  19  30  48  72 103 126 149 196 252 284
#
# _framework density 27.452072000000001
#
# number of rings (size 3 to 8) (size 9 to 14) (size 15 to 20)
#    0.000    2.286    0.000    6.000    0.000    1.143 
#    0.000    2.857    0.000    0.000    0.000  472.000 
#    0.000    0.000    0.000    0.000    0.000    0.000 
#
# Total GULP energy -346945.439847 kJ/mol
# GULP energy per Si atom -12390.908566 kJ/mol
# Density = 2.738959 g / cm^3
# Si number density = 27.452072 Si / 1000 Ang^3
#
#
#
# Elastic Constant Matrix: (Units=GPa)
#
#
# Indices 1 2 3 4 5 6 
#
# 1 216.3120 9.9248 79.7176 0.0000 0.0000 0.0000
# 2 9.9248 48.4268 0.5423 0.0000 0.0000 0.0000
# 3 79.7176 0.5423 145.4976 0.0000 0.0000 0.0000
# 4 0.0000 0.0000 0.0000 24.5463 0.0000 0.0000
# 5 0.0000 0.0000 0.0000 0.0000 44.8310 0.0000
# 6 0.0000 0.0000 0.0000 0.0000 0.0000 34.2350
#
#
#
# Elastic Compliance Matrix: (Units=1/GPa)
#
#
# Indices 1 2 3 4 5 6 
#
# 1 0.005858 -0.001165 -0.003205 0.000000 0.000000 0.000000
# 2 -0.001165 0.020882 0.000560 0.000000 0.000000 0.000000
# 3 -0.003205 0.000560 0.008627 0.000000 0.000000 0.000000
# 4 0.000000 0.000000 0.000000 0.040739 0.000000 0.000000
# 5 0.000000 0.000000 0.000000 0.000000 0.022306 0.000000
# 6 0.000000 0.000000 0.000000 0.000000 0.000000 0.029210
#
#
# Mechanical properties :
#
#
# Convention : Reuss Voigt Hill
#
# Bulk Modulus (GPa) = 36.03877 65.62285 50.83081
# Shear Modulus (GPa) = 34.60458 42.05925 38.33191
#
# Velocity S-wave (km/s) = 3.55427 3.91845 3.74079
# Velocity P-wave (km/s) = 5.47724 6.66549 6.10036
#
# Compressibility (1/GPa) = 0.02774789
#
# Stress axis : x y z
#
# Youngs Moduli (GPa) = 170.72090 47.88786 115.91688
#
# Poissons Ratio (x) = 0.05577 0.37151
# Poissons Ratio (y) = 0.19882 -0.06494
# Poissons Ratio (z) = 0.54716 -0.02683
#
# Static dielectric constant tensor:
#      x y z
#    x 6.401130 0.000000 0.000000 
#    y 0.000000 4.552880 0.000000 
#    z 0.000000 0.000000 5.499200 
# 
# 
# High freq. dielectric constant tensor:
#      x y z
#    x 2.137120 0.000000 0.000000 
#    y 0.000000 2.092300 0.000000 
#    z 0.000000 0.000000 2.093240 
# 
# From -- ./inp_files/9988.got.cif
#   From: 2010.06.25/outbox.cif.g09.slc.cpg/sg48_5_cif.got.tgz:9988.got - 2010.06.26 18:06:46.
