data_PCOD8201746
_publ_section_title
;
Structure prediction by ZEFSAII (Michael W. Deem and Ramdas Pophale) SiO2 
 PCOD8201746
Probable space group: P N N N
;
_chemical_formula_sum "Si O2"
_cell_formula_units_Z 54
_cell_length_a 15.129936
_cell_length_b 14.474296
_cell_length_c 11.180728
_cell_angle_alpha 90.000000
_cell_angle_beta 90.000000
_cell_angle_gamma 90.000000
_cell_volume 2448.525453
_symmetry_space_group_name_H-M "P N N N"
_symmetry_group_IT_number 48
_space_group.IT_coordinate_system_code '2'
_symmetry_cell_setting 'orthorhombic'
loop_
_space_group_symop_operation_xyz
x,y,z
1/2-x,1/2-y,z
x,1/2-y,1/2-z
1/2-x,y,1/2-z
-x,-y,-z
1/2+x,1/2+y,-z
-x,1/2+y,1/2+z
1/2+x,-y,1/2+z
loop_
_atom_site_type_symbol
_atom_site_label
_atom_site_fract_x
_atom_site_fract_y
_atom_site_fract_z
Si Si1 0.156756 0.913631 0.276123
Si Si2 0.174058 0.040555 0.502981
Si Si3 0.976695 0.123066 0.100874
Si Si4 0.365216 0.004933 0.461544
Si Si5 0.022908 0.750000 0.250000
Si Si6 0.392940 0.609947 0.649523
Si Si7 0.750000 0.250000 0.250000
Si Si8 0.531698 0.693362 0.499428
O O1 0.250000 0.862039 0.250000
O O2 0.149073 0.993827 0.178876
O O3 0.079421 0.842287 0.252136
O O4 0.153678 0.963706 0.402838
O O5 0.123058 0.137335 0.481016
O O6 0.279072 0.057548 0.512978
O O7 0.146563 0.992623 0.628727
O O8 0.960964 0.100773 0.240067
O O9 0.885550 0.092512 0.031836
O O10 0.051870 0.071239 0.026194
O O11 0.008035 0.228786 0.097743
O O12 0.964293 0.757398 0.369610
O O13 0.314773 0.685947 0.669197
O O14 0.448003 0.627230 0.526014
#
# Coordination Sequence:
#
# PCOD8201746 Si02
#       8
#     8   8   8   8   4   8   2   8
#     4  10  21  39  63  95 130 170 222 280 339 402
#     4  11  25  42  68  98 137 179 232 281 349 420
#     4  11  23  43  67  96 138 179 228 284 349 412
#     4  10  23  42  67  97 134 178 230 285 342 412
#     4  12  23  38  64  97 132 174 222 278 349 401
#     4  12  24  40  66 100 138 179 227 287 353 417
#     4  12  24  40  68 102 138 174 232 292 354 420
#     4  12  25  42  66  98 136 183 224 285 343 425
#
# _framework density 22.054089000000001
#
# number of rings (size 3 to 8) (size 9 to 14) (size 15 to 20)
#    0.000    0.889    4.444    2.444    2.074    0.593 
#    0.000    0.000    0.000    5.333    0.000    0.000 
#    0.000    0.000    0.000    0.000    0.000    0.000 
#
# Total GULP energy -668954.872356 kJ/mol
# GULP energy per Si atom -12388.053192 kJ/mol
# Density = 2.200389 g / cm^3
# Si number density = 22.054089 Si / 1000 Ang^3
#
#
#
# Elastic Constant Matrix: (Units=GPa)
#
#
# Indices 1 2 3 4 5 6 
#
# 1 139.9949 58.6565 33.8619 0.0000 0.0000 0.0000
# 2 58.6565 76.9767 19.7968 0.0000 0.0000 0.0000
# 3 33.8619 19.7968 97.8553 0.0000 0.0000 0.0000
# 4 0.0000 0.0000 0.0000 25.8023 0.0000 0.0000
# 5 0.0000 0.0000 0.0000 0.0000 24.2180 0.0000
# 6 0.0000 0.0000 0.0000 0.0000 0.0000 45.7798
#
#
#
# Elastic Compliance Matrix: (Units=1/GPa)
#
#
# Indices 1 2 3 4 5 6 
#
# 1 0.010929 -0.007759 -0.002212 0.000000 0.000000 0.000000
# 2 -0.007759 0.019213 -0.001202 0.000000 0.000000 0.000000
# 3 -0.002212 -0.001202 0.011228 0.000000 0.000000 0.000000
# 4 0.000000 0.000000 0.000000 0.038756 0.000000 0.000000
# 5 0.000000 0.000000 0.000000 0.000000 0.041292 0.000000
# 6 0.000000 0.000000 0.000000 0.000000 0.000000 0.021844
#
#
# Mechanical properties :
#
#
# Convention : Reuss Voigt Hill
#
# Bulk Modulus (GPa) = 52.56756 59.93969 56.25362
# Shear Modulus (GPa) = 29.07847 32.66080 30.86964
#
# Velocity S-wave (km/s) = 3.63506 3.85247 3.74535
# Velocity P-wave (km/s) = 6.44250 6.85757 6.65327
#
# Compressibility (1/GPa) = 0.01902314
#
# Stress axis : x y z
#
# Youngs Moduli (GPa) = 91.49787 52.04937 89.06436
#
# Poissons Ratio (x) = 0.40386 0.19703
# Poissons Ratio (y) = 0.70995 0.10704
# Poissons Ratio (z) = 0.20241 0.06255
#
# Static dielectric constant tensor:
#      x y z
#    x 4.119810 0.000000 0.000000 
#    y 0.000000 3.868760 0.000000 
#    z 0.000000 0.000000 4.260200 
# 
# 
# High freq. dielectric constant tensor:
#      x y z
#    x 1.866050 0.000000 0.000000 
#    y 0.000000 1.851830 0.000000 
#    z 0.000000 0.000000 1.871940 
# 
# From -- ./inp_files/21374.got.cif
#   From: 2010.06.25/outbox.cif.g09.slc.cpg/sg48_11_cif.got.tgz:21374.got - 2010.06.26 18:06:46.
