data_PCOD8201371
_publ_section_title
;
Structure prediction by ZEFSAII (Michael W. Deem and Ramdas Pophale) SiO2 
 PCOD8201371
Probable space group: P N N N
;
_chemical_formula_sum "Si O2"
_cell_formula_units_Z 32
_cell_length_a 28.060314
_cell_length_b 11.858787
_cell_length_c 5.069134
_cell_angle_alpha 90.000000
_cell_angle_beta 90.000000
_cell_angle_gamma 90.000000
_cell_volume 1686.811553
_symmetry_space_group_name_H-M "P N N N"
_symmetry_group_IT_number 48
_space_group.IT_coordinate_system_code '2'
_symmetry_cell_setting 'orthorhombic'
loop_
_space_group_symop_operation_xyz
x,y,z
1/2-x,1/2-y,z
x,1/2-y,1/2-z
1/2-x,y,1/2-z
-x,-y,-z
1/2+x,1/2+y,-z
-x,1/2+y,1/2+z
1/2+x,-y,1/2+z
loop_
_atom_site_type_symbol
_atom_site_label
_atom_site_fract_x
_atom_site_fract_y
_atom_site_fract_z
Si Si1 0.379917 0.625551 0.159091
Si Si2 0.573670 0.033224 0.140099
Si Si3 0.481922 0.176851 0.997337
Si Si4 0.271815 0.875245 0.496864
O O1 0.395914 0.750000 0.250000
O O2 0.383541 0.554621 0.430122
O O3 0.328398 0.628393 0.022786
O O4 0.413403 0.568761 0.938307
O O5 0.561239 0.901471 0.109203
O O6 0.527596 0.105223 0.072901
O O7 0.498101 0.250000 0.750000
O O8 0.464825 0.250000 0.250000
O O9 0.250000 0.750000 0.498605
O O10 0.250000 0.942724 0.250000
O O11 0.250000 0.939388 0.750000
#
# Coordination Sequence:
#
# PCOD8201371 Si02
#       4
#     8   8   8   8
#     4  12  21  34  54  80 119 150 185 224 266 337
#     4  11  24  35  56  86 104 146 203 226 266 350
#     4  11  22  41  57  75 114 148 183 239 294 311
#     4  10  19  32  47  73 110 159 170 202 278 337
#
# _framework density 18.970701999999999
#
# number of rings (size 3 to 8) (size 9 to 14) (size 15 to 20)
#    0.000    1.000    2.500    7.500    3.500    4.000 
#    0.000    0.000    0.000    0.000    0.000    0.000 
#    0.000   70.000    0.000    0.000    0.000    0.000 
#
# Total GULP energy -396485.199007 kJ/mol
# GULP energy per Si atom -12390.162469 kJ/mol
# Density = 1.892752 g / cm^3
# Si number density = 18.970702 Si / 1000 Ang^3
#
#
#
# Elastic Constant Matrix: (Units=GPa)
#
#
# Indices 1 2 3 4 5 6 
#
# 1 69.8757 24.3645 18.7756 0.0000 0.0000 0.0000
# 2 24.3645 67.7929 31.4203 0.0000 0.0000 0.0000
# 3 18.7756 31.4203 156.4137 0.0000 0.0000 0.0000
# 4 0.0000 0.0000 0.0000 23.7777 0.0000 0.0000
# 5 0.0000 0.0000 0.0000 0.0000 43.4233 0.0000
# 6 0.0000 0.0000 0.0000 0.0000 0.0000 10.2300
#
#
#
# Elastic Compliance Matrix: (Units=1/GPa)
#
#
# Indices 1 2 3 4 5 6 
#
# 1 0.016468 -0.005516 -0.000869 0.000000 0.000000 0.000000
# 2 -0.005516 0.018113 -0.002976 0.000000 0.000000 0.000000
# 3 -0.000869 -0.002976 0.007095 0.000000 0.000000 0.000000
# 4 0.000000 0.000000 0.000000 0.042056 0.000000 0.000000
# 5 0.000000 0.000000 0.000000 0.000000 0.023029 0.000000
# 6 0.000000 0.000000 0.000000 0.000000 0.000000 0.097751
#
#
# Mechanical properties :
#
#
# Convention : Reuss Voigt Hill
#
# Bulk Modulus (GPa) = 43.56522 49.24478 46.40500
# Shear Modulus (GPa) = 21.65573 30.12101 25.88837
#
# Velocity S-wave (km/s) = 3.38233 3.98900 3.69812
# Velocity P-wave (km/s) = 6.18610 6.87247 6.53830
#
# Compressibility (1/GPa) = 0.02295409
#
# Stress axis : x y z
#
# Youngs Moduli (GPa) = 60.72437 55.21009 140.93497
#
# Poissons Ratio (x) = 0.30453 0.12244
# Poissons Ratio (y) = 0.33495 0.41947
# Poissons Ratio (z) = 0.05275 0.16432
#
# Static dielectric constant tensor:
#      x y z
#    x 3.390650 0.000000 0.000000 
#    y 0.000000 3.393270 0.000000 
#    z 0.000000 0.000000 2.829630 
# 
# 
# High freq. dielectric constant tensor:
#      x y z
#    x 1.726990 0.000000 0.000000 
#    y 0.000000 1.685800 0.000000 
#    z 0.000000 0.000000 1.776950 
# 
# From -- ./inp_files/2112.got.cif
#   From: 2010.06.25/outbox.cif.g09.slc.cpg/sg48_2_cif.got.tgz:2112.got - 2010.06.26 18:06:46.
