data_PCOD8201437
_publ_section_title
;
Structure prediction by ZEFSAII (Michael W. Deem and Ramdas Pophale) SiO2 
 PCOD8201437
Probable space group: P N N N
;
_chemical_formula_sum "Si O2"
_cell_formula_units_Z 64
_cell_length_a 8.536215
_cell_length_b 21.766779
_cell_length_c 18.017297
_cell_angle_alpha 90.000000
_cell_angle_beta 90.000000
_cell_angle_gamma 90.000000
_cell_volume 3347.720182
_symmetry_space_group_name_H-M "P N N N"
_symmetry_group_IT_number 48
_space_group.IT_coordinate_system_code '2'
_symmetry_cell_setting 'orthorhombic'
loop_
_space_group_symop_operation_xyz
x,y,z
1/2-x,1/2-y,z
x,1/2-y,1/2-z
1/2-x,y,1/2-z
-x,-y,-z
1/2+x,1/2+y,-z
-x,1/2+y,1/2+z
1/2+x,-y,1/2+z
loop_
_atom_site_type_symbol
_atom_site_label
_atom_site_fract_x
_atom_site_fract_y
_atom_site_fract_z
Si Si1 0.147682 0.346157 0.438195
Si Si2 0.580373 0.310505 0.283949
Si Si3 0.135242 0.142323 0.687450
Si Si4 0.927153 0.236114 0.602936
Si Si5 0.572678 0.632766 0.096507
Si Si6 0.591232 0.919438 0.708904
Si Si7 0.479825 0.287917 0.442259
Si Si8 0.926693 0.056221 0.780210
O O1 0.070876 0.380783 0.508805
O O2 0.117861 0.392283 0.371832
O O3 0.331223 0.332798 0.449513
O O4 0.064715 0.281677 0.422980
O O5 0.490184 0.250000 0.250000
O O6 0.750000 0.309394 0.250000
O O7 0.504672 0.373791 0.260111
O O8 0.587194 0.309859 0.373556
O O9 0.250000 0.172012 0.750000
O O10 0.248202 0.120381 0.621302
O O11 0.002384 0.189299 0.661197
O O12 0.045951 0.083338 0.719907
O O13 0.750000 0.250000 0.627841
O O14 0.035328 0.295623 0.607488
O O15 0.925129 0.208189 0.519411
O O16 0.445597 0.592596 0.141447
O O17 0.750000 0.931668 0.750000
O O18 0.514564 0.986864 0.703722
O O19 0.750000 0.062419 0.750000
#
# Coordination Sequence:
#
# PCOD8201437 Si02
#       8
#     8   8   8   8   8   8   8   8
#     4  10  19  35  62  88 119 156 199 239 294 365
#     4  11  23  35  56  90 126 155 196 242 297 352
#     4  10  21  39  60  82 116 155 198 243 294 360
#     4  11  22  35  61  93 125 154 190 245 312 354
#     4  10  21  38  60  89 117 157 197 238 297 367
#     4  11  22  38  61  85 113 163 205 244 293 356
#     4  10  20  35  58  91 129 155 189 243 302 360
#     4  10  23  40  59  83 117 153 202 255 295 343
#
# _framework density 19.117488999999999
#
# number of rings (size 3 to 8) (size 9 to 14) (size 15 to 20)
#    0.000    1.625    3.750    1.125    1.750    5.750 
#    0.000    3.125    0.000    8.250    0.000    0.000 
#    0.000    0.000    0.000    0.000    0.000    0.000 
#
# Total GULP energy -793380.481928 kJ/mol
# GULP energy per Si atom -12396.570030 kJ/mol
# Density = 1.907398 g / cm^3
# Si number density = 19.117489 Si / 1000 Ang^3
#
#
#
# Elastic Constant Matrix: (Units=GPa)
#
#
# Indices 1 2 3 4 5 6 
#
# 1 92.2420 34.5046 41.2026 0.0000 0.0000 0.0000
# 2 34.5046 118.0184 67.5292 0.0000 0.0000 0.0000
# 3 41.2026 67.5292 132.6072 0.0000 0.0000 0.0000
# 4 0.0000 0.0000 0.0000 25.4526 0.0000 0.0000
# 5 0.0000 0.0000 0.0000 0.0000 36.0327 0.0000
# 6 0.0000 0.0000 0.0000 0.0000 0.0000 26.3643
#
#
#
# Elastic Compliance Matrix: (Units=1/GPa)
#
#
# Indices 1 2 3 4 5 6 
#
# 1 0.012944 -0.002093 -0.002956 0.000000 0.000000 0.000000
# 2 -0.002093 0.012296 -0.005611 0.000000 0.000000 0.000000
# 3 -0.002956 -0.005611 0.011317 0.000000 0.000000 0.000000
# 4 0.000000 0.000000 0.000000 0.039289 0.000000 0.000000
# 5 0.000000 0.000000 0.000000 0.000000 0.027753 0.000000
# 6 0.000000 0.000000 0.000000 0.000000 0.000000 0.037930
#
#
# Mechanical properties :
#
#
# Convention : Reuss Voigt Hill
#
# Bulk Modulus (GPa) = 65.63169 69.92671 67.77920
# Shear Modulus (GPa) = 29.77458 30.87867 30.32663
#
# Velocity S-wave (km/s) = 3.95074 4.02332 3.98720
# Velocity P-wave (km/s) = 7.43077 7.63149 7.53180
#
# Compressibility (1/GPa) = 0.01523654
#
# Stress axis : x y z
#
# Youngs Moduli (GPa) = 77.25340 81.32783 88.36213
#
# Poissons Ratio (x) = 0.17022 0.26121
# Poissons Ratio (y) = 0.16169 0.49582
# Poissons Ratio (z) = 0.22837 0.45635
#
# Static dielectric constant tensor:
#      x y z
#    x 3.453680 0.000000 0.000000 
#    y 0.000000 1.304420 0.000000 
#    z 0.000000 0.000000 3.700250 
# 
# 
# High freq. dielectric constant tensor:
#      x y z
#    x 1.739380 0.000000 0.000000 
#    y 0.000000 1.726150 0.000000 
#    z 0.000000 0.000000 1.757420 
# 
# From -- ./inp_files/30600.got.cif
#   From: 2010.06.25/outbox.cif.g09.slc.cpg/sg48_16_cif.got.tgz:30600.got - 2010.06.26 18:06:46.
