data_PCOD8201751
_publ_section_title
;
Structure prediction by ZEFSAII (Michael W. Deem and Ramdas Pophale) SiO2 
 PCOD8201751
Probable space group: P N N N
;
_chemical_formula_sum "Si O2"
_cell_formula_units_Z 60
_cell_length_a 20.936526
_cell_length_b 11.853896
_cell_length_c 10.799565
_cell_angle_alpha 90.000000
_cell_angle_beta 90.000000
_cell_angle_gamma 90.000000
_cell_volume 2680.229581
_symmetry_space_group_name_H-M "P N N N"
_symmetry_group_IT_number 48
_space_group.IT_coordinate_system_code '2'
_symmetry_cell_setting 'orthorhombic'
loop_
_space_group_symop_operation_xyz
x,y,z
1/2-x,1/2-y,z
x,1/2-y,1/2-z
1/2-x,y,1/2-z
-x,-y,-z
1/2+x,1/2+y,-z
-x,1/2+y,1/2+z
1/2+x,-y,1/2+z
loop_
_atom_site_type_symbol
_atom_site_label
_atom_site_fract_x
_atom_site_fract_y
_atom_site_fract_z
Si Si1 0.721840 0.125693 0.121788
Si Si2 0.616091 0.699587 0.428124
Si Si3 0.726676 0.994705 0.614216
Si Si4 0.582944 0.002851 0.635317
Si Si5 0.044907 0.407432 0.616100
Si Si6 0.959786 0.652944 0.838287
Si Si7 0.250000 0.250000 0.021508
Si Si8 0.087097 0.545762 0.831248
O O1 0.750000 0.250000 0.100289
O O2 0.750000 0.072686 0.250000
O O3 0.645518 0.131146 0.144491
O O4 0.735180 0.050371 0.000253
O O5 0.582145 0.794132 0.341369
O O6 0.586388 0.710621 0.563995
O O7 0.691257 0.723605 0.430882
O O8 0.603177 0.574415 0.386943
O O9 0.750000 0.034288 0.750000
O O10 0.732669 0.858805 0.605599
O O11 0.654376 0.040668 0.602435
O O12 0.531431 0.105795 0.643937
O O13 0.556247 0.920850 0.529261
O O14 0.583928 0.937311 0.765494
O O15 0.072028 0.519496 0.686451
O O16 0.986786 0.750000 0.750000
O O17 0.023550 0.595744 0.896168
#
# Coordination Sequence:
#
# PCOD8201751 Si02
#       8
#     8   8   8   8   8   8   4   8
#     4  11  27  48  70  99 138 189 244 286 347 425
#     4  12  23  42  64 103 136 175 222 285 359 416
#     4  12  24  44  73 105 146 185 236 290 358 430
#     4  10  21  39  65  99 128 179 227 282 338 412
#     4  10  21  40  66  93 138 173 231 284 341 419
#     4  11  22  40  67  95 132 173 230 278 338 415
#     4  12  23  40  69 104 145 184 221 290 359 436
#     4  11  25  42  65  97 135 176 227 290 347 407
#
# _framework density 22.386143000000001
#
# number of rings (size 3 to 8) (size 9 to 14) (size 15 to 20)
#    0.000    0.933    4.000    2.600    1.867    1.333 
#    0.000    1.000    5.867    0.000    0.000    0.000 
#    0.000    0.000    0.000    0.000    0.000    0.000 
#
# Total GULP energy -743702.905522 kJ/mol
# GULP energy per Si atom -12395.048425 kJ/mol
# Density = 2.233519 g / cm^3
# Si number density = 22.386143 Si / 1000 Ang^3
#
#
#
# Elastic Constant Matrix: (Units=GPa)
#
#
# Indices 1 2 3 4 5 6 
#
# 1 161.6829 38.3426 26.0467 0.0000 0.0000 0.0000
# 2 38.3426 83.9051 17.7804 0.0000 0.0000 0.0000
# 3 26.0467 17.7804 80.9352 0.0000 0.0000 0.0000
# 4 0.0000 0.0000 0.0000 31.6875 0.0000 0.0000
# 5 0.0000 0.0000 0.0000 0.0000 24.2925 0.0000
# 6 0.0000 0.0000 0.0000 0.0000 0.0000 30.4714
#
#
#
# Elastic Compliance Matrix: (Units=1/GPa)
#
#
# Indices 1 2 3 4 5 6 
#
# 1 0.007143 -0.002913 -0.001659 0.000000 0.000000 0.000000
# 2 -0.002913 0.013688 -0.002070 0.000000 0.000000 0.000000
# 3 -0.001659 -0.002070 0.013344 0.000000 0.000000 0.000000
# 4 0.000000 0.000000 0.000000 0.031558 0.000000 0.000000
# 5 0.000000 0.000000 0.000000 0.000000 0.041165 0.000000
# 6 0.000000 0.000000 0.000000 0.000000 0.000000 0.032818
#
#
# Mechanical properties :
#
#
# Convention : Reuss Voigt Hill
#
# Bulk Modulus (GPa) = 47.86415 54.54030 51.20223
# Shear Modulus (GPa) = 31.25739 33.58051 32.41895
#
# Velocity S-wave (km/s) = 3.74074 3.87726 3.80961
# Velocity P-wave (km/s) = 6.33128 6.66787 6.50175
#
# Compressibility (1/GPa) = 0.02089246
#
# Stress axis : x y z
#
# Youngs Moduli (GPa) = 139.99913 73.05774 74.93941
#
# Poissons Ratio (x) = 0.21279 0.12432
# Poissons Ratio (y) = 0.40776 0.15510
# Poissons Ratio (z) = 0.23224 0.15121
#
# Static dielectric constant tensor:
#      x y z
#    x 4.280190 0.000000 0.000000 
#    y 0.000000 3.917590 0.000000 
#    z 0.000000 0.000000 4.116480 
# 
# 
# High freq. dielectric constant tensor:
#      x y z
#    x 1.891950 0.000000 0.000000 
#    y 0.000000 1.865770 0.000000 
#    z 0.000000 0.000000 1.883690 
# 
# From -- ./inp_files/22927.got.cif
#   From: 2010.06.25/outbox.cif.g09.slc.cpg/sg48_12_cif.got.tgz:22927.got - 2010.06.26 18:06:46.
