data_PCOD8201247
_publ_section_title
;
Structure prediction by ZEFSAII (Michael W. Deem and Ramdas Pophale) SiO2 
 PCOD8201247
Probable space group: P N N N
;
_chemical_formula_sum "Si O2"
_cell_formula_units_Z 48
_cell_length_a 14.761497
_cell_length_b 17.847255
_cell_length_c 9.696877
_cell_angle_alpha 90.000000
_cell_angle_beta 90.000000
_cell_angle_gamma 90.000000
_cell_volume 2554.663590
_symmetry_space_group_name_H-M "P N N N"
_symmetry_group_IT_number 48
_space_group.IT_coordinate_system_code '2'
_symmetry_cell_setting 'orthorhombic'
loop_
_space_group_symop_operation_xyz
x,y,z
1/2-x,1/2-y,z
x,1/2-y,1/2-z
1/2-x,y,1/2-z
-x,-y,-z
1/2+x,1/2+y,-z
-x,1/2+y,1/2+z
1/2+x,-y,1/2+z
loop_
_atom_site_type_symbol
_atom_site_label
_atom_site_fract_x
_atom_site_fract_y
_atom_site_fract_z
Si Si1 0.978445 0.683255 0.654451
Si Si2 0.157736 0.050760 0.820075
Si Si3 0.664817 0.116435 0.656603
Si Si4 0.914194 0.969660 0.905716
Si Si5 0.024104 0.180097 0.834336
Si Si6 0.833690 0.119324 0.163434
O O1 0.938100 0.750000 0.750000
O O2 0.956057 0.697282 0.494579
O O3 0.085195 0.677591 0.684241
O O4 0.937907 0.601115 0.690886
O O5 0.250000 0.079840 0.750000
O O6 0.074901 0.105655 0.777624
O O7 0.138895 0.963729 0.779491
O O8 0.164582 0.054716 0.986601
O O9 0.750000 0.137857 0.750000
O O10 0.583816 0.173849 0.688243
O O11 0.694083 0.116933 0.497035
O O12 0.624829 0.034112 0.692811
O O13 0.000000 0.000000 0.000000
O O14 0.062163 0.250000 0.750000
O O15 0.750000 0.151312 0.250000
#
# Coordination Sequence:
#
# PCOD8201247 Si02
#       6
#     8   8   8   8   8   8
#     4  10  19  33  54  79 104 144 186 224 278 344
#     4   9  16  31  58  81  95 136 200 230 260 329
#     4  10  19  33  56  82 105 141 188 228 276 338
#     4  10  15  36  60  75 104 151 187 227 285 338
#     4  10  20  35  52  76 113 150 178 226 288 336
#     4   9  17  32  53  76 104 139 182 230 272 325
#
# _framework density 18.789165000000001
#
# number of rings (size 3 to 8) (size 9 to 14) (size 15 to 20)
#    0.000    2.333    6.667    0.000    0.000    2.333 
#    0.000    8.333    0.000   14.500    0.000    0.000 
#    0.000    0.000    0.000    0.000    0.000    0.000 
#
# Total GULP energy -594655.069522 kJ/mol
# GULP energy per Si atom -12388.647282 kJ/mol
# Density = 1.874640 g / cm^3
# Si number density = 18.789165 Si / 1000 Ang^3
#
#
#
# Elastic Constant Matrix: (Units=GPa)
#
#
# Indices 1 2 3 4 5 6 
#
# 1 62.3988 2.6853 32.8818 0.0000 0.0000 0.0000
# 2 2.6853 68.9523 27.0300 0.0000 0.0000 0.0000
# 3 32.8818 27.0300 54.8839 0.0000 0.0000 0.0000
# 4 0.0000 0.0000 0.0000 10.7808 0.0000 0.0000
# 5 0.0000 0.0000 0.0000 0.0000 26.5805 0.0000
# 6 0.0000 0.0000 0.0000 0.0000 0.0000 17.3094
#
#
#
# Elastic Compliance Matrix: (Units=1/GPa)
#
#
# Indices 1 2 3 4 5 6 
#
# 1 0.025368 0.006159 -0.018232 0.000000 0.000000 0.000000
# 2 0.006159 0.019468 -0.013278 0.000000 0.000000 0.000000
# 3 -0.018232 -0.013278 0.035683 0.000000 0.000000 0.000000
# 4 0.000000 0.000000 0.000000 0.092757 0.000000 0.000000
# 5 0.000000 0.000000 0.000000 0.000000 0.037622 0.000000
# 6 0.000000 0.000000 0.000000 0.000000 0.000000 0.057772
#
#
# Mechanical properties :
#
#
# Convention : Reuss Voigt Hill
#
# Bulk Modulus (GPa) = 33.53724 34.60324 34.07024
# Shear Modulus (GPa) = 15.18324 19.17667 17.17996
#
# Velocity S-wave (km/s) = 2.84577 3.19819 3.02711
# Velocity P-wave (km/s) = 5.35592 5.66519 5.51273
#
# Compressibility (1/GPa) = 0.02981760
#
# Stress axis : x y z
#
# Youngs Moduli (GPa) = 39.41915 51.36647 28.02494
#
# Poissons Ratio (x) = -0.31637 0.51095
# Poissons Ratio (y) = -0.24279 0.37211
# Poissons Ratio (z) = 0.71869 0.68204
#
# Static dielectric constant tensor:
#      x y z
#    x 3.417210 0.000000 0.000000 
#    y 0.000000 3.475730 0.000000 
#    z 0.000000 0.000000 3.202490 
# 
# 
# High freq. dielectric constant tensor:
#      x y z
#    x 1.712760 0.000000 0.000000 
#    y 0.000000 1.734640 0.000000 
#    z 0.000000 0.000000 1.692760 
# 
# From -- ./inp_files/21425.got.cif
#   From: 2010.06.25/outbox.cif.g09.slc.cpg/sg48_11_cif.got.tgz:21425.got - 2010.06.26 18:06:46.
