data_PCOD8201929
_publ_section_title
;
Structure prediction by ZEFSAII (Michael W. Deem and Ramdas Pophale) SiO2 
 PCOD8201929
Probable space group: P N N N
;
_chemical_formula_sum "Si O2"
_cell_formula_units_Z 24
_cell_length_a 5.038541
_cell_length_b 25.420815
_cell_length_c 7.483822
_cell_angle_alpha 90.000000
_cell_angle_beta 90.000000
_cell_angle_gamma 90.000000
_cell_volume 958.556500
_symmetry_space_group_name_H-M "P N N N"
_symmetry_group_IT_number 48
_space_group.IT_coordinate_system_code '2'
_symmetry_cell_setting 'orthorhombic'
loop_
_space_group_symop_operation_xyz
x,y,z
1/2-x,1/2-y,z
x,1/2-y,1/2-z
1/2-x,y,1/2-z
-x,-y,-z
1/2+x,1/2+y,-z
-x,1/2+y,1/2+z
1/2+x,-y,1/2+z
loop_
_atom_site_type_symbol
_atom_site_label
_atom_site_fract_x
_atom_site_fract_y
_atom_site_fract_z
Si Si1 0.365035 0.554104 0.055435
Si Si2 0.135738 0.387525 0.054290
Si Si3 0.501208 0.774212 0.050221
O O1 0.250000 0.547494 0.250000
O O2 0.500000 0.500000 0.000000
O O3 0.607524 0.595387 0.060079
O O4 0.109412 0.570562 0.932695
O O5 0.250000 0.375789 0.250000
O O6 0.007654 0.337181 0.956018
O O7 0.750000 0.750000 0.945141
O O8 0.499635 0.750000 0.250000
O O9 0.250000 0.750000 0.947109
#
# Coordination Sequence:
#
# PCOD8201929 Si02
#       3
#     8   8   8
#     4  12  28  50  80 113 155 204 267 327 395 476
#     4  12  27  48  78 116 160 205 260 326 402 464
#     4  10  23  42  74 107 153 194 264 305 379 461
#
# _framework density 25.037645999999999
#
# number of rings (size 3 to 8) (size 9 to 14) (size 15 to 20)
#    0.000    0.667    0.000    6.000   14.000    3.333 
#    0.000    1.667    0.000    0.000    0.000    0.000 
#    0.000    0.000    0.000    0.000    0.000    0.000 
#
# Total GULP energy -297377.606191 kJ/mol
# GULP energy per Si atom -12390.733591 kJ/mol
# Density = 2.498066 g / cm^3
# Si number density = 25.037646 Si / 1000 Ang^3
#
#
#
# Elastic Constant Matrix: (Units=GPa)
#
#
# Indices 1 2 3 4 5 6 
#
# 1 270.6805 93.4854 52.8614 0.0000 0.0000 0.0000
# 2 93.4854 167.6329 73.8707 0.0000 0.0000 0.0000
# 3 52.8614 73.8707 105.7292 0.0000 0.0000 0.0000
# 4 0.0000 0.0000 0.0000 23.9686 0.0000 0.0000
# 5 0.0000 0.0000 0.0000 0.0000 37.6428 0.0000
# 6 0.0000 0.0000 0.0000 0.0000 0.0000 67.7298
#
#
#
# Elastic Compliance Matrix: (Units=1/GPa)
#
#
# Indices 1 2 3 4 5 6 
#
# 1 0.004615 -0.002249 -0.000736 0.000000 0.000000 0.000000
# 2 -0.002249 0.009716 -0.005663 0.000000 0.000000 0.000000
# 3 -0.000736 -0.005663 0.013783 0.000000 0.000000 0.000000
# 4 0.000000 0.000000 0.000000 0.041721 0.000000 0.000000
# 5 0.000000 0.000000 0.000000 0.000000 0.026565 0.000000
# 6 0.000000 0.000000 0.000000 0.000000 0.000000 0.014765
#
#
# Mechanical properties :
#
#
# Convention : Reuss Voigt Hill
#
# Bulk Modulus (GPa) = 92.45327 109.38640 100.91984
# Shear Modulus (GPa) = 37.85949 47.45658 42.65804
#
# Velocity S-wave (km/s) = 3.89280 4.35835 4.13214
# Velocity P-wave (km/s) = 7.56380 8.31328 7.94738
#
# Compressibility (1/GPa) = 0.01081627
#
# Stress axis : x y z
#
# Youngs Moduli (GPa) = 216.68606 102.92726 72.55391
#
# Poissons Ratio (x) = 0.23153 0.05338
# Poissons Ratio (y) = 0.48743 0.41090
# Poissons Ratio (z) = 0.15941 0.58292
#
# Static dielectric constant tensor:
#      x y z
#    x 5.690370 0.000000 0.000000 
#    y 0.000000 4.530140 0.000000 
#    z 0.000000 0.000000 4.068220 
# 
# 
# High freq. dielectric constant tensor:
#      x y z
#    x 2.047490 0.000000 0.000000 
#    y 0.000000 1.997040 0.000000 
#    z 0.000000 0.000000 1.978170 
# 
# From -- ./inp_files/7390.got.cif
#   From: 2010.06.25/outbox.cif.g09.slc.cpg/sg48_4_cif.got.tgz:7390.got - 2010.06.26 18:06:46.
