data_PCOD8201984
_publ_section_title
;
Structure prediction by ZEFSAII (Michael W. Deem and Ramdas Pophale) SiO2 
 PCOD8201984
Probable space group: P N N N
;
_chemical_formula_sum "Si O2"
_cell_formula_units_Z 38
_cell_length_a 24.248747
_cell_length_b 7.894298
_cell_length_c 9.504565
_cell_angle_alpha 90.000000
_cell_angle_beta 90.000000
_cell_angle_gamma 90.000000
_cell_volume 1819.428795
_symmetry_space_group_name_H-M "P N N N"
_symmetry_group_IT_number 48
_space_group.IT_coordinate_system_code '2'
_symmetry_cell_setting 'orthorhombic'
loop_
_space_group_symop_operation_xyz
x,y,z
1/2-x,1/2-y,z
x,1/2-y,1/2-z
1/2-x,y,1/2-z
-x,-y,-z
1/2+x,1/2+y,-z
-x,1/2+y,1/2+z
1/2+x,-y,1/2+z
loop_
_atom_site_type_symbol
_atom_site_label
_atom_site_fract_x
_atom_site_fract_y
_atom_site_fract_z
Si Si1 0.163296 0.083628 0.067268
Si Si2 0.606965 0.892010 0.055921
Si Si3 0.481776 0.250000 0.750000
Si Si4 0.935544 0.549620 0.765542
Si Si5 0.250000 0.250000 0.250000
Si Si6 0.810319 0.055860 0.224559
O O1 0.114646 0.007771 0.162080
O O2 0.216670 0.112629 0.160517
O O3 0.151445 0.269734 0.010607
O O4 0.173400 0.959627 0.937872
O O5 0.556627 0.781793 0.115834
O O6 0.639500 0.992759 0.176991
O O7 0.581856 0.000559 0.926058
O O8 0.515951 0.422012 0.779192
O O9 0.952671 0.750000 0.750000
O O10 0.802452 0.250000 0.250000
O O11 0.750000 0.966590 0.250000
#
# Coordination Sequence:
#
# PCOD8201984 Si02
#       6
#     8   8   4   8   2   8
#     4  11  22  42  68 100 129 175 223 282 335 417
#     4  11  22  46  64  99 132 175 230 277 339 411
#     4  12  24  42  71  95 134 194 222 278 352 392
#     4  10  25  43  64 101 138 174 235 281 338 405
#     4  12  20  40  78  98 132 176 228 280 358 410
#     4  11  25  42  67 100 137 175 220 282 350 407
#
# _framework density 20.885676
#
# number of rings (size 3 to 8) (size 9 to 14) (size 15 to 20)
#    0.000    1.053    5.263    1.895    2.947    5.053 
#    0.000    0.000    0.000    0.000    0.000    0.000 
#    0.000    0.000    0.000    0.000    0.000    0.000 
#
# Total GULP energy -470969.003870 kJ/mol
# GULP energy per Si atom -12393.921154 kJ/mol
# Density = 2.083814 g / cm^3
# Si number density = 20.885676 Si / 1000 Ang^3
#
#
#
# Elastic Constant Matrix: (Units=GPa)
#
#
# Indices 1 2 3 4 5 6 
#
# 1 136.9936 52.9893 67.9081 0.0000 0.0000 0.0000
# 2 52.9893 69.5591 38.8846 0.0000 0.0000 0.0000
# 3 67.9081 38.8846 164.7632 0.0000 0.0000 0.0000
# 4 0.0000 0.0000 0.0000 17.6192 0.0000 0.0000
# 5 0.0000 0.0000 0.0000 0.0000 -5.0577 0.0000
# 6 0.0000 0.0000 0.0000 0.0000 0.0000 32.4171
#
#
#
# Elastic Compliance Matrix: (Units=1/GPa)
#
#
# Indices 1 2 3 4 5 6 
#
# 1 0.011577 -0.007087 -0.003099 0.000000 0.000000 0.000000
# 2 -0.007087 0.020899 -0.002011 0.000000 0.000000 0.000000
# 3 -0.003099 -0.002011 0.007821 0.000000 0.000000 0.000000
# 4 0.000000 0.000000 0.000000 0.056756 0.000000 0.000000
# 5 0.000000 0.000000 0.000000 0.000000 -0.197720 0.000000
# 6 0.000000 0.000000 0.000000 0.000000 0.000000 0.030848
#
#
# Mechanical properties :
#
#
# Convention : Reuss Voigt Hill
#
# Bulk Modulus (GPa) = 62.88082 76.76443 69.82263
# Shear Modulus (GPa) = -124.61794 23.09799 -50.75997
#
# Velocity S-wave (km/s) = -7.73280 3.32915 -4.93523
# Velocity P-wave (km/s) = 7.03959 7.18415 1.01397
#
# Compressibility (1/GPa) = 0.01590310
#
# Stress axis : x y z
#
# Youngs Moduli (GPa) = 86.37814 47.84839 127.85610
#
# Poissons Ratio (x) = 0.33909 0.39623
# Poissons Ratio (y) = 0.61215 0.25717
# Poissons Ratio (z) = 0.26769 0.09624
#
# Static dielectric constant tensor:
#      x y z
#    x 4.296920 0.000000 0.000000 
#    y 0.000000 3.289960 0.000000 
#    z 0.000000 0.000000 5.364100 
# 
# 
# High freq. dielectric constant tensor:
#      x y z
#    x 1.832710 0.000000 0.000000 
#    y 0.000000 1.791350 0.000000 
#    z 0.000000 0.000000 1.840390 
# 
# From -- ./inp_files/9046.got.cif
#   From: 2010.06.25/outbox.cif.g09.slc.cpg/sg48_5_cif.got.tgz:9046.got - 2010.06.26 18:06:46.
