data_PCOD8201471
_publ_section_title
;
Structure prediction by ZEFSAII (Michael W. Deem and Ramdas Pophale) SiO2 
 PCOD8201471
Probable space group: P N N N
;
_chemical_formula_sum "Si O2"
_cell_formula_units_Z 52
_cell_length_a 12.405228
_cell_length_b 25.251544
_cell_length_c 8.609299
_cell_angle_alpha 90.000000
_cell_angle_beta 90.000000
_cell_angle_gamma 90.000000
_cell_volume 2696.872904
_symmetry_space_group_name_H-M "P N N N"
_symmetry_group_IT_number 48
_space_group.IT_coordinate_system_code '2'
_symmetry_cell_setting 'orthorhombic'
loop_
_space_group_symop_operation_xyz
x,y,z
1/2-x,1/2-y,z
x,1/2-y,1/2-z
1/2-x,y,1/2-z
-x,-y,-z
1/2+x,1/2+y,-z
-x,1/2+y,1/2+z
1/2+x,-y,1/2+z
loop_
_atom_site_type_symbol
_atom_site_label
_atom_site_fract_x
_atom_site_fract_y
_atom_site_fract_z
Si Si1 0.228267 0.007411 0.506224
Si Si2 0.134104 0.195109 0.316910
Si Si3 0.867775 0.696706 0.182511
Si Si4 0.473955 0.896170 0.816828
Si Si5 0.250000 0.917265 0.750000
Si Si6 0.579701 0.503175 0.791200
Si Si7 0.058271 0.083590 0.652678
O O1 0.157098 0.000438 0.355214
O O2 0.352573 0.014102 0.449252
O O3 0.174227 0.055729 0.606594
O O4 0.230209 0.953598 0.600711
O O5 0.090742 0.250000 0.250000
O O6 0.250000 0.179566 0.250000
O O7 0.140884 0.200847 0.499386
O O8 0.053415 0.149815 0.263476
O O9 0.927026 0.750000 0.250000
O O10 0.750000 0.694922 0.250000
O O11 0.925480 0.641627 0.228605
O O12 0.354585 0.879288 0.757890
O O13 0.497580 0.948651 0.719320
O O14 0.484776 0.909363 0.999410
O O15 0.505919 0.450119 0.783099
#
# Coordination Sequence:
#
# PCOD8201471 Si02
#       7
#     8   8   8   8   4   8   8
#     4  10  21  33  57  80 117 153 186 237 277 358
#     4  10  21  39  60  84 114 147 191 239 297 352
#     4  10  21  36  56  83 110 148 185 238 294 337
#     4  10  21  34  59  82 118 154 186 236 291 340
#     4  12  20  38  49  86 123 142 194 234 278 336
#     4  10  19  38  55  83 111 158 196 214 301 344
#     4  10  19  38  57  81 120 156 187 237 297 345
#
# _framework density 19.281592
#
# number of rings (size 3 to 8) (size 9 to 14) (size 15 to 20)
#    0.000    1.846    3.077    2.769    7.538    0.615 
#    5.538    0.385    0.000    0.000    0.000    2.154 
#    0.000    0.000    0.000    0.000    0.000    0.000 
#
# Total GULP energy -644282.411898 kJ/mol
# GULP energy per Si atom -12390.046383 kJ/mol
# Density = 1.923771 g / cm^3
# Si number density = 19.281592 Si / 1000 Ang^3
#
#
#
# Elastic Constant Matrix: (Units=GPa)
#
#
# Indices 1 2 3 4 5 6 
#
# 1 109.0089 69.2315 27.5550 0.0000 0.0000 0.0000
# 2 69.2315 145.1838 19.8924 0.0000 0.0000 0.0000
# 3 27.5550 19.8924 34.6283 0.0000 0.0000 0.0000
# 4 0.0000 0.0000 0.0000 24.9539 0.0000 0.0000
# 5 0.0000 0.0000 0.0000 0.0000 20.6734 0.0000
# 6 0.0000 0.0000 0.0000 0.0000 0.0000 30.1360
#
#
#
# Elastic Compliance Matrix: (Units=1/GPa)
#
#
# Indices 1 2 3 4 5 6 
#
# 1 0.015206 -0.006071 -0.008613 0.000000 0.000000 0.000000
# 2 -0.006071 0.009900 -0.000856 0.000000 0.000000 0.000000
# 3 -0.008613 -0.000856 0.036223 0.000000 0.000000 0.000000
# 4 0.000000 0.000000 0.000000 0.040074 0.000000 0.000000
# 5 0.000000 0.000000 0.000000 0.000000 0.048371 0.000000
# 6 0.000000 0.000000 0.000000 0.000000 0.000000 0.033183
#
#
# Mechanical properties :
#
#
# Convention : Reuss Voigt Hill
#
# Bulk Modulus (GPa) = 33.05792 58.01985 45.53889
# Shear Modulus (GPa) = 22.30932 26.62880 24.46906
#
# Velocity S-wave (km/s) = 3.40520 3.72028 3.56622
# Velocity P-wave (km/s) = 5.71337 6.97209 6.37388
#
# Compressibility (1/GPa) = 0.03024994
#
# Stress axis : x y z
#
# Youngs Moduli (GPa) = 65.76142 101.00799 27.60651
#
# Poissons Ratio (x) = 0.61324 0.23777
# Poissons Ratio (y) = 0.39925 0.02364
# Poissons Ratio (z) = 0.56638 0.08648
#
# Static dielectric constant tensor:
#      x y z
#    x 3.588120 0.000000 0.000000 
#    y 0.000000 3.844280 0.000000 
#    z 0.000000 0.000000 3.643960 
# 
# 
# High freq. dielectric constant tensor:
#      x y z
#    x 1.742690 0.000000 0.000000 
#    y 0.000000 1.739040 0.000000 
#    z 0.000000 0.000000 1.749270 
# 
# From -- ./inp_files/11403.got.cif
#   From: 2010.06.25/outbox.cif.g09.slc.cpg/sg48_6_cif.got.tgz:11403.got - 2010.06.26 18:06:46.
