data_PCOD8201900
_publ_section_title
;
Structure prediction by ZEFSAII (Michael W. Deem and Ramdas Pophale) SiO2 
 PCOD8201900
Probable space group: P N N N
;
_chemical_formula_sum "Si O2"
_cell_formula_units_Z 38
_cell_length_a 10.603901
_cell_length_b 9.511145
_cell_length_c 17.399818
_cell_angle_alpha 90.000000
_cell_angle_beta 90.000000
_cell_angle_gamma 90.000000
_cell_volume 1754.862820
_symmetry_space_group_name_H-M "P N N N"
_symmetry_group_IT_number 48
_space_group.IT_coordinate_system_code '2'
_symmetry_cell_setting 'orthorhombic'
loop_
_space_group_symop_operation_xyz
x,y,z
1/2-x,1/2-y,z
x,1/2-y,1/2-z
1/2-x,y,1/2-z
-x,-y,-z
1/2+x,1/2+y,-z
-x,1/2+y,1/2+z
1/2+x,-y,1/2+z
loop_
_atom_site_type_symbol
_atom_site_label
_atom_site_fract_x
_atom_site_fract_y
_atom_site_fract_z
Si Si1 0.975454 0.776011 0.407866
Si Si2 0.107489 0.227484 0.075341
Si Si3 0.950746 0.440470 0.169181
Si Si4 0.929931 0.035088 0.822964
Si Si5 0.750000 0.250000 0.250000
Si Si6 0.250000 0.750000 0.374675
O O1 0.903875 0.726808 0.483654
O O2 0.962885 0.650735 0.344887
O O3 0.127353 0.798641 0.424874
O O4 0.910418 0.914155 0.371653
O O5 0.250000 0.250000 0.101192
O O6 0.025222 0.354810 0.105851
O O7 0.061581 0.081417 0.110754
O O8 0.830468 0.351740 0.195626
O O9 0.043538 0.468101 0.240724
O O10 0.794199 0.116029 0.822796
#
# Coordination Sequence:
#
# PCOD8201900 Si02
#       6
#     8   8   8   8   2   4
#     4  10  24  44  71 106 143 186 240 291 362 426
#     4  12  25  43  70 109 147 189 236 297 362 431
#     4  12  25  48  70 105 139 192 242 299 367 428
#     4  10  22  46  71 105 140 186 242 293 362 422
#     4  12  28  50  72 102 148 196 240 314 368 426
#     4   8  22  40  78 103 139 190 230 300 349 423
#
# _framework density 21.654112000000001
#
# number of rings (size 3 to 8) (size 9 to 14) (size 15 to 20)
#    1.263    0.000    2.105    3.158    0.000    7.579 
#    3.789    1.053    0.000    0.000    0.000    0.000 
#    0.000    0.000    0.000    0.000    0.000    0.000 
#
# Total GULP energy -470968.818435 kJ/mol
# GULP energy per Si atom -12393.916275 kJ/mol
# Density = 2.160483 g / cm^3
# Si number density = 21.654112 Si / 1000 Ang^3
#
#
#
# Elastic Constant Matrix: (Units=GPa)
#
#
# Indices 1 2 3 4 5 6 
#
# 1 50.0680 12.5474 2.5930 0.0000 0.0000 0.0000
# 2 12.5474 129.7158 22.1706 0.0000 0.0000 0.0000
# 3 2.5930 22.1706 73.0350 0.0000 0.0000 0.0000
# 4 0.0000 0.0000 0.0000 29.6433 0.0000 0.0000
# 5 0.0000 0.0000 0.0000 0.0000 14.0609 0.0000
# 6 0.0000 0.0000 0.0000 0.0000 0.0000 32.5237
#
#
#
# Elastic Compliance Matrix: (Units=1/GPa)
#
#
# Indices 1 2 3 4 5 6 
#
# 1 0.020470 -0.001957 -0.000133 0.000000 0.000000 0.000000
# 2 -0.001957 0.008318 -0.002456 0.000000 0.000000 0.000000
# 3 -0.000133 -0.002456 0.014442 0.000000 0.000000 0.000000
# 4 0.000000 0.000000 0.000000 0.033734 0.000000 0.000000
# 5 0.000000 0.000000 0.000000 0.000000 0.071119 0.000000
# 6 0.000000 0.000000 0.000000 0.000000 0.000000 0.030747
#
#
# Mechanical properties :
#
#
# Convention : Reuss Voigt Hill
#
# Bulk Modulus (GPa) = 29.29163 36.38233 32.83698
# Shear Modulus (GPa) = 25.08756 29.61277 27.35017
#
# Velocity S-wave (km/s) = 3.40745 3.70203 3.55779
# Velocity P-wave (km/s) = 5.38864 5.92549 5.66343
#
# Compressibility (1/GPa) = 0.03413945
#
# Stress axis : x y z
#
# Youngs Moduli (GPa) = 48.85143 120.21830 69.24153
#
# Poissons Ratio (x) = 0.23532 0.00918
# Poissons Ratio (y) = 0.09562 0.17003
# Poissons Ratio (z) = 0.00648 0.29521
#
# Static dielectric constant tensor:
#      x y z
#    x 3.441690 0.000000 0.000000 
#    y 0.000000 4.337280 0.000000 
#    z 0.000000 0.000000 3.649880 
# 
# 
# High freq. dielectric constant tensor:
#      x y z
#    x 1.830250 0.000000 0.000000 
#    y 0.000000 1.872350 0.000000 
#    z 0.000000 0.000000 1.841100 
# 
# From -- ./inp_files/30873.got.cif
#   From: 2010.06.25/outbox.cif.g09.slc.cpg/sg48_16_cif.got.tgz:30873.got - 2010.06.26 18:06:46.
