data_PCOD8201433
_publ_section_title
;
Structure prediction by ZEFSAII (Michael W. Deem and Ramdas Pophale) SiO2 
 PCOD8201433
Probable space group: P N N N
;
_chemical_formula_sum "Si O2"
_cell_formula_units_Z 48
_cell_length_a 15.537342
_cell_length_b 17.484986
_cell_length_c 8.695354
_cell_angle_alpha 90.000000
_cell_angle_beta 90.000000
_cell_angle_gamma 90.000000
_cell_volume 2362.268624
_symmetry_space_group_name_H-M "P N N N"
_symmetry_group_IT_number 48
_space_group.IT_coordinate_system_code '2'
_symmetry_cell_setting 'orthorhombic'
loop_
_space_group_symop_operation_xyz
x,y,z
1/2-x,1/2-y,z
x,1/2-y,1/2-z
1/2-x,y,1/2-z
-x,-y,-z
1/2+x,1/2+y,-z
-x,1/2+y,1/2+z
1/2+x,-y,1/2+z
loop_
_atom_site_type_symbol
_atom_site_label
_atom_site_fract_x
_atom_site_fract_y
_atom_site_fract_z
Si Si1 0.880003 0.328840 0.299897
Si Si2 0.039068 0.794785 0.104116
Si Si3 0.169210 0.516840 0.826929
Si Si4 0.492723 0.561023 0.287126
Si Si5 0.470409 0.157093 0.070178
Si Si6 0.837880 0.540422 0.842555
O O1 0.834705 0.250000 0.250000
O O2 0.822101 0.396715 0.236188
O O3 0.888625 0.323995 0.485101
O O4 0.975563 0.334096 0.225164
O O5 0.081914 0.750000 0.250000
O O6 0.993837 0.870656 0.166642
O O7 0.969160 0.738184 0.021568
O O8 0.250000 0.472083 0.750000
O O9 0.078944 0.486631 0.765887
O O10 0.182145 0.510347 0.008534
O O11 0.484200 0.592420 0.462344
O O12 0.410676 0.507196 0.248039
O O13 0.375128 0.124873 0.111869
O O14 0.750000 0.551612 0.750000
#
# Coordination Sequence:
#
# PCOD8201433 Si02
#       6
#     8   8   8   8   8   8
#     4  10  19  35  60  82 118 161 200 243 314 380
#     4   9  20  33  62  91 115 158 211 254 314 377
#     4  11  23  38  58  91 124 160 207 259 318 384
#     4  10  19  39  63  86 121 161 203 266 313 369
#     4   9  17  39  60  86 120 168 200 249 316 380
#     4  11  22  37  64  93 125 162 209 263 319 384
#
# _framework density 20.31945
#
# number of rings (size 3 to 8) (size 9 to 14) (size 15 to 20)
#    0.000    2.000    3.333    1.000    2.333    2.333 
#    0.000    0.000    0.000   35.500    0.000    0.000 
#    0.000    0.000    0.000    0.000    0.000    0.000 
#
# Total GULP energy -594749.014789 kJ/mol
# GULP energy per Si atom -12390.604475 kJ/mol
# Density = 2.027320 g / cm^3
# Si number density = 20.319450 Si / 1000 Ang^3
#
#
#
# Elastic Constant Matrix: (Units=GPa)
#
#
# Indices 1 2 3 4 5 6 
#
# 1 120.5394 33.8267 42.1986 0.0000 0.0000 0.0000
# 2 33.8267 93.7987 35.8415 0.0000 0.0000 0.0000
# 3 42.1986 35.8415 106.8840 0.0000 0.0000 0.0000
# 4 0.0000 0.0000 0.0000 24.2945 0.0000 0.0000
# 5 0.0000 0.0000 0.0000 0.0000 25.9031 0.0000
# 6 0.0000 0.0000 0.0000 0.0000 0.0000 8.9093
#
#
#
# Elastic Compliance Matrix: (Units=1/GPa)
#
#
# Indices 1 2 3 4 5 6 
#
# 1 0.010086 -0.002427 -0.003168 0.000000 0.000000 0.000000
# 2 -0.002427 0.012812 -0.003338 0.000000 0.000000 0.000000
# 3 -0.003168 -0.003338 0.011726 0.000000 0.000000 0.000000
# 4 0.000000 0.000000 0.000000 0.041162 0.000000 0.000000
# 5 0.000000 0.000000 0.000000 0.000000 0.038605 0.000000
# 6 0.000000 0.000000 0.000000 0.000000 0.000000 0.112242
#
#
# Mechanical properties :
#
#
# Convention : Reuss Voigt Hill
#
# Bulk Modulus (GPa) = 59.67357 60.55065 60.11211
# Shear Modulus (GPa) = 19.99317 25.77841 22.88579
#
# Velocity S-wave (km/s) = 3.14019 3.56568 3.35968
# Velocity P-wave (km/s) = 6.52527 6.84224 6.68563
#
# Compressibility (1/GPa) = 0.01675784
#
# Stress axis : x y z
#
# Youngs Moduli (GPa) = 99.14497 78.05291 85.27908
#
# Poissons Ratio (x) = 0.18941 0.27019
# Poissons Ratio (y) = 0.24060 0.28467
# Poissons Ratio (z) = 0.31413 0.26055
#
# Static dielectric constant tensor:
#      x y z
#    x 3.319480 0.000000 0.000000 
#    y 0.000000 4.023940 0.000000 
#    z 0.000000 0.000000 3.849000 
# 
# 
# High freq. dielectric constant tensor:
#      x y z
#    x 1.759840 0.000000 0.000000 
#    y 0.000000 1.802810 0.000000 
#    z 0.000000 0.000000 1.796080 
# 
# From -- ./inp_files/12767.got.cif
#   From: 2010.06.25/outbox.cif.g09.slc.cpg/sg48_7_cif.got.tgz:12767.got - 2010.06.26 18:06:46.
