data_PCOD8201547
_publ_section_title
;
Structure prediction by ZEFSAII (Michael W. Deem and Ramdas Pophale) SiO2 
 PCOD8201547
Probable space group: P N N N
;
_chemical_formula_sum "Si O2"
_cell_formula_units_Z 64
_cell_length_a 20.451030
_cell_length_b 18.051149
_cell_length_c 8.550266
_cell_angle_alpha 90.000000
_cell_angle_beta 90.000000
_cell_angle_gamma 90.000000
_cell_volume 3156.455440
_symmetry_space_group_name_H-M "P N N N"
_symmetry_group_IT_number 48
_space_group.IT_coordinate_system_code '2'
_symmetry_cell_setting 'orthorhombic'
loop_
_space_group_symop_operation_xyz
x,y,z
1/2-x,1/2-y,z
x,1/2-y,1/2-z
1/2-x,y,1/2-z
-x,-y,-z
1/2+x,1/2+y,-z
-x,1/2+y,1/2+z
1/2+x,-y,1/2+z
loop_
_atom_site_type_symbol
_atom_site_label
_atom_site_fract_x
_atom_site_fract_y
_atom_site_fract_z
Si Si1 0.394278 0.877573 0.575942
Si Si2 0.359763 0.466532 0.070964
Si Si3 0.805951 0.123034 0.356034
Si Si4 0.627730 0.226694 0.923536
Si Si5 0.975170 0.103817 0.580143
Si Si6 0.097560 0.455809 0.075578
Si Si7 0.017255 0.080105 0.935694
Si Si8 0.771142 0.541149 0.081531
O O1 0.373667 0.889179 0.756817
O O2 0.365102 0.799288 0.527352
O O3 0.472352 0.867281 0.545606
O O4 0.368107 0.946223 0.471111
O O5 0.380951 0.450709 0.246398
O O6 0.404966 0.412693 0.962264
O O7 0.285418 0.440327 0.044172
O O8 0.750000 0.161839 0.250000
O O9 0.818100 0.170892 0.510313
O O10 0.775273 0.046932 0.412984
O O11 0.646020 0.250000 0.750000
O O12 0.556997 0.185223 0.930136
O O13 0.036192 0.097908 0.460674
O O14 0.001170 0.089638 0.754559
O O15 0.921622 0.040979 0.535289
O O16 0.158563 0.427712 0.970881
O O17 0.000000 0.000000 0.000000
O O18 0.750000 0.573967 0.250000
#
# Coordination Sequence:
#
# PCOD8201547 Si02
#       8
#     8   8   8   8   8   8   8   8
#     4  11  22  38  58  83 118 159 199 248 298 352
#     4  11  21  38  60  88 118 159 201 246 304 363
#     4  11  24  41  57  81 119 165 212 243 297 349
#     4  12  24  42  60  83 122 160 210 254 290 356
#     4  11  22  36  58  87 115 158 195 256 306 348
#     4  11  22  35  58  87 117 152 202 248 309 357
#     4  10  20  35  59  82 113 147 201 245 308 358
#     4  11  21  38  60  83 122 159 199 251 297 362
#
# _framework density 20.275908000000001
#
# number of rings (size 3 to 8) (size 9 to 14) (size 15 to 20)
#    0.000    1.000    7.500    1.500    3.500    1.000 
#    0.000    1.250    0.000    0.000    0.000    0.875 
#    0.000    2.000    0.000    0.000    0.000    0.000 
#
# Total GULP energy -793175.627183 kJ/mol
# GULP energy per Si atom -12393.369175 kJ/mol
# Density = 2.022976 g / cm^3
# Si number density = 20.275908 Si / 1000 Ang^3
#
#
#
# Elastic Constant Matrix: (Units=GPa)
#
#
# Indices 1 2 3 4 5 6 
#
# 1 122.8661 2.2498 43.7792 0.0000 0.0000 0.0000
# 2 2.2498 21.5296 15.9169 0.0000 0.0000 0.0000
# 3 43.7792 15.9169 113.8895 0.0000 0.0000 0.0000
# 4 0.0000 0.0000 0.0000 19.8353 0.0000 0.0000
# 5 0.0000 0.0000 0.0000 0.0000 42.2995 0.0000
# 6 0.0000 0.0000 0.0000 0.0000 0.0000 23.5298
#
#
#
# Elastic Compliance Matrix: (Units=1/GPa)
#
#
# Indices 1 2 3 4 5 6 
#
# 1 0.009500 0.001904 -0.003918 0.000000 0.000000 0.000000
# 2 0.001904 0.052181 -0.008025 0.000000 0.000000 0.000000
# 3 -0.003918 -0.008025 0.011408 0.000000 0.000000 0.000000
# 4 0.000000 0.000000 0.000000 0.050415 0.000000 0.000000
# 5 0.000000 0.000000 0.000000 0.000000 0.023641 0.000000
# 6 0.000000 0.000000 0.000000 0.000000 0.000000 0.042499
#
#
# Mechanical properties :
#
#
# Convention : Reuss Voigt Hill
#
# Bulk Modulus (GPa) = 18.86360 42.46412 30.66386
# Shear Modulus (GPa) = 21.98836 30.22220 26.10528
#
# Velocity S-wave (km/s) = 3.29668 3.86495 3.59207
# Velocity P-wave (km/s) = 4.88001 6.39576 5.68859
#
# Compressibility (1/GPa) = 0.05301215
#
# Stress axis : x y z
#
# Youngs Moduli (GPa) = 105.26199 19.16390 87.65785
#
# Poissons Ratio (x) = -0.03648 0.34344
# Poissons Ratio (y) = -0.20040 0.70342
# Poissons Ratio (z) = 0.41241 0.15378
#
# Static dielectric constant tensor:
#      x y z
#    x 4.439710 0.000000 0.000000 
#    y 0.000000 3.397550 0.000000 
#    z 0.000000 0.000000 3.824670 
# 
# 
# High freq. dielectric constant tensor:
#      x y z
#    x 1.804790 0.000000 0.000000 
#    y 0.000000 1.729400 0.000000 
#    z 0.000000 0.000000 1.804320 
# 
# From -- ./inp_files/15441.got.cif
#   From: 2010.06.25/outbox.cif.g09.slc.cpg/sg48_8_cif.got.tgz:15441.got - 2010.06.26 18:06:46.
