data_PCOD8201112
_publ_section_title
;
Structure prediction by ZEFSAII (Michael W. Deem and Ramdas Pophale) SiO2 
 PCOD8201112
Probable space group: P M M M
;
_chemical_formula_sum "Si O2"
_cell_formula_units_Z 44
_cell_length_a 30.463644
_cell_length_b 9.395782
_cell_length_c 8.014987
_cell_angle_alpha 90.000000
_cell_angle_beta 90.000000
_cell_angle_gamma 90.000000
_cell_volume 2294.127789
_symmetry_space_group_name_H-M "P M M M"
_symmetry_group_IT_number 47
_symmetry_cell_setting 'orthorhombic'
loop_
_space_group_symop_operation_xyz
x,y,z
-x,-y,z
x,-y,-z
-x,y,-z
-x,-y,-z
x,y,-z
-x,y,z
x,-y,z
loop_
_atom_site_type_symbol
_atom_site_label
_atom_site_fract_x
_atom_site_fract_y
_atom_site_fract_z
Si Si1 0.138716 0.841587 0.307230
Si Si2 0.781379 0.340140 0.300968
Si Si3 0.301889 0.162934 0.696498
Si Si4 0.952857 0.168044 0.191474
Si Si5 0.549779 0.169927 0.500000
Si Si6 0.395809 0.169015 0.185235
O O1 0.149295 0.856730 0.500000
O O2 0.175728 0.740123 0.227037
O O3 0.090225 0.771417 0.284462
O O4 0.140856 0.000000 0.224726
O O5 0.782718 0.342141 0.500000
O O6 0.780860 0.500000 0.229292
O O7 0.738125 0.258617 0.237935
O O8 0.309186 0.178042 0.500000
O O9 0.345871 0.219128 0.785553
O O10 0.291451 0.000000 0.744432
O O11 0.000000 0.227902 0.260904
O O12 0.953586 0.000000 0.215651
O O13 0.948485 0.211345 0.000000
O O14 0.500000 0.225383 0.500000
O O15 0.573031 0.230721 0.668023
O O16 0.551840 0.000000 0.500000
O O17 0.397506 0.000000 0.195247
O O18 0.411133 0.220778 0.000000
#
# Coordination Sequence:
#
# PCOD8201112 Si02
#       6
#     8   8   8   8   4   8
#     4   9  16  26  42  65  89 112 143 181 220 264
#     4   9  17  28  43  64  89 117 148 182 224 274
#     4   9  15  26  45  64  85 117 155 191 227 270
#     4   8  14  25  41  61  84 109 138 175 219 263
#     4   9  16  26  40  62  95 131 163 195 236 285
#     4   9  16  26  41  63  91 123 160 199 237 279
#
# _framework density 19.179403000000001
#
# number of rings (size 3 to 8) (size 9 to 14) (size 15 to 20)
#    0.000    3.182    0.909    1.091    0.000    2.909 
#    0.000    4.545    0.000    7.091    0.000    3.818 
#    0.000    1.455    0.000    1.636    0.000    1.818 
#
# Total GULP energy -545172.927058 kJ/mol
# GULP energy per Si atom -12390.293797 kJ/mol
# Density = 1.913575 g / cm^3
# Si number density = 19.179403 Si / 1000 Ang^3
#
#
#
# Elastic Constant Matrix: (Units=GPa)
#
#
# Indices 1 2 3 4 5 6 
#
# 1 184.7177 54.6009 57.5841 0.0000 0.0000 0.0000
# 2 54.6009 60.1716 16.8114 0.0000 0.0000 0.0000
# 3 57.5841 16.8114 66.1912 0.0000 0.0000 0.0000
# 4 0.0000 0.0000 0.0000 4.6080 0.0000 0.0000
# 5 0.0000 0.0000 0.0000 0.0000 11.6475 0.0000
# 6 0.0000 0.0000 0.0000 0.0000 0.0000 3.5481
#
#
#
# Elastic Compliance Matrix: (Units=1/GPa)
#
#
# Indices 1 2 3 4 5 6 
#
# 1 0.009431 -0.006744 -0.006492 0.000000 0.000000 0.000000
# 2 -0.006744 0.022711 0.000099 0.000000 0.000000 0.000000
# 3 -0.006492 0.000099 0.020730 0.000000 0.000000 0.000000
# 4 0.000000 0.000000 0.000000 0.217014 0.000000 0.000000
# 5 0.000000 0.000000 0.000000 0.000000 0.085856 0.000000
# 6 0.000000 0.000000 0.000000 0.000000 0.000000 0.281843
#
#
# Mechanical properties :
#
#
# Convention : Reuss Voigt Hill
#
# Bulk Modulus (GPa) = 37.59606 63.23038 50.41322
# Shear Modulus (GPa) = 7.43246 16.09964 11.76605
#
# Velocity S-wave (km/s) = 1.97070 2.90042 2.47953
# Velocity P-wave (km/s) = 4.98227 6.65252 5.87704
#
# Compressibility (1/GPa) = 0.02659853
#
# Stress axis : x y z
#
# Youngs Moduli (GPa) = 106.03471 44.03108 48.23888
#
# Poissons Ratio (x) = 0.29695 0.31315
# Poissons Ratio (y) = 0.71510 -0.00477
# Poissons Ratio (z) = 0.68834 -0.00435
#
# Static dielectric constant tensor:
#      x y z
#    x 3.748840 0.000000 0.000000 
#    y 0.000000 3.079160 0.000000 
#    z 0.000000 0.000000 3.326510 
# 
# 
# High freq. dielectric constant tensor:
#      x y z
#    x 1.761910 0.000000 0.000000 
#    y 0.000000 1.675200 0.000000 
#    z 0.000000 0.000000 1.723970 
# 
# From -- ./inp_files/13585.got.cif
#   From: 2010.03.12/outbox.cif.g09.slc.cpg/sg47_7_cif.got.tgz:13585.got - 2010.04.14 03:12:58.
