data_PCOD8201074
_publ_section_title
;
Structure prediction by ZEFSAII (Michael W. Deem and Ramdas Pophale) SiO2 
 PCOD8201074
Probable space group: P M M M
;
_chemical_formula_sum "Si O2"
_cell_formula_units_Z 56
_cell_length_a 24.786190
_cell_length_b 15.187244
_cell_length_c 9.891439
_cell_angle_alpha 90.000000
_cell_angle_beta 90.000000
_cell_angle_gamma 90.000000
_cell_volume 3723.473111
_symmetry_space_group_name_H-M "P M M M"
_symmetry_group_IT_number 47
_symmetry_cell_setting 'orthorhombic'
loop_
_space_group_symop_operation_xyz
x,y,z
-x,-y,z
x,-y,-z
-x,y,-z
-x,-y,-z
x,y,-z
-x,y,z
x,-y,z
loop_
_atom_site_type_symbol
_atom_site_label
_atom_site_fract_x
_atom_site_fract_y
_atom_site_fract_z
Si Si1 0.440284 0.104501 0.348579
Si Si2 0.653423 0.898864 0.155700
Si Si3 0.137966 0.597539 0.650988
Si Si4 0.737299 0.750878 0.844785
Si Si5 0.733946 0.597600 0.348226
Si Si6 0.862277 0.750652 0.157961
Si Si7 0.939847 0.902521 0.839539
O O1 0.424918 0.135791 0.500000
O O2 0.500000 0.140503 0.309861
O O3 0.396057 0.139984 0.243326
O O4 0.441395 0.000000 0.342184
O O5 0.706129 0.841158 0.187528
O O6 0.667165 0.000000 0.193661
O O7 0.636051 0.891033 0.000000
O O8 0.119292 0.625161 0.500000
O O9 0.115653 0.500000 0.685857
O O10 0.202039 0.595918 0.657661
O O11 0.115642 0.665948 0.761085
O O12 0.712481 0.671629 0.755146
O O13 0.799690 0.769454 0.810945
O O14 0.730062 0.722258 0.000000
O O15 0.714425 0.621099 0.500000
O O16 0.712252 0.500000 0.307400
O O17 0.895822 0.833643 0.214501
O O18 0.872559 0.733180 0.000000
O O19 0.000000 0.875153 0.791221
O O20 0.925558 0.000000 0.783626
O O21 0.937936 0.904471 0.000000
#
# Coordination Sequence:
#
# PCOD8201074 Si02
#       7
#     8   8   8   8   8   8   8
#     4   8  14  25  40  56  73  96 131 172 204 226
#     4   9  17  27  37  52  79 112 138 159 187 227
#     4   8  14  25  40  57  78 103 127 152 188 235
#     4   9  17  26  36  56  84 108 130 158 194 234
#     4   8  14  25  40  56  74  99 131 163 194 230
#     4   9  16  25  40  61  80 100 129 164 198 231
#     4   8  14  25  41  60  79  99 128 167 205 236
#
# _framework density 15.039721999999999
#
# number of rings (size 3 to 8) (size 9 to 14) (size 15 to 20)
#    0.000    3.571    0.000    1.714    0.000    2.000 
#    0.000    7.143    0.000    1.286    0.000    8.000 
#    0.000    0.571    0.000    6.286    0.000    5.143 
#
# Total GULP energy -693962.260009 kJ/mol
# GULP energy per Si atom -12392.183214 kJ/mol
# Density = 1.500549 g / cm^3
# Si number density = 15.039722 Si / 1000 Ang^3
#
#
#
# Elastic Constant Matrix: (Units=GPa)
#
#
# Indices 1 2 3 4 5 6 
#
# 1 60.8726 49.2055 39.8280 0.0000 0.0000 0.0000
# 2 49.2055 103.9279 57.4446 0.0000 0.0000 0.0000
# 3 39.8280 57.4446 67.0749 0.0000 0.0000 0.0000
# 4 0.0000 0.0000 0.0000 18.4965 0.0000 0.0000
# 5 0.0000 0.0000 0.0000 0.0000 12.2589 0.0000
# 6 0.0000 0.0000 0.0000 0.0000 0.0000 3.4002
#
#
#
# Elastic Compliance Matrix: (Units=1/GPa)
#
#
# Indices 1 2 3 4 5 6 
#
# 1 0.030248 -0.008343 -0.010816 0.000000 0.000000 0.000000
# 2 -0.008343 0.020572 -0.012665 0.000000 0.000000 0.000000
# 3 -0.010816 -0.012665 0.032177 0.000000 0.000000 0.000000
# 4 0.000000 0.000000 0.000000 0.054064 0.000000 0.000000
# 5 0.000000 0.000000 0.000000 0.000000 0.081573 0.000000
# 6 0.000000 0.000000 0.000000 0.000000 0.000000 0.294100
#
#
# Mechanical properties :
#
#
# Convention : Reuss Voigt Hill
#
# Bulk Modulus (GPa) = 51.67708 58.31463 54.99586
# Shear Modulus (GPa) = 8.57878 12.52427 10.55153
#
# Velocity S-wave (km/s) = 2.39091 2.88887 2.65160
# Velocity P-wave (km/s) = 6.48513 7.07003 6.78389
#
# Compressibility (1/GPa) = 0.01935094
#
# Stress axis : x y z
#
# Youngs Moduli (GPa) = 33.05965 48.60880 31.07777
#
# Poissons Ratio (x) = 0.40555 0.33613
# Poissons Ratio (y) = 0.27582 0.39359
# Poissons Ratio (z) = 0.35756 0.61562
#
# Static dielectric constant tensor:
#      x y z
#    x 2.780860 0.000000 0.000000 
#    y 0.000000 3.075700 0.000000 
#    z 0.000000 0.000000 2.938910 
# 
# 
# High freq. dielectric constant tensor:
#      x y z
#    x 1.542800 0.000000 0.000000 
#    y 0.000000 1.563970 0.000000 
#    z 0.000000 0.000000 1.566680 
# 
# From -- ./inp_files/16531.got.cif
#   From: 2010.03.12/outbox.cif.g09.slc.cpg/sg47_9_cif.got.tgz:16531.got - 2010.04.14 03:12:58.
