data_PCOD8201836
_publ_section_title
;
Structure prediction by ZEFSAII (Michael W. Deem and Ramdas Pophale) SiO2 
 PCOD8201836
Probable space group: P N N N
;
_chemical_formula_sum "Si O2"
_cell_formula_units_Z 40
_cell_length_a 4.910430
_cell_length_b 26.219463
_cell_length_c 13.931424
_cell_angle_alpha 90.000000
_cell_angle_beta 90.000000
_cell_angle_gamma 90.000000
_cell_volume 1793.654647
_symmetry_space_group_name_H-M "P N N N"
_symmetry_group_IT_number 48
_space_group.IT_coordinate_system_code '2'
_symmetry_cell_setting 'orthorhombic'
loop_
_space_group_symop_operation_xyz
x,y,z
1/2-x,1/2-y,z
x,1/2-y,1/2-z
1/2-x,y,1/2-z
-x,-y,-z
1/2+x,1/2+y,-z
-x,1/2+y,1/2+z
1/2+x,-y,1/2+z
loop_
_atom_site_type_symbol
_atom_site_label
_atom_site_fract_x
_atom_site_fract_y
_atom_site_fract_z
Si Si1 0.647549 0.303382 0.031360
Si Si2 0.121160 0.907869 0.047879
Si Si3 0.885995 0.068492 0.350203
Si Si4 0.117832 0.049825 0.650586
Si Si5 0.650303 0.668044 0.646864
O O1 0.750000 0.250000 0.985730
O O2 0.340052 0.303365 0.070346
O O3 0.840927 0.315861 0.122855
O O4 0.644511 0.346323 0.948589
O O5 0.328018 0.925022 0.130606
O O6 0.824956 0.932318 0.067507
O O7 0.185956 0.925697 0.940304
O O8 0.750000 0.085966 0.250000
O O9 0.151090 0.105650 0.362452
O O10 0.963196 0.009483 0.346557
O O11 0.250000 0.068266 0.750000
O O12 0.750000 0.686798 0.750000
#
# Coordination Sequence:
#
# PCOD8201836 Si02
#       5
#     8   8   8   8   8
#     4  11  24  40  60  85 116 161 210 260 316 363
#     4  11  22  41  62  87 122 161 206 257 308 364
#     4  10  22  38  61  94 132 168 200 238 299 377
#     4  11  24  40  63  91 122 161 207 256 308 368
#     4  11  22  37  57  88 127 164 203 245 294 369
#
# _framework density 22.300833999999998
#
# number of rings (size 3 to 8) (size 9 to 14) (size 15 to 20)
#    0.000    1.200    0.000    7.800    0.000    8.800 
#    0.000    0.000    0.000    3.600    0.000    0.000 
#    0.000    0.000    0.000    0.000    0.000    0.000 
#
# Total GULP energy -495799.428509 kJ/mol
# GULP energy per Si atom -12394.985713 kJ/mol
# Density = 2.225008 g / cm^3
# Si number density = 22.300834 Si / 1000 Ang^3
#
#
#
# Elastic Constant Matrix: (Units=GPa)
#
#
# Indices 1 2 3 4 5 6 
#
# 1 66.5917 13.4233 -13.1435 0.0000 0.0000 0.0000
# 2 13.4233 122.2861 11.9081 0.0000 0.0000 0.0000
# 3 -13.1435 11.9081 55.2579 0.0000 0.0000 0.0000
# 4 0.0000 0.0000 0.0000 1.7992 0.0000 0.0000
# 5 0.0000 0.0000 0.0000 0.0000 25.9228 0.0000
# 6 0.0000 0.0000 0.0000 0.0000 0.0000 35.8135
#
#
#
# Elastic Compliance Matrix: (Units=1/GPa)
#
#
# Indices 1 2 3 4 5 6 
#
# 1 0.016324 -0.002217 0.004361 0.000000 0.000000 0.000000
# 2 -0.002217 0.008654 -0.002392 0.000000 0.000000 0.000000
# 3 0.004361 -0.002392 0.019650 0.000000 0.000000 0.000000
# 4 0.000000 0.000000 0.000000 0.555794 0.000000 0.000000
# 5 0.000000 0.000000 0.000000 0.000000 0.038576 0.000000
# 6 0.000000 0.000000 0.000000 0.000000 0.000000 0.027922
#
#
# Mechanical properties :
#
#
# Convention : Reuss Voigt Hill
#
# Bulk Modulus (GPa) = 22.65955 29.83462 26.24708
# Shear Modulus (GPa) = 7.33001 28.17030 17.75015
#
# Velocity S-wave (km/s) = 1.81494 3.55800 2.82430
# Velocity P-wave (km/s) = 3.81771 5.50331 4.73611
#
# Compressibility (1/GPa) = 0.04413150
#
# Stress axis : x y z
#
# Youngs Moduli (GPa) = 61.25820 115.55623 50.89154
#
# Poissons Ratio (x) = 0.25613 -0.22191
# Poissons Ratio (y) = 0.13578 0.12174
# Poissons Ratio (z) = -0.26712 0.27642
#
# Static dielectric constant tensor:
#      x y z
#    x 3.983100 0.000000 0.000000 
#    y 0.000000 4.381870 0.000000 
#    z 0.000000 0.000000 3.859810 
# 
# 
# High freq. dielectric constant tensor:
#      x y z
#    x 1.887530 0.000000 0.000000 
#    y 0.000000 1.880750 0.000000 
#    z 0.000000 0.000000 1.850470 
# 
# From -- ./inp_files/24306.got.cif
#   From: 2010.06.25/outbox.cif.g09.slc.cpg/sg48_13_cif.got.tgz:24306.got - 2010.06.26 18:06:46.
