data_PCOD8201762
_publ_section_title
;
Structure prediction by ZEFSAII (Michael W. Deem and Ramdas Pophale) SiO2 
 PCOD8201762
Probable space group: P N N N
;
_chemical_formula_sum "Si O2"
_cell_formula_units_Z 56
_cell_length_a 14.055264
_cell_length_b 8.617140
_cell_length_c 22.576854
_cell_angle_alpha 90.000000
_cell_angle_beta 90.000000
_cell_angle_gamma 90.000000
_cell_volume 2734.422259
_symmetry_space_group_name_H-M "P N N N"
_symmetry_group_IT_number 48
_space_group.IT_coordinate_system_code '2'
_symmetry_cell_setting 'orthorhombic'
loop_
_space_group_symop_operation_xyz
x,y,z
1/2-x,1/2-y,z
x,1/2-y,1/2-z
1/2-x,y,1/2-z
-x,-y,-z
1/2+x,1/2+y,-z
-x,1/2+y,1/2+z
1/2+x,-y,1/2+z
loop_
_atom_site_type_symbol
_atom_site_label
_atom_site_fract_x
_atom_site_fract_y
_atom_site_fract_z
Si Si1 0.579347 0.123996 0.017676
Si Si2 0.510029 0.201404 0.587680
Si Si3 0.280105 0.920410 0.681905
Si Si4 0.816403 0.884935 0.418612
Si Si5 0.031965 0.867840 0.883395
Si Si6 0.654074 0.824246 0.687391
Si Si7 0.655574 0.320993 0.812705
O O1 0.563484 0.223514 0.076938
O O2 0.674506 0.022938 0.032237
O O3 0.584342 0.244083 0.963264
O O4 0.500000 0.000000 0.000000
O O5 0.419668 0.313255 0.593693
O O6 0.563036 0.213468 0.649459
O O7 0.482592 0.021386 0.576000
O O8 0.250000 0.750000 0.662058
O O9 0.250000 0.954009 0.750000
O O10 0.393719 0.918923 0.668683
O O11 0.228497 0.050281 0.642162
O O12 0.750000 0.750000 0.445400
O O13 0.934374 0.804405 0.856155
O O14 0.750000 0.750000 0.659560
O O15 0.627487 0.750000 0.750000
O O16 0.677394 0.001320 0.697590
O O17 0.750000 0.250000 0.842681
O O18 0.632592 0.250000 0.750000
#
# Coordination Sequence:
#
# PCOD8201762 Si02
#       7
#     8   8   8   8   8   8   8
#     4  10  23  41  64  90 123 170 219 272 321 392
#     4  10  23  42  65  97 124 169 219 264 336 390
#     4  11  24  41  65 102 134 180 221 262 336 408
#     4  11  22  42  65  94 136 170 218 272 326 399
#     4  11  22  42  66  89 137 168 215 280 321 393
#     4  10  22  37  62  92 120 165 211 261 323 382
#     4  10  21  40  62  89 126 159 204 265 324 387
#
# _framework density 20.479645000000001
#
# number of rings (size 3 to 8) (size 9 to 14) (size 15 to 20)
#    0.000    1.571    2.857    2.143    2.000    7.143 
#    2.571    5.714    0.000    0.857    0.000    0.000 
#    0.000    0.000    0.000    0.000    0.000    0.000 
#
# Total GULP energy -693962.793338 kJ/mol
# GULP energy per Si atom -12392.192738 kJ/mol
# Density = 2.043303 g / cm^3
# Si number density = 20.479645 Si / 1000 Ang^3
#
#
#
# Elastic Constant Matrix: (Units=GPa)
#
#
# Indices 1 2 3 4 5 6 
#
# 1 114.6595 60.9016 55.2881 0.0000 0.0000 0.0000
# 2 60.9016 136.8409 57.4018 0.0000 0.0000 0.0000
# 3 55.2881 57.4018 88.6885 0.0000 0.0000 0.0000
# 4 0.0000 0.0000 0.0000 9.1215 0.0000 0.0000
# 5 0.0000 0.0000 0.0000 0.0000 19.6622 0.0000
# 6 0.0000 0.0000 0.0000 0.0000 0.0000 55.0979
#
#
#
# Elastic Compliance Matrix: (Units=1/GPa)
#
#
# Indices 1 2 3 4 5 6 
#
# 1 0.013538 -0.003411 -0.006232 0.000000 0.000000 0.000000
# 2 -0.003411 0.010891 -0.004922 0.000000 0.000000 0.000000
# 3 -0.006232 -0.004922 0.018346 0.000000 0.000000 0.000000
# 4 0.000000 0.000000 0.000000 0.109631 0.000000 0.000000
# 5 0.000000 0.000000 0.000000 0.000000 0.050859 0.000000
# 6 0.000000 0.000000 0.000000 0.000000 0.000000 0.018149
#
#
# Mechanical properties :
#
#
# Convention : Reuss Voigt Hill
#
# Bulk Modulus (GPa) = 73.28957 76.37467 74.83212
# Shear Modulus (GPa) = 19.60062 27.88282 23.74172
#
# Velocity S-wave (km/s) = 3.09702 3.69384 3.40852
# Velocity P-wave (km/s) = 6.97517 7.45430 7.21871
#
# Compressibility (1/GPa) = 0.01364451
#
# Stress axis : x y z
#
# Youngs Moduli (GPa) = 73.86446 91.82170 54.50706
#
# Poissons Ratio (x) = 0.31321 0.33969
# Poissons Ratio (y) = 0.25196 0.26830
# Poissons Ratio (z) = 0.46032 0.45197
#
# Static dielectric constant tensor:
#      x y z
#    x 3.889780 0.000000 0.000000 
#    y 0.000000 4.148720 0.000000 
#    z 0.000000 0.000000 3.832940 
# 
# 
# High freq. dielectric constant tensor:
#      x y z
#    x 1.801000 0.000000 0.000000 
#    y 0.000000 1.827450 0.000000 
#    z 0.000000 0.000000 1.784390 
# 
# From -- ./inp_files/34474.got.cif
#   From: 2010.06.25/outbox.cif.g09.slc.cpg/sg48_18_cif.got.tgz:34474.got - 2010.06.26 18:06:46.
