data_PCOD8201492
_publ_section_title
;
Structure prediction by ZEFSAII (Michael W. Deem and Ramdas Pophale) SiO2 
 PCOD8201492
Probable space group: P N N N
;
_chemical_formula_sum "Si O2"
_cell_formula_units_Z 52
_cell_length_a 16.202032
_cell_length_b 11.321457
_cell_length_c 14.044018
_cell_angle_alpha 90.000000
_cell_angle_beta 90.000000
_cell_angle_gamma 90.000000
_cell_volume 2576.102769
_symmetry_space_group_name_H-M "P N N N"
_symmetry_group_IT_number 48
_space_group.IT_coordinate_system_code '2'
_symmetry_cell_setting 'orthorhombic'
loop_
_space_group_symop_operation_xyz
x,y,z
1/2-x,1/2-y,z
x,1/2-y,1/2-z
1/2-x,y,1/2-z
-x,-y,-z
1/2+x,1/2+y,-z
-x,1/2+y,1/2+z
1/2+x,-y,1/2+z
loop_
_atom_site_type_symbol
_atom_site_label
_atom_site_fract_x
_atom_site_fract_y
_atom_site_fract_z
Si Si1 0.048199 0.190165 0.844329
Si Si2 0.549917 0.302814 0.156410
Si Si3 0.750000 0.052407 0.750000
Si Si4 0.218235 0.872499 0.455953
Si Si5 0.528449 0.132437 0.992229
Si Si6 0.140572 0.500364 0.541762
Si Si7 0.918925 0.989926 0.830630
O O1 0.086010 0.250000 0.750000
O O2 0.021386 0.294693 0.913950
O O3 0.969463 0.111114 0.811805
O O4 0.121761 0.113284 0.892730
O O5 0.595457 0.250000 0.250000
O O6 0.611803 0.382170 0.095762
O O7 0.472768 0.377015 0.197259
O O8 0.516853 0.195400 0.093017
O O9 0.758744 0.129758 0.655567
O O10 0.834595 0.978118 0.768790
O O11 0.250000 0.750000 0.500199
O O12 0.122340 0.880696 0.463721
O O13 0.262947 0.980342 0.513719
O O14 0.500000 0.000000 0.000000
O O15 0.090704 0.486126 0.444418
#
# Coordination Sequence:
#
# PCOD8201492 Si02
#       7
#     8   8   4   8   8   8   8
#     4  11  21  38  66  93 125 172 218 256 316 396
#     4  11  22  38  63  89 125 172 215 254 308 385
#     4  10  21  32  63 102 126 158 201 265 336 380
#     4  11  21  40  64  95 131 160 210 274 324 376
#     4  12  25  40  62  98 129 161 215 275 315 372
#     4  10  20  41  65  89 126 174 207 257 333 379
#     4  10  19  39  62  92 130 167 208 259 324 394
#
# _framework density 20.185531000000001
#
# number of rings (size 3 to 8) (size 9 to 14) (size 15 to 20)
#    0.000    1.231    4.615    3.000    6.462    0.000 
#    0.000    2.692    0.000    0.923    0.000    0.000 
#    0.000    0.000    0.000    0.000    0.000    0.000 
#
# Total GULP energy -644531.600117 kJ/mol
# GULP energy per Si atom -12394.838464 kJ/mol
# Density = 2.013959 g / cm^3
# Si number density = 20.185531 Si / 1000 Ang^3
#
#
#
# Elastic Constant Matrix: (Units=GPa)
#
#
# Indices 1 2 3 4 5 6 
#
# 1 54.4204 30.5473 21.2775 0.0000 0.0000 0.0000
# 2 30.5473 130.5949 51.1510 0.0000 0.0000 0.0000
# 3 21.2775 51.1510 123.0147 0.0000 0.0000 0.0000
# 4 0.0000 0.0000 0.0000 31.9260 0.0000 0.0000
# 5 0.0000 0.0000 0.0000 0.0000 67.4534 0.0000
# 6 0.0000 0.0000 0.0000 0.0000 0.0000 36.1473
#
#
#
# Elastic Compliance Matrix: (Units=1/GPa)
#
#
# Indices 1 2 3 4 5 6 
#
# 1 0.021536 -0.004275 -0.001948 0.000000 0.000000 0.000000
# 2 -0.004275 0.009995 -0.003417 0.000000 0.000000 0.000000
# 3 -0.001948 -0.003417 0.009887 0.000000 0.000000 0.000000
# 4 0.000000 0.000000 0.000000 0.031322 0.000000 0.000000
# 5 0.000000 0.000000 0.000000 0.000000 0.014825 0.000000
# 6 0.000000 0.000000 0.000000 0.000000 0.000000 0.027665
#
#
# Mechanical properties :
#
#
# Convention : Reuss Voigt Hill
#
# Bulk Modulus (GPa) = 45.16657 57.10909 51.13783
# Shear Modulus (GPa) = 35.23877 40.77562 38.00720
#
# Velocity S-wave (km/s) = 4.18274 4.49936 4.34394
# Velocity P-wave (km/s) = 6.76398 7.43948 7.10976
#
# Compressibility (1/GPa) = 0.02214027
#
# Stress axis : x y z
#
# Youngs Moduli (GPa) = 46.43290 100.04538 101.14544
#
# Poissons Ratio (x) = 0.42767 0.19699
# Poissons Ratio (y) = 0.19849 0.34560
# Poissons Ratio (z) = 0.09043 0.34184
#
# Static dielectric constant tensor:
#      x y z
#    x 3.526470 0.000000 0.000000 
#    y 0.000000 3.636350 0.000000 
#    z 0.000000 0.000000 3.841880 
# 
# 
# High freq. dielectric constant tensor:
#      x y z
#    x 1.769510 0.000000 0.000000 
#    y 0.000000 1.784680 0.000000 
#    z 0.000000 0.000000 1.798330 
# 
# From -- ./inp_files/28006.got.cif
#   From: 2010.06.25/outbox.cif.g09.slc.cpg/sg48_15_cif.got.tgz:28006.got - 2010.06.26 18:06:46.
