data_PCOD8201837
_publ_section_title
;
Structure prediction by ZEFSAII (Michael W. Deem and Ramdas Pophale) SiO2 
 PCOD8201837
Probable space group: P N N N
;
_chemical_formula_sum "Si O2"
_cell_formula_units_Z 64
_cell_length_a 7.964445
_cell_length_b 11.857718
_cell_length_c 25.343443
_cell_angle_alpha 90.000000
_cell_angle_beta 90.000000
_cell_angle_gamma 90.000000
_cell_volume 2393.438377
_symmetry_space_group_name_H-M "P N N N"
_symmetry_group_IT_number 48
_space_group.IT_coordinate_system_code '2'
_symmetry_cell_setting 'orthorhombic'
loop_
_space_group_symop_operation_xyz
x,y,z
1/2-x,1/2-y,z
x,1/2-y,1/2-z
1/2-x,y,1/2-z
-x,-y,-z
1/2+x,1/2+y,-z
-x,1/2+y,1/2+z
1/2+x,-y,1/2+z
loop_
_atom_site_type_symbol
_atom_site_label
_atom_site_fract_x
_atom_site_fract_y
_atom_site_fract_z
Si Si1 0.503600 0.344433 0.620838
Si Si2 0.803123 0.401914 0.690476
Si Si3 0.685306 0.630740 0.864420
Si Si4 0.195513 0.104628 0.808016
Si Si5 0.283234 0.119335 0.482880
Si Si6 0.803865 0.365037 0.350809
Si Si7 0.444457 0.751999 0.486043
Si Si8 0.598691 0.450897 0.443433
O O1 0.668362 0.329967 0.657251
O O2 0.327024 0.333442 0.652754
O O3 0.514464 0.247893 0.576345
O O4 0.516652 0.463328 0.589828
O O5 0.750000 0.380216 0.750000
O O6 0.773674 0.533509 0.677710
O O7 0.998846 0.363758 0.679387
O O8 0.750000 0.750000 0.841722
O O9 0.489190 0.641220 0.872584
O O10 0.767426 0.602154 0.921345
O O11 0.250000 0.143225 0.750000
O O12 0.222247 0.970507 0.812039
O O13 0.250000 0.250000 0.505230
O O14 0.486918 0.131253 0.489056
O O15 0.230440 0.016477 0.520183
O O16 0.750000 0.250000 0.320403
O O17 0.688179 0.369977 0.402317
O O18 0.250000 0.750000 0.497883
O O19 0.512333 0.632855 0.516640
#
# Coordination Sequence:
#
# PCOD8201837 Si02
#       8
#     8   8   8   8   8   8   8   8
#     4  11  24  42  71 101 140 188 236 301 362 436
#     4  11  23  41  68 102 133 184 248 298 367 437
#     4  10  23  35  57  93 139 182 230 294 352 430
#     4  10  22  42  67 100 138 185 236 297 370 437
#     4  11  23  41  66  99 143 191 240 287 364 447
#     4  10  22  38  61  95 133 187 235 290 355 436
#     4  12  26  42  70 110 146 193 247 301 367 451
#     4  11  23  42  69 100 146 191 241 294 374 436
#
# _framework density 26.739775999999999
#
# number of rings (size 3 to 8) (size 9 to 14) (size 15 to 20)
#    0.000    1.250    2.500    3.000    7.000    5.500 
#    0.000    2.500    0.000    1.125    3.250    0.000 
#    0.000    0.000    0.000    0.000    0.000    0.000 
#
# Total GULP energy -793404.488394 kJ/mol
# GULP energy per Si atom -12396.945131 kJ/mol
# Density = 2.667891 g / cm^3
# Si number density = 26.739776 Si / 1000 Ang^3
#
#
#
# Elastic Constant Matrix: (Units=GPa)
#
#
# Indices 1 2 3 4 5 6 
#
# 1 134.7300 41.0564 51.9122 0.0000 0.0000 0.0000
# 2 41.0564 93.5414 14.9949 0.0000 0.0000 0.0000
# 3 51.9122 14.9949 128.6178 0.0000 0.0000 0.0000
# 4 0.0000 0.0000 0.0000 8.7922 0.0000 0.0000
# 5 0.0000 0.0000 0.0000 0.0000 41.6101 0.0000
# 6 0.0000 0.0000 0.0000 0.0000 0.0000 58.7272
#
#
#
# Elastic Compliance Matrix: (Units=1/GPa)
#
#
# Indices 1 2 3 4 5 6 
#
# 1 0.009957 -0.003797 -0.003576 0.000000 0.000000 0.000000
# 2 -0.003797 0.012342 0.000094 0.000000 0.000000 0.000000
# 3 -0.003576 0.000094 0.009207 0.000000 0.000000 0.000000
# 4 0.000000 0.000000 0.000000 0.113737 0.000000 0.000000
# 5 0.000000 0.000000 0.000000 0.000000 0.024033 0.000000
# 6 0.000000 0.000000 0.000000 0.000000 0.000000 0.017028
#
#
# Mechanical properties :
#
#
# Convention : Reuss Voigt Hill
#
# Bulk Modulus (GPa) = 59.00582 63.64624 61.32603
# Shear Modulus (GPa) = 24.21158 38.42096 31.31627
#
# Velocity S-wave (km/s) = 3.01234 3.79469 3.42592
# Velocity P-wave (km/s) = 5.84923 6.56150 6.21558
#
# Compressibility (1/GPa) = 0.01694748
#
# Stress axis : x y z
#
# Youngs Moduli (GPa) = 100.42908 81.02405 108.60737
#
# Poissons Ratio (x) = 0.30765 0.38841
# Poissons Ratio (y) = 0.38134 -0.01017
# Poissons Ratio (z) = 0.35916 -0.00759
#
# Static dielectric constant tensor:
#      x y z
#    x 5.873050 0.000000 0.000000 
#    y 0.000000 5.420820 0.000000 
#    z 0.000000 0.000000 4.578260 
# 
# 
# High freq. dielectric constant tensor:
#      x y z
#    x 2.114640 0.000000 0.000000 
#    y 0.000000 2.091970 0.000000 
#    z 0.000000 0.000000 2.056250 
# 
# From -- ./inp_files/36000.got.cif
#   From: 2010.06.25/outbox.cif.g09.slc.cpg/sg48_18_cif.got.tgz:36000.got - 2010.06.26 18:06:46.
