data_PCOD8201678
_publ_section_title
;
Structure prediction by ZEFSAII (Michael W. Deem and Ramdas Pophale) SiO2 
 PCOD8201678
Probable space group: P N N N
;
_chemical_formula_sum "Si O2"
_cell_formula_units_Z 48
_cell_length_a 10.921726
_cell_length_b 12.076170
_cell_length_c 19.060420
_cell_angle_alpha 90.000000
_cell_angle_beta 90.000000
_cell_angle_gamma 90.000000
_cell_volume 2513.928730
_symmetry_space_group_name_H-M "P N N N"
_symmetry_group_IT_number 48
_space_group.IT_coordinate_system_code '2'
_symmetry_cell_setting 'orthorhombic'
loop_
_space_group_symop_operation_xyz
x,y,z
1/2-x,1/2-y,z
x,1/2-y,1/2-z
1/2-x,y,1/2-z
-x,-y,-z
1/2+x,1/2+y,-z
-x,1/2+y,1/2+z
1/2+x,-y,1/2+z
loop_
_atom_site_type_symbol
_atom_site_label
_atom_site_fract_x
_atom_site_fract_y
_atom_site_fract_z
Si Si1 0.888703 0.571452 0.467736
Si Si2 0.657076 0.059850 0.033223
Si Si3 0.250000 0.750000 0.050001
Si Si4 0.949295 0.173165 0.856127
Si Si5 0.250000 0.250000 0.062419
Si Si6 0.880311 0.393895 0.782433
Si Si7 0.417997 0.430263 0.396594
O O1 0.789068 0.482522 0.439767
O O2 0.827310 0.658920 0.519915
O O3 0.000000 0.500000 0.500000
O O4 0.933392 0.646267 0.402788
O O5 0.566336 0.070978 0.100247
O O6 0.658567 0.181642 0.998888
O O7 0.615899 0.975986 0.972943
O O8 0.175202 0.839665 0.097234
O O9 0.945453 0.300376 0.829875
O O10 0.957306 0.089779 0.789613
O O11 0.351272 0.188328 0.110646
O O12 0.750000 0.355709 0.750000
O O13 0.872418 0.503315 0.828618
#
# Coordination Sequence:
#
# PCOD8201678 Si02
#       7
#     8   8   4   8   4   8   8
#     4  11  23  37  61  93 129 164 203 258 314 380
#     4  10  21  34  60  87 121 161 195 255 315 368
#     4  12  16  33  60  92 119 148 204 258 308 362
#     4  11  20  34  58  93 120 154 205 256 309 361
#     4  10  24  40  61  95 126 154 214 264 308 376
#     4  11  21  36  61  88 119 160 207 257 308 367
#     4  10  21  39  58  85 123 159 201 257 316 363
#
# _framework density 19.093620000000001
#
# number of rings (size 3 to 8) (size 9 to 14) (size 15 to 20)
#    0.000    1.333    5.000    1.500    7.000    0.000 
#    0.000    1.250    0.000    0.000    0.000    1.167 
#    0.000    0.000    0.000    0.000    0.000    0.000 
#
# Total GULP energy -594688.175076 kJ/mol
# GULP energy per Si atom -12389.336981 kJ/mol
# Density = 1.905016 g / cm^3
# Si number density = 19.093620 Si / 1000 Ang^3
#
#
#
# Elastic Constant Matrix: (Units=GPa)
#
#
# Indices 1 2 3 4 5 6 
#
# 1 122.6314 51.2886 43.2321 0.0000 0.0000 0.0000
# 2 51.2886 100.8851 45.2691 0.0000 0.0000 0.0000
# 3 43.2321 45.2691 79.4640 0.0000 0.0000 0.0000
# 4 0.0000 0.0000 0.0000 25.3022 0.0000 0.0000
# 5 0.0000 0.0000 0.0000 0.0000 20.7888 0.0000
# 6 0.0000 0.0000 0.0000 0.0000 0.0000 34.5057
#
#
#
# Elastic Compliance Matrix: (Units=1/GPa)
#
#
# Indices 1 2 3 4 5 6 
#
# 1 0.011155 -0.003960 -0.003813 0.000000 0.000000 0.000000
# 2 -0.003960 0.014722 -0.006232 0.000000 0.000000 0.000000
# 3 -0.003813 -0.006232 0.018209 0.000000 0.000000 0.000000
# 4 0.000000 0.000000 0.000000 0.039522 0.000000 0.000000
# 5 0.000000 0.000000 0.000000 0.000000 0.048103 0.000000
# 6 0.000000 0.000000 0.000000 0.000000 0.000000 0.028981
#
#
# Mechanical properties :
#
#
# Convention : Reuss Voigt Hill
#
# Bulk Modulus (GPa) = 62.20635 64.72888 63.46761
# Shear Modulus (GPa) = 25.76505 26.99871 26.38188
#
# Velocity S-wave (km/s) = 3.67741 3.76442 3.72117
# Velocity P-wave (km/s) = 7.11910 7.27110 7.19550
#
# Compressibility (1/GPa) = 0.01607553
#
# Stress axis : x y z
#
# Youngs Moduli (GPa) = 89.64641 67.92479 54.91748
#
# Poissons Ratio (x) = 0.26899 0.20939
# Poissons Ratio (y) = 0.35501 0.34227
# Poissons Ratio (z) = 0.34180 0.42334
#
# Static dielectric constant tensor:
#      x y z
#    x 3.777760 0.000000 0.000000 
#    y 0.000000 3.470310 0.000000 
#    z 0.000000 0.000000 3.508100 
# 
# 
# High freq. dielectric constant tensor:
#      x y z
#    x 1.740460 0.000000 0.000000 
#    y 0.000000 1.733570 0.000000 
#    z 0.000000 0.000000 1.717180 
# 
# From -- ./inp_files/34131.got.cif
#   From: 2010.06.25/outbox.cif.g09.slc.cpg/sg48_18_cif.got.tgz:34131.got - 2010.06.26 18:06:46.
