data_PCOD8201546
_publ_section_title
;
Structure prediction by ZEFSAII (Michael W. Deem and Ramdas Pophale) SiO2 
 PCOD8201546
Probable space group: P N N N
;
_chemical_formula_sum "Si O2"
_cell_formula_units_Z 34
_cell_length_a 17.945279
_cell_length_b 9.609952
_cell_length_c 9.605082
_cell_angle_alpha 90.000000
_cell_angle_beta 90.000000
_cell_angle_gamma 90.000000
_cell_volume 1656.427798
_symmetry_space_group_name_H-M "P N N N"
_symmetry_group_IT_number 48
_space_group.IT_coordinate_system_code '2'
_symmetry_cell_setting 'orthorhombic'
loop_
_space_group_symop_operation_xyz
x,y,z
1/2-x,1/2-y,z
x,1/2-y,1/2-z
1/2-x,y,1/2-z
-x,-y,-z
1/2+x,1/2+y,-z
-x,1/2+y,1/2+z
1/2+x,-y,1/2+z
loop_
_atom_site_type_symbol
_atom_site_label
_atom_site_fract_x
_atom_site_fract_y
_atom_site_fract_z
Si Si1 0.064576 0.418594 0.581788
Si Si2 0.609203 0.882635 0.117420
Si Si3 0.657061 0.097077 0.902311
Si Si4 0.750000 0.750000 0.250000
Si Si5 0.331605 0.590077 0.090851
O O1 0.065377 0.444084 0.748235
O O2 0.064437 0.251798 0.558483
O O3 0.140849 0.477957 0.519544
O O4 0.000000 0.500000 0.500000
O O5 0.694801 0.844207 0.155960
O O6 0.608045 0.998611 0.999366
O O7 0.643330 0.254683 0.952761
O O8 0.744192 0.068194 0.908970
O O9 0.632376 0.067522 0.743710
#
# Coordination Sequence:
#
# PCOD8201546 Si02
#       5
#     8   8   8   2   8
#     4  10  22  39  54  76 110 148 182 230 283 329
#     4  10  20  35  58  82 108 143 189 233 277 340
#     4   9  18  35  58  87 109 143 184 225 279 325
#     4   8  16  32  56  84 108 132 172 238 288 312
#     4   9  19  35  57  82 119 145 174 228 278 327
#
# _framework density 20.526098000000001
#
# number of rings (size 3 to 8) (size 9 to 14) (size 15 to 20)
#    0.000    2.824    0.000    4.235    0.000    5.647 
#    0.000   11.765    0.000    0.000    0.000    0.000 
#    0.000    0.000    0.000    0.000    0.000    0.000 
#
# Total GULP energy -421343.602212 kJ/mol
# GULP energy per Si atom -12392.458889 kJ/mol
# Density = 2.047938 g / cm^3
# Si number density = 20.526098 Si / 1000 Ang^3
#
#
#
# Elastic Constant Matrix: (Units=GPa)
#
#
# Indices 1 2 3 4 5 6 
#
# 1 63.4827 32.0617 32.6891 0.0000 0.0000 0.0000
# 2 32.0617 106.5143 83.3435 0.0000 0.0000 0.0000
# 3 32.6891 83.3435 109.3684 0.0000 0.0000 0.0000
# 4 0.0000 0.0000 0.0000 51.8885 0.0000 0.0000
# 5 0.0000 0.0000 0.0000 0.0000 22.8455 0.0000
# 6 0.0000 0.0000 0.0000 0.0000 0.0000 23.8232
#
#
#
# Elastic Compliance Matrix: (Units=1/GPa)
#
#
# Indices 1 2 3 4 5 6 
#
# 1 0.019039 -0.003166 -0.003278 0.000000 0.000000 0.000000
# 2 -0.003166 0.023781 -0.017176 0.000000 0.000000 0.000000
# 3 -0.003278 -0.017176 0.023212 0.000000 0.000000 0.000000
# 4 0.000000 0.000000 0.000000 0.019272 0.000000 0.000000
# 5 0.000000 0.000000 0.000000 0.000000 0.043772 0.000000
# 6 0.000000 0.000000 0.000000 0.000000 0.000000 0.041976
#
#
# Mechanical properties :
#
#
# Convention : Reuss Voigt Hill
#
# Bulk Modulus (GPa) = 53.21310 63.95044 58.58177
# Shear Modulus (GPa) = 22.26621 28.46286 25.36454
#
# Velocity S-wave (km/s) = 3.29717 3.72784 3.51910
# Velocity P-wave (km/s) = 6.36207 7.05353 6.71671
#
# Compressibility (1/GPa) = 0.01879236
#
# Stress axis : x y z
#
# Youngs Moduli (GPa) = 52.52312 42.05079 43.08163
#
# Poissons Ratio (x) = 0.13314 0.14122
# Poissons Ratio (y) = 0.16629 0.73996
# Poissons Ratio (z) = 0.17217 0.72225
#
# Static dielectric constant tensor:
#      x y z
#    x 3.504760 0.000000 0.000000 
#    y 0.000000 3.758920 0.000000 
#    z 0.000000 0.000000 3.949790 
# 
# 
# High freq. dielectric constant tensor:
#      x y z
#    x 1.794360 0.000000 0.000000 
#    y 0.000000 1.798860 0.000000 
#    z 0.000000 0.000000 1.799560 
# 
# From -- ./inp_files/21862.got.cif
#   From: 2010.06.25/outbox.cif.g09.slc.cpg/sg48_11_cif.got.tgz:21862.got - 2010.06.26 18:06:46.
