data_PCOD8201632
_publ_section_title
;
Structure prediction by ZEFSAII (Michael W. Deem and Ramdas Pophale) SiO2 
 PCOD8201632
Probable space group: P N N N
;
_chemical_formula_sum "Si O2"
_cell_formula_units_Z 36
_cell_length_a 11.127523
_cell_length_b 13.517054
_cell_length_c 11.824361
_cell_angle_alpha 90.000000
_cell_angle_beta 90.000000
_cell_angle_gamma 90.000000
_cell_volume 1778.517856
_symmetry_space_group_name_H-M "P N N N"
_symmetry_group_IT_number 48
_space_group.IT_coordinate_system_code '2'
_symmetry_cell_setting 'orthorhombic'
loop_
_space_group_symop_operation_xyz
x,y,z
1/2-x,1/2-y,z
x,1/2-y,1/2-z
1/2-x,y,1/2-z
-x,-y,-z
1/2+x,1/2+y,-z
-x,1/2+y,1/2+z
1/2+x,-y,1/2+z
loop_
_atom_site_type_symbol
_atom_site_label
_atom_site_fract_x
_atom_site_fract_y
_atom_site_fract_z
Si Si1 0.750000 0.250000 0.037191
Si Si2 0.416624 0.828852 0.152249
Si Si3 0.119475 0.207217 0.499860
Si Si4 0.535691 0.171048 0.345668
Si Si5 0.123538 0.053099 0.300294
O O1 0.675978 0.328240 0.116405
O O2 0.656990 0.189614 0.962486
O O3 0.384584 0.750000 0.250000
O O4 0.375581 0.936078 0.189697
O O5 0.557526 0.824332 0.118780
O O6 0.250000 0.250000 0.525705
O O7 0.110945 0.111241 0.418511
O O8 0.046794 0.301209 0.452066
O O9 0.509944 0.250000 0.250000
O O10 0.486962 0.070526 0.288473
O O11 0.250000 0.090394 0.250000
#
# Coordination Sequence:
#
# PCOD8201632 Si02
#       5
#     4   8   8   8   8
#     4  10  20  40  58  86 126 166 202 256 310 370
#     4  11  24  41  59  86 132 173 206 250 313 377
#     4  10  20  39  63  91 120 161 209 263 309 363
#     4   9  19  34  63  91 120 151 205 261 313 360
#     4  11  20  37  66  96 122 162 214 260 314 376
#
# _framework density 20.241574
#
# number of rings (size 3 to 8) (size 9 to 14) (size 15 to 20)
#    0.000    1.778    2.222    2.667    0.000    0.444 
#    4.000    3.333    9.778    0.000    0.000    0.000 
#    0.000    0.000    0.000    0.000    0.000    0.000 
#
# Total GULP energy -446142.341499 kJ/mol
# GULP energy per Si atom -12392.842819 kJ/mol
# Density = 2.019550 g / cm^3
# Si number density = 20.241574 Si / 1000 Ang^3
#
#
#
# Elastic Constant Matrix: (Units=GPa)
#
#
# Indices 1 2 3 4 5 6 
#
# 1 133.1911 18.2255 33.0145 0.0000 0.0000 0.0000
# 2 18.2255 88.7797 12.2235 0.0000 0.0000 0.0000
# 3 33.0145 12.2235 51.8051 0.0000 0.0000 0.0000
# 4 0.0000 0.0000 0.0000 17.0160 0.0000 0.0000
# 5 0.0000 0.0000 0.0000 0.0000 41.2403 0.0000
# 6 0.0000 0.0000 0.0000 0.0000 0.0000 24.3611
#
#
#
# Elastic Compliance Matrix: (Units=1/GPa)
#
#
# Indices 1 2 3 4 5 6 
#
# 1 0.009018 -0.001096 -0.005489 0.000000 0.000000 0.000000
# 2 -0.001096 0.011775 -0.002080 0.000000 0.000000 0.000000
# 3 -0.005489 -0.002080 0.023292 0.000000 0.000000 0.000000
# 4 0.000000 0.000000 0.000000 0.058768 0.000000 0.000000
# 5 0.000000 0.000000 0.000000 0.000000 0.024248 0.000000
# 6 0.000000 0.000000 0.000000 0.000000 0.000000 0.041049
#
#
# Mechanical properties :
#
#
# Convention : Reuss Voigt Hill
#
# Bulk Modulus (GPa) = 37.37433 44.52252 40.94843
# Shear Modulus (GPa) = 25.72032 30.54431 28.13231
#
# Velocity S-wave (km/s) = 3.56851 3.88878 3.73208
# Velocity P-wave (km/s) = 5.95678 6.49668 6.23258
#
# Compressibility (1/GPa) = 0.02675633
#
# Stress axis : x y z
#
# Youngs Moduli (GPa) = 110.88364 84.92457 42.93348
#
# Poissons Ratio (x) = 0.09305 0.23565
# Poissons Ratio (y) = 0.12149 0.08931
# Poissons Ratio (z) = 0.60862 0.17665
#
# Static dielectric constant tensor:
#      x y z
#    x 3.970420 0.000000 0.000000 
#    y 0.000000 3.412580 0.000000 
#    z 0.000000 0.000000 3.825050 
# 
# 
# High freq. dielectric constant tensor:
#      x y z
#    x 1.804780 0.000000 0.000000 
#    y 0.000000 1.763390 0.000000 
#    z 0.000000 0.000000 1.787980 
# 
# From -- ./inp_files/19511.got.cif
#   From: 2010.06.25/outbox.cif.g09.slc.cpg/sg48_10_cif.got.tgz:19511.got - 2010.06.26 18:06:46.
