data_PCOD8201889
_publ_section_title
;
Structure prediction by ZEFSAII (Michael W. Deem and Ramdas Pophale) SiO2 
 PCOD8201889
Probable space group: P N N N
;
_chemical_formula_sum "Si O2"
_cell_formula_units_Z 34
_cell_length_a 19.228337
_cell_length_b 11.788398
_cell_length_c 6.615062
_cell_angle_alpha 90.000000
_cell_angle_beta 90.000000
_cell_angle_gamma 90.000000
_cell_volume 1499.444633
_symmetry_space_group_name_H-M "P N N N"
_symmetry_group_IT_number 48
_space_group.IT_coordinate_system_code '2'
_symmetry_cell_setting 'orthorhombic'
loop_
_space_group_symop_operation_xyz
x,y,z
1/2-x,1/2-y,z
x,1/2-y,1/2-z
1/2-x,y,1/2-z
-x,-y,-z
1/2+x,1/2+y,-z
-x,1/2+y,1/2+z
1/2+x,-y,1/2+z
loop_
_atom_site_type_symbol
_atom_site_label
_atom_site_fract_x
_atom_site_fract_y
_atom_site_fract_z
Si Si1 0.144521 0.087618 0.513014
Si Si2 0.750000 0.750000 0.250000
Si Si3 0.897504 0.977248 0.895007
Si Si4 0.331089 0.624662 0.770740
Si Si5 0.981034 0.628341 0.261517
O O1 0.203434 0.168169 0.609838
O O2 0.066553 0.127872 0.562004
O O3 0.152240 0.084962 0.268555
O O4 0.146471 0.958170 0.591280
O O5 0.961150 0.031954 0.769927
O O6 0.853383 0.072113 0.013710
O O7 0.927495 0.884164 0.049286
O O8 0.366095 0.750000 0.750000
O O9 0.250000 0.639460 0.750000
O O10 0.018750 0.750000 0.250000
#
# Coordination Sequence:
#
# PCOD8201889 Si02
#       5
#     8   2   8   8   8
#     4  11  23  45  68  98 141 182 226 281 346 410
#     4  12  24  48  68 104 150 180 228 298 332 420
#     4  10  24  43  69 101 130 187 227 275 359 410
#     4  10  23  44  65  97 138 171 229 289 332 412
#     4  10  22  44  65 100 140 170 233 289 334 412
#
# _framework density 22.675063000000002
#
# number of rings (size 3 to 8) (size 9 to 14) (size 15 to 20)
#    0.000    1.647    2.353    0.706    3.294    1.882 
#    0.000    9.412    0.000    0.000    0.000    0.000 
#    0.000    0.000    0.000    0.000    0.000    0.000 
#
# Total GULP energy -421415.429111 kJ/mol
# GULP energy per Si atom -12394.571444 kJ/mol
# Density = 2.262345 g / cm^3
# Si number density = 22.675063 Si / 1000 Ang^3
#
#
#
# Elastic Constant Matrix: (Units=GPa)
#
#
# Indices 1 2 3 4 5 6 
#
# 1 78.4516 20.5792 32.8374 0.0000 0.0000 0.0000
# 2 20.5792 133.9437 44.7618 0.0000 0.0000 0.0000
# 3 32.8374 44.7618 144.5556 0.0000 0.0000 0.0000
# 4 0.0000 0.0000 0.0000 18.6870 0.0000 0.0000
# 5 0.0000 0.0000 0.0000 0.0000 18.9100 0.0000
# 6 0.0000 0.0000 0.0000 0.0000 0.0000 21.5167
#
#
#
# Elastic Compliance Matrix: (Units=1/GPa)
#
#
# Indices 1 2 3 4 5 6 
#
# 1 0.014267 -0.001237 -0.002858 0.000000 0.000000 0.000000
# 2 -0.001237 0.008435 -0.002331 0.000000 0.000000 0.000000
# 3 -0.002858 -0.002331 0.008289 0.000000 0.000000 0.000000
# 4 0.000000 0.000000 0.000000 0.053513 0.000000 0.000000
# 5 0.000000 0.000000 0.000000 0.000000 0.052882 0.000000
# 6 0.000000 0.000000 0.000000 0.000000 0.000000 0.046476
#
#
# Mechanical properties :
#
#
# Convention : Reuss Voigt Hill
#
# Bulk Modulus (GPa) = 55.12869 61.47863 58.30366
# Shear Modulus (GPa) = 24.65973 29.07424 26.86699
#
# Velocity S-wave (km/s) = 3.30134 3.58468 3.44593
# Velocity P-wave (km/s) = 6.23675 6.65620 6.44989
#
# Compressibility (1/GPa) = 0.01813937
#
# Stress axis : x y z
#
# Youngs Moduli (GPa) = 70.08959 118.55634 120.64580
#
# Poissons Ratio (x) = 0.14665 0.34480
# Poissons Ratio (y) = 0.08670 0.28121
# Poissons Ratio (z) = 0.20031 0.27634
#
# Static dielectric constant tensor:
#      x y z
#    x 3.968540 0.000000 0.000000 
#    y 0.000000 4.714420 0.000000 
#    z 0.000000 0.000000 4.123170 
# 
# 
# High freq. dielectric constant tensor:
#      x y z
#    x 1.887870 0.000000 0.000000 
#    y 0.000000 1.904130 0.000000 
#    z 0.000000 0.000000 1.888550 
# 
# From -- ./inp_files/2224.got.cif
#   From: 2010.06.25/outbox.cif.g09.slc.cpg/sg48_2_cif.got.tgz:2224.got - 2010.06.26 18:06:46.
