data_PCOD8201697
_publ_section_title
;
Structure prediction by ZEFSAII (Michael W. Deem and Ramdas Pophale) SiO2 
 PCOD8201697
Probable space group: P N N N
;
_chemical_formula_sum "Si O2"
_cell_formula_units_Z 64
_cell_length_a 7.744846
_cell_length_b 21.866220
_cell_length_c 15.979372
_cell_angle_alpha 90.000000
_cell_angle_beta 90.000000
_cell_angle_gamma 90.000000
_cell_volume 2706.114742
_symmetry_space_group_name_H-M "P N N N"
_symmetry_group_IT_number 48
_space_group.IT_coordinate_system_code '2'
_symmetry_cell_setting 'orthorhombic'
loop_
_space_group_symop_operation_xyz
x,y,z
1/2-x,1/2-y,z
x,1/2-y,1/2-z
1/2-x,y,1/2-z
-x,-y,-z
1/2+x,1/2+y,-z
-x,1/2+y,1/2+z
1/2+x,-y,1/2+z
loop_
_atom_site_type_symbol
_atom_site_label
_atom_site_fract_x
_atom_site_fract_y
_atom_site_fract_z
Si Si1 0.044825 0.817177 0.260786
Si Si2 0.474227 0.366049 0.073533
Si Si3 0.096112 0.894067 0.411472
Si Si4 0.177589 0.815987 0.575753
Si Si5 0.983983 0.107743 0.891103
Si Si6 0.025673 0.517798 0.839181
Si Si7 0.087439 0.983317 0.850265
Si Si8 0.650059 0.854514 0.837580
O O1 0.966626 0.750000 0.250000
O O2 0.250000 0.815307 0.250000
O O3 0.997385 0.846442 0.350613
O O4 0.948251 0.854917 0.188268
O O5 0.648213 0.341896 0.119149
O O6 0.459467 0.436320 0.103864
O O7 0.295986 0.333009 0.096829
O O8 0.494675 0.353622 0.975334
O O9 0.105055 0.862160 0.502989
O O10 0.284717 0.908158 0.376277
O O11 0.006937 0.961222 0.403693
O O12 0.250000 0.750000 0.542188
O O13 0.022092 0.812755 0.645106
O O14 0.091169 0.045840 0.902554
O O15 0.218940 0.543199 0.853376
O O16 0.014092 0.498677 0.741562
O O17 0.897673 0.574547 0.852956
O O18 0.750000 0.843723 0.750000
#
# Coordination Sequence:
#
# PCOD8201697 Si02
#       8
#     8   8   8   8   8   8   8   8
#     4   9  18  33  62  97 135 189 245 280 343 435
#     4  11  24  43  70 106 147 191 246 310 374 427
#     4  10  22  39  68 102 145 196 242 292 367 442
#     4  11  28  51  74 108 150 192 251 315 371 442
#     4  10  21  36  61 102 143 191 241 302 352 429
#     4  11  23  39  69 105 144 189 243 304 377 454
#     4  11  21  39  64 101 154 190 235 313 371 433
#     4  12  26  48  82 105 143 192 247 312 390 460
#
# _framework density 23.650144000000001
#
# number of rings (size 3 to 8) (size 9 to 14) (size 15 to 20)
#    0.000    1.375    3.750    1.125    7.000    2.500 
#    0.000    1.875    0.000    1.500    0.000    0.000 
#    0.000    0.000    0.000    0.000    0.000    0.000 
#
# Total GULP energy -792862.420977 kJ/mol
# GULP energy per Si atom -12388.475328 kJ/mol
# Density = 2.359631 g / cm^3
# Si number density = 23.650144 Si / 1000 Ang^3
#
#
#
# Elastic Constant Matrix: (Units=GPa)
#
#
# Indices 1 2 3 4 5 6 
#
# 1 122.8175 23.3908 45.2328 0.0000 0.0000 0.0000
# 2 23.3908 81.3834 29.8762 0.0000 0.0000 0.0000
# 3 45.2328 29.8762 81.3432 0.0000 0.0000 0.0000
# 4 0.0000 0.0000 0.0000 27.6656 0.0000 0.0000
# 5 0.0000 0.0000 0.0000 0.0000 30.9949 0.0000
# 6 0.0000 0.0000 0.0000 0.0000 0.0000 26.7407
#
#
#
# Elastic Compliance Matrix: (Units=1/GPa)
#
#
# Indices 1 2 3 4 5 6 
#
# 1 0.010308 -0.000992 -0.005368 0.000000 0.000000 0.000000
# 2 -0.000992 0.014298 -0.004700 0.000000 0.000000 0.000000
# 3 -0.005368 -0.004700 0.017004 0.000000 0.000000 0.000000
# 4 0.000000 0.000000 0.000000 0.036146 0.000000 0.000000
# 5 0.000000 0.000000 0.000000 0.000000 0.032263 0.000000
# 6 0.000000 0.000000 0.000000 0.000000 0.000000 0.037396
#
#
# Mechanical properties :
#
#
# Convention : Reuss Voigt Hill
#
# Bulk Modulus (GPa) = 51.30446 53.61595 52.46021
# Shear Modulus (GPa) = 28.40392 29.54987 28.97690
#
# Velocity S-wave (km/s) = 3.46931 3.53860 3.50413
# Velocity P-wave (km/s) = 6.14722 6.27816 6.21304
#
# Compressibility (1/GPa) = 0.01949148
#
# Stress axis : x y z
#
# Youngs Moduli (GPa) = 97.01246 69.93991 58.80799
#
# Poissons Ratio (x) = 0.06939 0.31566
# Poissons Ratio (y) = 0.09626 0.27638
# Poissons Ratio (z) = 0.52072 0.32870
#
# Static dielectric constant tensor:
#      x y z
#    x 4.314040 0.000000 0.000000 
#    y 0.000000 4.154200 0.000000 
#    z 0.000000 0.000000 4.083460 
# 
# 
# High freq. dielectric constant tensor:
#      x y z
#    x 1.934440 0.000000 0.000000 
#    y 0.000000 1.925060 0.000000 
#    z 0.000000 0.000000 1.924200 
# 
# From -- ./inp_files/25748.got.cif
#   From: 2010.06.25/outbox.cif.g09.slc.cpg/sg48_13_cif.got.tgz:25748.got - 2010.06.26 18:06:46.
