data_PCOD8201489
_publ_section_title
;
Structure prediction by ZEFSAII (Michael W. Deem and Ramdas Pophale) SiO2 
 PCOD8201489
Probable space group: P N N N
;
_chemical_formula_sum "Si O2"
_cell_formula_units_Z 38
_cell_length_a 10.606584
_cell_length_b 16.191309
_cell_length_c 10.012655
_cell_angle_alpha 90.000000
_cell_angle_beta 90.000000
_cell_angle_gamma 90.000000
_cell_volume 1719.518090
_symmetry_space_group_name_H-M "P N N N"
_symmetry_group_IT_number 48
_space_group.IT_coordinate_system_code '2'
_symmetry_cell_setting 'orthorhombic'
loop_
_space_group_symop_operation_xyz
x,y,z
1/2-x,1/2-y,z
x,1/2-y,1/2-z
1/2-x,y,1/2-z
-x,-y,-z
1/2+x,1/2+y,-z
-x,1/2+y,1/2+z
1/2+x,-y,1/2+z
loop_
_atom_site_type_symbol
_atom_site_label
_atom_site_fract_x
_atom_site_fract_y
_atom_site_fract_z
Si Si1 0.912926 0.876722 0.583316
Si Si2 0.750000 0.132269 0.750000
Si Si3 0.538535 0.486310 0.203889
Si Si4 0.250000 0.250000 0.250000
Si Si5 0.515522 0.832074 0.197451
Si Si6 0.294074 0.992959 0.466958
O O1 0.843072 0.806479 0.665303
O O2 0.985436 0.832592 0.462615
O O3 0.808476 0.935660 0.516871
O O4 0.019031 0.927188 0.667909
O O5 0.623620 0.184586 0.740798
O O6 0.772858 0.078572 0.616302
O O7 0.565323 0.581391 0.243478
O O8 0.412197 0.473540 0.117877
O O9 0.659060 0.461098 0.112774
O O10 0.591552 0.750000 0.250000
#
# Coordination Sequence:
#
# PCOD8201489 Si02
#       6
#     8   4   8   2   8   8
#     4  12  23  44  64  98 137 176 214 282 339 407
#     4  10  20  44  67  87 126 172 228 278 328 395
#     4  10  21  40  65  94 128 176 221 267 329 406
#     4  12  26  40  68  92 144 168 212 268 356 392
#     4  11  25  41  64  94 132 170 225 278 339 399
#     4  10  19  38  68  91 125 170 225 263 327 397
#
# _framework density 22.099215000000001
#
# number of rings (size 3 to 8) (size 9 to 14) (size 15 to 20)
#    0.000    1.263    6.316    0.947    2.947    2.526 
#    0.000    0.000    0.000    0.000    0.000    0.000 
#    0.000    0.000    0.000    0.000    0.000    0.000 
#
# Total GULP energy -470943.772822 kJ/mol
# GULP energy per Si atom -12393.257180 kJ/mol
# Density = 2.204892 g / cm^3
# Si number density = 22.099215 Si / 1000 Ang^3
#
#
#
# Elastic Constant Matrix: (Units=GPa)
#
#
# Indices 1 2 3 4 5 6 
#
# 1 33.4828 21.6462 25.0936 0.0000 0.0000 0.0000
# 2 21.6462 136.9740 57.8513 0.0000 0.0000 0.0000
# 3 25.0936 57.8513 141.9745 0.0000 0.0000 0.0000
# 4 0.0000 0.0000 0.0000 22.9369 0.0000 0.0000
# 5 0.0000 0.0000 0.0000 0.0000 28.0252 0.0000
# 6 0.0000 0.0000 0.0000 0.0000 0.0000 1.4069
#
#
#
# Elastic Compliance Matrix: (Units=1/GPa)
#
#
# Indices 1 2 3 4 5 6 
#
# 1 0.035846 -0.003610 -0.004865 0.000000 0.000000 0.000000
# 2 -0.003610 0.009182 -0.003103 0.000000 0.000000 0.000000
# 3 -0.004865 -0.003103 0.009168 0.000000 0.000000 0.000000
# 4 0.000000 0.000000 0.000000 0.043598 0.000000 0.000000
# 5 0.000000 0.000000 0.000000 0.000000 0.035682 0.000000
# 6 0.000000 0.000000 0.000000 0.000000 0.000000 0.710794
#
#
# Mechanical properties :
#
#
# Convention : Reuss Voigt Hill
#
# Bulk Modulus (GPa) = 32.21720 57.95707 45.08713
# Shear Modulus (GPa) = 5.69624 24.32982 15.01303
#
# Velocity S-wave (km/s) = 1.60723 3.32163 2.60926
# Velocity P-wave (km/s) = 4.24904 6.40264 5.43360
#
# Compressibility (1/GPa) = 0.03103932
#
# Stress axis : x y z
#
# Youngs Moduli (GPa) = 27.89731 108.91033 109.07695
#
# Poissons Ratio (x) = 0.39319 0.53061
# Poissons Ratio (y) = 0.10071 0.33850
# Poissons Ratio (z) = 0.13571 0.33798
#
# Static dielectric constant tensor:
#      x y z
#    x 3.854590 0.000000 0.000000 
#    y 0.000000 3.972290 0.000000 
#    z 0.000000 0.000000 4.201590 
# 
# 
# High freq. dielectric constant tensor:
#      x y z
#    x 1.862270 0.000000 0.000000 
#    y 0.000000 1.861140 0.000000 
#    z 0.000000 0.000000 1.877470 
# 
# From -- ./inp_files/10727.got.cif
#   From: 2010.06.25/outbox.cif.g09.slc.cpg/sg48_6_cif.got.tgz:10727.got - 2010.06.26 18:06:46.
