data_PCOD8201001
_publ_section_title
;
Structure prediction by ZEFSAII (Michael W. Deem and Ramdas Pophale) SiO2 
 PCOD8201001
Probable space group: P M M M
;
_chemical_formula_sum "Si O2"
_cell_formula_units_Z 52
_cell_length_a 27.647162
_cell_length_b 12.824773
_cell_length_c 9.308496
_cell_angle_alpha 90.000000
_cell_angle_beta 90.000000
_cell_angle_gamma 90.000000
_cell_volume 3300.500178
_symmetry_space_group_name_H-M "P M M M"
_symmetry_group_IT_number 47
_symmetry_cell_setting 'orthorhombic'
loop_
_space_group_symop_operation_xyz
x,y,z
-x,-y,z
x,-y,-z
-x,y,-z
-x,-y,-z
x,y,-z
-x,y,z
x,-y,z
loop_
_atom_site_type_symbol
_atom_site_label
_atom_site_fract_x
_atom_site_fract_y
_atom_site_fract_z
Si Si1 0.622251 0.298150 0.168278
Si Si2 0.621121 0.500000 0.662267
Si Si3 0.734525 0.297880 0.831931
Si Si4 0.554101 0.115505 0.170578
Si Si5 0.000000 0.124592 0.660859
Si Si6 0.196347 0.884320 0.829064
Si Si7 0.263992 0.500000 0.662303
Si Si8 0.910241 0.876333 0.159454
O O1 0.602529 0.398216 0.253886
O O2 0.678383 0.276219 0.199846
O O3 0.592481 0.199370 0.228706
O O4 0.613211 0.318185 0.000000
O O5 0.600654 0.500000 0.500000
O O6 0.678563 0.500000 0.662434
O O7 0.763731 0.197420 0.774526
O O8 0.754397 0.397644 0.745657
O O9 0.743477 0.318682 0.000000
O O10 0.500000 0.145321 0.222661
O O11 0.567965 0.000000 0.228381
O O12 0.555802 0.114293 0.000000
O O13 0.952080 0.169142 0.738497
O O14 0.000000 0.168411 0.500000
O O15 0.000000 0.000000 0.662482
O O16 0.142868 0.847496 0.777918
O O17 0.208699 0.000000 0.767806
O O18 0.196058 0.889953 0.000000
O O19 0.243552 0.500000 0.500000
O O20 0.914454 0.000000 0.150144
O O21 0.917475 0.828869 0.000000
#
# Coordination Sequence:
#
# PCOD8201001 Si02
#       8
#     8   4   8   8   4   8   4   8
#     4   9  16  26  43  65  84 104 134 170 204 240
#     4   9  17  29  44  60  81 108 133 163 206 249
#     4   9  16  26  42  63  84 105 133 170 206 239
#     4   8  14  25  41  62  87 111 135 166 203 241
#     4   9  15  21  31  49  71  96 131 172 203 223
#     4   8  14  24  38  58  84 110 133 161 200 243
#     4   9  17  29  43  58  78 106 139 170 202 241
#     4   8  13  22  35  49  69 101 135 160 188 233
#
# _framework density 15.755186999999999
#
# number of rings (size 3 to 8) (size 9 to 14) (size 15 to 20)
#    0.000    3.462    0.000    2.077    0.000    3.385 
#    0.000    4.231    0.000    4.615    0.000    5.385 
#    0.000    0.615    0.000    7.077    0.000    4.615 
#
# Total GULP energy -644465.052698 kJ/mol
# GULP energy per Si atom -12393.558706 kJ/mol
# Density = 1.571933 g / cm^3
# Si number density = 15.755187 Si / 1000 Ang^3
#
#
#
# Elastic Constant Matrix: (Units=GPa)
#
#
# Indices 1 2 3 4 5 6 
#
# 1 88.2052 68.2098 36.1097 0.0000 0.0000 0.0000
# 2 68.2098 117.0800 41.7032 0.0000 0.0000 0.0000
# 3 36.1097 41.7032 58.7540 0.0000 0.0000 0.0000
# 4 0.0000 0.0000 0.0000 6.7950 0.0000 0.0000
# 5 0.0000 0.0000 0.0000 0.0000 8.3775 0.0000
# 6 0.0000 0.0000 0.0000 0.0000 0.0000 4.0428
#
#
#
# Elastic Compliance Matrix: (Units=1/GPa)
#
#
# Indices 1 2 3 4 5 6 
#
# 1 0.022081 -0.010748 -0.005942 0.000000 0.000000 0.000000
# 2 -0.010748 0.016663 -0.005222 0.000000 0.000000 0.000000
# 3 -0.005942 -0.005222 0.024378 0.000000 0.000000 0.000000
# 4 0.000000 0.000000 0.000000 0.147166 0.000000 0.000000
# 5 0.000000 0.000000 0.000000 0.000000 0.119368 0.000000
# 6 0.000000 0.000000 0.000000 0.000000 0.000000 0.247356
#
#
# Mechanical properties :
#
#
# Convention : Reuss Voigt Hill
#
# Bulk Modulus (GPa) = 51.81575 61.78717 56.80146
# Shear Modulus (GPa) = 7.97108 11.71082 9.84095
#
# Velocity S-wave (km/s) = 2.25174 2.72931 2.50194
# Velocity P-wave (km/s) = 6.30237 7.01672 6.66912
#
# Compressibility (1/GPa) = 0.01929915
#
# Stress axis : x y z
#
# Youngs Moduli (GPa) = 45.28758 60.01485 41.01992
#
# Poissons Ratio (x) = 0.64502 0.24375
# Poissons Ratio (y) = 0.48674 0.21419
# Poissons Ratio (z) = 0.26911 0.31337
#
# Static dielectric constant tensor:
#      x y z
#    x 3.078310 0.000000 0.000000 
#    y 0.000000 3.035510 0.000000 
#    z 0.000000 0.000000 2.847160 
# 
# 
# High freq. dielectric constant tensor:
#      x y z
#    x 1.593520 0.000000 0.000000 
#    y 0.000000 1.579780 0.000000 
#    z 0.000000 0.000000 1.576010 
# 
# From -- ./inp_files/14156.got.cif
#   From: 2010.03.12/outbox.cif.g09.slc.cpg/sg47_8_cif.got.tgz:14156.got - 2010.04.14 03:12:58.
