data_PCOD8201033
_publ_section_title
;
Structure prediction by ZEFSAII (Michael W. Deem and Ramdas Pophale) SiO2 
 PCOD8201033
Probable space group: P M M M
;
_chemical_formula_sum "Si O2"
_cell_formula_units_Z 44
_cell_length_a 9.878393
_cell_length_b 18.043001
_cell_length_c 19.421496
_cell_angle_alpha 90.000000
_cell_angle_beta 90.000000
_cell_angle_gamma 90.000000
_cell_volume 3461.606941
_symmetry_space_group_name_H-M "P M M M"
_symmetry_group_IT_number 47
_symmetry_cell_setting 'orthorhombic'
loop_
_space_group_symop_operation_xyz
x,y,z
-x,-y,z
x,-y,-z
-x,y,-z
-x,-y,-z
x,y,-z
-x,y,z
x,-y,z
loop_
_atom_site_type_symbol
_atom_site_label
_atom_site_fract_x
_atom_site_fract_y
_atom_site_fract_z
Si Si1 0.656338 0.086847 0.696295
Si Si2 0.339951 0.141390 0.843062
Si Si3 0.848286 0.088006 0.423721
Si Si4 0.848605 0.582144 0.918297
Si Si5 0.342390 0.712442 0.080649
Si Si6 0.338161 0.000000 0.077544
O O1 0.500000 0.100351 0.678109
O O2 0.701572 0.133552 0.763197
O O3 0.743614 0.118613 0.632750
O O4 0.682958 0.000000 0.710836
O O5 0.500000 0.138276 0.850714
O O6 0.286881 0.217816 0.875787
O O7 0.278013 0.072600 0.885301
O O8 0.808121 0.117426 0.500000
O O9 0.000000 0.114622 0.404954
O O10 0.842113 0.000000 0.424078
O O11 0.809866 0.500000 0.890530
O O12 0.740427 0.641754 0.891135
O O13 0.000000 0.603487 0.893181
O O14 0.844638 0.580996 0.000000
O O15 0.500000 0.696924 0.094605
O O16 0.316268 0.728159 0.000000
O O17 0.500000 0.000000 0.080731
O O18 0.284689 0.000000 0.000000
#
# Coordination Sequence:
#
# PCOD8201033 Si02
#       6
#     8   8   8   8   8   4
#     4   9  15  23  35  49  66  88 114 144 174 204
#     4   9  15  23  32  47  70  92 116 148 182 208
#     4   8  14  24  36  49  65  83 104 135 174 212
#     4   8  14  25  39  52  66  85 108 135 172 218
#     4   9  16  24  35  52  71  89 113 147 181 210
#     4   9  14  20  32  46  62  89 122 152 181 211
#
# _framework density 12.710858999999999
#
# number of rings (size 3 to 8) (size 9 to 14) (size 15 to 20)
#    0.000    3.364    0.909    1.636    0.000    2.909 
#    0.000    4.545    0.000    0.000    0.000    0.000 
#    0.000    4.364    0.000    0.000    0.000    0.909 
#
# Total GULP energy -545290.034066 kJ/mol
# GULP energy per Si atom -12392.955320 kJ/mol
# Density = 1.268193 g / cm^3
# Si number density = 12.710859 Si / 1000 Ang^3
#
#
#
# Elastic Constant Matrix: (Units=GPa)
#
#
# Indices 1 2 3 4 5 6 
#
# 1 51.8551 39.9729 41.3807 0.0000 0.0000 0.0000
# 2 39.9729 84.4088 39.8519 0.0000 0.0000 0.0000
# 3 41.3807 39.8519 81.7590 0.0000 0.0000 0.0000
# 4 0.0000 0.0000 0.0000 5.4305 0.0000 0.0000
# 5 0.0000 0.0000 0.0000 0.0000 10.4779 0.0000
# 6 0.0000 0.0000 0.0000 0.0000 0.0000 10.1748
#
#
#
# Elastic Compliance Matrix: (Units=1/GPa)
#
#
# Indices 1 2 3 4 5 6 
#
# 1 0.040198 -0.012250 -0.014375 0.000000 0.000000 0.000000
# 2 -0.012250 0.019121 -0.003120 0.000000 0.000000 0.000000
# 3 -0.014375 -0.003120 0.021027 0.000000 0.000000 0.000000
# 4 0.000000 0.000000 0.000000 0.184144 0.000000 0.000000
# 5 0.000000 0.000000 0.000000 0.000000 0.095439 0.000000
# 6 0.000000 0.000000 0.000000 0.000000 0.000000 0.098282
#
#
# Mechanical properties :
#
#
# Convention : Reuss Voigt Hill
#
# Bulk Modulus (GPa) = 47.94418 51.15935 49.55177
# Shear Modulus (GPa) = 9.53008 11.67115 10.60061
#
# Velocity S-wave (km/s) = 2.74114 3.03347 2.89101
# Velocity P-wave (km/s) = 6.91516 7.25294 7.08607
#
# Compressibility (1/GPa) = 0.02085759
#
# Stress axis : x y z
#
# Youngs Moduli (GPa) = 24.87658 52.29749 47.55679
#
# Poissons Ratio (x) = 0.64063 0.68361
# Poissons Ratio (y) = 0.30473 0.14840
# Poissons Ratio (z) = 0.35759 0.16319
#
# Static dielectric constant tensor:
#      x y z
#    x 2.503450 0.000000 0.000000 
#    y 0.000000 2.569020 0.000000 
#    z 0.000000 0.000000 2.581510 
# 
# 
# High freq. dielectric constant tensor:
#      x y z
#    x 1.465910 0.000000 0.000000 
#    y 0.000000 1.452980 0.000000 
#    z 0.000000 0.000000 1.462220 
# 
# From -- ./inp_files/22595.got.cif
#   From: 2010.03.12/outbox.cif.g09.slc.cpg/sg47_12_cif.got.tgz:22595.got - 2010.04.14 03:12:58.
