data_PCOD8201872
_publ_section_title
;
Structure prediction by ZEFSAII (Michael W. Deem and Ramdas Pophale) SiO2 
 PCOD8201872
Probable space group: P N N N
;
_chemical_formula_sum "Si O2"
_cell_formula_units_Z 64
_cell_length_a 8.706848
_cell_length_b 23.924380
_cell_length_c 15.275807
_cell_angle_alpha 90.000000
_cell_angle_beta 90.000000
_cell_angle_gamma 90.000000
_cell_volume 3182.041339
_symmetry_space_group_name_H-M "P N N N"
_symmetry_group_IT_number 48
_space_group.IT_coordinate_system_code '2'
_symmetry_cell_setting 'orthorhombic'
loop_
_space_group_symop_operation_xyz
x,y,z
1/2-x,1/2-y,z
x,1/2-y,1/2-z
1/2-x,y,1/2-z
-x,-y,-z
1/2+x,1/2+y,-z
-x,1/2+y,1/2+z
1/2+x,-y,1/2+z
loop_
_atom_site_type_symbol
_atom_site_label
_atom_site_fract_x
_atom_site_fract_y
_atom_site_fract_z
Si Si1 0.069208 0.939084 0.496736
Si Si2 0.925720 0.635187 0.150791
Si Si3 0.425720 0.135187 0.650791
Si Si4 0.571275 0.750000 0.588017
Si Si5 0.073141 0.859280 0.848106
Si Si6 0.430792 0.560916 0.003264
Si Si7 0.073141 0.640720 0.848106
Si Si8 0.069025 0.750000 0.399567
O O1 0.250000 0.944445 0.494040
O O2 0.015254 0.905518 0.583044
O O3 0.014646 0.907934 0.409974
O O4 0.000000 0.000000 0.500000
O O5 0.936955 0.612958 0.250000
O O6 0.750000 0.639022 0.119234
O O7 0.999774 0.696046 0.146725
O O8 0.514646 0.092066 0.590026
O O9 0.499774 0.196046 0.646725
O O10 0.750000 0.750000 0.563363
O O11 0.531007 0.804420 0.644235
O O12 0.531007 0.695580 0.644234
O O13 0.469015 0.750000 0.501534
O O14 0.250000 0.843089 0.867085
O O15 0.053968 0.883582 0.750000
O O16 0.015254 0.905518 0.916956
O O17 0.500000 0.500000 0.000000
O O18 0.250000 0.750000 0.386327
#
# Coordination Sequence:
#
# PCOD8201872 Si02
#       8
#     8   8   8   8   8   8   8   8
#     4  11  24  42  65  91 124 167 212 260 311 365
#     4  11  24  42  65  94 128 165 206 257 315 371
#     4  11  24  42  65  94 128 165 206 257 315 371
#     4  12  23  36  61  94 128 162 201 251 310 369
#     4  10  22  41  64  90 123 164 206 250 308 373
#     4  11  24  42  65  91 124 167 212 260 311 365
#     4  10  22  41  64  90 123 164 206 250 308 373
#     4  12  23  38  63  94 128 166 205 251 312 377
#
# _framework density 20.112876
#
# number of rings (size 3 to 8) (size 9 to 14) (size 15 to 20)
#    0.000    1.000    2.500    4.500    0.000    7.500 
#    0.000    2.500    0.000    0.000    0.000    0.000 
#    0.000    0.000    0.000    0.000    0.000    0.000 
#
# Total GULP energy -793972.669282 kJ/mol
# GULP energy per Si atom -12405.822958 kJ/mol
# Density = 2.006710 g / cm^3
# Si number density = 20.112876 Si / 1000 Ang^3
#
#
#
# Elastic Constant Matrix: (Units=GPa)
#
#
# Indices 1 2 3 4 5 6 
#
# 1 82.4665 52.6343 31.0203 0.0000 0.0000 0.0000
# 2 52.6343 167.1370 61.1796 0.0000 0.0000 0.0000
# 3 31.0203 61.1796 129.4170 0.0000 0.0000 0.0000
# 4 0.0000 0.0000 0.0000 7.9035 0.0000 0.0000
# 5 0.0000 0.0000 0.0000 0.0000 31.2207 0.0000
# 6 0.0000 0.0000 0.0000 0.0000 0.0000 38.9889
#
#
#
# Elastic Compliance Matrix: (Units=1/GPa)
#
#
# Indices 1 2 3 4 5 6 
#
# 1 0.015480 -0.004253 -0.001700 0.000000 0.000000 0.000000
# 2 -0.004253 0.008403 -0.002953 0.000000 0.000000 0.000000
# 3 -0.001700 -0.002953 0.009531 0.000000 0.000000 0.000000
# 4 0.000000 0.000000 0.000000 0.126526 0.000000 0.000000
# 5 0.000000 0.000000 0.000000 0.000000 0.032030 0.000000
# 6 0.000000 0.000000 0.000000 0.000000 0.000000 0.025648
#
#
# Mechanical properties :
#
#
# Convention : Reuss Voigt Hill
#
# Bulk Modulus (GPa) = 64.09442 74.29878 69.19660
# Shear Modulus (GPa) = 20.77872 31.23503 26.00687
#
# Velocity S-wave (km/s) = 3.21768 3.94507 3.59980
# Velocity P-wave (km/s) = 6.76322 7.60083 7.19422
#
# Compressibility (1/GPa) = 0.01560198
#
# Stress axis : x y z
#
# Youngs Moduli (GPa) = 64.60014 119.00048 104.92590
#
# Poissons Ratio (x) = 0.50606 0.17838
# Poissons Ratio (y) = 0.27472 0.30987
# Poissons Ratio (z) = 0.10983 0.35143
#
# Static dielectric constant tensor:
#      x y z
#    x 3.740840 0.000000 0.000000 
#    y 0.000000 3.654040 0.000000 
#    z 0.000000 0.000000 3.794960 
# 
# 
# High freq. dielectric constant tensor:
#      x y z
#    x 1.794160 0.000000 0.000000 
#    y 0.000000 1.779950 0.000000 
#    z 0.000000 0.000000 1.800280 
# 
# From -- ./inp_files/25739.got.cif
#   From: 2010.06.25/outbox.cif.g09.slc.cpg/sg48_13_cif.got.tgz:25739.got - 2010.06.26 18:06:46.
