data_PCOD8201737
_publ_section_title
;
Structure prediction by ZEFSAII (Michael W. Deem and Ramdas Pophale) SiO2 
 PCOD8201737
Probable space group: P N N N
;
_chemical_formula_sum "Si O2"
_cell_formula_units_Z 44
_cell_length_a 16.168459
_cell_length_b 11.748233
_cell_length_c 11.604411
_cell_angle_alpha 90.000000
_cell_angle_beta 90.000000
_cell_angle_gamma 90.000000
_cell_volume 2204.267427
_symmetry_space_group_name_H-M "P N N N"
_symmetry_group_IT_number 48
_space_group.IT_coordinate_system_code '2'
_symmetry_cell_setting 'orthorhombic'
loop_
_space_group_symop_operation_xyz
x,y,z
1/2-x,1/2-y,z
x,1/2-y,1/2-z
1/2-x,y,1/2-z
-x,-y,-z
1/2+x,1/2+y,-z
-x,1/2+y,1/2+z
1/2+x,-y,1/2+z
loop_
_atom_site_type_symbol
_atom_site_label
_atom_site_fract_x
_atom_site_fract_y
_atom_site_fract_z
Si Si1 0.569723 0.090321 0.971926
Si Si2 0.380574 0.990105 0.507068
Si Si3 0.396878 0.250000 0.250000
Si Si4 0.769706 0.378444 0.115149
Si Si5 0.988041 0.688542 0.527345
Si Si6 0.157329 0.002249 0.249374
O O1 0.611233 0.058878 0.852459
O O2 0.636037 0.094227 0.077833
O O3 0.527219 0.212804 0.948863
O O4 0.500000 0.000000 0.000000
O O5 0.413170 0.118616 0.535299
O O6 0.387089 0.969547 0.369739
O O7 0.287578 0.971359 0.550685
O O8 0.441153 0.899961 0.567202
O O9 0.456365 0.250177 0.359200
O O10 0.339972 0.361059 0.261088
O O11 0.750000 0.250000 0.074277
O O12 0.750000 0.392280 0.250000
O O13 0.250000 0.955416 0.250000
#
# Coordination Sequence:
#
# PCOD8201737 Si02
#       6
#     8   8   4   8   8   8
#     4  12  24  41  66 101 132 168 219 279 321 390
#     4  10  22  40  62  95 131 175 212 270 329 395
#     4  10  21  38  64  91 124 170 222 266 317 398
#     4  11  24  42  70  95 129 176 227 270 321 389
#     4  10  22  38  62  93 130 171 215 265 331 384
#     4  11  22  39  63  93 128 169 218 268 332 387
#
# _framework density 19.961281
#
# number of rings (size 3 to 8) (size 9 to 14) (size 15 to 20)
#    0.000    1.273    5.455    0.273    2.545    2.182 
#    0.000    2.727    0.000    1.091    0.000    0.000 
#    0.000    0.000    0.000    0.000    0.000    0.000 
#
# Total GULP energy -545544.142609 kJ/mol
# GULP energy per Si atom -12398.730514 kJ/mol
# Density = 1.991585 g / cm^3
# Si number density = 19.961281 Si / 1000 Ang^3
#
#
#
# Elastic Constant Matrix: (Units=GPa)
#
#
# Indices 1 2 3 4 5 6 
#
# 1 139.3058 61.8313 46.8621 0.0000 0.0000 0.0000
# 2 61.8313 117.2501 41.2795 0.0000 0.0000 0.0000
# 3 46.8621 41.2795 96.0124 0.0000 0.0000 0.0000
# 4 0.0000 0.0000 0.0000 29.1230 0.0000 0.0000
# 5 0.0000 0.0000 0.0000 0.0000 30.9230 0.0000
# 6 0.0000 0.0000 0.0000 0.0000 0.0000 39.5829
#
#
#
# Elastic Compliance Matrix: (Units=1/GPa)
#
#
# Indices 1 2 3 4 5 6 
#
# 1 0.010104 -0.004233 -0.003112 0.000000 0.000000 0.000000
# 2 -0.004233 0.011823 -0.003017 0.000000 0.000000 0.000000
# 3 -0.003112 -0.003017 0.013231 0.000000 0.000000 0.000000
# 4 0.000000 0.000000 0.000000 0.034337 0.000000 0.000000
# 5 0.000000 0.000000 0.000000 0.000000 0.032338 0.000000
# 6 0.000000 0.000000 0.000000 0.000000 0.000000 0.025263
#
#
# Mechanical properties :
#
#
# Convention : Reuss Voigt Hill
#
# Bulk Modulus (GPa) = 69.27658 72.50158 70.88908
# Shear Modulus (GPa) = 32.75838 33.43214 33.09526
#
# Velocity S-wave (km/s) = 4.05544 4.09693 4.07624
# Velocity P-wave (km/s) = 7.53058 7.66680 7.59899
#
# Compressibility (1/GPa) = 0.01443489
#
# Stress axis : x y z
#
# Youngs Moduli (GPa) = 98.97120 84.57963 75.57788
#
# Poissons Ratio (x) = 0.35800 0.23518
# Poissons Ratio (y) = 0.41892 0.22804
# Poissons Ratio (z) = 0.30797 0.25520
#
# Static dielectric constant tensor:
#      x y z
#    x 3.995480 0.000000 0.000000 
#    y 0.000000 3.976120 0.000000 
#    z 0.000000 0.000000 3.452510 
# 
# 
# High freq. dielectric constant tensor:
#      x y z
#    x 1.790640 0.000000 0.000000 
#    y 0.000000 1.782020 0.000000 
#    z 0.000000 0.000000 1.763810 
# 
# From -- ./inp_files/22085.got.cif
#   From: 2010.06.25/outbox.cif.g09.slc.cpg/sg48_12_cif.got.tgz:22085.got - 2010.06.26 18:06:46.
