data_PCOD8201534
_publ_section_title
;
Structure prediction by ZEFSAII (Michael W. Deem and Ramdas Pophale) SiO2 
 PCOD8201534
Probable space group: P N N N
;
_chemical_formula_sum "Si O2"
_cell_formula_units_Z 52
_cell_length_a 13.836304
_cell_length_b 8.332578
_cell_length_c 22.817321
_cell_angle_alpha 90.000000
_cell_angle_beta 90.000000
_cell_angle_gamma 90.000000
_cell_volume 2630.656451
_symmetry_space_group_name_H-M "P N N N"
_symmetry_group_IT_number 48
_space_group.IT_coordinate_system_code '2'
_symmetry_cell_setting 'orthorhombic'
loop_
_space_group_symop_operation_xyz
x,y,z
1/2-x,1/2-y,z
x,1/2-y,1/2-z
1/2-x,y,1/2-z
-x,-y,-z
1/2+x,1/2+y,-z
-x,1/2+y,1/2+z
1/2+x,-y,1/2+z
loop_
_atom_site_type_symbol
_atom_site_label
_atom_site_fract_x
_atom_site_fract_y
_atom_site_fract_z
Si Si1 0.250000 0.250000 0.931029
Si Si2 0.654752 0.849318 0.637683
Si Si3 0.572768 0.954179 0.092957
Si Si4 0.304357 0.505622 0.022927
Si Si5 0.140184 0.579925 0.265008
Si Si6 0.502444 0.648381 0.696664
Si Si7 0.393206 0.659723 0.478145
O O1 0.340586 0.173800 0.895992
O O2 0.293609 0.401053 0.965144
O O3 0.750000 0.750000 0.658983
O O4 0.555351 0.757971 0.649236
O O5 0.655999 0.877094 0.568795
O O6 0.642403 0.024940 0.667361
O O7 0.476003 0.863244 0.070932
O O8 0.566708 0.035792 0.157595
O O9 0.589779 0.086018 0.042542
O O10 0.378541 0.650636 0.011735
O O11 0.202646 0.574597 0.047170
O O12 0.088636 0.750000 0.250000
O O13 0.250000 0.594301 0.250000
O O14 0.088021 0.446353 0.227532
O O15 0.449531 0.750000 0.750000
#
# Coordination Sequence:
#
# PCOD8201534 Si02
#       7
#     4   8   8   8   8   8   8
#     4  10  22  38  58  86 120 156 206 254 298 352
#     4  11  19  31  52  79 125 165 191 224 286 366
#     4  10  21  40  58  85 121 158 197 252 301 353
#     4  10  20  35  55  91 123 158 192 229 296 373
#     4  10  21  32  50  80 116 158 200 229 274 343
#     4  10  22  37  55  80 117 159 200 244 298 363
#     4   9  21  35  58  87 127 159 191 234 298 371
#
# _framework density 19.766928
#
# number of rings (size 3 to 8) (size 9 to 14) (size 15 to 20)
#    0.000    2.000    2.308    0.923    6.462    1.846 
#    0.000    0.000    0.000    0.000    0.000   18.846 
#    0.000    0.000    0.000    0.000    0.000    0.000 
#
# Total GULP energy -644196.563612 kJ/mol
# GULP energy per Si atom -12388.395454 kJ/mol
# Density = 1.972194 g / cm^3
# Si number density = 19.766928 Si / 1000 Ang^3
#
#
#
# Elastic Constant Matrix: (Units=GPa)
#
#
# Indices 1 2 3 4 5 6 
#
# 1 83.7699 42.3885 37.0639 0.0000 0.0000 0.0000
# 2 42.3885 115.3430 31.7940 0.0000 0.0000 0.0000
# 3 37.0639 31.7940 75.9959 0.0000 0.0000 0.0000
# 4 0.0000 0.0000 0.0000 31.8966 0.0000 0.0000
# 5 0.0000 0.0000 0.0000 0.0000 11.9055 0.0000
# 6 0.0000 0.0000 0.0000 0.0000 0.0000 36.9779
#
#
#
# Elastic Compliance Matrix: (Units=1/GPa)
#
#
# Indices 1 2 3 4 5 6 
#
# 1 0.017062 -0.004495 -0.006441 0.000000 0.000000 0.000000
# 2 -0.004495 0.010984 -0.002403 0.000000 0.000000 0.000000
# 3 -0.006441 -0.002403 0.017305 0.000000 0.000000 0.000000
# 4 0.000000 0.000000 0.000000 0.031351 0.000000 0.000000
# 5 0.000000 0.000000 0.000000 0.000000 0.083995 0.000000
# 6 0.000000 0.000000 0.000000 0.000000 0.000000 0.027043
#
#
# Mechanical properties :
#
#
# Convention : Reuss Voigt Hill
#
# Bulk Modulus (GPa) = 53.55158 55.28906 54.42032
# Shear Modulus (GPa) = 22.66114 27.08014 24.87064
#
# Velocity S-wave (km/s) = 3.38955 3.70533 3.55095
# Velocity P-wave (km/s) = 6.51683 6.80714 6.66357
#
# Compressibility (1/GPa) = 0.01867359
#
# Stress axis : x y z
#
# Youngs Moduli (GPa) = 58.61148 91.04104 57.78616
#
# Poissons Ratio (x) = 0.40921 0.37218
# Poissons Ratio (y) = 0.26344 0.13887
# Poissons Ratio (z) = 0.37749 0.21879
#
# Static dielectric constant tensor:
#      x y z
#    x 3.468940 0.000000 0.000000 
#    y 0.000000 5.130820 0.000000 
#    z 0.000000 0.000000 3.403940 
# 
# 
# High freq. dielectric constant tensor:
#      x y z
#    x 1.741000 0.000000 0.000000 
#    y 0.000000 1.787820 0.000000 
#    z 0.000000 0.000000 1.749630 
# 
# From -- ./inp_files/25572.got.cif
#   From: 2010.06.25/outbox.cif.g09.slc.cpg/sg48_13_cif.got.tgz:25572.got - 2010.06.26 18:06:46.
