data_PCOD8201343
_publ_section_title
;
Structure prediction by ZEFSAII (Michael W. Deem and Ramdas Pophale) SiO2 
 PCOD8201343
Probable space group: P N N N
;
_chemical_formula_sum "Si O2"
_cell_formula_units_Z 58
_cell_length_a 13.954898
_cell_length_b 16.597559
_cell_length_c 13.632428
_cell_angle_alpha 90.000000
_cell_angle_beta 90.000000
_cell_angle_gamma 90.000000
_cell_volume 3157.505387
_symmetry_space_group_name_H-M "P N N N"
_symmetry_group_IT_number 48
_space_group.IT_coordinate_system_code '2'
_symmetry_cell_setting 'orthorhombic'
loop_
_space_group_symop_operation_xyz
x,y,z
1/2-x,1/2-y,z
x,1/2-y,1/2-z
1/2-x,y,1/2-z
-x,-y,-z
1/2+x,1/2+y,-z
-x,1/2+y,1/2+z
1/2+x,-y,1/2+z
loop_
_atom_site_type_symbol
_atom_site_label
_atom_site_fract_x
_atom_site_fract_y
_atom_site_fract_z
Si Si1 0.317950 0.957889 0.658603
Si Si2 0.178860 0.672885 0.508221
Si Si3 0.037987 0.314488 0.551204
Si Si4 0.250000 0.250000 0.750000
Si Si5 0.688042 0.044525 0.659282
Si Si6 0.783761 0.913284 0.991510
Si Si7 0.382503 0.347193 0.607816
Si Si8 0.477120 0.062401 0.724189
O O1 0.250000 0.969773 0.750000
O O2 0.305235 0.868792 0.614006
O O3 0.295834 0.022510 0.576459
O O4 0.424464 0.979570 0.693985
O O5 0.250000 0.750000 0.502391
O O6 0.205133 0.614709 0.419148
O O7 0.063924 0.683457 0.503508
O O8 0.127884 0.349257 0.488362
O O9 0.046100 0.219947 0.568897
O O10 0.043156 0.360887 0.654605
O O11 0.309371 0.310517 0.684754
O O12 0.750000 0.069752 0.750000
O O13 0.585302 0.038243 0.708903
O O14 0.716249 0.958268 0.613063
O O15 0.678952 0.876018 0.013164
O O16 0.446580 0.414813 0.663880
#
# Coordination Sequence:
#
# PCOD8201343 Si02
#       8
#     8   8   8   2   8   8   8   8
#     4  10  18  35  59  82 111 142 182 238 290 338
#     4  10  23  38  54  79 110 152 196 233 279 345
#     4  10  19  32  55  84 120 144 178 229 297 341
#     4  12  16  28  48  88 124 128 162 220 288 332
#     4  10  23  40  56  74 112 160 200 227 274 340
#     4  10  19  35  57  87 114 146 183 236 289 346
#     4  12  18  29  56  92 120 137 177 240 294 334
#     4  10  19  33  56  88 113 148 186 231 287 348
#
# _framework density 18.368932000000001
#
# number of rings (size 3 to 8) (size 9 to 14) (size 15 to 20)
#    0.000    1.655    4.138    1.655    1.931    3.862 
#    0.000    2.069    0.000    3.310    0.000    0.000 
#    0.000    0.000    0.000    0.000    0.000    0.000 
#
# Total GULP energy -718591.031867 kJ/mol
# GULP energy per Si atom -12389.500549 kJ/mol
# Density = 1.832712 g / cm^3
# Si number density = 18.368932 Si / 1000 Ang^3
#
#
#
# Elastic Constant Matrix: (Units=GPa)
#
#
# Indices 1 2 3 4 5 6 
#
# 1 82.8624 46.0240 30.8555 0.0000 0.0000 0.0000
# 2 46.0240 73.8619 38.2479 0.0000 0.0000 0.0000
# 3 30.8555 38.2479 49.3105 0.0000 0.0000 0.0000
# 4 0.0000 0.0000 0.0000 65.3489 0.0000 0.0000
# 5 0.0000 0.0000 0.0000 0.0000 11.3340 0.0000
# 6 0.0000 0.0000 0.0000 0.0000 0.0000 30.0552
#
#
#
# Elastic Compliance Matrix: (Units=1/GPa)
#
#
# Indices 1 2 3 4 5 6 
#
# 1 0.019043 -0.009519 -0.004533 0.000000 0.000000 0.000000
# 2 -0.009519 0.027385 -0.015285 0.000000 0.000000 0.000000
# 3 -0.004533 -0.015285 0.034972 0.000000 0.000000 0.000000
# 4 0.000000 0.000000 0.000000 0.015302 0.000000 0.000000
# 5 0.000000 0.000000 0.000000 0.000000 0.088230 0.000000
# 6 0.000000 0.000000 0.000000 0.000000 0.000000 0.033272
#
#
# Mechanical properties :
#
#
# Convention : Reuss Voigt Hill
#
# Bulk Modulus (GPa) = 44.00070 48.47661 46.23865
# Shear Modulus (GPa) = 17.57758 27.40812 22.49285
#
# Velocity S-wave (km/s) = 3.09677 3.86695 3.50309
# Velocity P-wave (km/s) = 6.06568 6.81069 6.44896
#
# Compressibility (1/GPa) = 0.02272691
#
# Stress axis : x y z
#
# Youngs Moduli (GPa) = 52.51279 36.51636 28.59437
#
# Poissons Ratio (x) = 0.34759 0.12961
# Poissons Ratio (y) = 0.49985 0.43707
# Poissons Ratio (z) = 0.23803 0.55816
#
# Static dielectric constant tensor:
#      x y z
#    x 2.715790 0.000000 0.000000 
#    y 0.000000 3.522050 0.000000 
#    z 0.000000 0.000000 3.303650 
# 
# 
# High freq. dielectric constant tensor:
#      x y z
#    x 1.719390 0.000000 0.000000 
#    y 0.000000 1.702620 0.000000 
#    z 0.000000 0.000000 1.689020 
# 
# From -- ./inp_files/21530.got.cif
#   From: 2010.06.25/outbox.cif.g09.slc.cpg/sg48_11_cif.got.tgz:21530.got - 2010.06.26 18:06:46.
