data_PCOD8201374
_publ_section_title
;
Structure prediction by ZEFSAII (Michael W. Deem and Ramdas Pophale) SiO2 
 PCOD8201374
Probable space group: P N N N
;
_chemical_formula_sum "Si O2"
_cell_formula_units_Z 56
_cell_length_a 20.411835
_cell_length_b 8.387911
_cell_length_c 15.098617
_cell_angle_alpha 90.000000
_cell_angle_beta 90.000000
_cell_angle_gamma 90.000000
_cell_volume 2585.074308
_symmetry_space_group_name_H-M "P N N N"
_symmetry_group_IT_number 48
_space_group.IT_coordinate_system_code '2'
_symmetry_cell_setting 'orthorhombic'
loop_
_space_group_symop_operation_xyz
x,y,z
1/2-x,1/2-y,z
x,1/2-y,1/2-z
1/2-x,y,1/2-z
-x,-y,-z
1/2+x,1/2+y,-z
-x,1/2+y,1/2+z
1/2+x,-y,1/2+z
loop_
_atom_site_type_symbol
_atom_site_label
_atom_site_fract_x
_atom_site_fract_y
_atom_site_fract_z
Si Si1 0.180149 0.065629 0.719982
Si Si2 0.897722 0.073175 0.641233
Si Si3 0.862872 0.547455 0.028193
Si Si4 0.514302 0.148503 0.084469
Si Si5 0.437835 0.938730 0.670545
Si Si6 0.416564 0.130098 0.496728
Si Si7 0.577843 0.070646 0.668915
O O1 0.172907 0.250000 0.750000
O O2 0.250000 0.997169 0.750000
O O3 0.180986 0.023215 0.614829
O O4 0.119551 0.970130 0.759833
O O5 0.922936 0.252455 0.628604
O O6 0.875175 0.054909 0.744011
O O7 0.840938 0.034534 0.566038
O O8 0.954362 0.943006 0.628154
O O9 0.937178 0.477358 0.038390
O O10 0.862638 0.737531 0.018535
O O11 0.551922 0.247090 0.162074
O O12 0.487597 0.284799 0.016059
O O13 0.416917 0.003172 0.574462
O O14 0.503738 0.029701 0.700348
O O15 0.395090 0.047546 0.405212
#
# Coordination Sequence:
#
# PCOD8201374 Si02
#       7
#     8   8   8   8   8   8   8
#     4  11  25  42  60  80 106 151 208 254 295 336
#     4  10  20  32  51  82 120 155 183 224 284 357
#     4  11  20  35  55  76 110 150 189 243 293 338
#     4  10  20  31  49  80 113 149 187 227 281 358
#     4  11  20  34  55  78 112 158 192 241 288 339
#     4  10  19  32  51  80 117 153 195 224 281 358
#     4  10  20  32  53  85 122 155 188 220 281 372
#
# _framework density 21.66282
#
# number of rings (size 3 to 8) (size 9 to 14) (size 15 to 20)
#    0.000    1.571    1.429    6.857    2.000    8.000 
#    0.000    1.429    0.000    0.000    0.000    1.000 
#    0.000    2.286    0.000    0.286    0.000    0.000 
#
# Total GULP energy -693813.345460 kJ/mol
# GULP energy per Si atom -12389.524026 kJ/mol
# Density = 2.161351 g / cm^3
# Si number density = 21.662820 Si / 1000 Ang^3
#
#
#
# Elastic Constant Matrix: (Units=GPa)
#
#
# Indices 1 2 3 4 5 6 
#
# 1 44.2148 14.7146 35.4294 0.0000 0.0000 0.0000
# 2 14.7146 110.4252 40.7382 0.0000 0.0000 0.0000
# 3 35.4294 40.7382 178.3020 0.0000 0.0000 0.0000
# 4 0.0000 0.0000 0.0000 35.0694 0.0000 0.0000
# 5 0.0000 0.0000 0.0000 0.0000 19.3607 0.0000
# 6 0.0000 0.0000 0.0000 0.0000 0.0000 9.4497
#
#
#
# Elastic Compliance Matrix: (Units=1/GPa)
#
#
# Indices 1 2 3 4 5 6 
#
# 1 0.027217 -0.001782 -0.005001 0.000000 0.000000 0.000000
# 2 -0.001782 0.010006 -0.001932 0.000000 0.000000 0.000000
# 3 -0.005001 -0.001932 0.007044 0.000000 0.000000 0.000000
# 4 0.000000 0.000000 0.000000 0.028515 0.000000 0.000000
# 5 0.000000 0.000000 0.000000 0.000000 0.051651 0.000000
# 6 0.000000 0.000000 0.000000 0.000000 0.000000 0.105823
#
#
# Mechanical properties :
#
#
# Convention : Reuss Voigt Hill
#
# Bulk Modulus (GPa) = 37.26203 57.18959 47.22581
# Shear Modulus (GPa) = 19.48317 28.91330 24.19823
#
# Velocity S-wave (km/s) = 3.00223 3.65731 3.34584
# Velocity P-wave (km/s) = 5.40889 6.65521 6.06415
#
# Compressibility (1/GPa) = 0.02683697
#
# Stress axis : x y z
#
# Youngs Moduli (GPa) = 36.74151 99.93858 141.97181
#
# Poissons Ratio (x) = 0.17807 0.71001
# Poissons Ratio (y) = 0.06547 0.27431
# Poissons Ratio (z) = 0.18375 0.19310
#
# Static dielectric constant tensor:
#      x y z
#    x 3.216880 0.000000 0.000000 
#    y 0.000000 4.254060 0.000000 
#    z 0.000000 0.000000 4.467920 
# 
# 
# High freq. dielectric constant tensor:
#      x y z
#    x 1.756140 0.000000 0.000000 
#    y 0.000000 1.870440 0.000000 
#    z 0.000000 0.000000 1.886070 
# 
# From -- ./inp_files/28335.got.cif
#   From: 2010.06.25/outbox.cif.g09.slc.cpg/sg48_15_cif.got.tgz:28335.got - 2010.06.26 18:06:46.
