data_PCOD8201541
_publ_section_title
;
Structure prediction by ZEFSAII (Michael W. Deem and Ramdas Pophale) SiO2 
 PCOD8201541
Probable space group: P N N N
;
_chemical_formula_sum "Si O2"
_cell_formula_units_Z 48
_cell_length_a 8.675861
_cell_length_b 10.229607
_cell_length_c 27.114377
_cell_angle_alpha 90.000000
_cell_angle_beta 90.000000
_cell_angle_gamma 90.000000
_cell_volume 2406.418540
_symmetry_space_group_name_H-M "P N N N"
_symmetry_group_IT_number 48
_space_group.IT_coordinate_system_code '2'
_symmetry_cell_setting 'orthorhombic'
loop_
_space_group_symop_operation_xyz
x,y,z
1/2-x,1/2-y,z
x,1/2-y,1/2-z
1/2-x,y,1/2-z
-x,-y,-z
1/2+x,1/2+y,-z
-x,1/2+y,1/2+z
1/2+x,-y,1/2+z
loop_
_atom_site_type_symbol
_atom_site_label
_atom_site_fract_x
_atom_site_fract_y
_atom_site_fract_z
Si Si1 0.425852 0.895460 0.343758
Si Si2 0.584896 0.542380 0.062157
Si Si3 0.916777 0.414015 0.854198
Si Si4 0.422146 0.094425 0.754871
Si Si5 0.071335 0.954094 0.551321
Si Si6 0.918138 0.700058 0.527481
O O1 0.564706 0.935058 0.380058
O O2 0.260896 0.960925 0.356020
O O3 0.416698 0.740887 0.349479
O O4 0.471142 0.951167 0.290363
O O5 0.747463 0.476765 0.050261
O O6 0.445729 0.445315 0.047711
O O7 0.567983 0.680684 0.032286
O O8 0.004812 0.463326 0.805078
O O9 0.999240 0.469224 0.902627
O O10 0.416327 0.250000 0.750000
O O11 0.250000 0.036762 0.750000
O O12 0.040897 0.798535 0.552135
O O13 0.000000 0.000000 0.500000
O O14 0.750000 0.750000 0.542456
#
# Coordination Sequence:
#
# PCOD8201541 Si02
#       6
#     8   8   8   8   8   8
#     4  10  20  35  56  85 119 152 198 246 294 357
#     4  11  24  39  59  85 116 158 200 242 300 352
#     4  10  21  34  56  86 117 157 195 242 303 348
#     4   9  17  32  54  82 116 151 192 244 300 350
#     4  12  23  38  58  83 117 156 198 241 291 351
#     4  11  23  41  58  82 117 156 198 246 294 349
#
# _framework density 19.946656000000001
#
# number of rings (size 3 to 8) (size 9 to 14) (size 15 to 20)
#    0.000    1.500    1.667    4.000    2.333    3.333 
#    0.000    0.000    0.000    1.000    0.000    7.000 
#    0.000    0.000    0.000    0.000    0.000    0.000 
#
# Total GULP energy -594920.525408 kJ/mol
# GULP energy per Si atom -12394.177613 kJ/mol
# Density = 1.990126 g / cm^3
# Si number density = 19.946656 Si / 1000 Ang^3
#
#
#
# Elastic Constant Matrix: (Units=GPa)
#
#
# Indices 1 2 3 4 5 6 
#
# 1 141.1103 29.4267 60.4792 0.0000 0.0000 0.0000
# 2 29.4267 42.9732 21.0422 0.0000 0.0000 0.0000
# 3 60.4792 21.0422 156.5348 0.0000 0.0000 0.0000
# 4 0.0000 0.0000 0.0000 21.9134 0.0000 0.0000
# 5 0.0000 0.0000 0.0000 0.0000 35.3588 0.0000
# 6 0.0000 0.0000 0.0000 0.0000 0.0000 28.8839
#
#
#
# Elastic Compliance Matrix: (Units=1/GPa)
#
#
# Indices 1 2 3 4 5 6 
#
# 1 0.009394 -0.004984 -0.002960 0.000000 0.000000 0.000000
# 2 -0.004984 0.027554 -0.001778 0.000000 0.000000 0.000000
# 3 -0.002960 -0.001778 0.007771 0.000000 0.000000 0.000000
# 4 0.000000 0.000000 0.000000 0.045634 0.000000 0.000000
# 5 0.000000 0.000000 0.000000 0.000000 0.028282 0.000000
# 6 0.000000 0.000000 0.000000 0.000000 0.000000 0.034621
#
#
# Mechanical properties :
#
#
# Convention : Reuss Voigt Hill
#
# Bulk Modulus (GPa) = 39.56400 62.50161 51.03280
# Shear Modulus (GPa) = 27.60517 32.54255 30.07386
#
# Velocity S-wave (km/s) = 3.72418 4.04354 3.88714
# Velocity P-wave (km/s) = 6.19441 7.29402 6.76659
#
# Compressibility (1/GPa) = 0.02527551
#
# Stress axis : x y z
#
# Youngs Moduli (GPa) = 106.44543 36.29250 128.68447
#
# Poissons Ratio (x) = 0.18087 0.38087
# Poissons Ratio (y) = 0.53050 0.22885
# Poissons Ratio (z) = 0.31505 0.06454
#
# Static dielectric constant tensor:
#      x y z
#    x 3.946110 0.000000 0.000000 
#    y 0.000000 3.485300 0.000000 
#    z 0.000000 0.000000 3.832340 
# 
# 
# High freq. dielectric constant tensor:
#      x y z
#    x 1.796390 0.000000 0.000000 
#    y 0.000000 1.735030 0.000000 
#    z 0.000000 0.000000 1.785010 
# 
# From -- ./inp_files/38680.got.cif
#   From: 2010.06.25/outbox.cif.g09.slc.cpg/sg48_20_cif.got.tgz:38680.got - 2010.06.26 18:06:46.
