data_PCOD8201211
_publ_section_title
;
Structure prediction by ZEFSAII (Michael W. Deem and Ramdas Pophale) SiO2 
 PCOD8201211
Probable space group: P M M M
;
_chemical_formula_sum "Si O2"
_cell_formula_units_Z 60
_cell_length_a 23.933307
_cell_length_b 18.137530
_cell_length_c 9.310587
_cell_angle_alpha 90.000000
_cell_angle_beta 90.000000
_cell_angle_gamma 90.000000
_cell_volume 4041.642708
_symmetry_space_group_name_H-M "P M M M"
_symmetry_group_IT_number 47
_symmetry_cell_setting 'orthorhombic'
loop_
_space_group_symop_operation_xyz
x,y,z
-x,-y,z
x,-y,-z
-x,y,-z
-x,-y,-z
x,y,-z
-x,y,z
x,-y,z
loop_
_atom_site_type_symbol
_atom_site_label
_atom_site_fract_x
_atom_site_fract_y
_atom_site_fract_z
Si Si1 0.607530 0.914857 0.332632
Si Si2 0.500000 0.912387 0.162166
Si Si3 0.771669 0.704812 0.162477
Si Si4 0.282752 0.826562 0.666738
Si Si5 0.062322 0.324608 0.335418
Si Si6 0.115314 0.796983 0.161733
Si Si7 0.830723 0.415425 0.331822
Si Si8 0.827887 0.084432 0.666617
O O1 0.593647 0.906103 0.500000
O O2 0.555046 0.883704 0.243647
O O3 0.660482 0.866504 0.286487
O O4 0.620420 0.000000 0.295449
O O5 0.500000 0.000000 0.165126
O O6 0.500000 0.881716 0.000000
O O7 0.723420 0.751412 0.242158
O O8 0.827575 0.752048 0.165905
O O9 0.782922 0.628437 0.245628
O O10 0.752612 0.687594 0.000000
O O11 0.283123 0.804595 0.500000
O O12 0.233008 0.883149 0.700687
O O13 0.072066 0.301281 0.500000
O O14 0.068292 0.250957 0.240971
O O15 0.107232 0.386671 0.290778
O O16 0.000000 0.357022 0.311828
O O17 0.124268 0.874124 0.243209
O O18 0.095581 0.813082 0.000000
O O19 0.819031 0.405040 0.500000
O O20 0.827302 0.500000 0.284434
O O21 0.842689 0.093549 0.500000
O O22 0.827721 0.000000 0.715310
#
# Coordination Sequence:
#
# PCOD8201211 Si02
#       8
#     8   4   8   8   8   8   8   8
#     4   9  16  26  40  57  78 107 144 182 216 248
#     4   9  17  27  37  51  75 109 146 181 216 251
#     4   9  17  28  41  58  81 108 135 161 193 236
#     4   9  16  26  41  60  81 105 135 171 207 242
#     4   9  17  29  45  63  81 102 129 160 193 230
#     4   9  17  28  41  57  78 104 131 158 192 236
#     4   9  17  29  45  64  85 108 132 158 190 230
#     4   9  16  26  41  60  80 101 127 162 204 246
#
# _framework density 14.845449
#
# number of rings (size 3 to 8) (size 9 to 14) (size 15 to 20)
#    0.000    3.000    0.000    1.400    0.000    7.200 
#    0.000    1.333    0.000    2.800    0.000    6.533 
#    0.000    0.000    0.000    0.600    0.000   11.600 
#
# Total GULP energy -743926.838859 kJ/mol
# GULP energy per Si atom -12398.780648 kJ/mol
# Density = 1.481166 g / cm^3
# Si number density = 14.845449 Si / 1000 Ang^3
#
#
#
# Elastic Constant Matrix: (Units=GPa)
#
#
# Indices 1 2 3 4 5 6 
#
# 1 63.2633 44.5021 37.1506 0.0000 0.0000 0.0000
# 2 44.5021 105.4599 54.3211 0.0000 0.0000 0.0000
# 3 37.1506 54.3211 77.4307 0.0000 0.0000 0.0000
# 4 0.0000 0.0000 0.0000 16.0044 0.0000 0.0000
# 5 0.0000 0.0000 0.0000 0.0000 16.0669 0.0000
# 6 0.0000 0.0000 0.0000 0.0000 0.0000 16.2642
#
#
#
# Elastic Compliance Matrix: (Units=1/GPa)
#
#
# Indices 1 2 3 4 5 6 
#
# 1 0.024758 -0.006778 -0.007124 0.000000 0.000000 0.000000
# 2 -0.006778 0.016703 -0.008466 0.000000 0.000000 0.000000
# 3 -0.007124 -0.008466 0.022272 0.000000 0.000000 0.000000
# 4 0.000000 0.000000 0.000000 0.062483 0.000000 0.000000
# 5 0.000000 0.000000 0.000000 0.000000 0.062240 0.000000
# 6 0.000000 0.000000 0.000000 0.000000 0.000000 0.061485
#
#
# Mechanical properties :
#
#
# Convention : Reuss Voigt Hill
#
# Bulk Modulus (GPa) = 52.63753 57.56685 55.10219
# Shear Modulus (GPa) = 16.61081 17.01245 16.81163
#
# Velocity S-wave (km/s) = 3.34865 3.38889 3.36883
# Velocity P-wave (km/s) = 7.10530 7.36033 7.23394
#
# Compressibility (1/GPa) = 0.01899785
#
# Stress axis : x y z
#
# Youngs Moduli (GPa) = 40.39051 59.86842 44.89973
#
# Poissons Ratio (x) = 0.40580 0.31985
# Poissons Ratio (y) = 0.27378 0.38012
# Poissons Ratio (z) = 0.28772 0.50684
#
# Static dielectric constant tensor:
#      x y z
#    x 2.708730 0.000000 0.000000 
#    y 0.000000 2.754220 0.000000 
#    z 0.000000 0.000000 2.972390 
# 
# 
# High freq. dielectric constant tensor:
#      x y z
#    x 1.539480 0.000000 0.000000 
#    y 0.000000 1.544390 0.000000 
#    z 0.000000 0.000000 1.573470 
# 
# From -- ./inp_files/12843.got.cif
#   From: 2010.03.12/outbox.cif.g09.slc.cpg/sg47_7_cif.got.tgz:12843.got - 2010.04.14 03:12:58.
