data_PCOD8201731
_publ_section_title
;
Structure prediction by ZEFSAII (Michael W. Deem and Ramdas Pophale) SiO2 
 PCOD8201731
Probable space group: P N N N
;
_chemical_formula_sum "Si O2"
_cell_formula_units_Z 58
_cell_length_a 12.058998
_cell_length_b 16.975123
_cell_length_c 14.208465
_cell_angle_alpha 90.000000
_cell_angle_beta 90.000000
_cell_angle_gamma 90.000000
_cell_volume 2908.515046
_symmetry_space_group_name_H-M "P N N N"
_symmetry_group_IT_number 48
_space_group.IT_coordinate_system_code '2'
_symmetry_cell_setting 'orthorhombic'
loop_
_space_group_symop_operation_xyz
x,y,z
1/2-x,1/2-y,z
x,1/2-y,1/2-z
1/2-x,y,1/2-z
-x,-y,-z
1/2+x,1/2+y,-z
-x,1/2+y,1/2+z
1/2+x,-y,1/2+z
loop_
_atom_site_type_symbol
_atom_site_label
_atom_site_fract_x
_atom_site_fract_y
_atom_site_fract_z
Si Si1 0.084292 0.861255 0.130188
Si Si2 0.872518 0.984722 0.770250
Si Si3 0.750000 0.250000 0.750000
Si Si4 0.483115 0.836241 0.739703
Si Si5 0.128438 0.339599 0.745952
Si Si6 0.114327 0.585580 0.924400
Si Si7 0.001897 0.429488 0.890940
Si Si8 0.825096 0.326707 0.434244
O O1 0.121732 0.952018 0.145253
O O2 0.167889 0.804611 0.188470
O O3 0.953495 0.858006 0.158435
O O4 0.090148 0.837836 0.020769
O O5 0.750000 0.955500 0.750000
O O6 0.914815 0.026035 0.675264
O O7 0.937127 0.904974 0.798043
O O8 0.542174 0.750000 0.750000
O O9 0.433989 0.862780 0.839636
O O10 0.386132 0.822687 0.664844
O O11 0.157822 0.250000 0.750000
O O12 0.250000 0.383889 0.750000
O O13 0.060715 0.358222 0.839487
O O14 0.095943 0.492296 0.918255
O O15 0.245379 0.597431 0.931716
O O16 0.055767 0.612909 0.021019
O O17 0.750000 0.250000 0.449814
#
# Coordination Sequence:
#
# PCOD8201731 Si02
#       8
#     8   8   2   8   8   8   8   8
#     4  11  23  38  66 102 130 164 213 269 349 395
#     4  10  21  40  64  91 129 163 215 282 331 403
#     4  12  20  36  66 104 132 160 204 278 340 396
#     4  11  24  41  58  89 129 178 225 265 330 392
#     4  10  22  38  60  92 135 167 200 256 326 410
#     4  10  21  38  63  87 122 167 216 270 319 389
#     4   9  21  39  63  92 120 169 219 255 335 409
#     4  12  24  37  65  95 129 169 218 289 328 388
#
# _framework density 19.941447
#
# number of rings (size 3 to 8) (size 9 to 14) (size 15 to 20)
#    0.000    1.517    3.448    1.241    3.862    4.138 
#    0.000    4.138    0.000    0.000    0.000    0.000 
#    0.000    0.000    0.000    0.000    0.000    0.000 
#
# Total GULP energy -718834.022759 kJ/mol
# GULP energy per Si atom -12393.690048 kJ/mol
# Density = 1.989606 g / cm^3
# Si number density = 19.941447 Si / 1000 Ang^3
#
#
#
# Elastic Constant Matrix: (Units=GPa)
#
#
# Indices 1 2 3 4 5 6 
#
# 1 110.0496 34.7029 21.8741 0.0000 0.0000 0.0000
# 2 34.7029 104.0955 27.2966 0.0000 0.0000 0.0000
# 3 21.8741 27.2966 107.2056 0.0000 0.0000 0.0000
# 4 0.0000 0.0000 0.0000 21.2216 0.0000 0.0000
# 5 0.0000 0.0000 0.0000 0.0000 21.0332 0.0000
# 6 0.0000 0.0000 0.0000 0.0000 0.0000 26.3256
#
#
#
# Elastic Compliance Matrix: (Units=1/GPa)
#
#
# Indices 1 2 3 4 5 6 
#
# 1 0.010325 -0.003097 -0.001318 0.000000 0.000000 0.000000
# 2 -0.003097 0.011222 -0.002226 0.000000 0.000000 0.000000
# 3 -0.001318 -0.002226 0.010164 0.000000 0.000000 0.000000
# 4 0.000000 0.000000 0.000000 0.047122 0.000000 0.000000
# 5 0.000000 0.000000 0.000000 0.000000 0.047544 0.000000
# 6 0.000000 0.000000 0.000000 0.000000 0.000000 0.037986
#
#
# Mechanical properties :
#
#
# Convention : Reuss Voigt Hill
#
# Bulk Modulus (GPa) = 54.25827 54.34420 54.30124
# Shear Modulus (GPa) = 27.20536 29.54789 28.37663
#
# Velocity S-wave (km/s) = 3.69760 3.85350 3.77636
# Velocity P-wave (km/s) = 6.74518 6.86370 6.80470
#
# Compressibility (1/GPa) = 0.01843037
#
# Stress axis : x y z
#
# Youngs Moduli (GPa) = 96.84950 89.10684 98.39077
#
# Poissons Ratio (x) = 0.27592 0.12971
# Poissons Ratio (y) = 0.29989 0.21898
# Poissons Ratio (z) = 0.12768 0.19832
#
# Static dielectric constant tensor:
#      x y z
#    x 3.746220 0.000000 0.000000 
#    y 0.000000 3.796990 0.000000 
#    z 0.000000 0.000000 3.648640 
# 
# 
# High freq. dielectric constant tensor:
#      x y z
#    x 1.773120 0.000000 0.000000 
#    y 0.000000 1.783090 0.000000 
#    z 0.000000 0.000000 1.775620 
# 
# From -- ./inp_files/26700.got.cif
#   From: 2010.06.25/outbox.cif.g09.slc.cpg/sg48_14_cif.got.tgz:26700.got - 2010.06.26 18:06:46.
