data_PCOD8201026
_publ_section_title
;
Structure prediction by ZEFSAII (Michael W. Deem and Ramdas Pophale) SiO2 
 PCOD8201026
Probable space group: P M M M
;
_chemical_formula_sum "Si O2"
_cell_formula_units_Z 52
_cell_length_a 33.680614
_cell_length_b 9.801170
_cell_length_c 9.294544
_cell_angle_alpha 90.000000
_cell_angle_beta 90.000000
_cell_angle_gamma 90.000000
_cell_volume 3068.216562
_symmetry_space_group_name_H-M "P M M M"
_symmetry_group_IT_number 47
_symmetry_cell_setting 'orthorhombic'
loop_
_space_group_symop_operation_xyz
x,y,z
-x,-y,z
x,-y,-z
-x,y,-z
-x,-y,-z
x,y,-z
-x,y,z
x,-y,z
loop_
_atom_site_type_symbol
_atom_site_label
_atom_site_fract_x
_atom_site_fract_y
_atom_site_fract_z
Si Si1 0.265019 0.337778 0.660319
Si Si2 0.043962 0.847083 0.670904
Si Si3 0.500000 0.162051 0.162507
Si Si4 0.885907 0.657854 0.668621
Si Si5 0.191239 0.662432 0.838412
Si Si6 0.423004 0.158357 0.668429
Si Si7 0.647725 0.348000 0.328811
O O1 0.258706 0.277183 0.500000
O O2 0.262130 0.500000 0.652071
O O3 0.230940 0.277789 0.763880
O O4 0.308577 0.297938 0.722568
O O5 0.043848 0.841837 0.500000
O O6 0.076569 0.741685 0.730329
O O7 0.000000 0.805683 0.727638
O O8 0.054522 0.000000 0.723378
O O9 0.538876 0.214455 0.246009
O O10 0.500000 0.000000 0.162931
O O11 0.500000 0.219685 0.000000
O O12 0.878947 0.682705 0.500000
O O13 0.894286 0.500000 0.702092
O O14 0.847047 0.712335 0.750228
O O15 0.192893 0.500000 0.838539
O O16 0.188869 0.720259 0.000000
O O17 0.430741 0.183273 0.500000
O O18 0.385283 0.242546 0.727005
O O19 0.414789 0.000000 0.700763
O O20 0.648243 0.352496 0.500000
O O21 0.638279 0.500000 0.268969
#
# Coordination Sequence:
#
# PCOD8201026 Si02
#       7
#     8   8   4   8   8   8   8
#     4   8  13  23  40  59  79 106 139 170 199 238
#     4   8  14  25  41  61  84 108 134 166 204 244
#     4   9  17  29  44  61  82 110 142 171 202 244
#     4   9  16  25  40  63  86 106 132 168 206 241
#     4   9  16  25  38  58  84 111 138 169 204 240
#     4   9  16  27  45  66  84 104 135 173 206 238
#     4   8  14  25  42  64  87 109 134 166 205 246
#
# _framework density 16.947956999999999
#
# number of rings (size 3 to 8) (size 9 to 14) (size 15 to 20)
#    0.000    3.462    0.000    2.077    0.000    3.077 
#    0.000    2.692    0.000    5.538    0.000    7.538 
#    0.000    0.000    0.000    0.000    0.000    0.000 
#
# Total GULP energy -644486.571526 kJ/mol
# GULP energy per Si atom -12393.972529 kJ/mol
# Density = 1.690938 g / cm^3
# Si number density = 16.947957 Si / 1000 Ang^3
#
#
#
# Elastic Constant Matrix: (Units=GPa)
#
#
# Indices 1 2 3 4 5 6 
#
# 1 191.5010 63.6891 60.5348 0.0000 0.0000 0.0000
# 2 63.6891 48.0165 24.3468 0.0000 0.0000 0.0000
# 3 60.5348 24.3468 61.7884 0.0000 0.0000 0.0000
# 4 0.0000 0.0000 0.0000 7.3364 0.0000 0.0000
# 5 0.0000 0.0000 0.0000 0.0000 5.1890 0.0000
# 6 0.0000 0.0000 0.0000 0.0000 0.0000 12.8544
#
#
#
# Elastic Compliance Matrix: (Units=1/GPa)
#
#
# Indices 1 2 3 4 5 6 
#
# 1 0.011002 -0.011407 -0.006284 0.000000 0.000000 0.000000
# 2 -0.011407 0.037852 -0.003740 0.000000 0.000000 0.000000
# 3 -0.006284 -0.003740 0.023815 0.000000 0.000000 0.000000
# 4 0.000000 0.000000 0.000000 0.136307 0.000000 0.000000
# 5 0.000000 0.000000 0.000000 0.000000 0.192715 0.000000
# 6 0.000000 0.000000 0.000000 0.000000 0.000000 0.077794
#
#
# Mechanical properties :
#
#
# Convention : Reuss Voigt Hill
#
# Bulk Modulus (GPa) = 33.54873 66.49416 50.02144
# Shear Modulus (GPa) = 9.39351 15.25831 12.32591
#
# Velocity S-wave (km/s) = 2.35682 3.00376 2.69974
# Velocity P-wave (km/s) = 5.21960 7.16586 6.26873
#
# Compressibility (1/GPa) = 0.02980739
#
# Stress axis : x y z
#
# Youngs Moduli (GPa) = 90.89298 26.41856 41.99109
#
# Poissons Ratio (x) = 0.30135 0.26388
# Poissons Ratio (y) = 1.03678 0.15704
# Poissons Ratio (z) = 0.57118 0.09880
#
# Static dielectric constant tensor:
#      x y z
#    x 3.590340 0.000000 0.000000 
#    y 0.000000 2.893350 0.000000 
#    z 0.000000 0.000000 2.975300 
# 
# 
# High freq. dielectric constant tensor:
#      x y z
#    x 1.670840 0.000000 0.000000 
#    y 0.000000 1.606530 0.000000 
#    z 0.000000 0.000000 1.619440 
# 
# From -- ./inp_files/14094.got.cif
#   From: 2010.03.12/outbox.cif.g09.slc.cpg/sg47_8_cif.got.tgz:14094.got - 2010.04.14 03:12:58.
