data_PCOD8201089
_publ_section_title
;
Structure prediction by ZEFSAII (Michael W. Deem and Ramdas Pophale) SiO2 
 PCOD8201089
Probable space group: P M M M
;
_chemical_formula_sum "Si O2"
_cell_formula_units_Z 48
_cell_length_a 9.769387
_cell_length_b 25.874334
_cell_length_c 11.991882
_cell_angle_alpha 90.000000
_cell_angle_beta 90.000000
_cell_angle_gamma 90.000000
_cell_volume 3031.264548
_symmetry_space_group_name_H-M "P M M M"
_symmetry_group_IT_number 47
_symmetry_cell_setting 'orthorhombic'
loop_
_space_group_symop_operation_xyz
x,y,z
-x,-y,z
x,-y,-z
-x,y,-z
-x,-y,-z
x,y,-z
-x,y,z
x,-y,z
loop_
_atom_site_type_symbol
_atom_site_label
_atom_site_fract_x
_atom_site_fract_y
_atom_site_fract_z
Si Si1 0.837257 0.249864 0.260150
Si Si2 0.840662 0.149410 0.130406
Si Si3 0.836701 0.651610 0.874776
Si Si4 0.162787 0.279954 0.500000
Si Si5 0.836886 0.603376 0.500000
Si Si6 0.163044 0.557376 0.270064
Si Si7 0.653312 0.057176 0.132382
O O1 0.784142 0.198469 0.198852
O O2 0.779256 0.300098 0.196012
O O3 0.785253 0.250572 0.388547
O O4 0.000000 0.251309 0.255094
O O5 0.759697 0.099644 0.177172
O O6 0.000000 0.139276 0.152891
O O7 0.812731 0.159756 0.000000
O O8 0.782515 0.598167 0.821128
O O9 0.000000 0.652561 0.874470
O O10 0.779200 0.655464 0.000000
O O11 0.220277 0.338246 0.500000
O O12 0.000000 0.281902 0.500000
O O13 0.781273 0.573668 0.608491
O O14 0.000000 0.604665 0.500000
O O15 0.217613 0.500000 0.240259
O O16 0.000000 0.557825 0.271780
O O17 0.500000 0.071037 0.173350
O O18 0.694987 0.000000 0.176726
O O19 0.657676 0.056702 0.000000
#
# Coordination Sequence:
#
# PCOD8201089 Si02
#       7
#     8   8   8   4   4   8   8
#     4   9  15  23  33  47  66  89 119 154 193 233
#     4   9  16  24  36  57  83 106 128 159 197 233
#     4   9  15  21  28  37  54  82 112 145 188 235
#     4   9  14  21  34  45  58  84 117 154 193 232
#     4   9  13  20  29  38  50  70 106 153 197 230
#     4   9  15  20  26  36  50  72 108 153 194 229
#     4   8  14  25  40  58  82 111 138 160 185 223
#
# _framework density 15.834975
#
# number of rings (size 3 to 8) (size 9 to 14) (size 15 to 20)
#    0.000    3.167    1.667    1.250    0.000    3.667 
#    0.000    3.333    0.000    0.000    0.000    1.167 
#    0.000    4.667    0.000    0.000    0.000    0.833 
#
# Total GULP energy -594870.632936 kJ/mol
# GULP energy per Si atom -12393.138186 kJ/mol
# Density = 1.579893 g / cm^3
# Si number density = 15.834975 Si / 1000 Ang^3
#
#
#
# Elastic Constant Matrix: (Units=GPa)
#
#
# Indices 1 2 3 4 5 6 
#
# 1 19.4092 34.5219 15.2338 0.0000 0.0000 0.0000
# 2 34.5219 162.1883 65.8258 0.0000 0.0000 0.0000
# 3 15.2338 65.8258 108.6476 0.0000 0.0000 0.0000
# 4 0.0000 0.0000 0.0000 18.3608 0.0000 0.0000
# 5 0.0000 0.0000 0.0000 0.0000 3.0805 0.0000
# 6 0.0000 0.0000 0.0000 0.0000 0.0000 1.2088
#
#
#
# Elastic Compliance Matrix: (Units=1/GPa)
#
#
# Indices 1 2 3 4 5 6 
#
# 1 0.083036 -0.017171 -0.001239 0.000000 0.000000 0.000000
# 2 -0.017171 0.011727 -0.004697 0.000000 0.000000 0.000000
# 3 -0.001239 -0.004697 0.012224 0.000000 0.000000 0.000000
# 4 0.000000 0.000000 0.000000 0.054464 0.000000 0.000000
# 5 0.000000 0.000000 0.000000 0.000000 0.324623 0.000000
# 6 0.000000 0.000000 0.000000 0.000000 0.000000 0.827268
#
#
# Mechanical properties :
#
#
# Convention : Reuss Voigt Hill
#
# Bulk Modulus (GPa) = 16.45515 57.93420 37.19468
# Shear Modulus (GPa) = 3.62367 16.17426 9.89897
#
# Velocity S-wave (km/s) = 1.51439 3.19944 2.50298
# Velocity P-wave (km/s) = 3.67043 7.09325 5.64740
#
# Compressibility (1/GPa) = 0.06077124
#
# Stress axis : x y z
#
# Youngs Moduli (GPa) = 12.04293 85.27262 81.80760
#
# Poissons Ratio (x) = 1.46425 0.10138
# Poissons Ratio (y) = 0.20679 0.38428
# Poissons Ratio (z) = 0.01492 0.40056
#
# Static dielectric constant tensor:
#      x y z
#    x 2.382950 0.000000 0.000000 
#    y 0.000000 3.332780 0.000000 
#    z 0.000000 0.000000 3.049380 
# 
# 
# High freq. dielectric constant tensor:
#      x y z
#    x 1.526920 0.000000 0.000000 
#    y 0.000000 1.620340 0.000000 
#    z 0.000000 0.000000 1.593570 
# 
# From -- ./inp_files/16450.got.cif
#   From: 2010.03.12/outbox.cif.g09.slc.cpg/sg47_9_cif.got.tgz:16450.got - 2010.04.14 03:12:58.
