data_PCOD8201276
_publ_section_title
;
Structure prediction by ZEFSAII (Michael W. Deem and Ramdas Pophale) SiO2 
 PCOD8201276
Probable space group: P N N N
;
_chemical_formula_sum "Si O2"
_cell_formula_units_Z 40
_cell_length_a 8.087249
_cell_length_b 10.510993
_cell_length_c 21.025922
_cell_angle_alpha 90.000000
_cell_angle_beta 90.000000
_cell_angle_gamma 90.000000
_cell_volume 1787.308870
_symmetry_space_group_name_H-M "P N N N"
_symmetry_group_IT_number 48
_space_group.IT_coordinate_system_code '2'
_symmetry_cell_setting 'orthorhombic'
loop_
_space_group_symop_operation_xyz
x,y,z
1/2-x,1/2-y,z
x,1/2-y,1/2-z
1/2-x,y,1/2-z
-x,-y,-z
1/2+x,1/2+y,-z
-x,1/2+y,1/2+z
1/2+x,-y,1/2+z
loop_
_atom_site_type_symbol
_atom_site_label
_atom_site_fract_x
_atom_site_fract_y
_atom_site_fract_z
Si Si1 0.168700 0.433997 0.424984
Si Si2 0.359036 0.139307 0.882676
Si Si3 0.309314 0.908376 0.550056
Si Si4 0.974982 0.648488 0.984733
Si Si5 0.298385 0.889456 0.177276
O O1 0.165780 0.540430 0.479260
O O2 0.321547 0.336991 0.436205
O O3 0.190379 0.503906 0.358105
O O4 0.993606 0.355216 0.428958
O O5 0.250000 0.250000 0.848745
O O6 0.243468 0.018644 0.900170
O O7 0.505178 0.092505 0.835753
O O8 0.433803 0.209029 0.946356
O O9 0.152311 0.806837 0.545744
O O10 0.000000 0.500000 0.000000
O O11 0.250000 0.750000 0.152603
O O12 0.250000 0.907173 0.250000
#
# Coordination Sequence:
#
# PCOD8201276 Si02
#       5
#     8   8   8   8   8
#     4   9  15  29  46  63  81 109 153 192 236 267
#     4  10  17  30  45  65  90 119 156 189 237 274
#     4   9  15  27  51  65  79 111 149 197 244 276
#     4   8  14  28  47  65  84 104 146 199 238 277
#     4  11  21  31  40  60  94 133 166 192 213 261
#
# _framework density 22.380016000000001
#
# number of rings (size 3 to 8) (size 9 to 14) (size 15 to 20)
#    0.000    3.000    6.000    1.200    0.000    0.000 
#    0.000    7.000    0.000    0.000    0.000    0.000 
#    0.000   12.800    0.000    0.000  153.600    2.400 
#
# Total GULP energy -495578.454752 kJ/mol
# GULP energy per Si atom -12389.461369 kJ/mol
# Density = 2.232908 g / cm^3
# Si number density = 22.380016 Si / 1000 Ang^3
#
#
#
# Elastic Constant Matrix: (Units=GPa)
#
#
# Indices 1 2 3 4 5 6 
#
# 1 245.3905 71.4201 60.7264 0.0000 0.0000 0.0000
# 2 71.4201 57.8057 26.1198 0.0000 0.0000 0.0000
# 3 60.7264 26.1198 93.4593 0.0000 0.0000 0.0000
# 4 0.0000 0.0000 0.0000 4.3595 0.0000 0.0000
# 5 0.0000 0.0000 0.0000 0.0000 18.8179 0.0000
# 6 0.0000 0.0000 0.0000 0.0000 0.0000 63.2053
#
#
#
# Elastic Compliance Matrix: (Units=1/GPa)
#
#
# Indices 1 2 3 4 5 6 
#
# 1 0.006792 -0.007322 -0.002367 0.000000 0.000000 0.000000
# 2 -0.007322 0.027693 -0.002982 0.000000 0.000000 0.000000
# 3 -0.002367 -0.002982 0.013071 0.000000 0.000000 0.000000
# 4 0.000000 0.000000 0.000000 0.229383 0.000000 0.000000
# 5 0.000000 0.000000 0.000000 0.000000 0.053141 0.000000
# 6 0.000000 0.000000 0.000000 0.000000 0.000000 0.015821
#
#
# Mechanical properties :
#
#
# Convention : Reuss Voigt Hill
#
# Bulk Modulus (GPa) = 45.01556 79.24315 62.12935
# Shear Modulus (GPa) = 13.20488 33.16916 23.18702
#
# Velocity S-wave (km/s) = 2.43169 3.85397 3.22228
# Velocity P-wave (km/s) = 5.29547 7.43565 6.45488
#
# Compressibility (1/GPa) = 0.02221454
#
# Stress axis : x y z
#
# Youngs Moduli (GPa) = 147.23391 36.10969 76.50464
#
# Poissons Ratio (x) = 0.26440 0.18107
# Poissons Ratio (y) = 1.07806 0.22814
# Poissons Ratio (z) = 0.34847 0.10768
#
# Static dielectric constant tensor:
#      x y z
#    x 5.797420 0.000000 0.000000 
#    y 0.000000 4.497990 0.000000 
#    z 0.000000 0.000000 3.456250 
# 
# 
# High freq. dielectric constant tensor:
#      x y z
#    x 1.934750 0.000000 0.000000 
#    y 0.000000 1.906110 0.000000 
#    z 0.000000 0.000000 1.800740 
# 
# From -- ./inp_files/12895.got.cif
#   From: 2010.06.25/outbox.cif.g09.slc.cpg/sg48_7_cif.got.tgz:12895.got - 2010.06.26 18:06:46.
