data_PCOD8201870
_publ_section_title
;
Structure prediction by ZEFSAII (Michael W. Deem and Ramdas Pophale) SiO2 
 PCOD8201870
Probable space group: P N N N
;
_chemical_formula_sum "Si O2"
_cell_formula_units_Z 48
_cell_length_a 8.457459
_cell_length_b 30.153127
_cell_length_c 8.836230
_cell_angle_alpha 90.000000
_cell_angle_beta 90.000000
_cell_angle_gamma 90.000000
_cell_volume 2253.405083
_symmetry_space_group_name_H-M "P N N N"
_symmetry_group_IT_number 48
_space_group.IT_coordinate_system_code '2'
_symmetry_cell_setting 'orthorhombic'
loop_
_space_group_symop_operation_xyz
x,y,z
1/2-x,1/2-y,z
x,1/2-y,1/2-z
1/2-x,y,1/2-z
-x,-y,-z
1/2+x,1/2+y,-z
-x,1/2+y,1/2+z
1/2+x,-y,1/2+z
loop_
_atom_site_type_symbol
_atom_site_label
_atom_site_fract_x
_atom_site_fract_y
_atom_site_fract_z
Si Si1 0.250000 0.909384 0.250000
Si Si2 0.498858 0.638946 0.055550
Si Si3 0.062857 0.386850 0.234908
Si Si4 0.994751 0.448941 0.960865
Si Si5 0.250000 0.404241 0.750000
Si Si6 0.079116 0.290198 0.167622
Si Si7 0.070128 0.740620 0.425390
O O1 0.367927 0.875697 0.327839
O O2 0.330374 0.940323 0.124656
O O3 0.667578 0.628199 0.130011
O O4 0.483229 0.691173 0.024450
O O5 0.485598 0.609921 0.901508
O O6 0.250000 0.391932 0.250000
O O7 0.007211 0.338991 0.173056
O O8 0.996010 0.423147 0.120300
O O9 0.134788 0.435829 0.846486
O O10 0.000000 0.500000 0.000000
O O11 0.980634 0.250000 0.250000
O O12 0.250000 0.291753 0.250000
O O13 0.060962 0.274845 0.993621
O O14 0.250000 0.750000 0.481135
O O15 0.058281 0.750000 0.250000
#
# Coordination Sequence:
#
# PCOD8201870 Si02
#       7
#     4   8   8   8   4   8   8
#     4  10  26  44  65 104 140 172 229 284 354 416
#     4  11  23  44  68 101 142 186 229 287 347 424
#     4  11  23  42  70  98 134 178 234 286 346 411
#     4  11  26  46  74 101 139 178 230 295 354 426
#     4  10  24  44  73 102 136 182 231 284 354 418
#     4  10  22  41  62  95 134 174 231 281 326 408
#     4  11  25  41  65  98 141 184 231 282 346 409
#
# _framework density 21.301095
#
# number of rings (size 3 to 8) (size 9 to 14) (size 15 to 20)
#    0.000    1.333    3.333    1.000    8.167    2.333 
#    0.000    3.333    0.000    0.000    0.000    0.000 
#    0.000    0.000    0.000    0.000    0.000    0.000 
#
# Total GULP energy -594843.270438 kJ/mol
# GULP energy per Si atom -12392.568134 kJ/mol
# Density = 2.125261 g / cm^3
# Si number density = 21.301095 Si / 1000 Ang^3
#
#
#
# Elastic Constant Matrix: (Units=GPa)
#
#
# Indices 1 2 3 4 5 6 
#
# 1 69.6066 33.2850 39.2674 0.0000 0.0000 0.0000
# 2 33.2850 155.2023 56.9459 0.0000 0.0000 0.0000
# 3 39.2674 56.9459 141.4502 0.0000 0.0000 0.0000
# 4 0.0000 0.0000 0.0000 39.8908 0.0000 0.0000
# 5 0.0000 0.0000 0.0000 0.0000 33.7450 0.0000
# 6 0.0000 0.0000 0.0000 0.0000 0.0000 18.2836
#
#
#
# Elastic Compliance Matrix: (Units=1/GPa)
#
#
# Indices 1 2 3 4 5 6 
#
# 1 0.017732 -0.002343 -0.003979 0.000000 0.000000 0.000000
# 2 -0.002343 0.007869 -0.002518 0.000000 0.000000 0.000000
# 3 -0.003979 -0.002518 0.009188 0.000000 0.000000 0.000000
# 4 0.000000 0.000000 0.000000 0.025068 0.000000 0.000000
# 5 0.000000 0.000000 0.000000 0.000000 0.029634 0.000000
# 6 0.000000 0.000000 0.000000 0.000000 0.000000 0.054694
#
#
# Mechanical properties :
#
#
# Convention : Reuss Voigt Hill
#
# Bulk Modulus (GPa) = 58.44729 69.47285 63.96007
# Shear Modulus (GPa) = 29.83865 34.16792 32.00328
#
# Velocity S-wave (km/s) = 3.74679 4.00940 3.88032
# Velocity P-wave (km/s) = 6.79824 7.35657 7.08291
#
# Compressibility (1/GPa) = 0.01710943
#
# Stress axis : x y z
#
# Youngs Moduli (GPa) = 56.39677 127.07396 108.83878
#
# Poissons Ratio (x) = 0.29770 0.43309
# Poissons Ratio (y) = 0.13212 0.27403
# Poissons Ratio (z) = 0.22442 0.31994
#
# Static dielectric constant tensor:
#      x y z
#    x 4.065700 0.000000 0.000000 
#    y 0.000000 3.940040 0.000000 
#    z 0.000000 0.000000 4.269140 
# 
# 
# High freq. dielectric constant tensor:
#      x y z
#    x 1.823810 0.000000 0.000000 
#    y 0.000000 1.831020 0.000000 
#    z 0.000000 0.000000 1.860410 
# 
# From -- ./inp_files/9535.got.cif
#   From: 2010.06.25/outbox.cif.g09.slc.cpg/sg48_5_cif.got.tgz:9535.got - 2010.06.26 18:06:46.
