data_PCOD8201142
_publ_section_title
;
Structure prediction by ZEFSAII (Michael W. Deem and Ramdas Pophale) SiO2 
 PCOD8201142
Probable space group: P M M M
;
_chemical_formula_sum "Si O2"
_cell_formula_units_Z 56
_cell_length_a 9.267889
_cell_length_b 23.034227
_cell_length_c 14.825006
_cell_angle_alpha 90.000000
_cell_angle_beta 90.000000
_cell_angle_gamma 90.000000
_cell_volume 3164.822401
_symmetry_space_group_name_H-M "P M M M"
_symmetry_group_IT_number 47
_symmetry_cell_setting 'orthorhombic'
loop_
_space_group_symop_operation_xyz
x,y,z
-x,-y,z
x,-y,-z
-x,y,-z
-x,-y,-z
x,y,-z
-x,y,z
x,-y,z
loop_
_atom_site_type_symbol
_atom_site_label
_atom_site_fract_x
_atom_site_fract_y
_atom_site_fract_z
Si Si1 0.665449 0.222583 0.098421
Si Si2 0.670487 0.828106 0.285809
Si Si3 0.671224 0.064321 0.398975
Si Si4 0.669025 0.434469 0.784468
Si Si5 0.839033 0.721384 0.651238
Si Si6 0.838989 0.670207 0.150914
Si Si7 0.664026 0.617347 0.402617
O O1 0.500000 0.240366 0.115392
O O2 0.714581 0.179569 0.179759
O O3 0.755434 0.282009 0.092679
O O4 0.684096 0.191653 0.000000
O O5 0.500000 0.821078 0.298998
O O6 0.725893 0.890250 0.323117
O O7 0.748543 0.780503 0.347295
O O8 0.724676 0.081652 0.500000
O O9 0.500000 0.063250 0.398753
O O10 0.730126 0.000000 0.373885
O O11 0.500000 0.423886 0.799679
O O12 0.713015 0.500000 0.809538
O O13 0.755570 0.391298 0.850346
O O14 0.711929 0.424384 0.679227
O O15 0.845697 0.693761 0.749045
O O16 0.759945 0.675087 0.588399
O O17 0.000000 0.734035 0.614562
O O18 0.000000 0.661161 0.111541
O O19 0.678334 0.584877 0.500000
O O20 0.500000 0.637467 0.385408
#
# Coordination Sequence:
#
# PCOD8201142 Si02
#       7
#     8   8   8   8   8   8   8
#     4   9  17  29  46  68  93 119 145 176 219 271
#     4   9  16  27  45  67  90 117 150 186 222 263
#     4   8  14  25  42  65  91 119 154 193 226 255
#     4   9  17  29  45  63  83 111 147 184 223 268
#     4   9  17  28  41  59  84 112 142 178 223 271
#     4   9  17  29  45  64  86 112 142 177 217 262
#     4   9  17  28  41  58  82 112 146 184 224 267
#
# _framework density 17.694514999999999
#
# number of rings (size 3 to 8) (size 9 to 14) (size 15 to 20)
#    0.000    3.143    0.000    1.286    0.000    5.143 
#    0.000    2.857    0.000    1.286    0.000   11.000 
#    0.000    0.000    0.000    7.143    0.000    7.429 
#
# Total GULP energy -693877.059044 kJ/mol
# GULP energy per Si atom -12390.661769 kJ/mol
# Density = 1.765424 g / cm^3
# Si number density = 17.694515 Si / 1000 Ang^3
#
#
#
# Elastic Constant Matrix: (Units=GPa)
#
#
# Indices 1 2 3 4 5 6 
#
# 1 56.7955 35.0989 17.5599 0.0000 0.0000 0.0000
# 2 35.0989 120.5877 42.6142 0.0000 0.0000 0.0000
# 3 17.5599 42.6142 72.3034 0.0000 0.0000 0.0000
# 4 0.0000 0.0000 0.0000 18.4703 0.0000 0.0000
# 5 0.0000 0.0000 0.0000 0.0000 8.6511 0.0000
# 6 0.0000 0.0000 0.0000 0.0000 0.0000 7.3910
#
#
#
# Elastic Compliance Matrix: (Units=1/GPa)
#
#
# Indices 1 2 3 4 5 6 
#
# 1 0.021685 -0.005621 -0.001953 0.000000 0.000000 0.000000
# 2 -0.005621 0.011932 -0.005667 0.000000 0.000000 0.000000
# 3 -0.001953 -0.005667 0.017645 0.000000 0.000000 0.000000
# 4 0.000000 0.000000 0.000000 0.054141 0.000000 0.000000
# 5 0.000000 0.000000 0.000000 0.000000 0.115592 0.000000
# 6 0.000000 0.000000 0.000000 0.000000 0.000000 0.135300
#
#
# Mechanical properties :
#
#
# Convention : Reuss Voigt Hill
#
# Bulk Modulus (GPa) = 40.35837 48.91474 44.63656
# Shear Modulus (GPa) = 12.78651 17.19672 14.99162
#
# Velocity S-wave (km/s) = 2.69109 3.12086 2.91391
# Velocity P-wave (km/s) = 5.70209 6.37890 6.04997
#
# Compressibility (1/GPa) = 0.02477801
#
# Stress axis : x y z
#
# Youngs Moduli (GPa) = 46.11492 83.81124 56.67327
#
# Poissons Ratio (x) = 0.47114 0.11070
# Poissons Ratio (y) = 0.25923 0.32117
# Poissons Ratio (z) = 0.09008 0.47496
#
# Static dielectric constant tensor:
#      x y z
#    x 3.302210 0.000000 0.000000 
#    y 0.000000 3.295610 0.000000 
#    z 0.000000 0.000000 3.223730 
# 
# 
# High freq. dielectric constant tensor:
#      x y z
#    x 1.667130 0.000000 0.000000 
#    y 0.000000 1.659480 0.000000 
#    z 0.000000 0.000000 1.673890 
# 
# From -- ./inp_files/26950.got.cif
#   From: 2010.03.12/outbox.cif.g09.slc.cpg/sg47_14_cif.got.tgz:26950.got - 2010.04.14 03:12:58.
