data_PCOD8201021
_publ_section_title
;
Structure prediction by ZEFSAII (Michael W. Deem and Ramdas Pophale) SiO2 
 PCOD8201021
Probable space group: P M M M
;
_chemical_formula_sum "Si O2"
_cell_formula_units_Z 52
_cell_length_a 9.593512
_cell_length_b 18.702500
_cell_length_c 18.703773
_cell_angle_alpha 90.000000
_cell_angle_beta 90.000000
_cell_angle_gamma 90.000000
_cell_volume 3355.880670
_symmetry_space_group_name_H-M "P M M M"
_symmetry_group_IT_number 47
_symmetry_cell_setting 'orthorhombic'
loop_
_space_group_symop_operation_xyz
x,y,z
-x,-y,z
x,-y,-z
-x,y,-z
-x,-y,-z
x,y,-z
-x,y,z
x,-y,z
loop_
_atom_site_type_symbol
_atom_site_label
_atom_site_fract_x
_atom_site_fract_y
_atom_site_fract_z
Si Si1 0.665529 0.420127 0.080080
Si Si2 0.840676 0.217211 0.286372
Si Si3 0.342950 0.084547 0.500000
Si Si4 0.339880 0.418703 0.344244
Si Si5 0.159639 0.688037 0.420358
Si Si6 0.160754 0.081559 0.634132
Si Si7 0.661566 0.323517 0.792841
O O1 0.500000 0.422565 0.086435
O O2 0.722721 0.500000 0.098121
O O3 0.722120 0.360450 0.135184
O O4 0.711848 0.398096 0.000000
O O5 0.802655 0.250941 0.363418
O O6 0.812954 0.132242 0.296640
O O7 0.744797 0.250310 0.223958
O O8 0.000000 0.232672 0.264966
O O9 0.500000 0.117268 0.500000
O O10 0.259264 0.108936 0.570246
O O11 0.351426 0.000000 0.500000
O O12 0.500000 0.412937 0.366988
O O13 0.291643 0.500000 0.335364
O O14 0.250694 0.382462 0.406561
O O15 0.312097 0.380532 0.269135
O O16 0.192370 0.717349 0.500000
O O17 0.000000 0.664591 0.413093
O O18 0.000000 0.089115 0.608577
O O19 0.194335 0.000000 0.656664
O O20 0.500000 0.302815 0.800647
#
# Coordination Sequence:
#
# PCOD8201021 Si02
#       7
#     8   8   4   8   8   8   8
#     4   8  13  22  40  67  93 115 141 172 203 236
#     4   9  18  30  44  59  79 107 137 169 207 249
#     4   9  17  27  39  59  85 107 128 163 214 261
#     4   9  17  28  41  56  74  98 129 165 203 237
#     4   9  18  30  41  53  71  97 129 165 204 243
#     4   9  17  29  45  62  79 104 140 176 209 251
#     4   9  16  27  43  62  85 109 136 166 199 242
#
# _framework density 15.495189
#
# number of rings (size 3 to 8) (size 9 to 14) (size 15 to 20)
#    0.000    3.154    0.000    1.154    1.077    4.308 
#    0.000    1.538    0.000    1.846    0.000    1.077 
#    0.000    0.615    0.000    7.692    0.000    0.000 
#
# Total GULP energy -644540.776670 kJ/mol
# GULP energy per Si atom -12395.014936 kJ/mol
# Density = 1.545992 g / cm^3
# Si number density = 15.495189 Si / 1000 Ang^3
#
#
#
# Elastic Constant Matrix: (Units=GPa)
#
#
# Indices 1 2 3 4 5 6 
#
# 1 48.3441 35.6621 31.3467 0.0000 0.0000 0.0000
# 2 35.6621 86.9658 41.4183 0.0000 0.0000 0.0000
# 3 31.3467 41.4183 82.1365 0.0000 0.0000 0.0000
# 4 0.0000 0.0000 0.0000 23.4317 0.0000 0.0000
# 5 0.0000 0.0000 0.0000 0.0000 13.4432 0.0000
# 6 0.0000 0.0000 0.0000 0.0000 0.0000 20.6503
#
#
#
# Elastic Compliance Matrix: (Units=1/GPa)
#
#
# Indices 1 2 3 4 5 6 
#
# 1 0.032878 -0.009879 -0.007566 0.000000 0.000000 0.000000
# 2 -0.009879 0.018102 -0.005358 0.000000 0.000000 0.000000
# 3 -0.007566 -0.005358 0.017764 0.000000 0.000000 0.000000
# 4 0.000000 0.000000 0.000000 0.042677 0.000000 0.000000
# 5 0.000000 0.000000 0.000000 0.000000 0.074387 0.000000
# 6 0.000000 0.000000 0.000000 0.000000 0.000000 0.048425
#
#
# Mechanical properties :
#
#
# Convention : Reuss Voigt Hill
#
# Bulk Modulus (GPa) = 43.21827 48.25563 45.73695
# Shear Modulus (GPa) = 17.38813 18.77299 18.08056
#
# Velocity S-wave (km/s) = 3.35350 3.48449 3.41962
# Velocity P-wave (km/s) = 6.55337 6.88468 6.72107
#
# Compressibility (1/GPa) = 0.02313836
#
# Stress axis : x y z
#
# Youngs Moduli (GPa) = 30.41502 55.24400 56.29343
#
# Poissons Ratio (x) = 0.54576 0.42592
# Poissons Ratio (y) = 0.30047 0.30160
# Poissons Ratio (z) = 0.23012 0.29598
#
# Static dielectric constant tensor:
#      x y z
#    x 2.929460 0.000000 0.000000 
#    y 0.000000 3.007310 0.000000 
#    z 0.000000 0.000000 2.882440 
# 
# 
# High freq. dielectric constant tensor:
#      x y z
#    x 1.580690 0.000000 0.000000 
#    y 0.000000 1.585150 0.000000 
#    z 0.000000 0.000000 1.562980 
# 
# From -- ./inp_files/26940.got.cif
#   From: 2010.03.12/outbox.cif.g09.slc.cpg/sg47_14_cif.got.tgz:26940.got - 2010.04.14 03:12:58.
