data_PCOD8201503
_publ_section_title
;
Structure prediction by ZEFSAII (Michael W. Deem and Ramdas Pophale) SiO2 
 PCOD8201503
Probable space group: P N N N
;
_chemical_formula_sum "Si O2"
_cell_formula_units_Z 38
_cell_length_a 5.856534
_cell_length_b 16.781426
_cell_length_c 20.709177
_cell_angle_alpha 90.000000
_cell_angle_beta 90.000000
_cell_angle_gamma 90.000000
_cell_volume 2035.318458
_symmetry_space_group_name_H-M "P N N N"
_symmetry_group_IT_number 48
_space_group.IT_coordinate_system_code '2'
_symmetry_cell_setting 'orthorhombic'
loop_
_space_group_symop_operation_xyz
x,y,z
1/2-x,1/2-y,z
x,1/2-y,1/2-z
1/2-x,y,1/2-z
-x,-y,-z
1/2+x,1/2+y,-z
-x,1/2+y,1/2+z
1/2+x,-y,1/2+z
loop_
_atom_site_type_symbol
_atom_site_label
_atom_site_fract_x
_atom_site_fract_y
_atom_site_fract_z
Si Si1 0.059393 0.384347 0.982857
Si Si2 0.561924 0.628839 0.919163
Si Si3 0.905301 0.873040 0.689836
Si Si4 0.250000 0.750000 0.981343
Si Si5 0.828900 0.022090 0.402962
Si Si6 0.750000 0.250000 0.250000
O O1 0.107655 0.428775 0.914165
O O2 0.928770 0.299414 0.973313
O O3 0.310484 0.376831 0.012753
O O4 0.904755 0.434946 0.031272
O O5 0.735427 0.659943 0.864783
O O6 0.441340 0.544727 0.897390
O O7 0.370044 0.694331 0.928844
O O8 0.750000 0.899773 0.750000
O O9 0.039095 0.949501 0.661318
O O10 0.087333 0.804840 0.706383
#
# Coordination Sequence:
#
# PCOD8201503 Si02
#       6
#     8   8   8   4   8   2
#     4   9  18  32  50  73 100 130 163 206 257 307
#     4  10  20  33  50  72 101 137 172 207 252 304
#     4  11  24  36  49  70  99 138 176 213 252 297
#     4  10  20  31  50  79 105 130 165 208 256 310
#     4   9  19  34  50  70  98 132 170 208 251 303
#     4  12  26  38  48  70 104 140 182 216 246 298
#
# _framework density 18.670297999999999
#
# number of rings (size 3 to 8) (size 9 to 14) (size 15 to 20)
#    0.000    2.105    0.000    2.842    0.000   21.895 
#    0.000    0.000    0.000    0.000    0.000    0.737 
#    0.000    0.000    0.000    0.000    0.000    0.000 
#
# Total GULP energy -470827.606196 kJ/mol
# GULP energy per Si atom -12390.200163 kJ/mol
# Density = 1.862780 g / cm^3
# Si number density = 18.670298 Si / 1000 Ang^3
#
#
#
# Elastic Constant Matrix: (Units=GPa)
#
#
# Indices 1 2 3 4 5 6 
#
# 1 125.0038 49.8319 45.4837 0.0000 0.0000 0.0000
# 2 49.8319 86.6746 52.2789 0.0000 0.0000 0.0000
# 3 45.4837 52.2789 84.5724 0.0000 0.0000 0.0000
# 4 0.0000 0.0000 0.0000 20.4019 0.0000 0.0000
# 5 0.0000 0.0000 0.0000 0.0000 25.0854 0.0000
# 6 0.0000 0.0000 0.0000 0.0000 0.0000 22.0159
#
#
#
# Elastic Compliance Matrix: (Units=1/GPa)
#
#
# Indices 1 2 3 4 5 6 
#
# 1 0.010885 -0.004349 -0.003166 0.000000 0.000000 0.000000
# 2 -0.004349 0.020134 -0.010107 0.000000 0.000000 0.000000
# 3 -0.003166 -0.010107 0.019775 0.000000 0.000000 0.000000
# 4 0.000000 0.000000 0.000000 0.049015 0.000000 0.000000
# 5 0.000000 0.000000 0.000000 0.000000 0.039864 0.000000
# 6 0.000000 0.000000 0.000000 0.000000 0.000000 0.045422
#
#
# Mechanical properties :
#
#
# Convention : Reuss Voigt Hill
#
# Bulk Modulus (GPa) = 64.30788 65.71552 65.01170
# Shear Modulus (GPa) = 22.17085 23.41106 22.79096
#
# Velocity S-wave (km/s) = 3.44974 3.54492 3.49765
# Velocity P-wave (km/s) = 7.09833 7.21315 7.15597
#
# Compressibility (1/GPa) = 0.01555019
#
# Stress axis : x y z
#
# Youngs Moduli (GPa) = 91.86691 49.66772 50.56971
#
# Poissons Ratio (x) = 0.21599 0.16011
# Poissons Ratio (y) = 0.39950 0.51111
# Poissons Ratio (z) = 0.29086 0.50200
#
# Static dielectric constant tensor:
#      x y z
#    x 4.048820 0.000000 0.000000 
#    y 0.000000 3.656700 0.000000 
#    z 0.000000 0.000000 3.209720 
# 
# 
# High freq. dielectric constant tensor:
#      x y z
#    x 1.755380 0.000000 0.000000 
#    y 0.000000 1.695900 0.000000 
#    z 0.000000 0.000000 1.675950 
# 
# From -- ./inp_files/4218.got.cif
#   From: 2010.06.25/outbox.cif.g09.slc.cpg/sg48_3_cif.got.tgz:4218.got - 2010.06.26 18:06:46.
