data_PCOD8201169
_publ_section_title
;
Structure prediction by ZEFSAII (Michael W. Deem and Ramdas Pophale) SiO2 
 PCOD8201169
Probable space group: P M M M
;
_chemical_formula_sum "Si O2"
_cell_formula_units_Z 36
_cell_length_a 13.538294
_cell_length_b 17.806960
_cell_length_c 9.879503
_cell_angle_alpha 90.000000
_cell_angle_beta 90.000000
_cell_angle_gamma 90.000000
_cell_volume 2381.709679
_symmetry_space_group_name_H-M "P M M M"
_symmetry_group_IT_number 47
_symmetry_cell_setting 'orthorhombic'
loop_
_space_group_symop_operation_xyz
x,y,z
-x,-y,z
x,-y,-z
-x,y,-z
-x,-y,-z
x,y,-z
-x,y,z
x,-y,z
loop_
_atom_site_type_symbol
_atom_site_label
_atom_site_fract_x
_atom_site_fract_y
_atom_site_fract_z
Si Si1 0.694248 0.215473 0.851565
Si Si2 0.382200 0.914197 0.000000
Si Si3 0.109650 0.292094 0.844667
Si Si4 0.197098 0.586199 0.657148
Si Si5 0.390639 0.328906 0.653914
O O1 0.663777 0.127273 0.866145
O O2 0.809803 0.227086 0.810994
O O3 0.624003 0.254795 0.743693
O O4 0.676811 0.253432 0.000000
O O5 0.500000 0.906805 0.000000
O O6 0.347388 0.000000 0.000000
O O7 0.125650 0.364072 0.749231
O O8 0.000000 0.259495 0.815941
O O9 0.118538 0.318812 0.000000
O O10 0.171751 0.600796 0.500000
O O11 0.180616 0.500000 0.696182
O O12 0.311160 0.607014 0.689047
O O13 0.378615 0.301935 0.500000
O O14 0.500000 0.362139 0.680315
#
# Coordination Sequence:
#
# PCOD8201169 Si02
#       5
#     8   4   8   8   8
#     4   8  16  28  44  63  85 111 139 173 203 242
#     4   9  16  26  45  71  92 111 135 161 195 243
#     4   9  17  30  46  61  79 108 143 178 216 252
#     4   9  18  30  41  58  85 112 142 181 219 255
#     4   9  16  26  42  62  83 111 145 177 211 249
#
# _framework density 15.115193
#
# number of rings (size 3 to 8) (size 9 to 14) (size 15 to 20)
#    0.667    2.556    0.000    0.667    0.000    1.778 
#    0.000    4.444    0.000    2.000    0.000    9.333 
#    0.000    0.000    0.000   11.111    0.000    0.444 
#
# Total GULP energy -446003.311303 kJ/mol
# GULP energy per Si atom -12388.980870 kJ/mol
# Density = 1.508079 g / cm^3
# Si number density = 15.115193 Si / 1000 Ang^3
#
#
#
# Elastic Constant Matrix: (Units=GPa)
#
#
# Indices 1 2 3 4 5 6 
#
# 1 91.1316 32.6385 25.0099 0.0000 0.0000 0.0000
# 2 32.6385 88.0710 22.6545 0.0000 0.0000 0.0000
# 3 25.0099 22.6545 39.7234 0.0000 0.0000 0.0000
# 4 0.0000 0.0000 0.0000 15.6815 0.0000 0.0000
# 5 0.0000 0.0000 0.0000 0.0000 20.3468 0.0000
# 6 0.0000 0.0000 0.0000 0.0000 0.0000 15.0529
#
#
#
# Elastic Compliance Matrix: (Units=1/GPa)
#
#
# Indices 1 2 3 4 5 6 
#
# 1 0.014106 -0.003449 -0.006914 0.000000 0.000000 0.000000
# 2 -0.003449 0.014150 -0.005898 0.000000 0.000000 0.000000
# 3 -0.006914 -0.005898 0.032891 0.000000 0.000000 0.000000
# 4 0.000000 0.000000 0.000000 0.063769 0.000000 0.000000
# 5 0.000000 0.000000 0.000000 0.000000 0.049148 0.000000
# 6 0.000000 0.000000 0.000000 0.000000 0.000000 0.066432
#
#
# Mechanical properties :
#
#
# Convention : Reuss Voigt Hill
#
# Bulk Modulus (GPa) = 34.93567 42.17021 38.55294
# Shear Modulus (GPa) = 17.69533 19.45777 18.57655
#
# Velocity S-wave (km/s) = 3.42526 3.59179 3.50951
# Velocity P-wave (km/s) = 6.22947 6.72020 6.47948
#
# Compressibility (1/GPa) = 0.02862404
#
# Stress axis : x y z
#
# Youngs Moduli (GPa) = 70.89244 70.67199 30.40346
#
# Poissons Ratio (x) = 0.24375 0.21021
# Poissons Ratio (y) = 0.24451 0.17933
# Poissons Ratio (z) = 0.49016 0.41684
#
# Static dielectric constant tensor:
#      x y z
#    x 3.073150 0.000000 0.000000 
#    y 0.000000 2.635890 0.000000 
#    z 0.000000 0.000000 2.903970 
# 
# 
# High freq. dielectric constant tensor:
#      x y z
#    x 1.591280 0.000000 0.000000 
#    y 0.000000 1.536940 0.000000 
#    z 0.000000 0.000000 1.573150 
# 
# From -- ./inp_files/16177.got.cif
#   From: 2010.03.12/outbox.cif.g09.slc.cpg/sg47_9_cif.got.tgz:16177.got - 2010.04.14 03:12:58.
