data_PCOD8201123
_publ_section_title
;
Structure prediction by ZEFSAII (Michael W. Deem and Ramdas Pophale) SiO2 
 PCOD8201123
Probable space group: P M M M
;
_chemical_formula_sum "Si O2"
_cell_formula_units_Z 52
_cell_length_a 35.208161
_cell_length_b 7.822114
_cell_length_c 9.847275
_cell_angle_alpha 90.000000
_cell_angle_beta 90.000000
_cell_angle_gamma 90.000000
_cell_volume 2711.961682
_symmetry_space_group_name_H-M "P M M M"
_symmetry_group_IT_number 47
_symmetry_cell_setting 'orthorhombic'
loop_
_space_group_symop_operation_xyz
x,y,z
-x,-y,z
x,-y,-z
-x,y,-z
-x,-y,-z
x,y,-z
-x,y,z
x,-y,z
loop_
_atom_site_type_symbol
_atom_site_label
_atom_site_fract_x
_atom_site_fract_y
_atom_site_fract_z
Si Si1 0.688778 0.298854 0.348674
Si Si2 0.096736 0.197613 0.658795
Si Si3 0.042102 0.500000 0.660221
Si Si4 0.457810 0.203388 0.848108
Si Si5 0.393566 0.201960 0.348069
Si Si6 0.751831 0.301750 0.849695
Si Si7 0.834070 0.201037 0.152578
O O1 0.692801 0.218874 0.500000
O O2 0.694344 0.500000 0.356810
O O3 0.647420 0.254107 0.288087
O O4 0.721118 0.216465 0.251800
O O5 0.106302 0.219918 0.500000
O O6 0.063193 0.325260 0.705421
O O7 0.133243 0.257959 0.743882
O O8 0.085259 0.000000 0.690571
O O9 0.038586 0.500000 0.500000
O O10 0.000000 0.500000 0.726178
O O11 0.500000 0.262789 0.802247
O O12 0.426506 0.282269 0.746398
O O13 0.455715 0.000000 0.846817
O O14 0.449316 0.270769 0.000000
O O15 0.398194 0.277775 0.500000
O O16 0.397388 0.000000 0.350957
O O17 0.742532 0.500000 0.861149
O O18 0.794370 0.276352 0.792858
O O19 0.748546 0.217052 0.000000
O O20 0.830405 0.000000 0.150607
O O21 0.843036 0.269840 0.000000
#
# Coordination Sequence:
#
# PCOD8201123 Si02
#       7
#     8   8   4   8   8   8   8
#     4   9  18  32  46  61  86 119 150 180 221 271
#     4   9  18  32  50  74 102 131 166 207 249 295
#     4   9  18  32  51  77 105 133 169 211 253 297
#     4   8  14  25  41  62  87 111 136 171 216 263
#     4   9  17  28  43  64  86 108 139 178 217 258
#     4   9  18  31  46  65  88 116 152 190 226 269
#     4   9  18  32  49  70  97 128 159 194 241 290
#
# _framework density 19.174313000000001
#
# number of rings (size 3 to 8) (size 9 to 14) (size 15 to 20)
#    0.000    3.154    0.000    0.462    1.077    2.462 
#    0.000    3.077    0.000    1.385    0.000    5.385 
#    0.000    0.000    0.000    0.000    0.000    0.000 
#
# Total GULP energy -644508.071001 kJ/mol
# GULP energy per Si atom -12394.385981 kJ/mol
# Density = 1.913067 g / cm^3
# Si number density = 19.174313 Si / 1000 Ang^3
#
#
#
# Elastic Constant Matrix: (Units=GPa)
#
#
# Indices 1 2 3 4 5 6 
#
# 1 192.6811 34.5183 94.9389 0.0000 0.0000 0.0000
# 2 34.5183 34.2519 19.9601 0.0000 0.0000 0.0000
# 3 94.9389 19.9601 88.4105 0.0000 0.0000 0.0000
# 4 0.0000 0.0000 0.0000 9.7423 0.0000 0.0000
# 5 0.0000 0.0000 0.0000 0.0000 23.4376 0.0000
# 6 0.0000 0.0000 0.0000 0.0000 0.0000 34.5798
#
#
#
# Elastic Compliance Matrix: (Units=1/GPa)
#
#
# Indices 1 2 3 4 5 6 
#
# 1 0.011768 -0.005176 -0.011468 0.000000 0.000000 0.000000
# 2 -0.005176 0.035895 -0.002545 0.000000 0.000000 0.000000
# 3 -0.011468 -0.002545 0.024201 0.000000 0.000000 0.000000
# 4 0.000000 0.000000 0.000000 0.102645 0.000000 0.000000
# 5 0.000000 0.000000 0.000000 0.000000 0.042667 0.000000
# 6 0.000000 0.000000 0.000000 0.000000 0.000000 0.028919
#
#
# Mechanical properties :
#
#
# Convention : Reuss Voigt Hill
#
# Bulk Modulus (GPa) = 29.86501 68.24202 49.05351
# Shear Modulus (GPa) = 16.91269 24.61367 20.76318
#
# Velocity S-wave (km/s) = 2.97315 3.58673 3.29426
# Velocity P-wave (km/s) = 5.23407 7.26777 6.33309
#
# Compressibility (1/GPa) = 0.03348400
#
# Stress axis : x y z
#
# Youngs Moduli (GPa) = 84.97629 27.85867 41.32118
#
# Poissons Ratio (x) = 0.14421 0.47388
# Poissons Ratio (y) = 0.43987 0.10518
# Poissons Ratio (z) = 0.97453 0.07091
#
# Static dielectric constant tensor:
#      x y z
#    x 3.722600 0.000000 0.000000 
#    y 0.000000 3.217030 0.000000 
#    z 0.000000 0.000000 3.811720 
# 
# 
# High freq. dielectric constant tensor:
#      x y z
#    x 1.745610 0.000000 0.000000 
#    y 0.000000 1.726120 0.000000 
#    z 0.000000 0.000000 1.731090 
# 
# From -- ./inp_files/19815.got.cif
#   From: 2010.03.12/outbox.cif.g09.slc.cpg/sg47_10_cif.got.tgz:19815.got - 2010.04.14 03:12:58.
