data_PCOD8201062
_publ_section_title
;
Structure prediction by ZEFSAII (Michael W. Deem and Ramdas Pophale) SiO2 
 PCOD8201062
Probable space group: P M M M
;
_chemical_formula_sum "Si O2"
_cell_formula_units_Z 40
_cell_length_a 9.881346
_cell_length_b 8.110508
_cell_length_c 27.799607
_cell_angle_alpha 90.000000
_cell_angle_beta 90.000000
_cell_angle_gamma 90.000000
_cell_volume 2227.936559
_symmetry_space_group_name_H-M "P M M M"
_symmetry_group_IT_number 47
_symmetry_cell_setting 'orthorhombic'
loop_
_space_group_symop_operation_xyz
x,y,z
-x,-y,z
x,-y,-z
-x,y,-z
-x,-y,-z
x,y,-z
-x,y,z
x,-y,z
loop_
_atom_site_type_symbol
_atom_site_label
_atom_site_fract_x
_atom_site_fract_y
_atom_site_fract_z
Si Si1 0.350224 0.806132 0.221031
Si Si2 0.847397 0.193310 0.500000
Si Si3 0.338709 0.500000 0.054619
Si Si4 0.339011 0.184590 0.886804
Si Si5 0.848817 0.808138 0.699407
Si Si6 0.844478 0.308867 0.599200
O O1 0.500000 0.726951 0.227506
O O2 0.293440 0.771674 0.167496
O O3 0.247465 0.726706 0.259962
O O4 0.362333 0.000000 0.229544
O O5 0.772698 0.255439 0.548885
O O6 0.000000 0.267067 0.500000
O O7 0.847917 0.000000 0.500000
O O8 0.500000 0.500000 0.057530
O O9 0.282334 0.668529 0.079254
O O10 0.286837 0.500000 0.000000
O O11 0.500000 0.179329 0.889023
O O12 0.285145 0.000000 0.901803
O O13 0.782873 0.778445 0.646552
O O14 0.000000 0.728370 0.702292
O O15 0.860155 0.000000 0.709622
O O16 0.825874 0.500000 0.607067
O O17 0.000000 0.252008 0.595539
#
# Coordination Sequence:
#
# PCOD8201062 Si02
#       6
#     8   4   4   8   8   8
#     4   8  14  26  43  60  81 112 144 171 205 250
#     4   9  15  23  37  55  74 101 138 171 200 244
#     4   9  16  24  36  58  85 111 141 176 215 258
#     4   8  14  25  39  55  79 111 143 175 213 256
#     4   9  16  26  41  61  84 108 136 173 211 245
#     4   9  16  25  36  53  80 109 133 163 207 253
#
# _framework density 17.953831999999998
#
# number of rings (size 3 to 8) (size 9 to 14) (size 15 to 20)
#    0.000    3.400    0.000    2.100    0.000    4.000 
#    1.800    2.000    0.000    0.000    0.000    0.700 
#    0.000    7.200    0.000    7.800    0.000    8.000 
#
# Total GULP energy -495524.410383 kJ/mol
# GULP energy per Si atom -12388.110260 kJ/mol
# Density = 1.791297 g / cm^3
# Si number density = 17.953832 Si / 1000 Ang^3
#
#
#
# Elastic Constant Matrix: (Units=GPa)
#
#
# Indices 1 2 3 4 5 6 
#
# 1 29.6063 13.4249 38.8051 0.0000 0.0000 0.0000
# 2 13.4249 68.2590 56.1488 0.0000 0.0000 0.0000
# 3 38.8051 56.1488 172.9857 0.0000 0.0000 0.0000
# 4 0.0000 0.0000 0.0000 23.4815 0.0000 0.0000
# 5 0.0000 0.0000 0.0000 0.0000 13.2779 0.0000
# 6 0.0000 0.0000 0.0000 0.0000 0.0000 4.9466
#
#
#
# Elastic Compliance Matrix: (Units=1/GPa)
#
#
# Indices 1 2 3 4 5 6 
#
# 1 0.047875 -0.000794 -0.010482 0.000000 0.000000 0.000000
# 2 -0.000794 0.020000 -0.006314 0.000000 0.000000 0.000000
# 3 -0.010482 -0.006314 0.010182 0.000000 0.000000 0.000000
# 4 0.000000 0.000000 0.000000 0.042587 0.000000 0.000000
# 5 0.000000 0.000000 0.000000 0.000000 0.075313 0.000000
# 6 0.000000 0.000000 0.000000 0.000000 0.000000 0.202159
#
#
# Mechanical properties :
#
#
# Convention : Reuss Voigt Hill
#
# Bulk Modulus (GPa) = 23.32196 54.17873 38.75034
# Shear Modulus (GPa) = 11.17103 19.17270 15.17186
#
# Velocity S-wave (km/s) = 2.49712 3.27140 2.91013
# Velocity P-wave (km/s) = 4.61869 6.67170 5.73777
#
# Compressibility (1/GPa) = 0.04287804
#
# Stress axis : x y z
#
# Youngs Moduli (GPa) = 20.88759 50.00100 98.21714
#
# Poissons Ratio (x) = 0.03968 1.02952
# Poissons Ratio (y) = 0.01658 0.62010
# Poissons Ratio (z) = 0.21895 0.31569
#
# Static dielectric constant tensor:
#      x y z
#    x 2.959680 0.000000 0.000000 
#    y 0.000000 3.241690 0.000000 
#    z 0.000000 0.000000 3.691450 
# 
# 
# High freq. dielectric constant tensor:
#      x y z
#    x 1.605200 0.000000 0.000000 
#    y 0.000000 1.686190 0.000000 
#    z 0.000000 0.000000 1.711220 
# 
# From -- ./inp_files/4415.got.cif
#   From: 2010.03.12/outbox.cif.g09.slc.cpg/sg47_3_cif.got.tgz:4415.got - 2010.04.14 03:12:58.
