data_PCOD8201910
_publ_section_title
;
Structure prediction by ZEFSAII (Michael W. Deem and Ramdas Pophale) SiO2 
 PCOD8201910
Probable space group: P N N N
;
_chemical_formula_sum "Si O2"
_cell_formula_units_Z 64
_cell_length_a 12.205087
_cell_length_b 17.206275
_cell_length_c 13.743325
_cell_angle_alpha 90.000000
_cell_angle_beta 90.000000
_cell_angle_gamma 90.000000
_cell_volume 2886.154368
_symmetry_space_group_name_H-M "P N N N"
_symmetry_group_IT_number 48
_space_group.IT_coordinate_system_code '2'
_symmetry_cell_setting 'orthorhombic'
loop_
_space_group_symop_operation_xyz
x,y,z
1/2-x,1/2-y,z
x,1/2-y,1/2-z
1/2-x,y,1/2-z
-x,-y,-z
1/2+x,1/2+y,-z
-x,1/2+y,1/2+z
1/2+x,-y,1/2+z
loop_
_atom_site_type_symbol
_atom_site_label
_atom_site_fract_x
_atom_site_fract_y
_atom_site_fract_z
Si Si1 0.108206 0.550633 0.989583
Si Si2 0.876366 0.734240 0.911047
Si Si3 0.063677 0.371293 0.698299
Si Si4 0.521072 0.901861 0.817996
Si Si5 0.656514 0.512710 0.037686
Si Si6 0.486723 0.397246 0.098646
Si Si7 0.630694 0.785001 0.123655
Si Si8 0.364721 0.940754 0.197753
O O1 0.214183 0.498771 0.964695
O O2 0.081381 0.602349 0.893633
O O3 0.130337 0.600638 0.089830
O O4 0.000000 0.500000 0.000000
O O5 0.750000 0.750000 0.889793
O O6 0.914624 0.679305 0.824004
O O7 0.955854 0.808225 0.919785
O O8 0.888211 0.687084 0.013214
O O9 0.128515 0.430893 0.629012
O O10 0.121290 0.358473 0.804024
O O11 0.048714 0.286789 0.648296
O O12 0.945732 0.406080 0.722311
O O13 0.478121 0.911537 0.709250
O O14 0.607521 0.971224 0.834621
O O15 0.593245 0.429264 0.040845
O O16 0.618910 0.553115 0.936621
O O17 0.750000 0.750000 0.137411
O O18 0.250000 0.933991 0.250000
#
# Coordination Sequence:
#
# PCOD8201910 Si02
#       8
#     8   8   8   8   8   8   8   8
#     4  10  25  41  63 102 139 172 217 286 348 402
#     4  11  25  41  67  97 140 182 227 289 349 409
#     4  11  21  41  67  98 131 175 224 282 342 414
#     4  11  24  41  62  98 135 174 224 281 340 407
#     4  11  24  44  74  97 136 182 235 281 340 420
#     4  11  24  44  66 102 128 180 237 277 332 412
#     4  10  23  40  64 101 135 170 223 288 352 409
#     4  11  24  41  67  98 139 175 227 285 342 409
#
# _framework density 22.174837
#
# number of rings (size 3 to 8) (size 9 to 14) (size 15 to 20)
#    0.000    1.250    2.500    2.625    7.000    5.000 
#    0.000    1.875    0.000    6.000    0.000    0.000 
#    0.000    0.000    0.000    0.000    0.000    0.000 
#
# Total GULP energy -793072.215672 kJ/mol
# GULP energy per Si atom -12391.753370 kJ/mol
# Density = 2.212437 g / cm^3
# Si number density = 22.174837 Si / 1000 Ang^3
#
#
#
# Elastic Constant Matrix: (Units=GPa)
#
#
# Indices 1 2 3 4 5 6 
#
# 1 135.5243 39.2416 49.3914 0.0000 0.0000 0.0000
# 2 39.2416 85.9076 17.0906 0.0000 0.0000 0.0000
# 3 49.3914 17.0906 134.5719 0.0000 0.0000 0.0000
# 4 0.0000 0.0000 0.0000 28.0838 0.0000 0.0000
# 5 0.0000 0.0000 0.0000 0.0000 25.4301 0.0000
# 6 0.0000 0.0000 0.0000 0.0000 0.0000 16.8982
#
#
#
# Elastic Compliance Matrix: (Units=1/GPa)
#
#
# Indices 1 2 3 4 5 6 
#
# 1 0.009577 -0.003771 -0.003036 0.000000 0.000000 0.000000
# 2 -0.003771 0.013427 -0.000321 0.000000 0.000000 0.000000
# 3 -0.003036 -0.000321 0.008586 0.000000 0.000000 0.000000
# 4 0.000000 0.000000 0.000000 0.035608 0.000000 0.000000
# 5 0.000000 0.000000 0.000000 0.000000 0.039324 0.000000
# 6 0.000000 0.000000 0.000000 0.000000 0.000000 0.059178
#
#
# Mechanical properties :
#
#
# Convention : Reuss Voigt Hill
#
# Bulk Modulus (GPa) = 57.69095 63.05011 60.37053
# Shear Modulus (GPa) = 26.92032 30.76776 28.84404
#
# Velocity S-wave (km/s) = 3.48803 3.72897 3.61051
# Velocity P-wave (km/s) = 6.50344 6.85822 6.68318
#
# Compressibility (1/GPa) = 0.01733374
#
# Stress axis : x y z
#
# Youngs Moduli (GPa) = 104.41594 74.47834 116.46706
#
# Poissons Ratio (x) = 0.28083 0.35361
# Poissons Ratio (y) = 0.39372 0.03741
# Poissons Ratio (z) = 0.31702 0.02393
#
# Static dielectric constant tensor:
#      x y z
#    x 3.863330 0.000000 0.000000 
#    y 0.000000 3.994360 0.000000 
#    z 0.000000 0.000000 4.713330 
# 
# 
# High freq. dielectric constant tensor:
#      x y z
#    x 1.852500 0.000000 0.000000 
#    y 0.000000 1.848420 0.000000 
#    z 0.000000 0.000000 1.905840 
# 
# From -- ./inp_files/26738.got.cif
#   From: 2010.06.25/outbox.cif.g09.slc.cpg/sg48_14_cif.got.tgz:26738.got - 2010.06.26 18:06:46.
