data_PCOD8201776
_publ_section_title
;
Structure prediction by ZEFSAII (Michael W. Deem and Ramdas Pophale) SiO2 
 PCOD8201776
Probable space group: P N N N
;
_chemical_formula_sum "Si O2"
_cell_formula_units_Z 54
_cell_length_a 11.293736
_cell_length_b 14.914078
_cell_length_c 15.290506
_cell_angle_alpha 90.000000
_cell_angle_beta 90.000000
_cell_angle_gamma 90.000000
_cell_volume 2575.466464
_symmetry_space_group_name_H-M "P N N N"
_symmetry_group_IT_number 48
_space_group.IT_coordinate_system_code '2'
_symmetry_cell_setting 'orthorhombic'
loop_
_space_group_symop_operation_xyz
x,y,z
1/2-x,1/2-y,z
x,1/2-y,1/2-z
1/2-x,y,1/2-z
-x,-y,-z
1/2+x,1/2+y,-z
-x,1/2+y,1/2+z
1/2+x,-y,1/2+z
loop_
_atom_site_type_symbol
_atom_site_label
_atom_site_fract_x
_atom_site_fract_y
_atom_site_fract_z
Si Si1 0.750000 0.750000 0.750000
Si Si2 0.122976 0.375358 0.384202
Si Si3 0.364187 0.323928 0.823377
Si Si4 0.250000 0.750000 0.968788
Si Si5 0.689931 0.430494 0.377153
Si Si6 0.000917 0.243412 0.978109
Si Si7 0.684437 0.895396 0.031523
Si Si8 0.073223 0.982972 0.793637
O O1 0.832857 0.688180 0.691980
O O2 0.029800 0.322006 0.442239
O O3 0.230767 0.405213 0.446689
O O4 0.053261 0.458029 0.337426
O O5 0.332965 0.250000 0.750000
O O6 0.469139 0.293120 0.883664
O O7 0.249146 0.344704 0.886417
O O8 0.412752 0.411468 0.772521
O O9 0.299165 0.829989 0.909126
O O10 0.360433 0.737183 0.031735
O O11 0.641013 0.504054 0.446084
O O12 0.600027 0.428300 0.295072
O O13 0.823433 0.461988 0.361328
O O14 0.067346 0.338461 0.994650
#
# Coordination Sequence:
#
# PCOD8201776 Si02
#       8
#     2   8   8   4   8   8   8   8
#     4  12  24  40  64  98 128 168 224 264 342 384
#     4  11  22  39  65  97 129 166 215 284 333 397
#     4  10  21  40  72  98 126 162 220 282 332 396
#     4  12  26  41  59  90 134 186 216 260 341 409
#     4  10  23  39  62  95 133 174 220 270 327 416
#     4  11  23  41  63  96 128 173 213 272 333 400
#     4  10  22  41  68  99 130 164 227 279 342 385
#     4  10  22  37  63 100 129 167 219 277 340 388
#
# _framework density 20.967075000000001
#
# number of rings (size 3 to 8) (size 9 to 14) (size 15 to 20)
#    0.000    1.481    2.963    2.222    4.148    9.481 
#    0.000    1.852    0.000    0.000    0.000    0.000 
#    0.000    0.000    0.000    0.000    0.000    0.000 
#
# Total GULP energy -669061.082450 kJ/mol
# GULP energy per Si atom -12390.020045 kJ/mol
# Density = 2.091935 g / cm^3
# Si number density = 20.967075 Si / 1000 Ang^3
#
#
#
# Elastic Constant Matrix: (Units=GPa)
#
#
# Indices 1 2 3 4 5 6 
#
# 1 108.0799 8.1222 43.9811 0.0000 0.0000 0.0000
# 2 8.1222 90.8448 37.8701 0.0000 0.0000 0.0000
# 3 43.9811 37.8701 108.1784 0.0000 0.0000 0.0000
# 4 0.0000 0.0000 0.0000 30.6428 0.0000 0.0000
# 5 0.0000 0.0000 0.0000 0.0000 19.6714 0.0000
# 6 0.0000 0.0000 0.0000 0.0000 0.0000 13.8487
#
#
#
# Elastic Compliance Matrix: (Units=1/GPa)
#
#
# Indices 1 2 3 4 5 6 
#
# 1 0.011171 0.001047 -0.004908 0.000000 0.000000 0.000000
# 2 0.001047 0.012987 -0.004972 0.000000 0.000000 0.000000
# 3 -0.004908 -0.004972 0.012980 0.000000 0.000000 0.000000
# 4 0.000000 0.000000 0.000000 0.032634 0.000000 0.000000
# 5 0.000000 0.000000 0.000000 0.000000 0.050835 0.000000
# 6 0.000000 0.000000 0.000000 0.000000 0.000000 0.072209
#
#
# Mechanical properties :
#
#
# Convention : Reuss Voigt Hill
#
# Bulk Modulus (GPa) = 51.35641 54.11668 52.73655
# Shear Modulus (GPa) = 23.04433 27.30790 25.17611
#
# Velocity S-wave (km/s) = 3.31882 3.61282 3.46894
# Velocity P-wave (km/s) = 6.26363 6.57796 6.42272
#
# Compressibility (1/GPa) = 0.01947176
#
# Stress axis : x y z
#
# Youngs Moduli (GPa) = 89.51687 77.00092 77.04074
#
# Poissons Ratio (x) = -0.08065 0.37814
# Poissons Ratio (y) = -0.09376 0.38306
# Poissons Ratio (z) = 0.43938 0.38286
#
# Static dielectric constant tensor:
#      x y z
#    x 3.738530 0.000000 0.000000 
#    y 0.000000 4.134710 0.000000 
#    z 0.000000 0.000000 3.827890 
# 
# 
# High freq. dielectric constant tensor:
#      x y z
#    x 1.810100 0.000000 0.000000 
#    y 0.000000 1.826010 0.000000 
#    z 0.000000 0.000000 1.822020 
# 
# From -- ./inp_files/26556.got.cif
#   From: 2010.06.25/outbox.cif.g09.slc.cpg/sg48_14_cif.got.tgz:26556.got - 2010.06.26 18:06:46.
