data_PCOD8201774
_publ_section_title
;
Structure prediction by ZEFSAII (Michael W. Deem and Ramdas Pophale) SiO2 
 PCOD8201774
Probable space group: P N N N
;
_chemical_formula_sum "Si O2"
_cell_formula_units_Z 30
_cell_length_a 5.092709
_cell_length_b 12.041805
_cell_length_c 15.987160
_cell_angle_alpha 90.000000
_cell_angle_beta 90.000000
_cell_angle_gamma 90.000000
_cell_volume 980.419121
_symmetry_space_group_name_H-M "P N N N"
_symmetry_group_IT_number 48
_space_group.IT_coordinate_system_code '2'
_symmetry_cell_setting 'orthorhombic'
loop_
_space_group_symop_operation_xyz
x,y,z
1/2-x,1/2-y,z
x,1/2-y,1/2-z
1/2-x,y,1/2-z
-x,-y,-z
1/2+x,1/2+y,-z
-x,1/2+y,1/2+z
1/2+x,-y,1/2+z
loop_
_atom_site_type_symbol
_atom_site_label
_atom_site_fract_x
_atom_site_fract_y
_atom_site_fract_z
Si Si1 0.079783 0.059967 0.169247
Si Si2 0.361242 0.133250 0.018077
Si Si3 0.574215 0.567663 0.337087
Si Si4 0.750000 0.250000 0.750000
Si Si5 0.250000 0.750000 0.862555
O O1 0.952834 0.178488 0.195505
O O2 0.128083 0.071135 0.069266
O O3 0.882338 0.953034 0.187957
O O4 0.387456 0.033585 0.201566
O O5 0.250000 0.250000 0.982111
O O6 0.602445 0.158216 0.080805
O O7 0.450692 0.059402 0.938057
O O8 0.448759 0.683210 0.309755
#
# Coordination Sequence:
#
# PCOD8201774 Si02
#       5
#     8   8   8   2   4
#     4  11  24  42  73 107 147 189 245 319 393 447
#     4  10  22  39  70 113 152 189 241 316 403 452
#     4  12  27  45  70  99 151 203 256 303 370 470
#     4  12  34  54  72 104 152 216 268 306 366 484
#     4  10  21  40  68 114 144 173 228 320 398 452
#
# _framework density 30.599159
#
# number of rings (size 3 to 8) (size 9 to 14) (size 15 to 20)
#    0.000    1.067    2.667    2.400   11.200    2.133 
#    0.000    0.000    0.000    4.800    0.000    0.000 
#    0.000    0.000    0.000    0.000    0.000    0.000 
#
# Total GULP energy -372003.587340 kJ/mol
# GULP energy per Si atom -12400.119578 kJ/mol
# Density = 3.052951 g / cm^3
# Si number density = 30.599159 Si / 1000 Ang^3
#
#
#
# Elastic Constant Matrix: (Units=GPa)
#
#
# Indices 1 2 3 4 5 6 
#
# 1 220.8104 108.3796 100.7894 0.0000 0.0000 0.0000
# 2 108.3796 154.6895 68.5399 0.0000 0.0000 0.0000
# 3 100.7894 68.5399 184.2762 0.0000 0.0000 0.0000
# 4 0.0000 0.0000 0.0000 66.9825 0.0000 0.0000
# 5 0.0000 0.0000 0.0000 0.0000 50.5001 0.0000
# 6 0.0000 0.0000 0.0000 0.0000 0.0000 74.7689
#
#
#
# Elastic Compliance Matrix: (Units=1/GPa)
#
#
# Indices 1 2 3 4 5 6 
#
# 1 0.007887 -0.004328 -0.002704 0.000000 0.000000 0.000000
# 2 -0.004328 0.010115 -0.001395 0.000000 0.000000 0.000000
# 3 -0.002704 -0.001395 0.007425 0.000000 0.000000 0.000000
# 4 0.000000 0.000000 0.000000 0.014929 0.000000 0.000000
# 5 0.000000 0.000000 0.000000 0.000000 0.019802 0.000000
# 6 0.000000 0.000000 0.000000 0.000000 0.000000 0.013375
#
#
# Mechanical properties :
#
#
# Convention : Reuss Voigt Hill
#
# Bulk Modulus (GPa) = 116.65174 123.91044 120.28109
# Shear Modulus (GPa) = 53.62243 57.25476 55.43859
#
# Velocity S-wave (km/s) = 4.19073 4.33034 4.26111
# Velocity P-wave (km/s) = 7.84994 8.09846 7.97517
#
# Compressibility (1/GPa) = 0.00857253
#
# Stress axis : x y z
#
# Youngs Moduli (GPa) = 126.78461 98.86386 134.68757
#
# Poissons Ratio (x) = 0.42787 0.36423
# Poissons Ratio (y) = 0.54871 0.18789
# Poissons Ratio (z) = 0.34286 0.13792
#
# Static dielectric constant tensor:
#      x y z
#    x 6.188980 0.000000 0.000000 
#    y 0.000000 5.661960 0.000000 
#    z 0.000000 0.000000 6.182220 
# 
# 
# High freq. dielectric constant tensor:
#      x y z
#    x 2.279110 0.000000 0.000000 
#    y 0.000000 2.256680 0.000000 
#    z 0.000000 0.000000 2.312680 
# 
# From -- ./inp_files/29176.got.cif
#   From: 2010.06.25/outbox.cif.g09.slc.cpg/sg48_15_cif.got.tgz:29176.got - 2010.06.26 18:06:46.
