data_PCOD8201785
_publ_section_title
;
Structure prediction by ZEFSAII (Michael W. Deem and Ramdas Pophale) SiO2 
 PCOD8201785
Probable space group: P N N N
;
_chemical_formula_sum "Si O2"
_cell_formula_units_Z 40
_cell_length_a 5.108328
_cell_length_b 12.721649
_cell_length_c 28.433289
_cell_angle_alpha 90.000000
_cell_angle_beta 90.000000
_cell_angle_gamma 90.000000
_cell_volume 1847.775835
_symmetry_space_group_name_H-M "P N N N"
_symmetry_group_IT_number 48
_space_group.IT_coordinate_system_code '2'
_symmetry_cell_setting 'orthorhombic'
loop_
_space_group_symop_operation_xyz
x,y,z
1/2-x,1/2-y,z
x,1/2-y,1/2-z
1/2-x,y,1/2-z
-x,-y,-z
1/2+x,1/2+y,-z
-x,1/2+y,1/2+z
1/2+x,-y,1/2+z
loop_
_atom_site_type_symbol
_atom_site_label
_atom_site_fract_x
_atom_site_fract_y
_atom_site_fract_z
Si Si1 0.186465 0.627587 0.801673
Si Si2 0.157077 0.018215 0.165045
Si Si3 0.773250 0.373731 0.474414
Si Si4 0.777624 0.985864 0.560573
Si Si5 0.006048 0.797869 0.197671
O O1 0.250000 0.750000 0.801959
O O2 0.250000 0.582076 0.750000
O O3 0.394120 0.586298 0.839911
O O4 0.890597 0.589966 0.813328
O O5 0.235582 0.976365 0.113875
O O6 0.055009 0.922600 0.198120
O O7 0.750000 0.250000 0.472024
O O8 0.730020 0.410798 0.528147
O O9 0.556924 0.428367 0.441584
O O10 0.059577 0.403490 0.456176
O O11 0.750000 0.750000 0.171681
O O12 0.001018 0.750000 0.250000
O O13 0.250000 0.750000 0.169236
#
# Coordination Sequence:
#
# PCOD8201785 Si02
#       5
#     8   8   8   8   8
#     4  11  26  43  63  92 127 174 219 264 330 384
#     4  12  24  41  68  93 132 166 213 287 308 385
#     4  10  21  41  65  88 131 168 198 260 325 397
#     4  10  23  39  61 100 122 161 219 251 325 389
#     4  10  23  39  60  91 120 164 217 257 316 388
#
# _framework density 21.647649000000001
#
# number of rings (size 3 to 8) (size 9 to 14) (size 15 to 20)
#    0.000    1.400    0.000    4.200    8.400    7.200 
#    0.000    4.000    0.000    0.000    0.000    0.000 
#    0.000    0.000    0.000    0.000    0.000    0.000 
#
# Total GULP energy -495617.956523 kJ/mol
# GULP energy per Si atom -12390.448913 kJ/mol
# Density = 2.159838 g / cm^3
# Si number density = 21.647649 Si / 1000 Ang^3
#
#
#
# Elastic Constant Matrix: (Units=GPa)
#
#
# Indices 1 2 3 4 5 6 
#
# 1 146.4534 24.7794 2.7011 0.0000 0.0000 0.0000
# 2 24.7794 97.3459 19.1267 0.0000 0.0000 0.0000
# 3 2.7011 19.1267 88.9618 0.0000 0.0000 0.0000
# 4 0.0000 0.0000 0.0000 10.9850 0.0000 0.0000
# 5 0.0000 0.0000 0.0000 0.0000 21.5140 0.0000
# 6 0.0000 0.0000 0.0000 0.0000 0.0000 47.9000
#
#
#
# Elastic Compliance Matrix: (Units=1/GPa)
#
#
# Indices 1 2 3 4 5 6 
#
# 1 0.007138 -0.001853 0.000182 0.000000 0.000000 0.000000
# 2 -0.001853 0.011207 -0.002353 0.000000 0.000000 0.000000
# 3 0.000182 -0.002353 0.011741 0.000000 0.000000 0.000000
# 4 0.000000 0.000000 0.000000 0.091033 0.000000 0.000000
# 5 0.000000 0.000000 0.000000 0.000000 0.046481 0.000000
# 6 0.000000 0.000000 0.000000 0.000000 0.000000 0.020877
#
#
# Mechanical properties :
#
#
# Convention : Reuss Voigt Hill
#
# Bulk Modulus (GPa) = 45.37726 47.33063 46.35395
# Shear Modulus (GPa) = 24.52522 35.15673 29.84097
#
# Velocity S-wave (km/s) = 3.36955 4.03431 3.71682
# Velocity P-wave (km/s) = 6.01213 6.60398 6.31499
#
# Compressibility (1/GPa) = 0.02203747
#
# Stress axis : x y z
#
# Youngs Moduli (GPa) = 140.09064 89.23309 85.17022
#
# Poissons Ratio (x) = 0.16532 -0.01547
# Poissons Ratio (y) = 0.25955 0.20042
# Poissons Ratio (z) = -0.02544 0.20998
#
# Static dielectric constant tensor:
#      x y z
#    x 3.033510 0.000000 0.000000 
#    y 0.000000 3.899070 0.000000 
#    z 0.000000 0.000000 3.739670 
# 
# 
# High freq. dielectric constant tensor:
#      x y z
#    x 1.881800 0.000000 0.000000 
#    y 0.000000 1.849040 0.000000 
#    z 0.000000 0.000000 1.830290 
# 
# From -- ./inp_files/6942.got.cif
#   From: 2010.06.25/outbox.cif.g09.slc.cpg/sg48_4_cif.got.tgz:6942.got - 2010.06.26 18:06:46.
