data_PCOD8201300
_publ_section_title
;
Structure prediction by ZEFSAII (Michael W. Deem and Ramdas Pophale) SiO2 
 PCOD8201300
Probable space group: P N N N
;
_chemical_formula_sum "Si O2"
_cell_formula_units_Z 38
_cell_length_a 9.284123
_cell_length_b 24.691803
_cell_length_c 7.906669
_cell_angle_alpha 90.000000
_cell_angle_beta 90.000000
_cell_angle_gamma 90.000000
_cell_volume 1812.538529
_symmetry_space_group_name_H-M "P N N N"
_symmetry_group_IT_number 48
_space_group.IT_coordinate_system_code '2'
_symmetry_cell_setting 'orthorhombic'
loop_
_space_group_symop_operation_xyz
x,y,z
1/2-x,1/2-y,z
x,1/2-y,1/2-z
1/2-x,y,1/2-z
-x,-y,-z
1/2+x,1/2+y,-z
-x,1/2+y,1/2+z
1/2+x,-y,1/2+z
loop_
_atom_site_type_symbol
_atom_site_label
_atom_site_fract_x
_atom_site_fract_y
_atom_site_fract_z
Si Si1 0.486174 0.750000 0.250000
Si Si2 0.750000 0.511727 0.750000
Si Si3 0.250000 0.750000 0.750000
Si Si4 0.279176 0.921400 0.510989
Si Si5 0.750000 0.334372 0.750000
Si Si6 0.505497 0.091878 0.217621
Si Si7 0.526024 0.710386 0.607186
O O1 0.388325 0.699907 0.194660
O O2 0.575789 0.730830 0.418552
O O3 0.808794 0.474939 0.597908
O O4 0.619247 0.548858 0.690850
O O5 0.350480 0.713904 0.625770
O O6 0.210960 0.872032 0.406556
O O7 0.433721 0.902369 0.590165
O O8 0.147286 0.933827 0.634373
O O9 0.437708 0.147917 0.144892
O O10 0.597537 0.750000 0.750000
#
# Coordination Sequence:
#
# PCOD8201300 Si02
#       7
#     4   4   2   8   4   8   8
#     4  11  18  28  52  90 123 145 182 256 311 355
#     4  11  24  39  59  85 121 166 211 250 314 370
#     4   8  16  30  48  82 118 148 188 248 284 346
#     4  10  21  37  60  85 116 158 204 262 299 357
#     4  10  18  29  52  92 119 138 194 252 318 344
#     4  11  21  39  59  88 122 158 203 256 311 370
#     4  10  20  31  54  89 124 148 193 250 307 364
#
# _framework density 20.965071999999999
#
# number of rings (size 3 to 8) (size 9 to 14) (size 15 to 20)
#    0.632    1.053    2.105    5.053    0.000    0.000 
#    0.000    0.526    0.000    0.000    0.000    1.474 
#    0.000    0.000    0.000    0.000    0.000    0.000 
#
# Total GULP energy -470785.229607 kJ/mol
# GULP energy per Si atom -12389.084990 kJ/mol
# Density = 2.091735 g / cm^3
# Si number density = 20.965072 Si / 1000 Ang^3
#
#
#
# Elastic Constant Matrix: (Units=GPa)
#
#
# Indices 1 2 3 4 5 6 
#
# 1 37.7124 22.5969 15.4861 0.0000 0.0000 0.0000
# 2 22.5969 146.2030 56.3510 0.0000 0.0000 0.0000
# 3 15.4861 56.3510 123.6393 0.0000 0.0000 0.0000
# 4 0.0000 0.0000 0.0000 34.6862 0.0000 0.0000
# 5 0.0000 0.0000 0.0000 0.0000 4.8433 0.0000
# 6 0.0000 0.0000 0.0000 0.0000 0.0000 -9.0444
#
#
#
# Elastic Compliance Matrix: (Units=1/GPa)
#
#
# Indices 1 2 3 4 5 6 
#
# 1 0.029613 -0.003818 -0.001969 0.000000 0.000000 0.000000
# 2 -0.003818 0.008790 -0.003528 0.000000 0.000000 0.000000
# 3 -0.001969 -0.003528 0.009943 0.000000 0.000000 0.000000
# 4 0.000000 0.000000 0.000000 0.028830 0.000000 0.000000
# 5 0.000000 0.000000 0.000000 0.000000 0.206470 0.000000
# 6 0.000000 0.000000 0.000000 0.000000 0.000000 -0.110566
#
#
# Mechanical properties :
#
#
# Convention : Reuss Voigt Hill
#
# Bulk Modulus (GPa) = 33.65266 55.15809 44.40538
# Shear Modulus (GPa) = 24.79991 20.30507 22.55249
#
# Velocity S-wave (km/s) = 3.44309 3.11548 3.28337
# Velocity P-wave (km/s) = 5.64740 6.26963 5.96663
#
# Compressibility (1/GPa) = 0.02971533
#
# Stress axis : x y z
#
# Youngs Moduli (GPa) = 33.76931 113.77026 100.57796
#
# Poissons Ratio (x) = 0.43437 0.19803
# Poissons Ratio (y) = 0.12893 0.35482
# Poissons Ratio (z) = 0.06649 0.40136
#
# Static dielectric constant tensor:
#      x y z
#    x 3.232880 0.000000 0.000000 
#    y 0.000000 3.734260 0.000000 
#    z 0.000000 0.000000 4.138510 
# 
# 
# High freq. dielectric constant tensor:
#      x y z
#    x 1.771590 0.000000 0.000000 
#    y 0.000000 1.828400 0.000000 
#    z 0.000000 0.000000 1.829460 
# 
# From -- ./inp_files/9094.got.cif
#   From: 2010.06.25/outbox.cif.g09.slc.cpg/sg48_5_cif.got.tgz:9094.got - 2010.06.26 18:06:46.
