data_PCOD8201370
_publ_section_title
;
Structure prediction by ZEFSAII (Michael W. Deem and Ramdas Pophale) SiO2 
 PCOD8201370
Probable space group: P N N N
;
_chemical_formula_sum "Si O2"
_cell_formula_units_Z 48
_cell_length_a 8.124567
_cell_length_b 14.185559
_cell_length_c 23.605910
_cell_angle_alpha 90.000000
_cell_angle_beta 90.000000
_cell_angle_gamma 90.000000
_cell_volume 2720.617115
_symmetry_space_group_name_H-M "P N N N"
_symmetry_group_IT_number 48
_space_group.IT_coordinate_system_code '2'
_symmetry_cell_setting 'orthorhombic'
loop_
_space_group_symop_operation_xyz
x,y,z
1/2-x,1/2-y,z
x,1/2-y,1/2-z
1/2-x,y,1/2-z
-x,-y,-z
1/2+x,1/2+y,-z
-x,1/2+y,1/2+z
1/2+x,-y,1/2+z
loop_
_atom_site_type_symbol
_atom_site_label
_atom_site_fract_x
_atom_site_fract_y
_atom_site_fract_z
Si Si1 0.893898 0.870089 0.576314
Si Si2 0.312394 0.848607 0.687140
Si Si3 0.300220 0.356321 0.189935
Si Si4 0.279822 0.534433 0.593909
Si Si5 0.808614 0.649026 0.464834
Si Si6 0.588996 0.195524 0.463731
O O1 0.797848 0.894475 0.634569
O O2 0.776464 0.885265 0.522857
O O3 0.041539 0.944832 0.567629
O O4 0.964717 0.762265 0.573456
O O5 0.250000 0.750000 0.656795
O O6 0.250000 0.842612 0.750000
O O7 0.505681 0.864685 0.681691
O O8 0.216903 0.938538 0.660322
O O9 0.250000 0.250000 0.197159
O O10 0.250000 0.407544 0.250000
O O11 0.225997 0.427180 0.583872
O O12 0.136867 0.604731 0.572311
O O13 0.750000 0.750000 0.441794
O O14 0.001629 0.658887 0.478949
O O15 0.750000 0.250000 0.484630
#
# Coordination Sequence:
#
# PCOD8201370 Si02
#       6
#     8   8   8   8   8   8
#     4  10  19  32  46  69  99 129 160 196 241 288
#     4  11  21  33  49  73 100 127 156 193 240 294
#     4  11  19  29  46  69  99 131 156 186 233 293
#     4  11  19  31  50  71  96 127 163 199 239 290
#     4  10  20  33  48  68  96 129 165 203 240 284
#     4   9  18  30  48  70  97 129 161 198 241 289
#
# _framework density 17.643053999999999
#
# number of rings (size 3 to 8) (size 9 to 14) (size 15 to 20)
#    0.000    1.667    0.000   10.000    0.000    0.000 
#    0.000    0.000    0.000    0.500    0.000    0.000 
#    0.000    1.333    0.000    0.000    0.000    0.000 
#
# Total GULP energy -594858.007603 kJ/mol
# GULP energy per Si atom -12392.875158 kJ/mol
# Density = 1.760290 g / cm^3
# Si number density = 17.643054 Si / 1000 Ang^3
#
#
#
# Elastic Constant Matrix: (Units=GPa)
#
#
# Indices 1 2 3 4 5 6 
#
# 1 97.6491 29.2163 23.4668 0.0000 0.0000 0.0000
# 2 29.2163 85.4351 42.3042 0.0000 0.0000 0.0000
# 3 23.4668 42.3042 72.0849 0.0000 0.0000 0.0000
# 4 0.0000 0.0000 0.0000 24.8300 0.0000 0.0000
# 5 0.0000 0.0000 0.0000 0.0000 25.1637 0.0000
# 6 0.0000 0.0000 0.0000 0.0000 0.0000 14.9641
#
#
#
# Elastic Compliance Matrix: (Units=1/GPa)
#
#
# Indices 1 2 3 4 5 6 
#
# 1 0.011618 -0.002961 -0.002045 0.000000 0.000000 0.000000
# 2 -0.002961 0.017254 -0.009162 0.000000 0.000000 0.000000
# 3 -0.002045 -0.009162 0.019915 0.000000 0.000000 0.000000
# 4 0.000000 0.000000 0.000000 0.040274 0.000000 0.000000
# 5 0.000000 0.000000 0.000000 0.000000 0.039740 0.000000
# 6 0.000000 0.000000 0.000000 0.000000 0.000000 0.066827
#
#
# Mechanical properties :
#
#
# Convention : Reuss Voigt Hill
#
# Bulk Modulus (GPa) = 48.89393 49.46042 49.17718
# Shear Modulus (GPa) = 21.66577 23.67034 22.66806
#
# Velocity S-wave (km/s) = 3.50809 3.66679 3.58832
# Velocity P-wave (km/s) = 6.64695 6.78395 6.71580
#
# Compressibility (1/GPa) = 0.02045244
#
# Stress axis : x y z
#
# Youngs Moduli (GPa) = 86.07398 57.95821 50.21350
#
# Poissons Ratio (x) = 0.17159 0.10267
# Poissons Ratio (y) = 0.25482 0.46005
# Poissons Ratio (z) = 0.17600 0.53101
#
# Static dielectric constant tensor:
#      x y z
#    x 3.311450 0.000000 0.000000 
#    y 0.000000 3.010360 0.000000 
#    z 0.000000 0.000000 3.446350 
# 
# 
# High freq. dielectric constant tensor:
#      x y z
#    x 1.708290 0.000000 0.000000 
#    y 0.000000 1.630380 0.000000 
#    z 0.000000 0.000000 1.664020 
# 
# From -- ./inp_files/15956.got.cif
#   From: 2010.06.25/outbox.cif.g09.slc.cpg/sg48_8_cif.got.tgz:15956.got - 2010.06.26 18:06:46.
