data_PCOD8201862
_publ_section_title
;
Structure prediction by ZEFSAII (Michael W. Deem and Ramdas Pophale) SiO2 
 PCOD8201862
Probable space group: P N N N
;
_chemical_formula_sum "Si O2"
_cell_formula_units_Z 58
_cell_length_a 27.128082
_cell_length_b 8.474916
_cell_length_c 11.291375
_cell_angle_alpha 90.000000
_cell_angle_beta 90.000000
_cell_angle_gamma 90.000000
_cell_volume 2595.979885
_symmetry_space_group_name_H-M "P N N N"
_symmetry_group_IT_number 48
_space_group.IT_coordinate_system_code '2'
_symmetry_cell_setting 'orthorhombic'
loop_
_space_group_symop_operation_xyz
x,y,z
1/2-x,1/2-y,z
x,1/2-y,1/2-z
1/2-x,y,1/2-z
-x,-y,-z
1/2+x,1/2+y,-z
-x,1/2+y,1/2+z
1/2+x,-y,1/2+z
loop_
_atom_site_type_symbol
_atom_site_label
_atom_site_fract_x
_atom_site_fract_y
_atom_site_fract_z
Si Si1 0.003200 0.092875 0.194141
Si Si2 0.152328 0.157376 0.627580
Si Si3 0.042848 0.135808 0.640513
Si Si4 0.279853 0.896678 0.938640
Si Si5 0.147688 0.773947 0.110747
Si Si6 0.956977 0.324912 0.539059
Si Si7 0.305346 0.410398 0.048431
Si Si8 0.750000 0.750000 0.750000
O O1 0.028766 0.250000 0.250000
O O2 0.977058 0.029517 0.312355
O O3 0.959633 0.116245 0.096331
O O4 0.041807 0.970369 0.134611
O O5 0.154962 0.250000 0.750000
O O6 0.097007 0.113828 0.585689
O O7 0.172882 0.262308 0.521271
O O8 0.182523 0.992532 0.646226
O O9 0.047850 0.250000 0.750000
O O10 0.004152 0.209643 0.548486
O O11 0.250000 0.750000 0.877360
O O12 0.310303 0.833256 0.051637
O O13 0.240790 0.026329 0.975936
O O14 0.152599 0.750000 0.250000
O O15 0.092907 0.727748 0.065303
O O16 0.153965 0.955234 0.070062
O O17 0.286273 0.358642 0.175344
#
# Coordination Sequence:
#
# PCOD8201862 Si02
#       8
#     8   8   8   8   8   8   8   2
#     4  10  22  40  65  94 131 181 218 274 339 391
#     4  11  24  44  72 101 140 179 230 281 343 424
#     4   9  21  42  66  95 134 180 214 276 340 391
#     4  10  23  46  67  99 133 173 231 281 351 398
#     4  11  24  42  67  99 135 180 229 279 337 414
#     4  10  23  44  65  95 142 175 224 276 334 412
#     4  11  24  41  69  96 133 180 222 284 351 400
#     4  12  20  44  64  92 136 168 226 286 356 396
#
# _framework density 22.342237999999998
#
# number of rings (size 3 to 8) (size 9 to 14) (size 15 to 20)
#    0.000    1.655    1.379    2.069    9.655    3.586 
#    3.724    4.828    0.000    0.000    0.000    0.000 
#    0.000    0.000    0.000    0.000    0.000    0.000 
#
# Total GULP energy -718933.954097 kJ/mol
# GULP energy per Si atom -12395.413002 kJ/mol
# Density = 2.229139 g / cm^3
# Si number density = 22.342238 Si / 1000 Ang^3
#
#
#
# Elastic Constant Matrix: (Units=GPa)
#
#
# Indices 1 2 3 4 5 6 
#
# 1 120.4375 38.5522 7.3604 0.0000 0.0000 0.0000
# 2 38.5522 101.8607 22.4788 0.0000 0.0000 0.0000
# 3 7.3604 22.4788 57.5515 0.0000 0.0000 0.0000
# 4 0.0000 0.0000 0.0000 17.1935 0.0000 0.0000
# 5 0.0000 0.0000 0.0000 0.0000 24.7052 0.0000
# 6 0.0000 0.0000 0.0000 0.0000 0.0000 12.0941
#
#
#
# Elastic Compliance Matrix: (Units=1/GPa)
#
#
# Indices 1 2 3 4 5 6 
#
# 1 0.009450 -0.003622 0.000206 0.000000 0.000000 0.000000
# 2 -0.003622 0.012132 -0.004275 0.000000 0.000000 0.000000
# 3 0.000206 -0.004275 0.019019 0.000000 0.000000 0.000000
# 4 0.000000 0.000000 0.000000 0.058161 0.000000 0.000000
# 5 0.000000 0.000000 0.000000 0.000000 0.040477 0.000000
# 6 0.000000 0.000000 0.000000 0.000000 0.000000 0.082685
#
#
# Mechanical properties :
#
#
# Convention : Reuss Voigt Hill
#
# Bulk Modulus (GPa) = 39.65343 46.29249 42.97296
# Shear Modulus (GPa) = 20.34894 24.89579 22.62236
#
# Velocity S-wave (km/s) = 3.02119 3.34172 3.18549
# Velocity P-wave (km/s) = 5.47329 5.97111 5.72761
#
# Compressibility (1/GPa) = 0.02521850
#
# Stress axis : x y z
#
# Youngs Moduli (GPa) = 105.82131 82.42882 52.57839
#
# Poissons Ratio (x) = 0.29856 -0.01084
# Poissons Ratio (y) = 0.38329 0.22478
# Poissons Ratio (z) = -0.02182 0.35240
#
# Static dielectric constant tensor:
#      x y z
#    x 4.213230 0.000000 0.000000 
#    y 0.000000 4.752900 0.000000 
#    z 0.000000 0.000000 3.821740 
# 
# 
# High freq. dielectric constant tensor:
#      x y z
#    x 1.879470 0.000000 0.000000 
#    y 0.000000 1.890140 0.000000 
#    z 0.000000 0.000000 1.869380 
# 
# From -- ./inp_files/23647.got.cif
#   From: 2010.06.25/outbox.cif.g09.slc.cpg/sg48_12_cif.got.tgz:23647.got - 2010.06.26 18:06:46.
