data_PCOD8201809
_publ_section_title
;
Structure prediction by ZEFSAII (Michael W. Deem and Ramdas Pophale) SiO2 
 PCOD8201809
Probable space group: P N N N
;
_chemical_formula_sum "Si O2"
_cell_formula_units_Z 64
_cell_length_a 11.995103
_cell_length_b 8.385750
_cell_length_c 28.870991
_cell_angle_alpha 90.000000
_cell_angle_beta 90.000000
_cell_angle_gamma 90.000000
_cell_volume 2904.073366
_symmetry_space_group_name_H-M "P N N N"
_symmetry_group_IT_number 48
_space_group.IT_coordinate_system_code '2'
_symmetry_cell_setting 'orthorhombic'
loop_
_space_group_symop_operation_xyz
x,y,z
1/2-x,1/2-y,z
x,1/2-y,1/2-z
1/2-x,y,1/2-z
-x,-y,-z
1/2+x,1/2+y,-z
-x,1/2+y,1/2+z
1/2+x,-y,1/2+z
loop_
_atom_site_type_symbol
_atom_site_label
_atom_site_fract_x
_atom_site_fract_y
_atom_site_fract_z
Si Si1 0.037527 0.144494 0.424947
Si Si2 0.424026 0.428778 0.863635
Si Si3 0.345355 0.412948 0.121093
Si Si4 0.244749 0.573900 0.803805
Si Si5 0.528548 0.571813 0.344077
Si Si6 0.160079 0.627564 0.556733
Si Si7 0.260528 0.436900 0.472050
Si Si8 0.210974 0.926347 0.302603
O O1 0.137125 0.227264 0.393793
O O2 0.105200 0.041145 0.463611
O O3 0.957703 0.277160 0.449235
O O4 0.970726 0.034009 0.390279
O O5 0.536284 0.527588 0.861107
O O6 0.350017 0.469083 0.819112
O O7 0.453033 0.245234 0.864709
O O8 0.353980 0.478730 0.909001
O O9 0.303370 0.498039 0.074184
O O10 0.263130 0.439433 0.164210
O O11 0.250000 0.750000 0.827278
O O12 0.250000 0.595308 0.750000
O O13 0.131175 0.483207 0.813881
O O14 0.421961 0.563302 0.309978
O O15 0.250000 0.750000 0.577602
O O16 0.210954 0.555807 0.509885
O O17 0.250000 0.250000 0.485656
O O18 0.250000 0.750000 0.317941
O O19 0.250000 0.961270 0.250000
#
# Coordination Sequence:
#
# PCOD8201809 Si02
#       8
#     8   8   8   8   8   8   8   8
#     4  10  23  43  69  97 138 180 231 287 348 425
#     4  11  24  42  70  96 134 180 226 285 343 418
#     4  10  21  44  69  95 140 182 218 283 351 406
#     4  11  26  46  67  97 135 181 234 286 349 419
#     4  12  24  43  72 101 138 190 228 283 357 424
#     4  11  25  44  67  98 137 178 232 296 346 413
#     4  10  23  42  69  99 135 179 234 287 351 425
#     4  11  24  41  69 111 144 173 233 291 349 422
#
# _framework density 22.038011000000001
#
# number of rings (size 3 to 8) (size 9 to 14) (size 15 to 20)
#    0.000    1.250    2.500    3.000    1.750    9.500 
#    0.000    0.625    0.000    0.000    0.000    0.000 
#    0.000    0.000    0.000    0.000    0.000    0.000 
#
# Total GULP energy -793324.221097 kJ/mol
# GULP energy per Si atom -12395.690955 kJ/mol
# Density = 2.198785 g / cm^3
# Si number density = 22.038011 Si / 1000 Ang^3
#
#
#
# Elastic Constant Matrix: (Units=GPa)
#
#
# Indices 1 2 3 4 5 6 
#
# 1 133.7694 35.0402 56.5533 0.0000 0.0000 0.0000
# 2 35.0402 68.6621 50.9269 0.0000 0.0000 0.0000
# 3 56.5533 50.9269 122.6913 0.0000 0.0000 0.0000
# 4 0.0000 0.0000 0.0000 2748.5746 0.0000 0.0000
# 5 0.0000 0.0000 0.0000 0.0000 340.4601 0.0000
# 6 0.0000 0.0000 0.0000 0.0000 0.0000 33.1388
#
#
#
# Elastic Compliance Matrix: (Units=1/GPa)
#
#
# Indices 1 2 3 4 5 6 
#
# 1 0.009534 -0.002320 -0.003432 0.000000 0.000000 0.000000
# 2 -0.002320 0.021607 -0.007899 0.000000 0.000000 0.000000
# 3 -0.003432 -0.007899 0.013011 0.000000 0.000000 0.000000
# 4 0.000000 0.000000 0.000000 0.000364 0.000000 0.000000
# 5 0.000000 0.000000 0.000000 0.000000 0.002937 0.000000
# 6 0.000000 0.000000 0.000000 0.000000 0.000000 0.030176
#
#
# Mechanical properties :
#
#
# Convention : Reuss Voigt Hill
#
# Bulk Modulus (GPa) = 59.34658 67.79595 63.57126
# Shear Modulus (GPa) = 45.22921 636.60820 340.91870
#
# Velocity S-wave (km/s) = 4.53518 17.01456 12.45117
# Velocity P-wave (km/s) = 7.37641 20.41626 15.34984
#
# Compressibility (1/GPa) = 0.01685017
#
# Stress axis : x y z
#
# Youngs Moduli (GPa) = 104.88686 46.28119 76.85772
#
# Poissons Ratio (x) = 0.10739 0.26374
# Poissons Ratio (y) = 0.24337 0.60711
# Poissons Ratio (z) = 0.35992 0.36558
#
# Static dielectric constant tensor:
#      x y z
#    x 4.320380 0.000000 0.000000 
#    y 0.000000 3.797380 0.000000 
#    z 0.000000 0.000000 3.837480 
# 
# 
# High freq. dielectric constant tensor:
#      x y z
#    x 1.891490 0.000000 0.000000 
#    y 0.000000 1.865070 0.000000 
#    z 0.000000 0.000000 1.858660 
# 
# From -- ./inp_files/38979.got.cif
#   From: 2010.06.25/outbox.cif.g09.slc.cpg/sg48_20_cif.got.tgz:38979.got - 2010.06.26 18:06:46.
