data_PCOD8201137
_publ_section_title
;
Structure prediction by ZEFSAII (Michael W. Deem and Ramdas Pophale) SiO2 
 PCOD8201137
Probable space group: P M M M
;
_chemical_formula_sum "Si O2"
_cell_formula_units_Z 52
_cell_length_a 30.612749
_cell_length_b 10.540586
_cell_length_c 9.339665
_cell_angle_alpha 90.000000
_cell_angle_beta 90.000000
_cell_angle_gamma 90.000000
_cell_volume 3013.688672
_symmetry_space_group_name_H-M "P M M M"
_symmetry_group_IT_number 47
_symmetry_cell_setting 'orthorhombic'
loop_
_space_group_symop_operation_xyz
x,y,z
-x,-y,z
x,-y,-z
-x,y,-z
-x,-y,-z
x,y,-z
-x,y,z
x,-y,z
loop_
_atom_site_type_symbol
_atom_site_label
_atom_site_fract_x
_atom_site_fract_y
_atom_site_fract_z
Si Si1 0.363232 0.645337 0.156475
Si Si2 0.448446 0.000000 0.341605
Si Si3 0.048921 0.858579 0.669793
Si Si4 0.451225 0.240863 0.166138
Si Si5 0.284587 0.651608 0.339653
Si Si6 0.883701 0.646273 0.331350
Si Si7 0.797339 0.350139 0.839116
O O1 0.350613 0.500000 0.143980
O O2 0.414547 0.653699 0.199590
O O3 0.329904 0.705028 0.271656
O O4 0.356217 0.709935 0.000000
O O5 0.433379 0.122129 0.254650
O O6 0.500000 0.000000 0.353397
O O7 0.427276 0.000000 0.500000
O O8 0.048084 0.854203 0.500000
O O9 0.079395 0.743858 0.725579
O O10 0.000000 0.834898 0.729308
O O11 0.065088 0.000000 0.719033
O O12 0.500000 0.286275 0.214972
O O13 0.453020 0.203517 0.000000
O O14 0.280760 0.706734 0.500000
O O15 0.283755 0.500000 0.345213
O O16 0.244581 0.704818 0.244803
O O17 0.874883 0.661666 0.500000
O O18 0.897223 0.500000 0.296718
O O19 0.840372 0.687730 0.248083
O O20 0.793192 0.500000 0.848090
O O21 0.799071 0.292906 0.000000
#
# Coordination Sequence:
#
# PCOD8201137 Si02
#       7
#     8   4   8   8   8   8   8
#     4   9  17  28  42  63  91 120 148 176 211 259
#     4   9  17  29  45  63  81 103 137 181 221 255
#     4   8  14  25  41  62  89 121 155 187 220 261
#     4   9  17  29  45  64  86 113 145 180 217 258
#     4   9  16  26  41  61  86 115 146 179 214 255
#     4   9  16  25  40  65  92 114 143 186 230 266
#     4   9  16  26  41  61  86 114 142 175 218 265
#
# _framework density 17.254602999999999
#
# number of rings (size 3 to 8) (size 9 to 14) (size 15 to 20)
#    0.000    3.154    0.000    1.615    0.000    5.846 
#    0.000    3.077    0.000    0.923    2.000    7.538 
#    0.000    0.000    0.000    0.000    0.000    0.000 
#
# Total GULP energy -644254.876286 kJ/mol
# GULP energy per Si atom -12389.516852 kJ/mol
# Density = 1.721533 g / cm^3
# Si number density = 17.254603 Si / 1000 Ang^3
#
#
#
# Elastic Constant Matrix: (Units=GPa)
#
#
# Indices 1 2 3 4 5 6 
#
# 1 139.1415 43.3351 57.4110 0.0000 0.0000 0.0000
# 2 43.3351 45.0719 23.5717 0.0000 0.0000 0.0000
# 3 57.4110 23.5717 83.8570 0.0000 0.0000 0.0000
# 4 0.0000 0.0000 0.0000 8.9686 0.0000 0.0000
# 5 0.0000 0.0000 0.0000 0.0000 22.0233 0.0000
# 6 0.0000 0.0000 0.0000 0.0000 0.0000 6.8937
#
#
#
# Elastic Compliance Matrix: (Units=1/GPa)
#
#
# Indices 1 2 3 4 5 6 
#
# 1 0.012407 -0.008777 -0.006027 0.000000 0.000000 0.000000
# 2 -0.008777 0.032220 -0.003048 0.000000 0.000000 0.000000
# 3 -0.006027 -0.003048 0.016908 0.000000 0.000000 0.000000
# 4 0.000000 0.000000 0.000000 0.111500 0.000000 0.000000
# 5 0.000000 0.000000 0.000000 0.000000 0.045407 0.000000
# 6 0.000000 0.000000 0.000000 0.000000 0.000000 0.145059
#
#
# Mechanical properties :
#
#
# Convention : Reuss Voigt Hill
#
# Bulk Modulus (GPa) = 38.71312 57.41180 48.06246
# Shear Modulus (GPa) = 12.26043 17.16062 14.71053
#
# Velocity S-wave (km/s) = 2.66853 3.15708 2.92303
# Velocity P-wave (km/s) = 5.65507 6.82899 6.26956
#
# Compressibility (1/GPa) = 0.02583104
#
# Stress axis : x y z
#
# Youngs Moduli (GPa) = 80.59660 31.03700 59.14289
#
# Poissons Ratio (x) = 0.27242 0.35647
# Poissons Ratio (y) = 0.70741 0.18025
# Poissons Ratio (z) = 0.48578 0.09459
#
# Static dielectric constant tensor:
#      x y z
#    x 3.363860 0.000000 0.000000 
#    y 0.000000 2.930450 0.000000 
#    z 0.000000 0.000000 3.335070 
# 
# 
# High freq. dielectric constant tensor:
#      x y z
#    x 1.668970 0.000000 0.000000 
#    y 0.000000 1.613210 0.000000 
#    z 0.000000 0.000000 1.656340 
# 
# From -- ./inp_files/4569.got.cif
#   From: 2010.03.12/outbox.cif.g09.slc.cpg/sg47_3_cif.got.tgz:4569.got - 2010.04.14 03:12:58.
