data_PCOD8201410
_publ_section_title
;
Structure prediction by ZEFSAII (Michael W. Deem and Ramdas Pophale) SiO2 
 PCOD8201410
Probable space group: P N N N
;
_chemical_formula_sum "Si O2"
_cell_formula_units_Z 40
_cell_length_a 7.672080
_cell_length_b 16.196679
_cell_length_c 16.265958
_cell_angle_alpha 90.000000
_cell_angle_beta 90.000000
_cell_angle_gamma 90.000000
_cell_volume 2021.244003
_symmetry_space_group_name_H-M "P N N N"
_symmetry_group_IT_number 48
_space_group.IT_coordinate_system_code '2'
_symmetry_cell_setting 'orthorhombic'
loop_
_space_group_symop_operation_xyz
x,y,z
1/2-x,1/2-y,z
x,1/2-y,1/2-z
1/2-x,y,1/2-z
-x,-y,-z
1/2+x,1/2+y,-z
-x,1/2+y,1/2+z
1/2+x,-y,1/2+z
loop_
_atom_site_type_symbol
_atom_site_label
_atom_site_fract_x
_atom_site_fract_y
_atom_site_fract_z
Si Si1 0.652951 0.836698 0.083077
Si Si2 0.014211 0.075495 0.439313
Si Si3 0.685857 0.506199 0.842872
Si Si4 0.805001 0.334601 0.843009
Si Si5 0.788987 0.999705 0.154648
O O1 0.750000 0.750000 0.083409
O O2 0.513962 0.841073 0.156715
O O3 0.779106 0.914779 0.101231
O O4 0.541582 0.844157 0.997188
O O5 0.191500 0.072621 0.386540
O O6 0.000000 0.000000 0.500000
O O7 0.842827 0.070757 0.380497
O O8 0.750000 0.499584 0.750000
O O9 0.716403 0.415433 0.884120
O O10 0.485844 0.533716 0.853084
O O11 0.750000 0.250000 0.890133
O O12 0.750000 0.327928 0.750000
O O13 0.750000 0.981900 0.250000
#
# Coordination Sequence:
#
# PCOD8201410 Si02
#       5
#     8   8   8   8   8
#     4  11  23  39  55  84 125 162 193 242 306 361
#     4  10  21  39  55  85 123 149 198 248 287 360
#     4  11  19  35  60  86 115 152 199 248 293 347
#     4  10  19  34  52  82 120 153 191 235 285 364
#     4  11  20  36  63  90 116 155 199 249 302 352
#
# _framework density 19.789794000000001
#
# number of rings (size 3 to 8) (size 9 to 14) (size 15 to 20)
#    0.000    1.400    6.000    2.400    0.000    5.200 
#    3.600    0.000    0.000    0.600    0.000    1.400 
#    0.000    0.000    0.000    0.000    0.000    0.000 
#
# Total GULP energy -495561.797054 kJ/mol
# GULP energy per Si atom -12389.044926 kJ/mol
# Density = 1.974475 g / cm^3
# Si number density = 19.789794 Si / 1000 Ang^3
#
#
#
# Elastic Constant Matrix: (Units=GPa)
#
#
# Indices 1 2 3 4 5 6 
#
# 1 183.7615 31.9707 47.6563 0.0000 0.0000 0.0000
# 2 31.9707 41.5144 29.9068 0.0000 0.0000 0.0000
# 3 47.6563 29.9068 78.0580 0.0000 0.0000 0.0000
# 4 0.0000 0.0000 0.0000 11.1740 0.0000 0.0000
# 5 0.0000 0.0000 0.0000 0.0000 35.2824 0.0000
# 6 0.0000 0.0000 0.0000 0.0000 0.0000 17.3910
#
#
#
# Elastic Compliance Matrix: (Units=1/GPa)
#
#
# Indices 1 2 3 4 5 6 
#
# 1 0.006738 -0.003074 -0.002936 0.000000 0.000000 0.000000
# 2 -0.003074 0.034674 -0.011408 0.000000 0.000000 0.000000
# 3 -0.002936 -0.011408 0.018974 0.000000 0.000000 0.000000
# 4 0.000000 0.000000 0.000000 0.089493 0.000000 0.000000
# 5 0.000000 0.000000 0.000000 0.000000 0.028343 0.000000
# 6 0.000000 0.000000 0.000000 0.000000 0.000000 0.057501
#
#
# Mechanical properties :
#
#
# Convention : Reuss Voigt Hill
#
# Bulk Modulus (GPa) = 39.13882 58.04461 48.59172
# Shear Modulus (GPa) = 17.91629 25.68950 21.80290
#
# Velocity S-wave (km/s) = 3.01213 3.60685 3.32282
# Velocity P-wave (km/s) = 5.64956 6.83667 6.27127
#
# Compressibility (1/GPa) = 0.02555008
#
# Stress axis : x y z
#
# Youngs Moduli (GPa) = 148.41066 28.84034 52.70294
#
# Poissons Ratio (x) = 0.08865 0.15474
# Poissons Ratio (y) = 0.45621 0.60123
# Poissons Ratio (z) = 0.43573 0.32901
#
# Static dielectric constant tensor:
#      x y z
#    x 4.152550 0.000000 0.000000 
#    y 0.000000 4.004820 0.000000 
#    z 0.000000 0.000000 3.989220 
# 
# 
# High freq. dielectric constant tensor:
#      x y z
#    x 1.785700 0.000000 0.000000 
#    y 0.000000 1.725730 0.000000 
#    z 0.000000 0.000000 1.763350 
# 
# From -- ./inp_files/25476.got.cif
#   From: 2010.06.25/outbox.cif.g09.slc.cpg/sg48_13_cif.got.tgz:25476.got - 2010.06.26 18:06:46.
