data_PCOD8201880
_publ_section_title
;
Structure prediction by ZEFSAII (Michael W. Deem and Ramdas Pophale) SiO2 
 PCOD8201880
Probable space group: P N N N
;
_chemical_formula_sum "Si O2"
_cell_formula_units_Z 28
_cell_length_a 18.347733
_cell_length_b 6.174735
_cell_length_c 11.395187
_cell_angle_alpha 90.000000
_cell_angle_beta 90.000000
_cell_angle_gamma 90.000000
_cell_volume 1290.987960
_symmetry_space_group_name_H-M "P N N N"
_symmetry_group_IT_number 48
_space_group.IT_coordinate_system_code '2'
_symmetry_cell_setting 'orthorhombic'
loop_
_space_group_symop_operation_xyz
x,y,z
1/2-x,1/2-y,z
x,1/2-y,1/2-z
1/2-x,y,1/2-z
-x,-y,-z
1/2+x,1/2+y,-z
-x,1/2+y,1/2+z
1/2+x,-y,1/2+z
loop_
_atom_site_type_symbol
_atom_site_label
_atom_site_fract_x
_atom_site_fract_y
_atom_site_fract_z
Si Si1 0.165478 0.235485 0.121318
Si Si2 0.919751 0.485019 0.050402
Si Si3 0.639431 0.750000 0.250000
Si Si4 0.677240 0.102644 0.428689
O O1 0.250000 0.250000 0.139942
O O2 0.127233 0.250000 0.250000
O O3 0.137273 0.440131 0.048470
O O4 0.154614 0.011523 0.051032
O O5 0.916274 0.640154 0.161368
O O6 0.894047 0.249255 0.094924
O O7 0.000000 0.500000 0.000000
O O8 0.688506 0.574625 0.176522
O O9 0.750000 0.250000 0.435334
#
# Coordination Sequence:
#
# PCOD8201880 Si02
#       4
#     8   8   4   8
#     4  10  22  42  65  97 135 174 228 271 327 406
#     4  11  25  43  67 101 135 174 223 275 343 396
#     4  10  26  43  68 100 137 172 228 276 337 400
#     4  11  23  44  69  99 133 179 226 277 335 394
#
# _framework density 21.688815000000002
#
# number of rings (size 3 to 8) (size 9 to 14) (size 15 to 20)
#    0.000    1.429    2.857    0.857    0.000   13.714 
#    0.000    0.000    0.000    0.000    0.000    0.000 
#    0.000    0.000    0.000    0.000    0.000    0.000 
#
# Total GULP energy -346954.449581 kJ/mol
# GULP energy per Si atom -12391.230342 kJ/mol
# Density = 2.163945 g / cm^3
# Si number density = 21.688815 Si / 1000 Ang^3
#
#
#
# Elastic Constant Matrix: (Units=GPa)
#
#
# Indices 1 2 3 4 5 6 
#
# 1 88.5561 49.5989 36.3891 0.0000 0.0000 0.0000
# 2 49.5989 139.8407 70.8294 0.0000 0.0000 0.0000
# 3 36.3891 70.8294 178.6655 0.0000 0.0000 0.0000
# 4 0.0000 0.0000 0.0000 27.9903 0.0000 0.0000
# 5 0.0000 0.0000 0.0000 0.0000 25.2564 0.0000
# 6 0.0000 0.0000 0.0000 0.0000 0.0000 25.5854
#
#
#
# Elastic Compliance Matrix: (Units=1/GPa)
#
#
# Indices 1 2 3 4 5 6 
#
# 1 0.014270 -0.004491 -0.001126 0.000000 0.000000 0.000000
# 2 -0.004491 0.010361 -0.003193 0.000000 0.000000 0.000000
# 3 -0.001126 -0.003193 0.007092 0.000000 0.000000 0.000000
# 4 0.000000 0.000000 0.000000 0.035727 0.000000 0.000000
# 5 0.000000 0.000000 0.000000 0.000000 0.039594 0.000000
# 6 0.000000 0.000000 0.000000 0.000000 0.000000 0.039085
#
#
# Mechanical properties :
#
#
# Convention : Reuss Voigt Hill
#
# Bulk Modulus (GPa) = 70.90329 80.07745 75.49037
# Shear Modulus (GPa) = 29.68241 32.44942 31.06592
#
# Velocity S-wave (km/s) = 3.70342 3.87219 3.78874
# Velocity P-wave (km/s) = 7.14487 7.54937 7.34991
#
# Compressibility (1/GPa) = 0.01410372
#
# Stress axis : x y z
#
# Youngs Moduli (GPa) = 70.07517 96.51525 141.00149
#
# Poissons Ratio (x) = 0.43346 0.15877
# Poissons Ratio (y) = 0.31472 0.45019
# Poissons Ratio (z) = 0.07891 0.30815
#
# Static dielectric constant tensor:
#      x y z
#    x 3.511430 0.000000 0.000000 
#    y 0.000000 4.228940 0.000000 
#    z 0.000000 0.000000 5.868660 
# 
# 
# High freq. dielectric constant tensor:
#      x y z
#    x 1.825570 0.000000 0.000000 
#    y 0.000000 1.863140 0.000000 
#    z 0.000000 0.000000 1.871170 
# 
# From -- ./inp_files/1772.got.cif
#   From: 2010.06.25/outbox.cif.g09.slc.cpg/sg48_1_cif.got.tgz:1772.got - 2010.06.26 18:06:46.
