data_PCOD8201569
_publ_section_title
;
Structure prediction by ZEFSAII (Michael W. Deem and Ramdas Pophale) SiO2 
 PCOD8201569
Probable space group: P N N N
;
_chemical_formula_sum "Si O2"
_cell_formula_units_Z 28
_cell_length_a 13.177840
_cell_length_b 18.819343
_cell_length_c 4.979918
_cell_angle_alpha 90.000000
_cell_angle_beta 90.000000
_cell_angle_gamma 90.000000
_cell_volume 1235.011153
_symmetry_space_group_name_H-M "P N N N"
_symmetry_group_IT_number 48
_space_group.IT_coordinate_system_code '2'
_symmetry_cell_setting 'orthorhombic'
loop_
_space_group_symop_operation_xyz
x,y,z
1/2-x,1/2-y,z
x,1/2-y,1/2-z
1/2-x,y,1/2-z
-x,-y,-z
1/2+x,1/2+y,-z
-x,1/2+y,1/2+z
1/2+x,-y,1/2+z
loop_
_atom_site_type_symbol
_atom_site_label
_atom_site_fract_x
_atom_site_fract_y
_atom_site_fract_z
Si Si1 0.036030 0.830677 0.743777
Si Si2 0.838221 0.504002 0.912061
Si Si3 0.517111 0.582166 0.233907
Si Si4 0.250000 0.616994 0.750000
O O1 0.997601 0.750000 0.750000
O O2 0.154160 0.834317 0.835012
O O3 0.020307 0.859060 0.445297
O O4 0.969850 0.879823 0.946420
O O5 0.750000 0.546549 0.750000
O O6 0.935062 0.482975 0.722925
O O7 0.875227 0.549813 0.168417
O O8 0.784010 0.431616 0.003130
#
# Coordination Sequence:
#
# PCOD8201569 Si02
#       4
#     8   8   8   4
#     4  11  22  39  57  86 125 168 207 253 309 398
#     4  10  20  36  59  89 126 154 206 268 324 385
#     4  10  23  36  59  88 122 163 206 257 326 374
#     4  10  21  34  60  90 121 156 206 254 336 370
#
# _framework density 22.671856999999999
#
# number of rings (size 3 to 8) (size 9 to 14) (size 15 to 20)
#    0.000    1.714    2.857    1.286    4.000    3.429 
#    0.000    2.857    0.000    0.857    0.000    0.000 
#    0.000    0.000    0.000    0.000    0.000    0.000 
#
# Total GULP energy -347211.974893 kJ/mol
# GULP energy per Si atom -12400.427675 kJ/mol
# Density = 2.262026 g / cm^3
# Si number density = 22.671857 Si / 1000 Ang^3
#
#
#
# Elastic Constant Matrix: (Units=GPa)
#
#
# Indices 1 2 3 4 5 6 
#
# 1 94.8026 22.6497 15.5944 0.0000 0.0000 0.0000
# 2 22.6497 96.3402 5.1845 0.0000 0.0000 0.0000
# 3 15.5944 5.1845 53.2521 0.0000 0.0000 0.0000
# 4 0.0000 0.0000 0.0000 29.8697 0.0000 0.0000
# 5 0.0000 0.0000 0.0000 0.0000 38.7998 0.0000
# 6 0.0000 0.0000 0.0000 0.0000 0.0000 15.0491
#
#
#
# Elastic Compliance Matrix: (Units=1/GPa)
#
#
# Indices 1 2 3 4 5 6 
#
# 1 0.011685 -0.002577 -0.003171 0.000000 0.000000 0.000000
# 2 -0.002577 0.011003 -0.000317 0.000000 0.000000 0.000000
# 3 -0.003171 -0.000317 0.019738 0.000000 0.000000 0.000000
# 4 0.000000 0.000000 0.000000 0.033479 0.000000 0.000000
# 5 0.000000 0.000000 0.000000 0.000000 0.025773 0.000000
# 6 0.000000 0.000000 0.000000 0.000000 0.000000 0.066449
#
#
# Mechanical properties :
#
#
# Convention : Reuss Voigt Hill
#
# Bulk Modulus (GPa) = 33.00611 36.80579 34.90595
# Shear Modulus (GPa) = 26.26667 30.14148 28.20407
#
# Velocity S-wave (km/s) = 3.40745 3.65014 3.53088
# Velocity P-wave (km/s) = 5.48368 5.83387 5.66149
#
# Compressibility (1/GPa) = 0.03029742
#
# Stress axis : x y z
#
# Youngs Moduli (GPa) = 85.57652 90.88690 50.66353
#
# Poissons Ratio (x) = 0.23418 0.16066
# Poissons Ratio (y) = 0.22050 0.01604
# Poissons Ratio (z) = 0.27137 0.02878
#
# Static dielectric constant tensor:
#      x y z
#    x 4.305860 0.000000 0.000000 
#    y 0.000000 3.739770 0.000000 
#    z 0.000000 0.000000 3.927280 
# 
# 
# High freq. dielectric constant tensor:
#      x y z
#    x 1.883560 0.000000 0.000000 
#    y 0.000000 1.859890 0.000000 
#    z 0.000000 0.000000 1.902770 
# 
# From -- ./inp_files/1747.got.cif
#   From: 2010.06.25/outbox.cif.g09.slc.cpg/sg48_1_cif.got.tgz:1747.got - 2010.06.26 18:06:46.
