data_PCOD8201436
_publ_section_title
;
Structure prediction by ZEFSAII (Michael W. Deem and Ramdas Pophale) SiO2 
 PCOD8201436
Probable space group: P N N N
;
_chemical_formula_sum "Si O2"
_cell_formula_units_Z 58
_cell_length_a 7.796180
_cell_length_b 15.037748
_cell_length_c 23.288100
_cell_angle_alpha 90.000000
_cell_angle_beta 90.000000
_cell_angle_gamma 90.000000
_cell_volume 2730.226752
_symmetry_space_group_name_H-M "P N N N"
_symmetry_group_IT_number 48
_space_group.IT_coordinate_system_code '2'
_symmetry_cell_setting 'orthorhombic'
loop_
_space_group_symop_operation_xyz
x,y,z
1/2-x,1/2-y,z
x,1/2-y,1/2-z
1/2-x,y,1/2-z
-x,-y,-z
1/2+x,1/2+y,-z
-x,1/2+y,1/2+z
1/2+x,-y,1/2+z
loop_
_atom_site_type_symbol
_atom_site_label
_atom_site_fract_x
_atom_site_fract_y
_atom_site_fract_z
Si Si1 0.934387 0.355727 0.157712
Si Si2 0.540930 0.947223 0.192154
Si Si3 0.750000 0.250000 0.250000
Si Si4 0.622021 0.095624 0.410948
Si Si5 0.632581 0.420973 0.505443
Si Si6 0.069960 0.442495 0.673964
Si Si7 0.435662 0.264567 0.445106
Si Si8 0.751063 0.146905 0.625197
O O1 0.994757 0.457190 0.163983
O O2 0.888865 0.311030 0.217762
O O3 0.758156 0.345094 0.123069
O O4 0.077816 0.305935 0.119514
O O5 0.525933 0.962107 0.260087
O O6 0.729518 0.912643 0.171620
O O7 0.396854 0.877349 0.172148
O O8 0.716527 0.045646 0.463316
O O9 0.495117 0.163286 0.441171
O O10 0.534715 0.028705 0.365683
O O11 0.500000 0.500000 0.500000
O O12 0.550078 0.326429 0.486619
O O13 0.709064 0.411375 0.568971
O O14 0.939683 0.369028 0.650157
O O15 0.250000 0.250000 0.472779
O O16 0.750000 0.250000 0.609732
#
# Coordination Sequence:
#
# PCOD8201436 Si02
#       8
#     8   8   2   8   8   8   8   8
#     4  10  19  35  61  90 134 175 215 266 329 402
#     4  10  23  44  65  99 141 174 230 287 343 416
#     4  12  16  32  62  92 124 190 226 248 326 416
#     4  10  20  41  65  93 131 174 217 266 340 408
#     4  11  24  46  68  96 134 175 220 293 346 410
#     4  10  23  42  70  98 133 182 221 283 350 416
#     4  11  23  39  61  96 135 172 219 276 333 405
#     4  12  26  46  70  98 132 179 239 289 350 413
#
# _framework density 21.243656999999999
#
# number of rings (size 3 to 8) (size 9 to 14) (size 15 to 20)
#    0.000    1.379    1.379    6.621    3.862    2.207 
#    7.448    1.724    0.000    0.000    0.000    0.000 
#    0.000    0.000    0.000    0.000    0.000    0.000 
#
# Total GULP energy -718887.266702 kJ/mol
# GULP energy per Si atom -12394.608047 kJ/mol
# Density = 2.119531 g / cm^3
# Si number density = 21.243657 Si / 1000 Ang^3
#
#
#
# Elastic Constant Matrix: (Units=GPa)
#
#
# Indices 1 2 3 4 5 6 
#
# 1 94.1872 39.2936 41.2963 0.0000 0.0000 0.0000
# 2 39.2936 83.1031 28.5163 0.0000 0.0000 0.0000
# 3 41.2963 28.5163 110.0219 0.0000 0.0000 0.0000
# 4 0.0000 0.0000 0.0000 35.1633 0.0000 0.0000
# 5 0.0000 0.0000 0.0000 0.0000 29.4110 0.0000
# 6 0.0000 0.0000 0.0000 0.0000 0.0000 34.3353
#
#
#
# Elastic Compliance Matrix: (Units=1/GPa)
#
#
# Indices 1 2 3 4 5 6 
#
# 1 0.014730 -0.005562 -0.004087 0.000000 0.000000 0.000000
# 2 -0.005562 0.015308 -0.001880 0.000000 0.000000 0.000000
# 3 -0.004087 -0.001880 0.011110 0.000000 0.000000 0.000000
# 4 0.000000 0.000000 0.000000 0.028439 0.000000 0.000000
# 5 0.000000 0.000000 0.000000 0.000000 0.034001 0.000000
# 6 0.000000 0.000000 0.000000 0.000000 0.000000 0.029125
#
#
# Mechanical properties :
#
#
# Convention : Reuss Voigt Hill
#
# Bulk Modulus (GPa) = 55.27935 56.16940 55.72438
# Shear Modulus (GPa) = 30.90219 31.66231 31.28225
#
# Velocity S-wave (km/s) = 3.81813 3.86480 3.84154
# Velocity P-wave (km/s) = 6.74652 6.81275 6.77972
#
# Compressibility (1/GPa) = 0.01808994
#
# Stress axis : x y z
#
# Youngs Moduli (GPa) = 67.89066 65.32407 90.00551
#
# Poissons Ratio (x) = 0.36334 0.36786
# Poissons Ratio (y) = 0.37762 0.16921
# Poissons Ratio (z) = 0.27747 0.12281
#
# Static dielectric constant tensor:
#      x y z
#    x 3.831080 0.000000 0.000000 
#    y 0.000000 3.624500 0.000000 
#    z 0.000000 0.000000 4.048830 
# 
# 
# High freq. dielectric constant tensor:
#      x y z
#    x 1.824990 0.000000 0.000000 
#    y 0.000000 1.824170 0.000000 
#    z 0.000000 0.000000 1.843410 
# 
# From -- ./inp_files/37549.got.cif
#   From: 2010.06.25/outbox.cif.g09.slc.cpg/sg48_19_cif.got.tgz:37549.got - 2010.06.26 18:06:46.
