data_PCOD8201915
_publ_section_title
;
Structure prediction by ZEFSAII (Michael W. Deem and Ramdas Pophale) SiO2 
 PCOD8201915
Probable space group: P N N N
;
_chemical_formula_sum "Si O2"
_cell_formula_units_Z 64
_cell_length_a 5.644550
_cell_length_b 27.841951
_cell_length_c 17.996491
_cell_angle_alpha 90.000000
_cell_angle_beta 90.000000
_cell_angle_gamma 90.000000
_cell_volume 2828.243663
_symmetry_space_group_name_H-M "P N N N"
_symmetry_group_IT_number 48
_space_group.IT_coordinate_system_code '2'
_symmetry_cell_setting 'orthorhombic'
loop_
_space_group_symop_operation_xyz
x,y,z
1/2-x,1/2-y,z
x,1/2-y,1/2-z
1/2-x,y,1/2-z
-x,-y,-z
1/2+x,1/2+y,-z
-x,1/2+y,1/2+z
1/2+x,-y,1/2+z
loop_
_atom_site_type_symbol
_atom_site_label
_atom_site_fract_x
_atom_site_fract_y
_atom_site_fract_z
Si Si1 0.650615 0.046439 0.479899
Si Si2 0.493117 0.361047 0.292120
Si Si3 0.077219 0.208690 0.556288
Si Si4 0.021385 0.942154 0.387655
Si Si5 0.752559 0.345759 0.835737
Si Si6 0.870649 0.620224 0.436932
Si Si7 0.007308 0.726218 0.893727
Si Si8 0.385254 0.537282 0.674542
O O1 0.886546 0.046395 0.529678
O O2 0.529387 0.098025 0.497669
O O3 0.702570 0.045259 0.392876
O O4 0.500000 0.000000 0.500000
O O5 0.750000 0.357570 0.250000
O O6 0.507081 0.327704 0.363904
O O7 0.451296 0.415718 0.318745
O O8 0.250000 0.345814 0.250000
O O9 0.250000 0.250000 0.587775
O O10 0.194355 0.158823 0.527649
O O11 0.952911 0.228377 0.482276
O O12 0.896859 0.195814 0.622033
O O13 0.153336 0.899847 0.344805
O O14 0.750442 0.925581 0.397224
O O15 0.046145 0.990572 0.339973
O O16 0.750000 0.331075 0.750000
O O17 0.495504 0.347963 0.872792
O O18 0.750000 0.750000 0.872272
O O19 0.250000 0.750000 0.859618
O O20 0.250000 0.527035 0.750000
#
# Coordination Sequence:
#
# PCOD8201915 Si02
#       8
#     8   8   8   8   8   8   8   8
#     4  11  23  41  68  97 132 187 248 286 353 422
#     4  11  27  48  69 109 149 188 236 297 375 435
#     4  10  25  43  68 100 135 173 231 294 360 429
#     4  10  23  41  65  99 132 185 238 291 338 426
#     4  10  24  42  69 100 132 182 232 289 359 428
#     4  10  23  42  68  96 131 182 230 303 340 434
#     4  11  26  46  79 106 136 191 241 300 355 437
#     4  11  26  41  64 103 145 184 229 299 360 423
#
# _framework density 22.628882999999998
#
# number of rings (size 3 to 8) (size 9 to 14) (size 15 to 20)
#    0.000    1.500    1.250    1.125   10.500    7.500 
#    0.000    1.875    0.000    0.000    0.000    0.000 
#    0.000    0.000    0.000    0.000    0.000    0.000 
#
# Total GULP energy -793119.819451 kJ/mol
# GULP energy per Si atom -12392.497179 kJ/mol
# Density = 2.257738 g / cm^3
# Si number density = 22.628883 Si / 1000 Ang^3
#
#
#
# Elastic Constant Matrix: (Units=GPa)
#
#
# Indices 1 2 3 4 5 6 
#
# 1 117.5899 33.8065 36.3739 0.0000 0.0000 0.0000
# 2 33.8065 110.3363 24.0044 0.0000 0.0000 0.0000
# 3 36.3739 24.0044 113.4262 0.0000 0.0000 0.0000
# 4 0.0000 0.0000 0.0000 34.4476 0.0000 0.0000
# 5 0.0000 0.0000 0.0000 0.0000 20.2448 0.0000
# 6 0.0000 0.0000 0.0000 0.0000 0.0000 27.8793
#
#
#
# Elastic Compliance Matrix: (Units=1/GPa)
#
#
# Indices 1 2 3 4 5 6 
#
# 1 0.010055 -0.002494 -0.002697 0.000000 0.000000 0.000000
# 2 -0.002494 0.010119 -0.001342 0.000000 0.000000 0.000000
# 3 -0.002697 -0.001342 0.009965 0.000000 0.000000 0.000000
# 4 0.000000 0.000000 0.000000 0.029030 0.000000 0.000000
# 5 0.000000 0.000000 0.000000 0.000000 0.049395 0.000000
# 6 0.000000 0.000000 0.000000 0.000000 0.000000 0.035869
#
#
# Mechanical properties :
#
#
# Convention : Reuss Voigt Hill
#
# Bulk Modulus (GPa) = 58.56715 58.85801 58.71258
# Shear Modulus (GPa) = 30.63906 32.99218 31.81562
#
# Velocity S-wave (km/s) = 3.68364 3.82248 3.75370
# Velocity P-wave (km/s) = 6.63551 6.74895 6.69247
#
# Compressibility (1/GPa) = 0.01707442
#
# Stress axis : x y z
#
# Youngs Moduli (GPa) = 99.44917 98.82087 100.35076
#
# Poissons Ratio (x) = 0.24648 0.27062
# Poissons Ratio (y) = 0.24805 0.13464
# Poissons Ratio (z) = 0.26819 0.13259
#
# Static dielectric constant tensor:
#      x y z
#    x 4.289210 0.000000 0.000000 
#    y 0.000000 4.297910 0.000000 
#    z 0.000000 0.000000 3.904630 
# 
# 
# High freq. dielectric constant tensor:
#      x y z
#    x 1.893040 0.000000 0.000000 
#    y 0.000000 1.911970 0.000000 
#    z 0.000000 0.000000 1.877550 
# 
# From -- ./inp_files/29677.got.cif
#   From: 2010.06.25/outbox.cif.g09.slc.cpg/sg48_15_cif.got.tgz:29677.got - 2010.06.26 18:06:46.
