data_PCOD8201612
_publ_section_title
;
Structure prediction by ZEFSAII (Michael W. Deem and Ramdas Pophale) SiO2 
 PCOD8201612
Probable space group: P N N N
;
_chemical_formula_sum "Si O2"
_cell_formula_units_Z 48
_cell_length_a 5.548302
_cell_length_b 23.884903
_cell_length_c 17.335536
_cell_angle_alpha 90.000000
_cell_angle_beta 90.000000
_cell_angle_gamma 90.000000
_cell_volume 2297.316587
_symmetry_space_group_name_H-M "P N N N"
_symmetry_group_IT_number 48
_space_group.IT_coordinate_system_code '2'
_symmetry_cell_setting 'orthorhombic'
loop_
_space_group_symop_operation_xyz
x,y,z
1/2-x,1/2-y,z
x,1/2-y,1/2-z
1/2-x,y,1/2-z
-x,-y,-z
1/2+x,1/2+y,-z
-x,1/2+y,1/2+z
1/2+x,-y,1/2+z
loop_
_atom_site_type_symbol
_atom_site_label
_atom_site_fract_x
_atom_site_fract_y
_atom_site_fract_z
Si Si1 0.750000 0.750000 0.414590
Si Si2 0.925406 0.460914 0.819979
Si Si3 0.507395 0.084098 0.207930
Si Si4 0.721822 0.871182 0.104258
Si Si5 0.881460 0.446867 0.537189
Si Si6 0.410938 0.865128 0.949260
Si Si7 0.250000 0.750000 0.508455
O O1 0.749567 0.692630 0.364156
O O2 0.499437 0.755368 0.461458
O O3 0.750000 0.446604 0.750000
O O4 0.811026 0.471524 0.903698
O O5 0.067042 0.518422 0.804501
O O6 0.092755 0.406351 0.828533
O O7 0.750000 0.107997 0.250000
O O8 0.459784 0.119290 0.130253
O O9 0.250000 0.090897 0.250000
O O10 0.966790 0.903807 0.088691
O O11 0.589159 0.865632 0.022013
O O12 0.782688 0.413534 0.464009
O O13 0.000000 0.500000 0.500000
O O14 0.277511 0.805415 0.939368
#
# Coordination Sequence:
#
# PCOD8201612 Si02
#       7
#     4   8   8   8   8   8   4
#     4  10  20  38  62  97 125 158 218 262 326 362
#     4  10  24  39  58  94 129 172 207 259 329 386
#     4  11  26  41  62  92 130 174 208 259 325 390
#     4  10  21  37  64  93 124 167 211 274 311 385
#     4  11  21  35  65  95 124 158 215 267 315 373
#     4  10  22  39  61  95 126 162 218 265 319 377
#     4  10  20  38  65  94 123 166 208 270 320 372
#
# _framework density 20.893943
#
# number of rings (size 3 to 8) (size 9 to 14) (size 15 to 20)
#    0.000    1.667    1.667    2.000   11.667    2.667 
#    0.000    0.417    0.000    4.000    0.000    0.000 
#    0.000    0.000    0.000    0.000    0.000    0.000 
#
# Total GULP energy -594662.453999 kJ/mol
# GULP energy per Si atom -12388.801125 kJ/mol
# Density = 2.084639 g / cm^3
# Si number density = 20.893943 Si / 1000 Ang^3
#
#
#
# Elastic Constant Matrix: (Units=GPa)
#
#
# Indices 1 2 3 4 5 6 
#
# 1 93.8951 15.9092 12.9491 0.0000 0.0000 0.0000
# 2 15.9092 81.2777 17.0440 0.0000 0.0000 0.0000
# 3 12.9491 17.0440 68.6143 0.0000 0.0000 0.0000
# 4 0.0000 0.0000 0.0000 23.3466 0.0000 0.0000
# 5 0.0000 0.0000 0.0000 0.0000 19.1092 0.0000
# 6 0.0000 0.0000 0.0000 0.0000 0.0000 24.8648
#
#
#
# Elastic Compliance Matrix: (Units=1/GPa)
#
#
# Indices 1 2 3 4 5 6 
#
# 1 0.011191 -0.001844 -0.001654 0.000000 0.000000 0.000000
# 2 -0.001844 0.013283 -0.002952 0.000000 0.000000 0.000000
# 3 -0.001654 -0.002952 0.015620 0.000000 0.000000 0.000000
# 4 0.000000 0.000000 0.000000 0.042833 0.000000 0.000000
# 5 0.000000 0.000000 0.000000 0.000000 0.052331 0.000000
# 6 0.000000 0.000000 0.000000 0.000000 0.000000 0.040218
#
#
# Mechanical properties :
#
#
# Convention : Reuss Voigt Hill
#
# Bulk Modulus (GPa) = 36.77143 37.28796 37.02970
# Shear Modulus (GPa) = 25.32436 26.65643 25.99039
#
# Velocity S-wave (km/s) = 3.48522 3.57570 3.53075
# Velocity P-wave (km/s) = 5.81661 5.91038 5.86368
#
# Compressibility (1/GPa) = 0.02719502
#
# Stress axis : x y z
#
# Youngs Moduli (GPa) = 89.36031 75.28225 64.02222
#
# Poissons Ratio (x) = 0.13879 0.10589
# Poissons Ratio (y) = 0.16474 0.18897
# Poissons Ratio (z) = 0.14780 0.22221
#
# Static dielectric constant tensor:
#      x y z
#    x 3.922030 0.000000 0.000000 
#    y 0.000000 4.223630 0.000000 
#    z 0.000000 0.000000 3.525760 
# 
# 
# High freq. dielectric constant tensor:
#      x y z
#    x 1.824630 0.000000 0.000000 
#    y 0.000000 1.831780 0.000000 
#    z 0.000000 0.000000 1.792920 
# 
# From -- ./inp_files/24449.got.cif
#   From: 2010.06.25/outbox.cif.g09.slc.cpg/sg48_13_cif.got.tgz:24449.got - 2010.06.26 18:06:46.
