data_PCOD8201147
_publ_section_title
;
Structure prediction by ZEFSAII (Michael W. Deem and Ramdas Pophale) SiO2 
 PCOD8201147
Probable space group: P M M M
;
_chemical_formula_sum "Si O2"
_cell_formula_units_Z 52
_cell_length_a 15.451026
_cell_length_b 22.306156
_cell_length_c 9.367113
_cell_angle_alpha 90.000000
_cell_angle_beta 90.000000
_cell_angle_gamma 90.000000
_cell_volume 3228.403562
_symmetry_space_group_name_H-M "P M M M"
_symmetry_group_IT_number 47
_symmetry_cell_setting 'orthorhombic'
loop_
_space_group_symop_operation_xyz
x,y,z
-x,-y,z
x,-y,-z
-x,y,-z
-x,-y,-z
x,y,-z
-x,y,z
x,-y,z
loop_
_atom_site_type_symbol
_atom_site_label
_atom_site_fract_x
_atom_site_fract_y
_atom_site_fract_z
Si Si1 0.091901 0.336743 0.661339
Si Si2 0.397283 0.000000 0.838969
Si Si3 0.401953 0.432932 0.831932
Si Si4 0.722823 0.349098 0.338103
Si Si5 0.095216 0.782726 0.166602
Si Si6 0.599435 0.885022 0.333844
Si Si7 0.741906 0.209640 0.665286
O O1 0.098841 0.309340 0.500000
O O2 0.179157 0.375638 0.685261
O O3 0.090452 0.284604 0.776418
O O4 0.000000 0.373114 0.675658
O O5 0.364702 0.941086 0.756389
O O6 0.500000 0.000000 0.839480
O O7 0.360113 0.000000 0.000000
O O8 0.500000 0.419603 0.784219
O O9 0.375540 0.500000 0.782521
O O10 0.341090 0.383880 0.763232
O O11 0.392754 0.427370 0.000000
O O12 0.691493 0.358572 0.500000
O O13 0.722544 0.278867 0.297347
O O14 0.174317 0.815540 0.248285
O O15 0.000000 0.813128 0.192790
O O16 0.117322 0.781533 0.000000
O O17 0.608228 0.901560 0.500000
O O18 0.500000 0.869517 0.295381
O O19 0.657078 0.827813 0.291413
O O20 0.763763 0.201367 0.500000
#
# Coordination Sequence:
#
# PCOD8201147 Si02
#       7
#     8   4   8   8   8   8   8
#     4   8  14  26  43  62  87 117 143 169 208 259
#     4   9  17  29  45  65  88 115 150 189 223 254
#     4   9  19  35  50  62  80 111 150 186 220 262
#     4   9  17  28  45  70  93 112 140 180 222 260
#     4   9  16  25  39  61  88 117 149 183 216 253
#     4   9  17  30  47  65  88 120 154 183 213 256
#     4   9  18  30  44  66  94 121 147 177 218 265
#
# _framework density 16.107030999999999
#
# number of rings (size 3 to 8) (size 9 to 14) (size 15 to 20)
#    0.000    3.154    0.000    2.077    0.000    6.154 
#    0.000    2.308    0.000    2.308    0.000    3.769 
#    0.000    4.308    0.000    0.000    0.000    0.000 
#
# Total GULP energy -644201.449724 kJ/mol
# GULP energy per Si atom -12388.489418 kJ/mol
# Density = 1.607037 g / cm^3
# Si number density = 16.107031 Si / 1000 Ang^3
#
#
#
# Elastic Constant Matrix: (Units=GPa)
#
#
# Indices 1 2 3 4 5 6 
#
# 1 127.2649 57.5994 54.2953 0.0000 0.0000 0.0000
# 2 57.5994 62.8955 35.7979 0.0000 0.0000 0.0000
# 3 54.2953 35.7979 65.0903 0.0000 0.0000 0.0000
# 4 0.0000 0.0000 0.0000 19.3283 0.0000 0.0000
# 5 0.0000 0.0000 0.0000 0.0000 28.0468 0.0000
# 6 0.0000 0.0000 0.0000 0.0000 0.0000 0.3781
#
#
#
# Elastic Compliance Matrix: (Units=1/GPa)
#
#
# Indices 1 2 3 4 5 6 
#
# 1 0.015584 -0.010005 -0.007497 0.000000 0.000000 0.000000
# 2 -0.010005 0.029567 -0.007915 0.000000 0.000000 0.000000
# 3 -0.007497 -0.007915 0.025971 0.000000 0.000000 0.000000
# 4 0.000000 0.000000 0.000000 0.051738 0.000000 0.000000
# 5 0.000000 0.000000 0.000000 0.000000 0.035655 0.000000
# 6 0.000000 0.000000 0.000000 0.000000 0.000000 2.645151
#
#
# Mechanical properties :
#
#
# Convention : Reuss Voigt Hill
#
# Bulk Modulus (GPa) = 49.29379 61.18175 55.23777
# Shear Modulus (GPa) = 1.74748 16.72118 9.23433
#
# Velocity S-wave (km/s) = 1.04272 3.22550 2.39699
# Velocity P-wave (km/s) = 5.66745 7.20685 6.48301
#
# Compressibility (1/GPa) = 0.02028653
#
# Stress axis : x y z
#
# Youngs Moduli (GPa) = 64.16674 33.82148 38.50522
#
# Poissons Ratio (x) = 0.33838 0.28869
# Poissons Ratio (y) = 0.64198 0.30479
# Poissons Ratio (z) = 0.48108 0.26771
#
# Static dielectric constant tensor:
#      x y z
#    x 3.447870 0.000000 0.000000 
#    y 0.000000 2.725730 0.000000 
#    z 0.000000 0.000000 3.067870 
# 
# 
# High freq. dielectric constant tensor:
#      x y z
#    x 1.629810 0.000000 0.000000 
#    y 0.000000 1.569140 0.000000 
#    z 0.000000 0.000000 1.622370 
# 
# From -- ./inp_files/7624.got.cif
#   From: 2010.03.12/outbox.cif.g09.slc.cpg/sg47_4_cif.got.tgz:7624.got - 2010.04.14 03:12:58.
