data_PCOD8201904
_publ_section_title
;
Structure prediction by ZEFSAII (Michael W. Deem and Ramdas Pophale) SiO2 
 PCOD8201904
Probable space group: P N N N
;
_chemical_formula_sum "Si O2"
_cell_formula_units_Z 64
_cell_length_a 11.801028
_cell_length_b 17.042346
_cell_length_c 14.651498
_cell_angle_alpha 90.000000
_cell_angle_beta 90.000000
_cell_angle_gamma 90.000000
_cell_volume 2946.668288
_symmetry_space_group_name_H-M "P N N N"
_symmetry_group_IT_number 48
_space_group.IT_coordinate_system_code '2'
_symmetry_cell_setting 'orthorhombic'
loop_
_space_group_symop_operation_xyz
x,y,z
1/2-x,1/2-y,z
x,1/2-y,1/2-z
1/2-x,y,1/2-z
-x,-y,-z
1/2+x,1/2+y,-z
-x,1/2+y,1/2+z
1/2+x,-y,1/2+z
loop_
_atom_site_type_symbol
_atom_site_label
_atom_site_fract_x
_atom_site_fract_y
_atom_site_fract_z
Si Si1 0.164604 0.089182 0.123148
Si Si2 0.105018 0.324601 0.696434
Si Si3 0.074629 0.651423 0.966412
Si Si4 0.510908 0.578094 0.357164
Si Si5 0.409119 0.420576 0.323677
Si Si6 0.690694 0.437659 0.993576
Si Si7 0.751955 0.968806 0.153072
Si Si8 0.497724 0.316827 0.993345
O O1 0.085617 0.087860 0.213630
O O2 0.292126 0.119944 0.143382
O O3 0.106929 0.149476 0.052798
O O4 0.190357 0.001033 0.087456
O O5 0.153012 0.250000 0.750000
O O6 0.209497 0.378859 0.666213
O O7 0.020756 0.374262 0.762339
O O8 0.043231 0.291774 0.606861
O O9 0.066170 0.745997 0.957812
O O10 0.016692 0.619251 0.873751
O O11 0.004491 0.633429 0.056857
O O12 0.199226 0.616465 0.986321
O O13 0.411437 0.513778 0.346969
O O14 0.625102 0.531569 0.385132
O O15 0.664566 0.486290 0.085737
O O16 0.584084 0.385612 0.974238
O O17 0.750000 0.013615 0.250000
#
# Coordination Sequence:
#
# PCOD8201904 Si02
#       8
#     8   8   8   8   8   8   8   8
#     4  11  25  44  71 101 136 179 236 290 342 413
#     4  11  23  43  64 104 143 174 224 295 371 426
#     4  12  25  44  69  98 140 186 231 288 354 421
#     4  11  21  41  68  94 134 172 232 283 348 415
#     4  11  24  44  71 101 130 183 240 284 340 417
#     4  12  23  45  70  99 139 187 237 288 342 429
#     4  10  23  37  67 104 129 178 227 292 346 416
#     4  12  27  43  66 101 142 184 226 289 358 420
#
# _framework density 21.719446000000001
#
# number of rings (size 3 to 8) (size 9 to 14) (size 15 to 20)
#    0.000    0.750    5.000    2.625    3.500    3.250 
#    0.000    1.250    0.000    2.250    0.000    0.000 
#    0.000    0.000    0.000    0.000    0.000    0.000 
#
# Total GULP energy -793097.732123 kJ/mol
# GULP energy per Si atom -12392.152064 kJ/mol
# Density = 2.167001 g / cm^3
# Si number density = 21.719446 Si / 1000 Ang^3
#
#
#
# Elastic Constant Matrix: (Units=GPa)
#
#
# Indices 1 2 3 4 5 6 
#
# 1 78.3193 20.5157 34.6061 0.0000 0.0000 0.0000
# 2 20.5157 99.0697 34.7271 0.0000 0.0000 0.0000
# 3 34.6061 34.7271 126.1020 0.0000 0.0000 0.0000
# 4 0.0000 0.0000 0.0000 36.8224 0.0000 0.0000
# 5 0.0000 0.0000 0.0000 0.0000 24.9028 0.0000
# 6 0.0000 0.0000 0.0000 0.0000 0.0000 33.7858
#
#
#
# Elastic Compliance Matrix: (Units=1/GPa)
#
#
# Indices 1 2 3 4 5 6 
#
# 1 0.014821 -0.001819 -0.003566 0.000000 0.000000 0.000000
# 2 -0.001819 0.011396 -0.002639 0.000000 0.000000 0.000000
# 3 -0.003566 -0.002639 0.009636 0.000000 0.000000 0.000000
# 4 0.000000 0.000000 0.000000 0.027157 0.000000 0.000000
# 5 0.000000 0.000000 0.000000 0.000000 0.040156 0.000000
# 6 0.000000 0.000000 0.000000 0.000000 0.000000 0.029598
#
#
# Mechanical properties :
#
#
# Convention : Reuss Voigt Hill
#
# Bulk Modulus (GPa) = 50.49716 53.68767 52.09241
# Shear Modulus (GPa) = 32.17233 33.34501 32.75867
#
# Velocity S-wave (km/s) = 3.85290 3.92249 3.88785
# Velocity P-wave (km/s) = 6.56455 6.72956 6.64757
#
# Compressibility (1/GPa) = 0.01980309
#
# Stress axis : x y z
#
# Youngs Moduli (GPa) = 67.47408 87.75269 103.78251
#
# Poissons Ratio (x) = 0.15962 0.37011
# Poissons Ratio (y) = 0.12274 0.27389
# Poissons Ratio (z) = 0.24063 0.23158
#
# Static dielectric constant tensor:
#      x y z
#    x 3.856340 0.000000 0.000000 
#    y 0.000000 3.859630 0.000000 
#    z 0.000000 0.000000 4.306790 
# 
# 
# High freq. dielectric constant tensor:
#      x y z
#    x 1.848370 0.000000 0.000000 
#    y 0.000000 1.846670 0.000000 
#    z 0.000000 0.000000 1.865100 
# 
# From -- ./inp_files/26708.got.cif
#   From: 2010.06.25/outbox.cif.g09.slc.cpg/sg48_14_cif.got.tgz:26708.got - 2010.06.26 18:06:46.
