data_PCOD8201507
_publ_section_title
;
Structure prediction by ZEFSAII (Michael W. Deem and Ramdas Pophale) SiO2 
 PCOD8201507
Probable space group: P N N N
;
_chemical_formula_sum "Si O2"
_cell_formula_units_Z 60
_cell_length_a 15.720408
_cell_length_b 15.129857
_cell_length_c 13.365016
_cell_angle_alpha 90.000000
_cell_angle_beta 90.000000
_cell_angle_gamma 90.000000
_cell_volume 3178.835977
_symmetry_space_group_name_H-M "P N N N"
_symmetry_group_IT_number 48
_space_group.IT_coordinate_system_code '2'
_symmetry_cell_setting 'orthorhombic'
loop_
_space_group_symop_operation_xyz
x,y,z
1/2-x,1/2-y,z
x,1/2-y,1/2-z
1/2-x,y,1/2-z
-x,-y,-z
1/2+x,1/2+y,-z
-x,1/2+y,1/2+z
1/2+x,-y,1/2+z
loop_
_atom_site_type_symbol
_atom_site_label
_atom_site_fract_x
_atom_site_fract_y
_atom_site_fract_z
Si Si1 0.526889 0.786892 0.854873
Si Si2 0.970512 0.815633 0.154183
Si Si3 0.750000 0.250000 0.395664
Si Si4 0.395346 0.003341 0.618861
Si Si5 0.870367 0.395205 0.186906
Si Si6 0.221944 0.058763 0.635709
Si Si7 0.410833 0.664653 0.983305
Si Si8 0.157778 0.282034 0.979505
O O1 0.561820 0.750000 0.750000
O O2 0.467351 0.872838 0.841795
O O3 0.470812 0.710177 0.902338
O O4 0.607236 0.813468 0.922354
O O5 0.972913 0.750000 0.250000
O O6 0.955484 0.921891 0.171946
O O7 0.892951 0.792563 0.080608
O O8 0.059847 0.805985 0.095051
O O9 0.808226 0.188705 0.324661
O O10 0.687567 0.192557 0.467859
O O11 0.309740 0.048353 0.574535
O O12 0.365602 0.928882 0.699258
O O13 0.431020 0.941436 0.529140
O O14 0.837270 0.473781 0.116766
O O15 0.250000 0.075988 0.750000
O O16 0.165619 0.139014 0.598654
O O17 0.250000 0.250000 0.014786
#
# Coordination Sequence:
#
# PCOD8201507 Si02
#       8
#     8   8   4   8   8   8   8   8
#     4  10  21  38  58  82 116 150 193 231 288 353
#     4  11  23  39  58  82 117 157 201 240 288 351
#     4  10  20  35  59  90 122 140 193 240 299 358
#     4  11  19  34  59  87 116 150 192 240 301 352
#     4  10  20  32  58  89 116 151 178 244 299 346
#     4  10  20  33  54  89 118 145 188 237 301 346
#     4  10  21  36  60  88 113 154 193 240 298 349
#     4  11  23  38  58  82 111 157 192 241 284 342
#
# _framework density 18.874835000000001
#
# number of rings (size 3 to 8) (size 9 to 14) (size 15 to 20)
#    0.000    1.600    4.000    2.000    0.000    1.333 
#    0.000    1.667    0.000    0.000    0.000    0.000 
#    0.000    0.000    0.000    0.000    0.000    0.000 
#
# Total GULP energy -743427.847992 kJ/mol
# GULP energy per Si atom -12390.464133 kJ/mol
# Density = 1.883187 g / cm^3
# Si number density = 18.874835 Si / 1000 Ang^3
#
#
#
# Elastic Constant Matrix: (Units=GPa)
#
#
# Indices 1 2 3 4 5 6 
#
# 1 93.6988 40.5274 48.7959 0.0000 0.0000 0.0000
# 2 40.5274 106.1693 35.3338 0.0000 0.0000 0.0000
# 3 48.7959 35.3338 85.8028 0.0000 0.0000 0.0000
# 4 0.0000 0.0000 0.0000 22.9545 0.0000 0.0000
# 5 0.0000 0.0000 0.0000 0.0000 23.6982 0.0000
# 6 0.0000 0.0000 0.0000 0.0000 0.0000 21.7604
#
#
#
# Elastic Compliance Matrix: (Units=1/GPa)
#
#
# Indices 1 2 3 4 5 6 
#
# 1 0.016289 -0.003633 -0.007767 0.000000 0.000000 0.000000
# 2 -0.003633 0.011725 -0.002762 0.000000 0.000000 0.000000
# 3 -0.007767 -0.002762 0.017210 0.000000 0.000000 0.000000
# 4 0.000000 0.000000 0.000000 0.043564 0.000000 0.000000
# 5 0.000000 0.000000 0.000000 0.000000 0.042197 0.000000
# 6 0.000000 0.000000 0.000000 0.000000 0.000000 0.045955
#
#
# Mechanical properties :
#
#
# Convention : Reuss Voigt Hill
#
# Bulk Modulus (GPa) = 59.17839 59.44280 59.31059
# Shear Modulus (GPa) = 23.70810 24.41686 24.06248
#
# Velocity S-wave (km/s) = 3.54795 3.60059 3.57437
# Velocity P-wave (km/s) = 6.94299 6.98908 6.96607
#
# Compressibility (1/GPa) = 0.01689806
#
# Stress axis : x y z
#
# Youngs Moduli (GPa) = 61.39157 85.28788 58.10722
#
# Poissons Ratio (x) = 0.30983 0.45135
# Poissons Ratio (y) = 0.22302 0.16052
# Poissons Ratio (z) = 0.47686 0.23560
#
# Static dielectric constant tensor:
#      x y z
#    x 3.649980 0.000000 0.000000 
#    y 0.000000 3.688580 0.000000 
#    z 0.000000 0.000000 3.243250 
# 
# 
# High freq. dielectric constant tensor:
#      x y z
#    x 1.728790 0.000000 0.000000 
#    y 0.000000 1.748960 0.000000 
#    z 0.000000 0.000000 1.697500 
# 
# From -- ./inp_files/27457.got.cif
#   From: 2010.06.25/outbox.cif.g09.slc.cpg/sg48_14_cif.got.tgz:27457.got - 2010.06.26 18:06:46.
