data_PCOD8201162
_publ_section_title
;
Structure prediction by ZEFSAII (Michael W. Deem and Ramdas Pophale) SiO2 
 PCOD8201162
Probable space group: P M M M
;
_chemical_formula_sum "Si O2"
_cell_formula_units_Z 44
_cell_length_a 7.997852
_cell_length_b 29.888639
_cell_length_c 10.066852
_cell_angle_alpha 90.000000
_cell_angle_beta 90.000000
_cell_angle_gamma 90.000000
_cell_volume 2406.429742
_symmetry_space_group_name_H-M "P M M M"
_symmetry_group_IT_number 47
_symmetry_cell_setting 'orthorhombic'
loop_
_space_group_symop_operation_xyz
x,y,z
-x,-y,z
x,-y,-z
-x,y,-z
-x,-y,-z
x,y,-z
-x,y,z
x,-y,z
loop_
_atom_site_type_symbol
_atom_site_label
_atom_site_fract_x
_atom_site_fract_y
_atom_site_fract_z
Si Si1 0.301827 0.296835 0.348432
Si Si2 0.500000 0.550759 0.341389
Si Si3 0.802668 0.950379 0.647966
Si Si4 0.698410 0.777955 0.850331
Si Si5 0.814242 0.393469 0.657589
Si Si6 0.695898 0.123268 0.854571
O O1 0.250587 0.285849 0.500000
O O2 0.500000 0.302288 0.336201
O O3 0.228761 0.257468 0.255145
O O4 0.218816 0.342635 0.297716
O O5 0.500000 0.500000 0.289879
O O6 0.500000 0.553034 0.500000
O O7 0.668150 0.574513 0.284502
O O8 0.736103 0.939102 0.500000
O O9 0.737085 0.913959 0.748433
O O10 0.000000 0.949690 0.648372
O O11 0.739300 0.000000 0.689858
O O12 0.500000 0.776965 0.840900
O O13 0.766369 0.827748 0.813301
O O14 0.755924 0.765422 0.000000
O O15 0.806731 0.396120 0.500000
O O16 0.000000 0.408261 0.707821
O O17 0.500000 0.127989 0.866904
O O18 0.768684 0.109729 0.000000
#
# Coordination Sequence:
#
# PCOD8201162 Si02
#       6
#     8   4   8   8   8   8
#     4   9  15  25  43  64  87 119 157 191 227 277
#     4   9  16  26  40  60  89 125 163 199 238 289
#     4   9  19  35  51  67  90 121 157 197 240 286
#     4   8  15  28  45  66  93 123 153 188 231 278
#     4   9  16  26  40  60  89 122 156 198 243 284
#     4   9  18  32  49  71  98 124 153 192 237 286
#
# _framework density 18.284348999999999
#
# number of rings (size 3 to 8) (size 9 to 14) (size 15 to 20)
#    0.000    3.182    0.909    1.636    0.000    2.545 
#    0.000    7.273    0.000    3.818    0.000    0.000 
#    0.000    1.455    0.000    1.636    0.000    1.818 
#
# Total GULP energy -545211.046667 kJ/mol
# GULP energy per Si atom -12391.160152 kJ/mol
# Density = 1.824273 g / cm^3
# Si number density = 18.284349 Si / 1000 Ang^3
#
#
#
# Elastic Constant Matrix: (Units=GPa)
#
#
# Indices 1 2 3 4 5 6 
#
# 1 62.1651 50.3452 22.7135 0.0000 0.0000 0.0000
# 2 50.3452 161.9179 76.2365 0.0000 0.0000 0.0000
# 3 22.7135 76.2365 76.3585 0.0000 0.0000 0.0000
# 4 0.0000 0.0000 0.0000 -2.0105 0.0000 0.0000
# 5 0.0000 0.0000 0.0000 0.0000 -2.6518 0.0000
# 6 0.0000 0.0000 0.0000 0.0000 0.0000 -0.0541
#
#
#
# Elastic Compliance Matrix: (Units=1/GPa)
#
#
# Indices 1 2 3 4 5 6 
#
# 1 0.021511 -0.006937 0.000527 0.000000 0.000000 0.000000
# 2 -0.006937 0.013891 -0.011806 0.000000 0.000000 0.000000
# 3 0.000527 -0.011806 0.024726 0.000000 0.000000 0.000000
# 4 0.000000 0.000000 0.000000 -0.497398 0.000000 0.000000
# 5 0.000000 0.000000 0.000000 0.000000 -0.377108 0.000000
# 6 0.000000 0.000000 0.000000 0.000000 0.000000-18.471011
#
#
# Mechanical properties :
#
#
# Convention : Reuss Voigt Hill
#
# Bulk Modulus (GPa) = 42.19793 66.55910 54.37852
# Shear Modulus (GPa) = -0.25986 9.13315 4.43664
#
# Velocity S-wave (km/s) = -0.37740 2.23739 1.55940
# Velocity P-wave (km/s) = 4.78946 6.56931 5.74868
#
# Compressibility (1/GPa) = 0.02369784
#
# Stress axis : x y z
#
# Youngs Moduli (GPa) = 46.48699 71.98737 40.44261
#
# Poissons Ratio (x) = 0.49934 -0.02130
# Poissons Ratio (y) = 0.32246 0.47746
# Poissons Ratio (z) = -0.02448 0.84987
#
# Static dielectric constant tensor:
#      x y z
#    x 3.278630 0.000000 0.000000 
#    y 0.000000 2.051360 0.000000 
#    z 0.000000 0.000000 2.990260 
# 
# 
# High freq. dielectric constant tensor:
#      x y z
#    x 1.694730 0.000000 0.000000 
#    y 0.000000 1.712470 0.000000 
#    z 0.000000 0.000000 1.670040 
# 
# From -- ./inp_files/2307.got.cif
#   From: 2010.03.12/outbox.cif.g09.slc.cpg/sg47_2_cif.got.tgz:2307.got - 2010.04.14 03:12:58.
