data_PCOD8201712
_publ_section_title
;
Structure prediction by ZEFSAII (Michael W. Deem and Ramdas Pophale) SiO2 
 PCOD8201712
Probable space group: P N N N
;
_chemical_formula_sum "Si O2"
_cell_formula_units_Z 36
_cell_length_a 20.401473
_cell_length_b 10.523442
_cell_length_c 7.916904
_cell_angle_alpha 90.000000
_cell_angle_beta 90.000000
_cell_angle_gamma 90.000000
_cell_volume 1699.709553
_symmetry_space_group_name_H-M "P N N N"
_symmetry_group_IT_number 48
_space_group.IT_coordinate_system_code '2'
_symmetry_cell_setting 'orthorhombic'
loop_
_space_group_symop_operation_xyz
x,y,z
1/2-x,1/2-y,z
x,1/2-y,1/2-z
1/2-x,y,1/2-z
-x,-y,-z
1/2+x,1/2+y,-z
-x,1/2+y,1/2+z
1/2+x,-y,1/2+z
loop_
_atom_site_type_symbol
_atom_site_label
_atom_site_fract_x
_atom_site_fract_y
_atom_site_fract_z
Si Si1 0.894058 0.040326 0.607284
Si Si2 0.194121 0.406639 0.369936
Si Si3 0.009528 0.750000 0.250000
Si Si4 0.424105 0.234990 0.058973
Si Si5 0.230949 0.882002 0.559824
O O1 0.948648 0.135929 0.673572
O O2 0.846964 0.103337 0.467670
O O3 0.852933 0.001632 0.770528
O O4 0.924457 0.915293 0.519294
O O5 0.250000 0.346948 0.250000
O O6 0.150176 0.292106 0.446945
O O7 0.229419 0.492590 0.507969
O O8 0.966001 0.699100 0.409283
O O9 0.453543 0.250000 0.250000
O O10 0.250000 0.750000 0.463052
O O11 0.250000 0.861904 0.750000
#
# Coordination Sequence:
#
# PCOD8201712 Si02
#       5
#     8   8   4   8   8
#     4  10  22  41  61  90 129 165 220 271 318 399
#     4   9  20  40  65  87 125 165 207 272 336 373
#     4  12  24  42  65  91 130 184 216 264 324 390
#     4  10  24  42  63  95 127 171 220 266 321 398
#     4  10  21  37  60  96 125 162 214 272 329 389
#
# _framework density 21.180088000000001
#
# number of rings (size 3 to 8) (size 9 to 14) (size 15 to 20)
#    0.000    2.000    0.000    2.000    3.111   16.889 
#    8.000    1.111    0.000    0.000    0.000    0.000 
#    0.000    0.000    0.000    0.000    0.000    0.000 
#
# Total GULP energy -446048.445373 kJ/mol
# GULP energy per Si atom -12390.234594 kJ/mol
# Density = 2.113188 g / cm^3
# Si number density = 21.180088 Si / 1000 Ang^3
#
#
#
# Elastic Constant Matrix: (Units=GPa)
#
#
# Indices 1 2 3 4 5 6 
#
# 1 136.6745 62.0198 61.7270 0.0000 0.0000 0.0000
# 2 62.0198 139.0734 37.6158 0.0000 0.0000 0.0000
# 3 61.7270 37.6158 107.2659 0.0000 0.0000 0.0000
# 4 0.0000 0.0000 0.0000 -0.1730 0.0000 0.0000
# 5 0.0000 0.0000 0.0000 0.0000 38.4689 0.0000
# 6 0.0000 0.0000 0.0000 0.0000 0.0000 170.9011
#
#
#
# Elastic Compliance Matrix: (Units=1/GPa)
#
#
# Indices 1 2 3 4 5 6 
#
# 1 0.011337 -0.003636 -0.005249 0.000000 0.000000 0.000000
# 2 -0.003636 0.009110 -0.001102 0.000000 0.000000 0.000000
# 3 -0.005249 -0.001102 0.012730 0.000000 0.000000 0.000000
# 4 0.000000 0.000000 0.000000 -5.780743 0.000000 0.000000
# 5 0.000000 0.000000 0.000000 0.000000 0.025995 0.000000
# 6 0.000000 0.000000 0.000000 0.000000 0.000000 0.005851
#
#
# Mechanical properties :
#
#
# Convention : Reuss Voigt Hill
#
# Bulk Modulus (GPa) = 75.74435 78.41545 77.07990
# Shear Modulus (GPa) = -0.87853 56.61615 27.86881
#
# Velocity S-wave (km/s) = -0.64474 5.17580 3.63133
# Velocity P-wave (km/s) = 5.94015 8.53358 7.35213
#
# Compressibility (1/GPa) = 0.01320230
#
# Stress axis : x y z
#
# Youngs Moduli (GPa) = 88.20450 109.76795 78.55610
#
# Poissons Ratio (x) = 0.39913 0.41234
# Poissons Ratio (y) = 0.32072 0.08659
# Poissons Ratio (z) = 0.46299 0.12099
#
# Static dielectric constant tensor:
#      x y z
#    x 4.180570 0.000000 0.000000 
#    y 0.000000 4.157780 0.000000 
#    z 0.000000 0.000000 7.254980 
# 
# 
# High freq. dielectric constant tensor:
#      x y z
#    x 1.830670 0.000000 0.000000 
#    y 0.000000 1.847760 0.000000 
#    z 0.000000 0.000000 1.811990 
# 
# From -- ./inp_files/14841.got.cif
#   From: 2010.06.25/outbox.cif.g09.slc.cpg/sg48_8_cif.got.tgz:14841.got - 2010.06.26 18:06:46.
