data_PCOD8201395
_publ_section_title
;
Structure prediction by ZEFSAII (Michael W. Deem and Ramdas Pophale) SiO2 
 PCOD8201395
Probable space group: P N N N
;
_chemical_formula_sum "Si O2"
_cell_formula_units_Z 48
_cell_length_a 11.468719
_cell_length_b 13.137044
_cell_length_c 15.280566
_cell_angle_alpha 90.000000
_cell_angle_beta 90.000000
_cell_angle_gamma 90.000000
_cell_volume 2302.247487
_symmetry_space_group_name_H-M "P N N N"
_symmetry_group_IT_number 48
_space_group.IT_coordinate_system_code '2'
_symmetry_cell_setting 'orthorhombic'
loop_
_space_group_symop_operation_xyz
x,y,z
1/2-x,1/2-y,z
x,1/2-y,1/2-z
1/2-x,y,1/2-z
-x,-y,-z
1/2+x,1/2+y,-z
-x,1/2+y,1/2+z
1/2+x,-y,1/2+z
loop_
_atom_site_type_symbol
_atom_site_label
_atom_site_fract_x
_atom_site_fract_y
_atom_site_fract_z
Si Si1 0.030766 0.896602 0.385529
Si Si2 0.673788 0.487648 0.472422
Si Si3 0.341087 0.506816 0.827088
Si Si4 0.424340 0.453402 0.245094
Si Si5 0.269289 0.369036 0.380029
Si Si6 0.373671 0.219363 0.650426
O O1 0.135438 0.903140 0.456337
O O2 0.981246 0.782320 0.391219
O O3 0.072893 0.931085 0.287359
O O4 0.932062 0.979341 0.410065
O O5 0.775266 0.441879 0.409825
O O6 0.720097 0.588002 0.522553
O O7 0.250000 0.484129 0.750000
O O8 0.448484 0.576175 0.794087
O O9 0.396141 0.400292 0.860449
O O10 0.390771 0.380799 0.326741
O O11 0.329814 0.436232 0.168804
O O12 0.250000 0.250000 0.384547
O O13 0.250000 0.250000 0.605812
O O14 0.367160 0.250000 0.750000
#
# Coordination Sequence:
#
# PCOD8201395 Si02
#       6
#     8   8   8   8   8   8
#     4  10  19  33  54  87 119 155 186 237 292 349
#     4  10  21  34  55  89 120 149 189 241 300 340
#     4  12  20  33  58  92 120 154 190 242 293 356
#     4  10  19  37  59  84 115 152 195 238 292 347
#     4  10  23  40  63  89 110 148 206 253 285 341
#     4  11  16  28  52  88 118 141 193 237 279 343
#
# _framework density 20.849193
#
# number of rings (size 3 to 8) (size 9 to 14) (size 15 to 20)
#    0.000    1.500    6.667    1.000    2.333    0.667 
#    0.000    0.000    0.000   19.000   13.000    0.000 
#    0.000    0.000    0.000    0.000    0.000    0.000 
#
# Total GULP energy -594770.805675 kJ/mol
# GULP energy per Si atom -12391.058452 kJ/mol
# Density = 2.080174 g / cm^3
# Si number density = 20.849193 Si / 1000 Ang^3
#
#
#
# Elastic Constant Matrix: (Units=GPa)
#
#
# Indices 1 2 3 4 5 6 
#
# 1 125.6006 49.9488 60.7280 0.0000 0.0000 0.0000
# 2 49.9488 64.4952 22.1400 0.0000 0.0000 0.0000
# 3 60.7280 22.1400 99.0754 0.0000 0.0000 0.0000
# 4 0.0000 0.0000 0.0000 15.9763 0.0000 0.0000
# 5 0.0000 0.0000 0.0000 0.0000 42.5355 0.0000
# 6 0.0000 0.0000 0.0000 0.0000 0.0000 32.8698
#
#
#
# Elastic Compliance Matrix: (Units=1/GPa)
#
#
# Indices 1 2 3 4 5 6 
#
# 1 0.015116 -0.009235 -0.007202 0.000000 0.000000 0.000000
# 2 -0.009235 0.022435 0.000647 0.000000 0.000000 0.000000
# 3 -0.007202 0.000647 0.014363 0.000000 0.000000 0.000000
# 4 0.000000 0.000000 0.000000 0.062593 0.000000 0.000000
# 5 0.000000 0.000000 0.000000 0.000000 0.023510 0.000000
# 6 0.000000 0.000000 0.000000 0.000000 0.000000 0.030423
#
#
# Mechanical properties :
#
#
# Convention : Reuss Voigt Hill
#
# Bulk Modulus (GPa) = 49.17620 61.64498 55.41059
# Shear Modulus (GPa) = 24.17828 28.69995 26.43912
#
# Velocity S-wave (km/s) = 3.40909 3.71421 3.56492
# Velocity P-wave (km/s) = 6.25570 6.93002 6.60147
#
# Compressibility (1/GPa) = 0.02033504
#
# Stress axis : x y z
#
# Youngs Moduli (GPa) = 66.15388 44.57363 69.62286
#
# Poissons Ratio (x) = 0.41162 0.50141
# Poissons Ratio (y) = 0.61091 -0.04504
# Poissons Ratio (z) = 0.47643 -0.02884
#
# Static dielectric constant tensor:
#      x y z
#    x 4.022160 0.000000 0.000000 
#    y 0.000000 3.458380 0.000000 
#    z 0.000000 0.000000 3.980110 
# 
# 
# High freq. dielectric constant tensor:
#      x y z
#    x 1.808990 0.000000 0.000000 
#    y 0.000000 1.762980 0.000000 
#    z 0.000000 0.000000 1.827900 
# 
# From -- ./inp_files/31029.got.cif
#   From: 2010.06.25/outbox.cif.g09.slc.cpg/sg48_16_cif.got.tgz:31029.got - 2010.06.26 18:06:46.
