data_PCOD8201543
_publ_section_title
;
Structure prediction by ZEFSAII (Michael W. Deem and Ramdas Pophale) SiO2 
 PCOD8201543
Probable space group: P N N N
;
_chemical_formula_sum "Si O2"
_cell_formula_units_Z 48
_cell_length_a 15.934231
_cell_length_b 13.094575
_cell_length_c 12.114570
_cell_angle_alpha 90.000000
_cell_angle_beta 90.000000
_cell_angle_gamma 90.000000
_cell_volume 2527.729052
_symmetry_space_group_name_H-M "P N N N"
_symmetry_group_IT_number 48
_space_group.IT_coordinate_system_code '2'
_symmetry_cell_setting 'orthorhombic'
loop_
_space_group_symop_operation_xyz
x,y,z
1/2-x,1/2-y,z
x,1/2-y,1/2-z
1/2-x,y,1/2-z
-x,-y,-z
1/2+x,1/2+y,-z
-x,1/2+y,1/2+z
1/2+x,-y,1/2+z
loop_
_atom_site_type_symbol
_atom_site_label
_atom_site_fract_x
_atom_site_fract_y
_atom_site_fract_z
Si Si1 0.212416 0.855036 0.632301
Si Si2 0.201300 0.459391 0.018131
Si Si3 0.521610 0.361571 0.392049
Si Si4 0.610974 0.750000 0.250000
Si Si5 0.610057 0.750000 0.750000
Si Si6 0.032560 0.415865 0.888923
Si Si7 0.750000 0.750000 0.073409
Si Si8 0.250000 0.090920 0.250000
O O1 0.250000 0.750000 0.585634
O O2 0.250000 0.885797 0.750000
O O3 0.113728 0.835587 0.651872
O O4 0.239380 0.945502 0.549224
O O5 0.107310 0.446272 0.974120
O O6 0.244993 0.350172 0.000309
O O7 0.215919 0.479585 0.148736
O O8 0.450516 0.283238 0.350731
O O9 0.528846 0.355853 0.526942
O O10 0.496421 0.475754 0.347593
O O11 0.554625 0.848217 0.218087
O O12 0.668028 0.726396 0.145477
O O13 0.670393 0.841372 0.709817
#
# Coordination Sequence:
#
# PCOD8201543 Si02
#       8
#     8   8   8   4   4   8   4   4
#     4  10  22  40  63  85 108 151 202 246 287 340
#     4  10  20  35  57  84 121 151 191 235 293 352
#     4  10  20  36  59  79 113 149 190 231 288 351
#     4   9  18  30  52  84 115 142 190 238 291 342
#     4  11  20  34  55  86 112 148 191 232 278 347
#     4   9  19  36  56  82 110 153 185 230 300 351
#     4   9  18  29  52  88 118 147 181 246 298 334
#     4  11  22  34  55  88 120 153 190 233 286 360
#
# _framework density 18.989377000000001
#
# number of rings (size 3 to 8) (size 9 to 14) (size 15 to 20)
#    0.000    2.167    1.667    2.000    9.333    0.000 
#    0.000    2.083    0.000    3.000    0.000    0.000 
#    0.000    0.000    0.000    0.000    0.000    0.000 
#
# Total GULP energy -594673.015299 kJ/mol
# GULP energy per Si atom -12389.021152 kJ/mol
# Density = 1.894616 g / cm^3
# Si number density = 18.989377 Si / 1000 Ang^3
#
#
#
# Elastic Constant Matrix: (Units=GPa)
#
#
# Indices 1 2 3 4 5 6 
#
# 1 79.0754 27.0109 28.2447 0.0000 0.0000 0.0000
# 2 27.0109 118.2701 51.6870 0.0000 0.0000 0.0000
# 3 28.2447 51.6870 99.9011 0.0000 0.0000 0.0000
# 4 0.0000 0.0000 0.0000 9.9417 0.0000 0.0000
# 5 0.0000 0.0000 0.0000 0.0000 26.3780 0.0000
# 6 0.0000 0.0000 0.0000 0.0000 0.0000 21.1924
#
#
#
# Elastic Compliance Matrix: (Units=1/GPa)
#
#
# Indices 1 2 3 4 5 6 
#
# 1 0.014407 -0.001951 -0.003064 0.000000 0.000000 0.000000
# 2 -0.001951 0.011190 -0.005238 0.000000 0.000000 0.000000
# 3 -0.003064 -0.005238 0.013586 0.000000 0.000000 0.000000
# 4 0.000000 0.000000 0.000000 0.100587 0.000000 0.000000
# 5 0.000000 0.000000 0.000000 0.000000 0.037910 0.000000
# 6 0.000000 0.000000 0.000000 0.000000 0.000000 0.047187
#
#
# Mechanical properties :
#
#
# Convention : Reuss Voigt Hill
#
# Bulk Modulus (GPa) = 53.54084 56.79245 55.16665
# Shear Modulus (GPa) = 19.87297 24.18936 22.03117
#
# Velocity S-wave (km/s) = 3.23852 3.57296 3.40984
# Velocity P-wave (km/s) = 6.49926 6.85520 6.67960
#
# Compressibility (1/GPa) = 0.01867733
#
# Stress axis : x y z
#
# Youngs Moduli (GPa) = 69.41065 89.36615 73.60537
#
# Poissons Ratio (x) = 0.17439 0.22550
# Poissons Ratio (y) = 0.13545 0.38553
# Poissons Ratio (z) = 0.21265 0.46808
#
# Static dielectric constant tensor:
#      x y z
#    x 3.587230 0.000000 0.000000 
#    y 0.000000 3.637050 0.000000 
#    z 0.000000 0.000000 3.362730 
# 
# 
# High freq. dielectric constant tensor:
#      x y z
#    x 1.734390 0.000000 0.000000 
#    y 0.000000 1.727130 0.000000 
#    z 0.000000 0.000000 1.725940 
# 
# From -- ./inp_files/21302.got.cif
#   From: 2010.06.25/outbox.cif.g09.slc.cpg/sg48_11_cif.got.tgz:21302.got - 2010.06.26 18:06:46.
