data_PCOD8201596
_publ_section_title
;
Structure prediction by ZEFSAII (Michael W. Deem and Ramdas Pophale) SiO2 
 PCOD8201596
Probable space group: P N N N
;
_chemical_formula_sum "Si O2"
_cell_formula_units_Z 58
_cell_length_a 12.585882
_cell_length_b 13.945859
_cell_length_c 15.388080
_cell_angle_alpha 90.000000
_cell_angle_beta 90.000000
_cell_angle_gamma 90.000000
_cell_volume 2700.930201
_symmetry_space_group_name_H-M "P N N N"
_symmetry_group_IT_number 48
_space_group.IT_coordinate_system_code '2'
_symmetry_cell_setting 'orthorhombic'
loop_
_space_group_symop_operation_xyz
x,y,z
1/2-x,1/2-y,z
x,1/2-y,1/2-z
1/2-x,y,1/2-z
-x,-y,-z
1/2+x,1/2+y,-z
-x,1/2+y,1/2+z
1/2+x,-y,1/2+z
loop_
_atom_site_type_symbol
_atom_site_label
_atom_site_fract_x
_atom_site_fract_y
_atom_site_fract_z
Si Si1 0.567134 0.541407 0.624187
Si Si2 0.151876 0.870393 0.601911
Si Si3 0.250000 0.750000 0.750000
Si Si4 0.150434 0.517959 0.564415
Si Si5 0.719609 0.861327 0.554936
Si Si6 0.870768 0.336024 0.912866
Si Si7 0.138436 0.867603 0.111334
Si Si8 0.554476 0.951848 0.678366
O O1 0.464005 0.587449 0.582065
O O2 0.675105 0.578779 0.579939
O O3 0.555154 0.427069 0.607570
O O4 0.555079 0.579294 0.722283
O O5 0.167502 0.806548 0.688067
O O6 0.238806 0.953879 0.608483
O O7 0.166300 0.812962 0.512317
O O8 0.166992 0.407204 0.532663
O O9 0.117923 0.580478 0.480940
O O10 0.062148 0.539728 0.636607
O O11 0.750000 0.750000 0.541651
O O12 0.631144 0.875565 0.629876
O O13 0.922628 0.235124 0.881982
O O14 0.760862 0.354902 0.863575
O O15 0.096121 0.939341 0.183783
#
# Coordination Sequence:
#
# PCOD8201596 Si02
#       8
#     8   8   2   8   8   8   8   8
#     4  12  24  39  61  92 134 168 205 274 338 379
#     4  11  23  40  62  94 128 161 212 265 322 389
#     4  12  24  40  68 100 128 174 220 268 348 398
#     4  10  21  44  64  90 127 175 217 270 320 397
#     4  11  24  41  66  95 128 174 221 269 334 406
#     4  10  20  37  63  90 121 162 209 259 315 392
#     4   9  18  36  64  88 115 160 211 258 315 387
#     4  11  23  40  61  91 131 166 213 271 329 392
#
# _framework density 21.474081999999999
#
# number of rings (size 3 to 8) (size 9 to 14) (size 15 to 20)
#    0.000    1.379    4.138    4.966    0.000    6.069 
#    0.000    1.379    0.000    0.000    0.000    0.000 
#    0.000    0.000    0.000    0.000    0.000    0.000 
#
# Total GULP energy -718515.455065 kJ/mol
# GULP energy per Si atom -12388.197501 kJ/mol
# Density = 2.142521 g / cm^3
# Si number density = 21.474082 Si / 1000 Ang^3
#
#
#
# Elastic Constant Matrix: (Units=GPa)
#
#
# Indices 1 2 3 4 5 6 
#
# 1 98.0077 15.1743 15.6604 0.0000 0.0000 0.0000
# 2 15.1743 128.1442 1.9352 0.0000 0.0000 0.0000
# 3 15.6604 1.9352 51.1041 0.0000 0.0000 0.0000
# 4 0.0000 0.0000 0.0000 14.9031 0.0000 0.0000
# 5 0.0000 0.0000 0.0000 0.0000 25.6271 0.0000
# 6 0.0000 0.0000 0.0000 0.0000 0.0000 28.4384
#
#
#
# Elastic Compliance Matrix: (Units=1/GPa)
#
#
# Indices 1 2 3 4 5 6 
#
# 1 0.010923 -0.001244 -0.003300 0.000000 0.000000 0.000000
# 2 -0.001244 0.007950 0.000080 0.000000 0.000000 0.000000
# 3 -0.003300 0.000080 0.020576 0.000000 0.000000 0.000000
# 4 0.000000 0.000000 0.000000 0.067100 0.000000 0.000000
# 5 0.000000 0.000000 0.000000 0.000000 0.039021 0.000000
# 6 0.000000 0.000000 0.000000 0.000000 0.000000 0.035164
#
#
# Mechanical properties :
#
#
# Convention : Reuss Voigt Hill
#
# Bulk Modulus (GPa) = 32.76376 38.08843 35.42609
# Shear Modulus (GPa) = 25.02054 30.09277 27.55665
#
# Velocity S-wave (km/s) = 3.41713 3.74753 3.58614
# Velocity P-wave (km/s) = 5.55514 6.04158 5.80346
#
# Compressibility (1/GPa) = 0.03052153
#
# Stress axis : x y z
#
# Youngs Moduli (GPa) = 91.54855 125.78991 48.59987
#
# Poissons Ratio (x) = 0.15644 0.16039
# Poissons Ratio (y) = 0.11385 -0.00389
# Poissons Ratio (z) = 0.30213 -0.01007
#
# Static dielectric constant tensor:
#      x y z
#    x 3.840530 0.000000 0.000000 
#    y 0.000000 4.077580 0.000000 
#    z 0.000000 0.000000 3.770120 
# 
# 
# High freq. dielectric constant tensor:
#      x y z
#    x 1.838030 0.000000 0.000000 
#    y 0.000000 1.841460 0.000000 
#    z 0.000000 0.000000 1.831930 
# 
# From -- ./inp_files/31164.got.cif
#   From: 2010.06.25/outbox.cif.g09.slc.cpg/sg48_16_cif.got.tgz:31164.got - 2010.06.26 18:06:46.
