data_PCOD8201960
_publ_section_title
;
Structure prediction by ZEFSAII (Michael W. Deem and Ramdas Pophale) SiO2 
 PCOD8201960
Probable space group: P N N N
;
_chemical_formula_sum "Si O2"
_cell_formula_units_Z 48
_cell_length_a 14.783425
_cell_length_b 17.036384
_cell_length_c 8.623372
_cell_angle_alpha 90.000000
_cell_angle_beta 90.000000
_cell_angle_gamma 90.000000
_cell_volume 2171.848885
_symmetry_space_group_name_H-M "P N N N"
_symmetry_group_IT_number 48
_space_group.IT_coordinate_system_code '2'
_symmetry_cell_setting 'orthorhombic'
loop_
_space_group_symop_operation_xyz
x,y,z
1/2-x,1/2-y,z
x,1/2-y,1/2-z
1/2-x,y,1/2-z
-x,-y,-z
1/2+x,1/2+y,-z
-x,1/2+y,1/2+z
1/2+x,-y,1/2+z
loop_
_atom_site_type_symbol
_atom_site_label
_atom_site_fract_x
_atom_site_fract_y
_atom_site_fract_z
Si Si1 0.886958 0.739100 0.932652
Si Si2 0.970986 0.124537 0.508464
Si Si3 0.767420 0.862512 0.069770
Si Si4 0.006243 0.496229 0.250925
Si Si5 0.851186 0.481903 0.500751
Si Si6 0.765230 0.337991 0.932576
O O1 0.895341 0.750000 0.750000
O O2 0.982326 0.710178 0.004912
O O3 0.861335 0.820240 0.018825
O O4 0.812197 0.672800 0.966030
O O5 0.009691 0.074860 0.651980
O O6 0.864104 0.133507 0.519805
O O7 0.001988 0.081604 0.351644
O O8 0.750000 0.846378 0.250000
O O9 0.772741 0.954489 0.030921
O O10 0.104358 0.502267 0.331516
O O11 0.926291 0.491219 0.371850
O O12 0.807106 0.395958 0.488548
O O13 0.750000 0.250000 0.996176
O O14 0.750000 0.340972 0.750000
#
# Coordination Sequence:
#
# PCOD8201960 Si02
#       6
#     8   8   8   8   8   8
#     4  11  24  42  65 103 141 179 227 280 347 417
#     4  11  24  45  69 100 141 182 233 284 343 412
#     4  11  24  41  68 104 139 181 224 283 357 408
#     4  10  24  42  69 105 130 183 236 278 349 395
#     4  11  24  45  69  99 138 179 229 289 332 423
#     4  11  26  47  69 101 135 185 230 282 344 410
#
# _framework density 22.100984
#
# number of rings (size 3 to 8) (size 9 to 14) (size 15 to 20)
#    0.000    1.167    1.667    4.000    7.000    5.333 
#    6.000    0.833    0.000    0.000    0.000    0.000 
#    0.000    0.000    0.000    0.000    0.000    0.000 
#
# Total GULP energy -595414.120809 kJ/mol
# GULP energy per Si atom -12404.460850 kJ/mol
# Density = 2.205068 g / cm^3
# Si number density = 22.100984 Si / 1000 Ang^3
#
#
#
# Elastic Constant Matrix: (Units=GPa)
#
#
# Indices 1 2 3 4 5 6 
#
# 1 108.6233 45.6292 34.2090 0.0000 0.0000 0.0000
# 2 45.6292 143.6381 40.7587 0.0000 0.0000 0.0000
# 3 34.2090 40.7587 110.1801 0.0000 0.0000 0.0000
# 4 0.0000 0.0000 0.0000 -18.6720 0.0000 0.0000
# 5 0.0000 0.0000 0.0000 0.0000 -131.1548 0.0000
# 6 0.0000 0.0000 0.0000 0.0000 0.0000 46.9267
#
#
#
# Elastic Compliance Matrix: (Units=1/GPa)
#
#
# Indices 1 2 3 4 5 6 
#
# 1 0.011168 -0.002864 -0.002408 0.000000 0.000000 0.000000
# 2 -0.002864 0.008513 -0.002260 0.000000 0.000000 0.000000
# 3 -0.002408 -0.002260 0.010660 0.000000 0.000000 0.000000
# 4 0.000000 0.000000 0.000000 -0.053556 0.000000 0.000000
# 5 0.000000 0.000000 0.000000 0.000000 -0.007625 0.000000
# 6 0.000000 0.000000 0.000000 0.000000 0.000000 0.021310
#
#
# Mechanical properties :
#
#
# Convention : Reuss Voigt Hill
#
# Bulk Modulus (GPa) = 65.46077 67.07061 66.26569
# Shear Modulus (GPa) = 470.55770 -4.45706 233.05032
#
# Velocity S-wave (km/s) = 14.60735 -1.42164 10.27992
# Velocity P-wave (km/s) = 17.72521 5.26483 13.07481
#
# Compressibility (1/GPa) = 0.01527632
#
# Stress axis : x y z
#
# Youngs Moduli (GPa) = 89.54447 117.46555 93.81199
#
# Poissons Ratio (x) = 0.33647 0.22588
# Poissons Ratio (y) = 0.25649 0.21201
# Poissons Ratio (z) = 0.21560 0.26546
#
# Static dielectric constant tensor:
#      x y z
#    x 4.026290 0.000000 0.000000 
#    y 0.000000 4.251560 0.000000 
#    z 0.000000 0.000000 4.121400 
# 
# 
# High freq. dielectric constant tensor:
#      x y z
#    x 1.869830 0.000000 0.000000 
#    y 0.000000 1.876450 0.000000 
#    z 0.000000 0.000000 1.876390 
# 
# From -- ./inp_files/12757.got.cif
#   From: 2010.06.25/outbox.cif.g09.slc.cpg/sg48_7_cif.got.tgz:12757.got - 2010.06.26 18:06:46.
