data_PCOD8201510
_publ_section_title
;
Structure prediction by ZEFSAII (Michael W. Deem and Ramdas Pophale) SiO2 
 PCOD8201510
Probable space group: P N N N
;
_chemical_formula_sum "Si O2"
_cell_formula_units_Z 58
_cell_length_a 27.474063
_cell_length_b 12.225645
_cell_length_c 8.994281
_cell_angle_alpha 90.000000
_cell_angle_beta 90.000000
_cell_angle_gamma 90.000000
_cell_volume 3021.072324
_symmetry_space_group_name_H-M "P N N N"
_symmetry_group_IT_number 48
_space_group.IT_coordinate_system_code '2'
_symmetry_cell_setting 'orthorhombic'
loop_
_space_group_symop_operation_xyz
x,y,z
1/2-x,1/2-y,z
x,1/2-y,1/2-z
1/2-x,y,1/2-z
-x,-y,-z
1/2+x,1/2+y,-z
-x,1/2+y,1/2+z
1/2+x,-y,1/2+z
loop_
_atom_site_type_symbol
_atom_site_label
_atom_site_fract_x
_atom_site_fract_y
_atom_site_fract_z
Si Si1 0.923149 0.249828 0.426991
Si Si2 0.850987 0.151862 0.651518
Si Si3 0.441123 0.923281 0.345859
Si Si4 0.824531 0.583794 0.881618
Si Si5 0.091409 0.150945 0.161881
Si Si6 0.750000 0.750000 0.750000
Si Si7 0.612867 0.702739 0.406074
Si Si8 0.504676 0.614607 0.420014
O O1 0.916916 0.250000 0.250000
O O2 0.873708 0.197574 0.496808
O O3 0.932511 0.371685 0.491795
O O4 0.972329 0.190978 0.476342
O O5 0.825964 0.250000 0.750000
O O6 0.895838 0.106545 0.743912
O O7 0.813934 0.048746 0.622016
O O8 0.488043 0.882409 0.253542
O O9 0.446636 0.053742 0.366879
O O10 0.863348 0.609582 0.755894
O O11 0.779260 0.665048 0.855140
O O12 0.847755 0.612409 0.042226
O O13 0.064385 0.250000 0.250000
O O14 0.114265 0.190763 0.009085
O O15 0.628848 0.750000 0.250000
O O16 0.560132 0.649275 0.414442
O O17 0.500000 0.500000 0.500000
#
# Coordination Sequence:
#
# PCOD8201510 Si02
#       8
#     8   8   8   8   8   2   8   8
#     4  10  20  33  50  80 113 156 201 232 275 325
#     4   8  16  34  57  81 114 149 185 230 282 337
#     4   9  18  33  52  71 106 152 191 230 271 317
#     4  10  20  37  60  84 111 142 179 236 287 353
#     4   9  17  34  53  76 103 141 188 225 279 327
#     4  12  20  40  68  88 112 132 186 230 300 356
#     4  11  21  34  51  79 112 148 187 233 287 339
#     4  11  21  34  50  71 111 158 201 246 277 317
#
# _framework density 19.198481999999998
#
# number of rings (size 3 to 8) (size 9 to 14) (size 15 to 20)
#    0.000    2.207    2.069    5.379    0.000    4.966 
#    0.000    2.759    0.000    0.000    0.000    0.000 
#    0.000    0.000    0.000    0.000    0.000    0.000 
#
# Total GULP energy -718546.731403 kJ/mol
# GULP energy per Si atom -12388.736748 kJ/mol
# Density = 1.915479 g / cm^3
# Si number density = 19.198482 Si / 1000 Ang^3
#
#
#
# Elastic Constant Matrix: (Units=GPa)
#
#
# Indices 1 2 3 4 5 6 
#
# 1 53.9484 37.5005 16.4232 0.0000 0.0000 0.0000
# 2 37.5005 164.1517 58.8166 0.0000 0.0000 0.0000
# 3 16.4232 58.8166 147.9850 0.0000 0.0000 0.0000
# 4 0.0000 0.0000 0.0000 9.9795 0.0000 0.0000
# 5 0.0000 0.0000 0.0000 0.0000 10.9543 0.0000
# 6 0.0000 0.0000 0.0000 0.0000 0.0000 20.7896
#
#
#
# Elastic Compliance Matrix: (Units=1/GPa)
#
#
# Indices 1 2 3 4 5 6 
#
# 1 0.022070 -0.004856 -0.000519 0.000000 0.000000 0.000000
# 2 -0.004856 0.008172 -0.002709 0.000000 0.000000 0.000000
# 3 -0.000519 -0.002709 0.007892 0.000000 0.000000 0.000000
# 4 0.000000 0.000000 0.000000 0.100205 0.000000 0.000000
# 5 0.000000 0.000000 0.000000 0.000000 0.091289 0.000000
# 6 0.000000 0.000000 0.000000 0.000000 0.000000 0.048101
#
#
# Mechanical properties :
#
#
# Convention : Reuss Voigt Hill
#
# Bulk Modulus (GPa) = 45.52685 65.72955 55.62820
# Shear Modulus (GPa) = 16.59929 25.23434 20.91682
#
# Velocity S-wave (km/s) = 2.94362 3.62939 3.30434
# Velocity P-wave (km/s) = 5.94294 7.20239 6.60276
#
# Compressibility (1/GPa) = 0.02196506
#
# Stress axis : x y z
#
# Youngs Moduli (GPa) = 45.31115 122.37081 126.71407
#
# Poissons Ratio (x) = 0.59420 0.06581
# Poissons Ratio (y) = 0.22002 0.34327
# Poissons Ratio (z) = 0.02353 0.33151
#
# Static dielectric constant tensor:
#      x y z
#    x 3.115310 0.000000 0.000000 
#    y 0.000000 4.559250 0.000000 
#    z 0.000000 0.000000 3.491670 
# 
# 
# High freq. dielectric constant tensor:
#      x y z
#    x 1.692820 0.000000 0.000000 
#    y 0.000000 1.769890 0.000000 
#    z 0.000000 0.000000 1.739880 
# 
# From -- ./inp_files/16910.got.cif
#   From: 2010.06.25/outbox.cif.g09.slc.cpg/sg48_9_cif.got.tgz:16910.got - 2010.06.26 18:06:46.
