data_PCOD8201349
_publ_section_title
;
Structure prediction by ZEFSAII (Michael W. Deem and Ramdas Pophale) SiO2 
 PCOD8201349
Probable space group: P N N N
;
_chemical_formula_sum "Si O2"
_cell_formula_units_Z 56
_cell_length_a 8.675393
_cell_length_b 14.386779
_cell_length_c 21.618839
_cell_angle_alpha 90.000000
_cell_angle_beta 90.000000
_cell_angle_gamma 90.000000
_cell_volume 2698.268089
_symmetry_space_group_name_H-M "P N N N"
_symmetry_group_IT_number 48
_space_group.IT_coordinate_system_code '2'
_symmetry_cell_setting 'orthorhombic'
loop_
_space_group_symop_operation_xyz
x,y,z
1/2-x,1/2-y,z
x,1/2-y,1/2-z
1/2-x,y,1/2-z
-x,-y,-z
1/2+x,1/2+y,-z
-x,1/2+y,1/2+z
1/2+x,-y,1/2+z
loop_
_atom_site_type_symbol
_atom_site_label
_atom_site_fract_x
_atom_site_fract_y
_atom_site_fract_z
Si Si1 0.250000 0.980885 0.250000
Si Si2 0.861045 0.837798 0.415608
Si Si3 0.337233 0.838603 0.150229
Si Si4 0.213790 0.962665 0.051965
Si Si5 0.043565 0.389554 0.044786
Si Si6 0.272702 0.540145 0.916077
Si Si7 0.058045 0.086076 0.153708
Si Si8 0.250000 0.250000 0.120486
O O1 0.337334 0.921951 0.198752
O O2 0.113631 0.039654 0.217576
O O3 0.750000 0.750000 0.420110
O O4 0.966014 0.844894 0.476998
O O5 0.982638 0.818655 0.360907
O O6 0.760922 0.930944 0.403694
O O7 0.250000 0.750000 0.178859
O O8 0.240678 0.866666 0.088659
O O9 0.383893 0.006912 0.040304
O O10 0.112349 0.031570 0.092519
O O11 0.141823 0.947541 0.983371
O O12 0.157881 0.324828 0.082086
O O13 0.881645 0.397311 0.080272
O O14 0.373292 0.581905 0.858728
O O15 0.123687 0.191051 0.159034
#
# Coordination Sequence:
#
# PCOD8201349 Si02
#       8
#     4   8   8   8   8   8   8   4
#     4  10  25  47  64  80 118 174 236 271 333 374
#     4  11  22  36  61  99 138 171 209 257 322 400
#     4  11  22  39  64  87 125 172 219 268 314 387
#     4   9  18  36  58  89 130 170 200 242 326 399
#     4  10  18  37  60  94 143 169 193 256 332 404
#     4  11  20  37  63  96 134 169 205 258 334 393
#     4  10  23  39  65  88 119 168 218 272 319 393
#     4  10  22  39  64  96 126 162 209 262 336 404
#
# _framework density 20.754052999999999
#
# number of rings (size 3 to 8) (size 9 to 14) (size 15 to 20)
#    0.000    1.714    3.571    1.500    4.000    2.000 
#    0.000    0.714    0.000    0.000    3.714    0.000 
#    0.000    0.000    0.000    0.000    0.000    0.000 
#
# Total GULP energy -694040.262232 kJ/mol
# GULP energy per Si atom -12393.576111 kJ/mol
# Density = 2.070682 g / cm^3
# Si number density = 20.754053 Si / 1000 Ang^3
#
#
#
# Elastic Constant Matrix: (Units=GPa)
#
#
# Indices 1 2 3 4 5 6 
#
# 1 115.0794 44.3988 38.9928 0.0000 0.0000 0.0000
# 2 44.3988 105.3580 26.6682 0.0000 0.0000 0.0000
# 3 38.9928 26.6682 79.4329 0.0000 0.0000 0.0000
# 4 0.0000 0.0000 0.0000 17.4557 0.0000 0.0000
# 5 0.0000 0.0000 0.0000 0.0000 6.0672 0.0000
# 6 0.0000 0.0000 0.0000 0.0000 0.0000 30.2198
#
#
#
# Elastic Compliance Matrix: (Units=1/GPa)
#
#
# Indices 1 2 3 4 5 6 
#
# 1 0.011659 -0.003786 -0.004452 0.000000 0.000000 0.000000
# 2 -0.003786 0.011603 -0.002037 0.000000 0.000000 0.000000
# 3 -0.004452 -0.002037 0.015459 0.000000 0.000000 0.000000
# 4 0.000000 0.000000 0.000000 0.057288 0.000000 0.000000
# 5 0.000000 0.000000 0.000000 0.000000 0.164820 0.000000
# 6 0.000000 0.000000 0.000000 0.000000 0.000000 0.033091
#
#
# Mechanical properties :
#
#
# Convention : Reuss Voigt Hill
#
# Bulk Modulus (GPa) = 55.03616 57.77666 56.40641
# Shear Modulus (GPa) = 15.59937 23.40257 19.50097
#
# Velocity S-wave (km/s) = 2.74456 3.36164 3.06865
# Velocity P-wave (km/s) = 6.05139 6.55490 6.30817
#
# Compressibility (1/GPa) = 0.01816987
#
# Stress axis : x y z
#
# Youngs Moduli (GPa) = 85.77102 86.18798 64.68932
#
# Poissons Ratio (x) = 0.32633 0.28800
# Poissons Ratio (y) = 0.32475 0.13175
# Poissons Ratio (z) = 0.38186 0.17554
#
# Static dielectric constant tensor:
#      x y z
#    x 3.755920 0.000000 0.000000 
#    y 0.000000 3.828890 0.000000 
#    z 0.000000 0.000000 3.569260 
# 
# 
# High freq. dielectric constant tensor:
#      x y z
#    x 1.810460 0.000000 0.000000 
#    y 0.000000 1.812290 0.000000 
#    z 0.000000 0.000000 1.784670 
# 
# From -- ./inp_files/33619.got.cif
#   From: 2010.06.25/outbox.cif.g09.slc.cpg/sg48_17_cif.got.tgz:33619.got - 2010.06.26 18:06:46.
