data_PCOD8201290
_publ_section_title
;
Structure prediction by ZEFSAII (Michael W. Deem and Ramdas Pophale) SiO2 
 PCOD8201290
Probable space group: P N N N
;
_chemical_formula_sum "Si O2"
_cell_formula_units_Z 54
_cell_length_a 14.162406
_cell_length_b 16.788896
_cell_length_c 12.166021
_cell_angle_alpha 90.000000
_cell_angle_beta 90.000000
_cell_angle_gamma 90.000000
_cell_volume 2892.728943
_symmetry_space_group_name_H-M "P N N N"
_symmetry_group_IT_number 48
_space_group.IT_coordinate_system_code '2'
_symmetry_cell_setting 'orthorhombic'
loop_
_space_group_symop_operation_xyz
x,y,z
1/2-x,1/2-y,z
x,1/2-y,1/2-z
1/2-x,y,1/2-z
-x,-y,-z
1/2+x,1/2+y,-z
-x,1/2+y,1/2+z
1/2+x,-y,1/2+z
loop_
_atom_site_type_symbol
_atom_site_label
_atom_site_fract_x
_atom_site_fract_y
_atom_site_fract_z
Si Si1 0.600926 0.979627 0.216758
Si Si2 0.750000 0.750000 0.040381
Si Si3 0.554817 0.064499 0.928517
Si Si4 0.279983 0.077727 0.593773
Si Si5 0.208449 0.452341 0.131156
Si Si6 0.586878 0.154164 0.137399
Si Si7 0.750000 0.250000 0.250000
Si Si8 0.388619 0.289050 0.359057
O O1 0.515994 0.921108 0.175080
O O2 0.626963 0.951931 0.341009
O O3 0.690734 0.971495 0.137298
O O4 0.572623 0.073185 0.209911
O O5 0.655834 0.744839 0.964294
O O6 0.742297 0.671355 0.115746
O O7 0.655007 0.034856 0.884488
O O8 0.581159 0.138985 0.005511
O O9 0.500000 0.000000 0.000000
O O10 0.288880 0.059809 0.463139
O O11 0.250000 0.452394 0.250000
O O12 0.133386 0.381648 0.124103
O O13 0.685143 0.195361 0.171312
O O14 0.501660 0.216844 0.154701
O O15 0.342397 0.250000 0.250000
#
# Coordination Sequence:
#
# PCOD8201290 Si02
#       8
#     8   4   8   8   8   8   2   8
#     4  10  19  35  62  83 113 150 198 236 274 354
#     4  10  21  33  54  86 122 154 177 229 300 362
#     4  10  17  36  58  80 106 152 192 231 280 350
#     4  10  19  34  55  88 117 149 190 237 285 343
#     4  11  20  33  57  86 116 153 187 234 297 344
#     4  11  21  36  61  85 111 150 199 241 298 339
#     4  12  24  36  56  90 114 146 196 268 292 332
#     4  11  19  35  55  85 120 150 186 232 298 358
#
# _framework density 18.667493
#
# number of rings (size 3 to 8) (size 9 to 14) (size 15 to 20)
#    0.000    1.481    6.667    3.778    0.000    1.185 
#    0.000    0.741    3.259    0.000    0.000    0.000 
#    0.000    0.000    0.000    0.000    0.000    0.000 
#
# Total GULP energy -669130.463041 kJ/mol
# GULP energy per Si atom -12391.304871 kJ/mol
# Density = 1.862501 g / cm^3
# Si number density = 18.667493 Si / 1000 Ang^3
#
#
#
# Elastic Constant Matrix: (Units=GPa)
#
#
# Indices 1 2 3 4 5 6 
#
# 1 92.5314 22.9528 41.3171 0.0000 0.0000 0.0000
# 2 22.9528 46.8746 22.1150 0.0000 0.0000 0.0000
# 3 41.3171 22.1150 111.6599 0.0000 0.0000 0.0000
# 4 0.0000 0.0000 0.0000 27.2546 0.0000 0.0000
# 5 0.0000 0.0000 0.0000 0.0000 16.3915 0.0000
# 6 0.0000 0.0000 0.0000 0.0000 0.0000 14.5595
#
#
#
# Elastic Compliance Matrix: (Units=1/GPa)
#
#
# Indices 1 2 3 4 5 6 
#
# 1 0.013868 -0.004820 -0.004177 0.000000 0.000000 0.000000
# 2 -0.004820 0.025208 -0.003209 0.000000 0.000000 0.000000
# 3 -0.004177 -0.003209 0.011137 0.000000 0.000000 0.000000
# 4 0.000000 0.000000 0.000000 0.036691 0.000000 0.000000
# 5 0.000000 0.000000 0.000000 0.000000 0.061007 0.000000
# 6 0.000000 0.000000 0.000000 0.000000 0.000000 0.068684
#
#
# Mechanical properties :
#
#
# Convention : Reuss Voigt Hill
#
# Bulk Modulus (GPa) = 38.75867 47.09285 42.92576
# Shear Modulus (GPa) = 20.03156 22.61985 21.32570
#
# Velocity S-wave (km/s) = 3.27933 3.48476 3.38360
# Velocity P-wave (km/s) = 5.92844 6.43998 6.18950
#
# Compressibility (1/GPa) = 0.02580068
#
# Stress axis : x y z
#
# Youngs Moduli (GPa) = 72.10951 39.67046 89.79178
#
# Poissons Ratio (x) = 0.19121 0.37504
# Poissons Ratio (y) = 0.34757 0.28815
# Poissons Ratio (z) = 0.30119 0.12730
#
# Static dielectric constant tensor:
#      x y z
#    x 4.766740 0.000000 0.000000 
#    y 0.000000 3.528270 0.000000 
#    z 0.000000 0.000000 3.721830 
# 
# 
# High freq. dielectric constant tensor:
#      x y z
#    x 1.713230 0.000000 0.000000 
#    y 0.000000 1.701260 0.000000 
#    z 0.000000 0.000000 1.719560 
# 
# From -- ./inp_files/21365.got.cif
#   From: 2010.06.25/outbox.cif.g09.slc.cpg/sg48_11_cif.got.tgz:21365.got - 2010.06.26 18:06:46.
