data_PCOD8201179
_publ_section_title
;
Structure prediction by ZEFSAII (Michael W. Deem and Ramdas Pophale) SiO2 
 PCOD8201179
Probable space group: P M M M
;
_chemical_formula_sum "Si O2"
_cell_formula_units_Z 56
_cell_length_a 33.442380
_cell_length_b 9.125942
_cell_length_c 12.594194
_cell_angle_alpha 90.000000
_cell_angle_beta 90.000000
_cell_angle_gamma 90.000000
_cell_volume 3843.662623
_symmetry_space_group_name_H-M "P M M M"
_symmetry_group_IT_number 47
_symmetry_cell_setting 'orthorhombic'
loop_
_space_group_symop_operation_xyz
x,y,z
-x,-y,z
x,-y,-z
-x,y,-z
-x,-y,-z
x,y,-z
-x,y,z
x,-y,z
loop_
_atom_site_type_symbol
_atom_site_label
_atom_site_fract_x
_atom_site_fract_y
_atom_site_fract_z
Si Si1 0.000000 0.334089 0.626562
Si Si2 0.233914 0.834256 0.373357
Si Si3 0.547542 0.334806 0.000000
Si Si4 0.390003 0.829339 0.378695
Si Si5 0.155947 0.665837 0.626554
Si Si6 0.545582 0.170947 0.207401
Si Si7 0.688692 0.334722 0.373634
Si Si8 0.077990 0.834100 0.626567
O O1 0.039028 0.250206 0.669896
O O2 0.000000 0.500000 0.670274
O O3 0.000000 0.335047 0.500000
O O4 0.234126 0.834166 0.500000
O O5 0.195213 0.748217 0.330205
O O6 0.273369 0.754125 0.328482
O O7 0.232921 0.000000 0.329863
O O8 0.563438 0.254634 0.894551
O O9 0.563750 0.500000 0.000000
O O10 0.500000 0.327635 0.000000
O O11 0.399812 0.786348 0.500000
O O12 0.428558 0.785782 0.309946
O O13 0.351963 0.741284 0.334119
O O14 0.379584 0.000000 0.369037
O O15 0.155868 0.664996 0.500000
O O16 0.155616 0.500000 0.670301
O O17 0.117096 0.750759 0.669972
O O18 0.500000 0.218058 0.231850
O O19 0.548303 0.000000 0.181751
O O20 0.690050 0.333161 0.500000
O O21 0.690321 0.500000 0.329612
O O22 0.077995 0.835009 0.500000
O O23 0.077852 0.000000 0.670268
#
# Coordination Sequence:
#
# PCOD8201179 Si02
#       8
#     4   8   4   8   8   8   8   8
#     4   9  15  21  27  33  41  55  75  99 131 173
#     4   9  15  22  32  44  57  74  97 125 156 189
#     4   9  17  29  45  63  81 101 127 159 191 221
#     4   9  17  28  41  58  80 104 128 153 182 218
#     4   9  15  21  28  38  51  65  83 110 144 181
#     4   9  17  29  45  63  82 104 129 157 188 221
#     4   9  16  25  36  49  66  89 115 140 166 199
#     4   9  15  21  27  34  44  58  77 102 134 174
#
# _framework density 14.569436
#
# number of rings (size 3 to 8) (size 9 to 14) (size 15 to 20)
#    0.000    3.000    0.000    2.143    0.000    9.429 
#    0.000    1.429    0.000    0.000    0.000    4.000 
#    0.000    0.000    0.000    0.000    0.000    0.000 
#
# Total GULP energy -694283.825933 kJ/mol
# GULP energy per Si atom -12397.925463 kJ/mol
# Density = 1.453628 g / cm^3
# Si number density = 14.569436 Si / 1000 Ang^3
#
#
#
# Elastic Constant Matrix: (Units=GPa)
#
#
# Indices 1 2 3 4 5 6 
#
# 1 128.6770 71.7193 29.8932 0.0000 0.0000 0.0000
# 2 71.7193 124.0018 23.5758 0.0000 0.0000 0.0000
# 3 29.8932 23.5758 30.1364 0.0000 0.0000 0.0000
# 4 0.0000 0.0000 0.0000 6.9949 0.0000 0.0000
# 5 0.0000 0.0000 0.0000 0.0000 0.5461 0.0000
# 6 0.0000 0.0000 0.0000 0.0000 0.0000 27.4374
#
#
#
# Elastic Compliance Matrix: (Units=1/GPa)
#
#
# Indices 1 2 3 4 5 6 
#
# 1 0.013005 -0.005955 -0.008242 0.000000 0.000000 0.000000
# 2 -0.005955 0.012200 -0.003637 0.000000 0.000000 0.000000
# 3 -0.008242 -0.003637 0.044203 0.000000 0.000000 0.000000
# 4 0.000000 0.000000 0.000000 0.142962 0.000000 0.000000
# 5 0.000000 0.000000 0.000000 0.000000 1.831240 0.000000
# 6 0.000000 0.000000 0.000000 0.000000 0.000000 0.036447
#
#
# Mechanical properties :
#
#
# Convention : Reuss Voigt Hill
#
# Bulk Modulus (GPa) = 29.63792 59.24354 44.44073
# Shear Modulus (GPa) = 2.35076 17.50413 9.92745
#
# Velocity S-wave (km/s) = 1.27161 3.46992 2.61317
# Velocity P-wave (km/s) = 4.74791 7.53691 6.29872
#
# Compressibility (1/GPa) = 0.03374056
#
# Stress axis : x y z
#
# Youngs Moduli (GPa) = 76.89361 81.96681 22.62289
#
# Poissons Ratio (x) = 0.48810 0.18645
# Poissons Ratio (y) = 0.45789 0.08229
# Poissons Ratio (z) = 0.63372 0.29814
#
# Static dielectric constant tensor:
#      x y z
#    x 2.975250 0.000000 0.000000 
#    y 0.000000 3.043580 0.000000 
#    z 0.000000 0.000000 2.185040 
# 
# 
# High freq. dielectric constant tensor:
#      x y z
#    x 1.565570 0.000000 0.000000 
#    y 0.000000 1.575220 0.000000 
#    z 0.000000 0.000000 1.461520 
# 
# From -- ./inp_files/25813.got.cif
#   From: 2010.03.12/outbox.cif.g09.slc.cpg/sg47_13_cif.got.tgz:25813.got - 2010.04.14 03:12:58.
