data_PCOD8201694
_publ_section_title
;
Structure prediction by ZEFSAII (Michael W. Deem and Ramdas Pophale) SiO2 
 PCOD8201694
Probable space group: P N N N
;
_chemical_formula_sum "Si O2"
_cell_formula_units_Z 36
_cell_length_a 17.261367
_cell_length_b 5.097902
_cell_length_c 21.581412
_cell_angle_alpha 90.000000
_cell_angle_beta 90.000000
_cell_angle_gamma 90.000000
_cell_volume 1899.094275
_symmetry_space_group_name_H-M "P N N N"
_symmetry_group_IT_number 48
_space_group.IT_coordinate_system_code '2'
_symmetry_cell_setting 'orthorhombic'
loop_
_space_group_symop_operation_xyz
x,y,z
1/2-x,1/2-y,z
x,1/2-y,1/2-z
1/2-x,y,1/2-z
-x,-y,-z
1/2+x,1/2+y,-z
-x,1/2+y,1/2+z
1/2+x,-y,1/2+z
loop_
_atom_site_type_symbol
_atom_site_label
_atom_site_fract_x
_atom_site_fract_y
_atom_site_fract_z
Si Si1 0.956180 0.084338 0.061510
Si Si2 0.833508 0.368792 0.529083
Si Si3 0.147748 0.994094 0.291754
Si Si4 0.034006 0.610657 0.107403
Si Si5 0.250000 0.250000 0.387943
O O1 0.983549 0.369162 0.082859
O O2 0.865989 0.075374 0.040484
O O3 0.977102 0.863926 0.112570
O O4 0.000000 0.000000 0.000000
O O5 0.750000 0.250000 0.519188
O O6 0.892495 0.169449 0.562838
O O7 0.820580 0.629918 0.570949
O O8 0.142709 0.250000 0.250000
O O9 0.213257 0.025140 0.344613
O O10 0.172271 0.750000 0.250000
O O11 0.064508 0.947109 0.323616
#
# Coordination Sequence:
#
# PCOD8201694 Si02
#       5
#     8   8   8   8   4
#     4  10  21  36  57  77 108 152 189 228 286 338
#     4  11  22  34  58  82 118 152 189 225 285 349
#     4  12  25  39  56  78 111 158 201 239 270 319
#     4  11  22  40  53  78 111 152 194 239 275 324
#     4  12  25  36  54  84 126 152 191 228 282 332
#
# _framework density 18.956405
#
# number of rings (size 3 to 8) (size 9 to 14) (size 15 to 20)
#    0.000    0.889    2.222    8.333    3.111    2.667 
#    0.000    0.000    0.000    0.000    0.000    0.000 
#    0.000   13.333    0.000    0.000    0.000    0.000 
#
# Total GULP energy -446221.240994 kJ/mol
# GULP energy per Si atom -12395.034472 kJ/mol
# Density = 1.891326 g / cm^3
# Si number density = 18.956405 Si / 1000 Ang^3
#
#
#
# Elastic Constant Matrix: (Units=GPa)
#
#
# Indices 1 2 3 4 5 6 
#
# 1 110.2430 57.6441 57.2904 0.0000 0.0000 0.0000
# 2 57.6441 152.1336 46.6105 0.0000 0.0000 0.0000
# 3 57.2904 46.6105 65.9093 0.0000 0.0000 0.0000
# 4 0.0000 0.0000 0.0000 34.4334 0.0000 0.0000
# 5 0.0000 0.0000 0.0000 0.0000 30.7619 0.0000
# 6 0.0000 0.0000 0.0000 0.0000 0.0000 31.3037
#
#
#
# Elastic Compliance Matrix: (Units=1/GPa)
#
#
# Indices 1 2 3 4 5 6 
#
# 1 0.017247 -0.002479 -0.013238 0.000000 0.000000 0.000000
# 2 -0.002479 0.008748 -0.004031 0.000000 0.000000 0.000000
# 3 -0.013238 -0.004031 0.029530 0.000000 0.000000 0.000000
# 4 0.000000 0.000000 0.000000 0.029042 0.000000 0.000000
# 5 0.000000 0.000000 0.000000 0.000000 0.032508 0.000000
# 6 0.000000 0.000000 0.000000 0.000000 0.000000 0.031945
#
#
# Mechanical properties :
#
#
# Convention : Reuss Voigt Hill
#
# Bulk Modulus (GPa) = 62.39299 72.37510 67.38405
# Shear Modulus (GPa) = 25.79197 30.41587 28.10392
#
# Velocity S-wave (km/s) = 3.69262 4.00999 3.85457
# Velocity P-wave (km/s) = 7.15304 7.72675 7.44542
#
# Compressibility (1/GPa) = 0.01602744
#
# Stress axis : x y z
#
# Youngs Moduli (GPa) = 57.98240 114.31718 33.86335
#
# Poissons Ratio (x) = 0.28338 0.44829
# Poissons Ratio (y) = 0.14373 0.13652
# Poissons Ratio (z) = 0.76758 0.46087
#
# Static dielectric constant tensor:
#      x y z
#    x 4.695770 0.000000 0.000000 
#    y 0.000000 3.810780 0.000000 
#    z 0.000000 0.000000 4.066630 
# 
# 
# High freq. dielectric constant tensor:
#      x y z
#    x 1.718120 0.000000 0.000000 
#    y 0.000000 1.762700 0.000000 
#    z 0.000000 0.000000 1.703090 
# 
# From -- ./inp_files/36611.got.cif
#   From: 2010.06.25/outbox.cif.g09.slc.cpg/sg48_19_cif.got.tgz:36611.got - 2010.06.26 18:06:46.
