data_PCOD8201270
_publ_section_title
;
Structure prediction by ZEFSAII (Michael W. Deem and Ramdas Pophale) SiO2 
 PCOD8201270
Probable space group: P N N N
;
_chemical_formula_sum "Si O2"
_cell_formula_units_Z 56
_cell_length_a 8.451703
_cell_length_b 20.399339
_cell_length_c 15.552118
_cell_angle_alpha 90.000000
_cell_angle_beta 90.000000
_cell_angle_gamma 90.000000
_cell_volume 2681.327517
_symmetry_space_group_name_H-M "P N N N"
_symmetry_group_IT_number 48
_space_group.IT_coordinate_system_code '2'
_symmetry_cell_setting 'orthorhombic'
loop_
_space_group_symop_operation_xyz
x,y,z
1/2-x,1/2-y,z
x,1/2-y,1/2-z
1/2-x,y,1/2-z
-x,-y,-z
1/2+x,1/2+y,-z
-x,1/2+y,1/2+z
1/2+x,-y,1/2+z
loop_
_atom_site_type_symbol
_atom_site_label
_atom_site_fract_x
_atom_site_fract_y
_atom_site_fract_z
Si Si1 0.250000 0.250000 0.018883
Si Si2 0.847103 0.046172 0.337957
Si Si3 0.435310 0.675940 0.258077
Si Si4 0.250000 0.750000 0.014847
Si Si5 0.951523 0.425478 0.904263
Si Si6 0.014690 0.845113 0.567039
Si Si7 0.136974 0.947454 0.001576
Si Si8 0.016596 0.330544 0.579602
O O1 0.377834 0.210458 0.077686
O O2 0.181827 0.195920 0.954452
O O3 0.750000 0.041092 0.250000
O O4 0.954608 0.113194 0.344958
O O5 0.715738 0.049705 0.409975
O O6 0.955445 0.983073 0.356375
O O7 0.501639 0.750000 0.250000
O O8 0.250000 0.671871 0.250000
O O9 0.474357 0.638876 0.345740
O O10 0.521755 0.640015 0.176333
O O11 0.387719 0.728200 0.079969
O O12 0.179794 0.691046 0.956922
O O13 0.770105 0.450180 0.921650
O O14 0.025444 0.401456 0.995294
O O15 0.040457 0.881007 0.008774
O O16 0.000000 0.000000 0.000000
#
# Coordination Sequence:
#
# PCOD8201270 Si02
#       8
#     4   8   8   4   8   8   8   8
#     4  10  24  34  69  99 128 172 212 284 330 411
#     4  11  26  44  66  93 129 175 224 280 324 387
#     4  11  20  35  60  96 132 170 210 256 319 398
#     4  10  16  38  64  88 118 172 218 250 321 403
#     4  11  23  40  65  94 135 175 218 266 328 403
#     4  10  20  42  63  94 125 168 216 268 337 391
#     4  11  24  42  66  90 127 181 222 267 326 393
#     4  11  21  37  63  93 131 167 218 259 330 395
#
# _framework density 20.885179000000001
#
# number of rings (size 3 to 8) (size 9 to 14) (size 15 to 20)
#    0.000    1.286    4.286    4.286    6.000    0.000 
#    0.000    2.857    0.000    0.857    0.000    0.000 
#    0.000    0.000    0.000    0.000    0.000    0.000 
#
# Total GULP energy -693740.317423 kJ/mol
# GULP energy per Si atom -12388.219954 kJ/mol
# Density = 2.083764 g / cm^3
# Si number density = 20.885179 Si / 1000 Ang^3
#
#
#
# Elastic Constant Matrix: (Units=GPa)
#
#
# Indices 1 2 3 4 5 6 
#
# 1 98.8083 52.3645 43.3297 0.0000 0.0000 0.0000
# 2 52.3645 99.9290 57.6329 0.0000 0.0000 0.0000
# 3 43.3297 57.6329 98.6963 0.0000 0.0000 0.0000
# 4 0.0000 0.0000 0.0000 22.4150 0.0000 0.0000
# 5 0.0000 0.0000 0.0000 0.0000 16.0571 0.0000
# 6 0.0000 0.0000 0.0000 0.0000 0.0000 42.0456
#
#
#
# Elastic Compliance Matrix: (Units=1/GPa)
#
#
# Indices 1 2 3 4 5 6 
#
# 1 0.014549 -0.005941 -0.002918 0.000000 0.000000 0.000000
# 2 -0.005941 0.017515 -0.007619 0.000000 0.000000 0.000000
# 3 -0.002918 -0.007619 0.015862 0.000000 0.000000 0.000000
# 4 0.000000 0.000000 0.000000 0.044613 0.000000 0.000000
# 5 0.000000 0.000000 0.000000 0.000000 0.062278 0.000000
# 6 0.000000 0.000000 0.000000 0.000000 0.000000 0.023784
#
#
# Mechanical properties :
#
#
# Convention : Reuss Voigt Hill
#
# Bulk Modulus (GPa) = 66.80379 67.12088 66.96233
# Shear Modulus (GPa) = 23.08978 25.71065 24.40021
#
# Velocity S-wave (km/s) = 3.32860 3.51244 3.42175
# Velocity P-wave (km/s) = 6.84313 6.97549 6.90963
#
# Compressibility (1/GPa) = 0.01496921
#
# Stress axis : x y z
#
# Youngs Moduli (GPa) = 68.73513 57.09546 63.04194
#
# Poissons Ratio (x) = 0.33919 0.18396
# Poissons Ratio (y) = 0.40834 0.48034
# Poissons Ratio (z) = 0.20058 0.43503
#
# Static dielectric constant tensor:
#      x y z
#    x 3.918220 0.000000 0.000000 
#    y 0.000000 4.210800 0.000000 
#    z 0.000000 0.000000 3.687610 
# 
# 
# High freq. dielectric constant tensor:
#      x y z
#    x 1.815370 0.000000 0.000000 
#    y 0.000000 1.830220 0.000000 
#    z 0.000000 0.000000 1.786260 
# 
# From -- ./inp_files/25659.got.cif
#   From: 2010.06.25/outbox.cif.g09.slc.cpg/sg48_13_cif.got.tgz:25659.got - 2010.06.26 18:06:46.
