data_PCOD8201025
_publ_section_title
;
Structure prediction by ZEFSAII (Michael W. Deem and Ramdas Pophale) SiO2 
 PCOD8201025
Probable space group: P M M M
;
_chemical_formula_sum "Si O2"
_cell_formula_units_Z 64
_cell_length_a 30.035763
_cell_length_b 15.318283
_cell_length_c 9.595989
_cell_angle_alpha 90.000000
_cell_angle_beta 90.000000
_cell_angle_gamma 90.000000
_cell_volume 4415.079204
_symmetry_space_group_name_H-M "P M M M"
_symmetry_group_IT_number 47
_symmetry_cell_setting 'orthorhombic'
loop_
_space_group_symop_operation_xyz
x,y,z
-x,-y,z
x,-y,-z
-x,y,-z
-x,-y,-z
x,y,-z
-x,y,z
x,-y,z
loop_
_atom_site_type_symbol
_atom_site_label
_atom_site_fract_x
_atom_site_fract_y
_atom_site_fract_z
Si Si1 0.447114 0.403744 0.157039
Si Si2 0.295133 0.896232 0.842646
Si Si3 0.621320 0.899644 0.660837
Si Si4 0.052861 0.403909 0.843992
Si Si5 0.784508 0.896214 0.344446
Si Si6 0.449088 0.245014 0.661209
Si Si7 0.883072 0.903457 0.334482
Si Si8 0.948518 0.755356 0.663271
O O1 0.500000 0.403750 0.164943
O O2 0.429724 0.500000 0.204204
O O3 0.428377 0.327634 0.256426
O O4 0.431066 0.384378 0.000000
O O5 0.338665 0.866392 0.758096
O O6 0.251784 0.858012 0.763271
O O7 0.292584 0.000000 0.845892
O O8 0.296757 0.858643 0.000000
O O9 0.636004 0.888554 0.500000
O O10 0.578278 0.842042 0.697027
O O11 0.608817 0.000000 0.692638
O O12 0.070692 0.500000 0.799427
O O13 0.070652 0.331041 0.737824
O O14 0.000000 0.405053 0.839771
O O15 0.069362 0.381523 0.000000
O O16 0.775590 0.858380 0.500000
O O17 0.833851 0.870131 0.290366
O O18 0.781151 0.000000 0.351831
O O19 0.445593 0.269490 0.500000
O O20 0.500000 0.226204 0.705329
O O21 0.884886 0.909192 0.500000
O O22 0.920482 0.837260 0.278646
O O23 0.892755 0.000000 0.271993
O O24 0.941449 0.741333 0.500000
O O25 0.000000 0.773133 0.699963
#
# Coordination Sequence:
#
# PCOD8201025 Si02
#       8
#     8   8   8   8   8   8   8   8
#     4   8  14  25  40  56  74  98 127 158 195 236
#     4   9  16  25  38  56  75  93 119 160 203 234
#     4   9  17  28  40  54  76 107 137 160 186 225
#     4   8  14  25  39  52  68  94 126 158 195 236
#     4   8  13  23  39  54  69  94 126 156 188 228
#     4   9  17  27  39  57  79 103 133 166 193 216
#     4   8  14  24  37  54  77 105 134 159 184 220
#     4   9  16  24  36  56  79 102 130 163 192 216
#
# _framework density 14.495775999999999
#
# number of rings (size 3 to 8) (size 9 to 14) (size 15 to 20)
#    0.000    3.500    0.000    1.875    0.000    3.000 
#    0.000    5.625    0.000    1.125    0.000    5.250 
#    0.000    1.000    0.000    9.500    0.000    6.250 
#
# Total GULP energy -793133.963322 kJ/mol
# GULP energy per Si atom -12392.718177 kJ/mol
# Density = 1.446278 g / cm^3
# Si number density = 14.495776 Si / 1000 Ang^3
#
#
#
# Elastic Constant Matrix: (Units=GPa)
#
#
# Indices 1 2 3 4 5 6 
#
# 1 73.1727 48.4111 42.5467 0.0000 0.0000 0.0000
# 2 48.4111 88.6395 44.9457 0.0000 0.0000 0.0000
# 3 42.5467 44.9457 66.4600 0.0000 0.0000 0.0000
# 4 0.0000 0.0000 0.0000 17.3295 0.0000 0.0000
# 5 0.0000 0.0000 0.0000 0.0000 11.4264 0.0000
# 6 0.0000 0.0000 0.0000 0.0000 0.0000 1.8965
#
#
#
# Elastic Compliance Matrix: (Units=1/GPa)
#
#
# Indices 1 2 3 4 5 6 
#
# 1 0.025436 -0.008576 -0.010484 0.000000 0.000000 0.000000
# 2 -0.008576 0.020061 -0.008076 0.000000 0.000000 0.000000
# 3 -0.010484 -0.008076 0.027220 0.000000 0.000000 0.000000
# 4 0.000000 0.000000 0.000000 0.057705 0.000000 0.000000
# 5 0.000000 0.000000 0.000000 0.000000 0.087517 0.000000
# 6 0.000000 0.000000 0.000000 0.000000 0.000000 0.527289
#
#
# Mechanical properties :
#
#
# Convention : Reuss Voigt Hill
#
# Bulk Modulus (GPa) = 54.21769 55.56436 54.89103
# Shear Modulus (GPa) = 6.20618 12.28839 9.24728
#
# Velocity S-wave (km/s) = 2.07139 2.91473 2.52847
# Velocity P-wave (km/s) = 6.57301 7.05281 6.81713
#
# Compressibility (1/GPa) = 0.01844416
#
# Stress axis : x y z
#
# Youngs Moduli (GPa) = 39.31396 49.84836 36.73730
#
# Poissons Ratio (x) = 0.42751 0.38515
# Poissons Ratio (y) = 0.33716 0.29671
# Poissons Ratio (z) = 0.41217 0.40260
#
# Static dielectric constant tensor:
#      x y z
#    x 2.735270 0.000000 0.000000 
#    y 0.000000 2.910970 0.000000 
#    z 0.000000 0.000000 2.898450 
# 
# 
# High freq. dielectric constant tensor:
#      x y z
#    x 1.525990 0.000000 0.000000 
#    y 0.000000 1.528270 0.000000 
#    z 0.000000 0.000000 1.547480 
# 
# From -- ./inp_files/14351.got.cif
#   From: 2010.03.12/outbox.cif.g09.slc.cpg/sg47_8_cif.got.tgz:14351.got - 2010.04.14 03:12:58.
