data_PCOD8201659
_publ_section_title
;
Structure prediction by ZEFSAII (Michael W. Deem and Ramdas Pophale) SiO2 
 PCOD8201659
Probable space group: P N N N
;
_chemical_formula_sum "Si O2"
_cell_formula_units_Z 48
_cell_length_a 8.205130
_cell_length_b 14.698126
_cell_length_c 17.493112
_cell_angle_alpha 90.000000
_cell_angle_beta 90.000000
_cell_angle_gamma 90.000000
_cell_volume 2109.669912
_symmetry_space_group_name_H-M "P N N N"
_symmetry_group_IT_number 48
_space_group.IT_coordinate_system_code '2'
_symmetry_cell_setting 'orthorhombic'
loop_
_space_group_symop_operation_xyz
x,y,z
1/2-x,1/2-y,z
x,1/2-y,1/2-z
1/2-x,y,1/2-z
-x,-y,-z
1/2+x,1/2+y,-z
-x,1/2+y,1/2+z
1/2+x,-y,1/2+z
loop_
_atom_site_type_symbol
_atom_site_label
_atom_site_fract_x
_atom_site_fract_y
_atom_site_fract_z
Si Si1 0.345045 0.392876 0.669871
Si Si2 0.929915 0.779409 0.558522
Si Si3 0.543820 0.952556 0.419456
Si Si4 0.933170 0.376408 0.335655
Si Si5 0.442199 0.912316 0.831817
Si Si6 0.431773 0.753861 0.401031
O O1 0.250000 0.381300 0.750000
O O2 0.230981 0.419184 0.596846
O O3 0.466648 0.479144 0.677693
O O4 0.443663 0.298906 0.655528
O O5 0.750000 0.750000 0.531746
O O6 0.997420 0.705116 0.616037
O O7 0.933651 0.875472 0.603488
O O8 0.044566 0.789293 0.484880
O O9 0.446402 0.861430 0.406981
O O10 0.500000 0.000000 0.500000
O O11 0.487247 0.026915 0.357849
O O12 0.977551 0.360460 0.247556
O O13 0.741786 0.385496 0.354176
O O14 0.250000 0.750000 0.369250
#
# Coordination Sequence:
#
# PCOD8201659 Si02
#       6
#     8   8   8   8   8   8
#     4  11  24  50  77 104 139 195 244 293 367 438
#     4  12  25  40  66 105 148 190 234 294 364 428
#     4  11  22  43  75 101 141 182 234 298 363 425
#     4  10  20  41  68 101 139 184 233 287 361 429
#     4  10  21  42  71 103 136 189 234 290 362 432
#     4  12  28  46  70 108 143 187 244 300 358 427
#
# _framework density 22.752375000000001
#
# number of rings (size 3 to 8) (size 9 to 14) (size 15 to 20)
#    0.000    1.000    5.000    3.500    2.333    6.000 
#    0.000    1.667    0.000    0.000    0.000    0.000 
#    0.000    0.000    0.000    0.000    0.000    0.000 
#
# Total GULP energy -594794.815204 kJ/mol
# GULP energy per Si atom -12391.558650 kJ/mol
# Density = 2.270059 g / cm^3
# Si number density = 22.752375 Si / 1000 Ang^3
#
#
#
# Elastic Constant Matrix: (Units=GPa)
#
#
# Indices 1 2 3 4 5 6 
#
# 1 76.8578 34.6629 45.4180 0.0000 0.0000 0.0000
# 2 34.6629 142.9750 47.5034 0.0000 0.0000 0.0000
# 3 45.4180 47.5034 97.9193 0.0000 0.0000 0.0000
# 4 0.0000 0.0000 0.0000 43.9837 0.0000 0.0000
# 5 0.0000 0.0000 0.0000 0.0000 32.3116 0.0000
# 6 0.0000 0.0000 0.0000 0.0000 0.0000 35.1650
#
#
#
# Elastic Compliance Matrix: (Units=1/GPa)
#
#
# Indices 1 2 3 4 5 6 
#
# 1 0.018362 -0.001934 -0.007579 0.000000 0.000000 0.000000
# 2 -0.001934 0.008542 -0.003247 0.000000 0.000000 0.000000
# 3 -0.007579 -0.003247 0.015303 0.000000 0.000000 0.000000
# 4 0.000000 0.000000 0.000000 0.022736 0.000000 0.000000
# 5 0.000000 0.000000 0.000000 0.000000 0.030949 0.000000
# 6 0.000000 0.000000 0.000000 0.000000 0.000000 0.028437
#
#
# Mechanical properties :
#
#
# Convention : Reuss Voigt Hill
#
# Bulk Modulus (GPa) = 59.92387 63.65787 61.79087
# Shear Modulus (GPa) = 32.17315 34.96990 33.57153
#
# Velocity S-wave (km/s) = 3.76447 3.92468 3.84541
# Velocity P-wave (km/s) = 6.72976 6.96971 6.85078
#
# Compressibility (1/GPa) = 0.01668784
#
# Stress axis : x y z
#
# Youngs Moduli (GPa) = 54.46158 117.07089 65.34711
#
# Poissons Ratio (x) = 0.22637 0.49524
# Poissons Ratio (y) = 0.10531 0.21218
# Poissons Ratio (z) = 0.41274 0.38013
#
# Static dielectric constant tensor:
#      x y z
#    x 3.917850 0.000000 0.000000 
#    y 0.000000 4.398950 0.000000 
#    z 0.000000 0.000000 4.391090 
# 
# 
# High freq. dielectric constant tensor:
#      x y z
#    x 1.864550 0.000000 0.000000 
#    y 0.000000 1.920440 0.000000 
#    z 0.000000 0.000000 1.902520 
# 
# From -- ./inp_files/30245.got.cif
#   From: 2010.06.25/outbox.cif.g09.slc.cpg/sg48_16_cif.got.tgz:30245.got - 2010.06.26 18:06:46.
