data_PCOD8201946
_publ_section_title
;
Structure prediction by ZEFSAII (Michael W. Deem and Ramdas Pophale) SiO2 
 PCOD8201946
Probable space group: P N N N
;
_chemical_formula_sum "Si O2"
_cell_formula_units_Z 22
_cell_length_a 11.049583
_cell_length_b 5.438126
_cell_length_c 16.063611
_cell_angle_alpha 90.000000
_cell_angle_beta 90.000000
_cell_angle_gamma 90.000000
_cell_volume 965.246717
_symmetry_space_group_name_H-M "P N N N"
_symmetry_group_IT_number 48
_space_group.IT_coordinate_system_code '2'
_symmetry_cell_setting 'orthorhombic'
loop_
_space_group_symop_operation_xyz
x,y,z
1/2-x,1/2-y,z
x,1/2-y,1/2-z
1/2-x,y,1/2-z
-x,-y,-z
1/2+x,1/2+y,-z
-x,1/2+y,1/2+z
1/2+x,-y,1/2+z
loop_
_atom_site_type_symbol
_atom_site_label
_atom_site_fract_x
_atom_site_fract_y
_atom_site_fract_z
Si Si1 0.305632 0.003343 0.386099
Si Si2 0.750000 0.250000 0.250000
Si Si3 0.565736 0.608190 0.167842
Si Si4 0.750000 0.750000 0.454877
O O1 0.250000 0.750000 0.349069
O O2 0.449167 0.015292 0.373251
O O3 0.250000 0.250000 0.341957
O O4 0.272974 0.014496 0.484823
O O5 0.666636 0.407599 0.189026
O O6 0.523411 0.750000 0.250000
O O7 0.630434 0.792827 0.102260
#
# Coordination Sequence:
#
# PCOD8201946 Si02
#       4
#     8   2   8   4
#     4  10  27  46  73 107 145 191 239 299 367 431
#     4  12  26  44  74 102 144 192 252 302 366 416
#     4  12  25  46  70 106 147 191 249 299 362 436
#     4  10  23  46  70 109 142 198 240 302 358 431
#
# _framework density 22.792099
#
# number of rings (size 3 to 8) (size 9 to 14) (size 15 to 20)
#    1.091    0.000    3.636    1.091    7.636    2.182 
#    0.000    0.000    0.000    0.000    0.000    0.000 
#    0.000    0.000    0.000    0.000    0.000    0.000 
#
# Total GULP energy -272654.269477 kJ/mol
# GULP energy per Si atom -12393.375885 kJ/mol
# Density = 2.274022 g / cm^3
# Si number density = 22.792099 Si / 1000 Ang^3
#
#
#
# Elastic Constant Matrix: (Units=GPa)
#
#
# Indices 1 2 3 4 5 6 
#
# 1 215.2987 77.8119 60.2370 0.0000 0.0000 0.0000
# 2 77.8119 141.1647 36.4076 0.0000 0.0000 0.0000
# 3 60.2370 36.4076 90.7111 0.0000 0.0000 0.0000
# 4 0.0000 0.0000 0.0000 -6.5798 0.0000 0.0000
# 5 0.0000 0.0000 0.0000 0.0000 15.9938 0.0000
# 6 0.0000 0.0000 0.0000 0.0000 0.0000 36.6377
#
#
#
# Elastic Compliance Matrix: (Units=1/GPa)
#
#
# Indices 1 2 3 4 5 6 
#
# 1 0.006555 -0.002778 -0.003238 0.000000 0.000000 0.000000
# 2 -0.002778 0.009079 -0.001799 0.000000 0.000000 0.000000
# 3 -0.003238 -0.001799 0.013896 0.000000 0.000000 0.000000
# 4 0.000000 0.000000 0.000000 -0.151980 0.000000 0.000000
# 5 0.000000 0.000000 0.000000 0.000000 0.062524 0.000000
# 6 0.000000 0.000000 0.000000 0.000000 0.000000 0.027294
#
#
# Mechanical properties :
#
#
# Convention : Reuss Voigt Hill
#
# Bulk Modulus (GPa) = 71.94171 88.45418 80.19795
# Shear Modulus (GPa) = -404.23441 27.39155 -188.42143
#
# Velocity S-wave (km/s) = -13.33200 3.47046 -9.10215
# Velocity P-wave (km/s) = 14.33028 7.41297 8.67193
#
# Compressibility (1/GPa) = 0.01390014
#
# Stress axis : x y z
#
# Youngs Moduli (GPa) = 152.56645 110.14165 71.96258
#
# Poissons Ratio (x) = 0.30597 0.23299
# Poissons Ratio (y) = 0.42382 0.12948
# Poissons Ratio (z) = 0.49395 0.19818
#
# Static dielectric constant tensor:
#      x y z
#    x 4.024890 0.000000 0.000000 
#    y 0.000000 3.902280 0.000000 
#    z 0.000000 0.000000 4.090890 
# 
# 
# High freq. dielectric constant tensor:
#      x y z
#    x 1.906450 0.000000 0.000000 
#    y 0.000000 1.882310 0.000000 
#    z 0.000000 0.000000 1.901150 
# 
# From -- ./inp_files/2710.got.cif
#   From: 2010.06.25/outbox.cif.g09.slc.cpg/sg48_2_cif.got.tgz:2710.got - 2010.06.26 18:06:46.
