data_PCOD8201148
_publ_section_title
;
Structure prediction by ZEFSAII (Michael W. Deem and Ramdas Pophale) SiO2 
 PCOD8201148
Probable space group: P M M M
;
_chemical_formula_sum "Si O2"
_cell_formula_units_Z 52
_cell_length_a 10.416262
_cell_length_b 9.570987
_cell_length_c 30.187538
_cell_angle_alpha 90.000000
_cell_angle_beta 90.000000
_cell_angle_gamma 90.000000
_cell_volume 3009.513642
_symmetry_space_group_name_H-M "P M M M"
_symmetry_group_IT_number 47
_symmetry_cell_setting 'orthorhombic'
loop_
_space_group_symop_operation_xyz
x,y,z
-x,-y,z
x,-y,-z
-x,y,-z
-x,-y,-z
x,y,-z
-x,y,z
x,-y,z
loop_
_atom_site_type_symbol
_atom_site_label
_atom_site_fract_x
_atom_site_fract_y
_atom_site_fract_z
Si Si1 0.848610 0.845680 0.205303
Si Si2 0.852607 0.164974 0.894656
Si Si3 0.262986 0.160943 0.549661
Si Si4 0.354682 0.339730 0.052146
Si Si5 0.846497 0.343951 0.715826
Si Si6 0.146944 0.847726 0.638997
Si Si7 0.500000 0.655096 0.447810
O O1 0.816500 0.794430 0.155765
O O2 0.792505 0.736932 0.241029
O O3 0.000000 0.856495 0.211030
O O4 0.789405 0.000000 0.213909
O O5 0.752341 0.243585 0.925594
O O6 0.000000 0.210023 0.905388
O O7 0.838076 0.000000 0.902035
O O8 0.214604 0.202501 0.500000
O O9 0.154582 0.189129 0.586577
O O10 0.377079 0.257933 0.567075
O O11 0.308399 0.000000 0.549100
O O12 0.500000 0.296294 0.066473
O O13 0.329497 0.500000 0.065763
O O14 0.339859 0.320657 0.000000
O O15 0.789558 0.500000 0.716369
O O16 0.791763 0.267675 0.671567
O O17 0.000000 0.349292 0.716061
O O18 0.000000 0.858191 0.652168
O O19 0.211953 0.000000 0.647456
O O20 0.500000 0.500000 0.426239
O O21 0.500000 0.641466 0.500000
#
# Coordination Sequence:
#
# PCOD8201148 Si02
#       7
#     8   8   8   8   8   8   4
#     4   8  14  26  43  63  90 120 147 181 228 277
#     4   9  18  31  48  74 103 127 157 201 250 295
#     4   9  17  29  45  64  85 110 143 182 219 258
#     4   9  19  35  51  68  95 133 174 209 241 284
#     4   9  16  25  39  61  88 117 150 185 218 259
#     4   9  17  28  42  62  89 120 149 176 214 264
#     4   9  17  29  45  63  81 103 135 175 217 259
#
# _framework density 17.278538000000001
#
# number of rings (size 3 to 8) (size 9 to 14) (size 15 to 20)
#    0.000    3.154    0.000    2.077    0.000    5.538 
#    0.000    5.385    0.000    0.000    2.000    4.308 
#    0.000    0.000    0.000    0.000    0.000    0.000 
#
# Total GULP energy -644268.503713 kJ/mol
# GULP energy per Si atom -12389.778918 kJ/mol
# Density = 1.723921 g / cm^3
# Si number density = 17.278538 Si / 1000 Ang^3
#
#
#
# Elastic Constant Matrix: (Units=GPa)
#
#
# Indices 1 2 3 4 5 6 
#
# 1 49.6515 37.4956 38.3252 0.0000 0.0000 0.0000
# 2 37.4956 101.1069 60.0822 0.0000 0.0000 0.0000
# 3 38.3252 60.0822 101.1558 0.0000 0.0000 0.0000
# 4 0.0000 0.0000 0.0000 21.3503 0.0000 0.0000
# 5 0.0000 0.0000 0.0000 0.0000 4.1752 0.0000
# 6 0.0000 0.0000 0.0000 0.0000 0.0000 18.9542
#
#
#
# Elastic Compliance Matrix: (Units=1/GPa)
#
#
# Indices 1 2 3 4 5 6 
#
# 1 0.031433 -0.007078 -0.007705 0.000000 0.000000 0.000000
# 2 -0.007078 0.016880 -0.007344 0.000000 0.000000 0.000000
# 3 -0.007705 -0.007344 0.017167 0.000000 0.000000 0.000000
# 4 0.000000 0.000000 0.000000 0.046838 0.000000 0.000000
# 5 0.000000 0.000000 0.000000 0.000000 0.239512 0.000000
# 6 0.000000 0.000000 0.000000 0.000000 0.000000 0.052759
#
#
# Mechanical properties :
#
#
# Convention : Reuss Voigt Hill
#
# Bulk Modulus (GPa) = 47.11393 58.19111 52.65252
# Shear Modulus (GPa) = 10.96690 16.63002 13.79846
#
# Velocity S-wave (km/s) = 2.52208 3.10573 2.82900
# Velocity P-wave (km/s) = 5.98395 6.82731 6.41949
#
# Compressibility (1/GPa) = 0.02122515
#
# Stress axis : x y z
#
# Youngs Moduli (GPa) = 31.81363 59.24285 58.25160
#
# Poissons Ratio (x) = 0.41935 0.44882
# Poissons Ratio (y) = 0.22519 0.42780
# Poissons Ratio (z) = 0.24512 0.43508
#
# Static dielectric constant tensor:
#      x y z
#    x 2.810550 0.000000 0.000000 
#    y 0.000000 3.506450 0.000000 
#    z 0.000000 0.000000 3.298630 
# 
# 
# High freq. dielectric constant tensor:
#      x y z
#    x 1.612770 0.000000 0.000000 
#    y 0.000000 1.671400 0.000000 
#    z 0.000000 0.000000 1.669160 
# 
# From -- ./inp_files/34506.got.cif
#   From: 2010.03.12/outbox.cif.g09.slc.cpg/sg47_18_cif.got.tgz:34506.got - 2010.04.14 03:12:58.
