data_PCOD8201088
_publ_section_title
;
Structure prediction by ZEFSAII (Michael W. Deem and Ramdas Pophale) SiO2 
 PCOD8201088
Probable space group: P M M M
;
_chemical_formula_sum "Si O2"
_cell_formula_units_Z 64
_cell_length_a 14.657023
_cell_length_b 9.401982
_cell_length_c 28.183660
_cell_angle_alpha 90.000000
_cell_angle_beta 90.000000
_cell_angle_gamma 90.000000
_cell_volume 3883.851138
_symmetry_space_group_name_H-M "P M M M"
_symmetry_group_IT_number 47
_symmetry_cell_setting 'orthorhombic'
loop_
_space_group_symop_operation_xyz
x,y,z
-x,-y,z
x,-y,-z
-x,y,-z
-x,-y,-z
x,y,-z
-x,y,z
x,-y,z
loop_
_atom_site_type_symbol
_atom_site_label
_atom_site_fract_x
_atom_site_fract_y
_atom_site_fract_z
Si Si1 0.209163 0.166466 0.265196
Si Si2 0.649743 0.340920 0.138559
Si Si3 0.901794 0.838887 0.094888
Si Si4 0.400698 0.837720 0.225116
Si Si5 0.711440 0.166010 0.946313
Si Si6 0.891685 0.659730 0.552023
Si Si7 0.895289 0.833875 0.641015
Si Si8 0.850702 0.341210 0.820983
O O1 0.317307 0.205887 0.260147
O O2 0.172184 0.211618 0.316608
O O3 0.149431 0.254801 0.227962
O O4 0.192157 0.000000 0.255990
O O5 0.609684 0.500000 0.131352
O O6 0.592462 0.257121 0.177873
O O7 0.647229 0.257254 0.088527
O O8 0.751230 0.348881 0.157256
O O9 0.818523 0.794001 0.060813
O O10 0.912054 0.740779 0.141184
O O11 0.000000 0.826659 0.067906
O O12 0.884862 0.000000 0.112462
O O13 0.500000 0.821321 0.250950
O O14 0.384829 0.000000 0.208704
O O15 0.694505 0.000000 0.936134
O O16 0.684984 0.205744 0.000000
O O17 0.856495 0.711519 0.500000
O O18 0.856805 0.500000 0.561622
O O19 0.855017 0.759979 0.593867
O O20 0.000000 0.663797 0.552028
O O21 0.000000 0.787386 0.652292
O O22 0.890915 0.000000 0.631504
O O23 0.889253 0.500000 0.811922
#
# Coordination Sequence:
#
# PCOD8201088 Si02
#       8
#     8   8   8   8   8   8   8   8
#     4   9  17  29  43  61  88 116 142 175 212 252
#     4   9  17  29  45  64  85 107 131 162 201 246
#     4   9  17  28  41  57  78 105 137 173 211 248
#     4   9  17  30  49  69  87 111 142 173 208 251
#     4   9  17  29  45  63  82 106 136 169 206 249
#     4   8  14  25  40  57  79 110 148 187 222 253
#     4   9  17  27  39  58  85 117 149 178 211 251
#     4   9  17  28  41  57  77 104 138 171 204 245
#
# _framework density 16.478487999999999
#
# number of rings (size 3 to 8) (size 9 to 14) (size 15 to 20)
#    0.000    3.125    0.000    1.125    0.000    5.250 
#    0.000    3.750    0.000    0.375    0.000    6.125 
#    0.000    0.500    0.000    6.250    0.000    1.250 
#
# Total GULP energy -793043.941457 kJ/mol
# GULP energy per Si atom -12391.311585 kJ/mol
# Density = 1.644098 g / cm^3
# Si number density = 16.478488 Si / 1000 Ang^3
#
#
#
# Elastic Constant Matrix: (Units=GPa)
#
#
# Indices 1 2 3 4 5 6 
#
# 1 52.0901 15.5169 27.7439 0.0000 0.0000 0.0000
# 2 15.5169 68.1873 50.5875 0.0000 0.0000 0.0000
# 3 27.7439 50.5875 121.4467 0.0000 0.0000 0.0000
# 4 0.0000 0.0000 0.0000 20.3468 0.0000 0.0000
# 5 0.0000 0.0000 0.0000 0.0000 12.8013 0.0000
# 6 0.0000 0.0000 0.0000 0.0000 0.0000 8.3435
#
#
#
# Elastic Compliance Matrix: (Units=1/GPa)
#
#
# Indices 1 2 3 4 5 6 
#
# 1 0.022017 -0.001851 -0.004259 0.000000 0.000000 0.000000
# 2 -0.001851 0.021380 -0.008483 0.000000 0.000000 0.000000
# 3 -0.004259 -0.008483 0.012740 0.000000 0.000000 0.000000
# 4 0.000000 0.000000 0.000000 0.049148 0.000000 0.000000
# 5 0.000000 0.000000 0.000000 0.000000 0.078117 0.000000
# 6 0.000000 0.000000 0.000000 0.000000 0.000000 0.119854
#
#
# Mechanical properties :
#
#
# Convention : Reuss Voigt Hill
#
# Bulk Modulus (GPa) = 37.10189 47.71339 42.40764
# Shear Modulus (GPa) = 14.64448 18.15671 16.40059
#
# Velocity S-wave (km/s) = 2.98435 3.32300 3.15822
# Velocity P-wave (km/s) = 5.86850 6.61369 6.25221
#
# Compressibility (1/GPa) = 0.02695280
#
# Stress axis : x y z
#
# Youngs Moduli (GPa) = 45.41921 46.77271 78.49031
#
# Poissons Ratio (x) = 0.08656 0.33428
# Poissons Ratio (y) = 0.08406 0.66582
# Poissons Ratio (z) = 0.19343 0.39677
#
# Static dielectric constant tensor:
#      x y z
#    x 2.909900 0.000000 0.000000 
#    y 0.000000 3.301760 0.000000 
#    z 0.000000 0.000000 3.109500 
# 
# 
# High freq. dielectric constant tensor:
#      x y z
#    x 1.605820 0.000000 0.000000 
#    y 0.000000 1.636620 0.000000 
#    z 0.000000 0.000000 1.611820 
# 
# From -- ./inp_files/28953.got.cif
#   From: 2010.03.12/outbox.cif.g09.slc.cpg/sg47_15_cif.got.tgz:28953.got - 2010.04.14 03:12:58.
