data_PCOD8201561
_publ_section_title
;
Structure prediction by ZEFSAII (Michael W. Deem and Ramdas Pophale) SiO2 
 PCOD8201561
Probable space group: P N N N
;
_chemical_formula_sum "Si O2"
_cell_formula_units_Z 34
_cell_length_a 17.285558
_cell_length_b 6.307224
_cell_length_c 15.530302
_cell_angle_alpha 90.000000
_cell_angle_beta 90.000000
_cell_angle_gamma 90.000000
_cell_volume 1693.173879
_symmetry_space_group_name_H-M "P N N N"
_symmetry_group_IT_number 48
_space_group.IT_coordinate_system_code '2'
_symmetry_cell_setting 'orthorhombic'
loop_
_space_group_symop_operation_xyz
x,y,z
1/2-x,1/2-y,z
x,1/2-y,1/2-z
1/2-x,y,1/2-z
-x,-y,-z
1/2+x,1/2+y,-z
-x,1/2+y,1/2+z
1/2+x,-y,1/2+z
loop_
_atom_site_type_symbol
_atom_site_label
_atom_site_fract_x
_atom_site_fract_y
_atom_site_fract_z
Si Si1 0.467837 0.130000 0.164587
Si Si2 0.046688 0.250000 0.750000
Si Si3 0.693312 0.553688 0.607922
Si Si4 0.750000 0.250000 0.463705
Si Si5 0.750000 0.250000 0.750000
Si Si6 0.117676 0.868457 0.837224
O O1 0.439435 0.250000 0.250000
O O2 0.395674 0.130058 0.099049
O O3 0.540369 0.257445 0.123791
O O4 0.493250 0.892493 0.188581
O O5 0.100788 0.388092 0.686726
O O6 0.750000 0.750000 0.623117
O O7 0.713965 0.436187 0.520184
O O8 0.696495 0.396103 0.689648
O O9 0.815040 0.361050 0.406490
O O10 0.143356 0.750000 0.750000
#
# Coordination Sequence:
#
# PCOD8201561 Si02
#       6
#     8   4   8   4   2   8
#     4   9  18  35  59  85 110 145 199 243 285 347
#     4   8  17  36  67  88 104 150 198 247 296 337
#     4  11  23  37  57  85 120 158 191 238 296 348
#     4  11  25  39  53  88 126 152 195 239 285 355
#     4  10  20  36  58  80 110 152 198 242 284 352
#     4   9  20  39  62  84 111 150 197 245 289 345
#
# _framework density 20.080632000000001
#
# number of rings (size 3 to 8) (size 9 to 14) (size 15 to 20)
#    0.000    2.824    0.000    2.824    0.000   10.353 
#    0.000    7.059    0.000    0.000    0.000    0.000 
#    0.000    0.000    0.000    0.000    0.000    0.000 
#
# Total GULP energy -421575.480647 kJ/mol
# GULP energy per Si atom -12399.278843 kJ/mol
# Density = 2.003493 g / cm^3
# Si number density = 20.080632 Si / 1000 Ang^3
#
#
#
# Elastic Constant Matrix: (Units=GPa)
#
#
# Indices 1 2 3 4 5 6 
#
# 1 168.0880 64.3396 74.9165 0.0000 0.0000 0.0000
# 2 64.3396 145.3084 46.3105 0.0000 0.0000 0.0000
# 3 74.9165 46.3105 95.0401 0.0000 0.0000 0.0000
# 4 0.0000 0.0000 0.0000 17.7498 0.0000 0.0000
# 5 0.0000 0.0000 0.0000 0.0000 20.4203 0.0000
# 6 0.0000 0.0000 0.0000 0.0000 0.0000 14.0530
#
#
#
# Elastic Compliance Matrix: (Units=1/GPa)
#
#
# Indices 1 2 3 4 5 6 
#
# 1 0.009735 -0.002208 -0.006598 0.000000 0.000000 0.000000
# 2 -0.002208 0.008648 -0.002474 0.000000 0.000000 0.000000
# 3 -0.006598 -0.002474 0.016928 0.000000 0.000000 0.000000
# 4 0.000000 0.000000 0.000000 0.056339 0.000000 0.000000
# 5 0.000000 0.000000 0.000000 0.000000 0.048971 0.000000
# 6 0.000000 0.000000 0.000000 0.000000 0.000000 0.071159
#
#
# Mechanical properties :
#
#
# Convention : Reuss Voigt Hill
#
# Bulk Modulus (GPa) = 78.41672 86.61886 82.51779
# Shear Modulus (GPa) = 20.95653 25.30261 23.12957
#
# Velocity S-wave (km/s) = 3.23401 3.55357 3.39755
# Velocity P-wave (km/s) = 7.28566 7.75025 7.52154
#
# Compressibility (1/GPa) = 0.01275238
#
# Stress axis : x y z
#
# Youngs Moduli (GPa) = 102.72201 115.63669 59.07316
#
# Poissons Ratio (x) = 0.25528 0.38977
# Poissons Ratio (y) = 0.22677 0.14612
# Poissons Ratio (z) = 0.67776 0.28604
#
# Static dielectric constant tensor:
#      x y z
#    x 3.602440 0.000000 0.000000 
#    y 0.000000 3.834290 0.000000 
#    z 0.000000 0.000000 3.348760 
# 
# 
# High freq. dielectric constant tensor:
#      x y z
#    x 1.788510 0.000000 0.000000 
#    y 0.000000 1.796670 0.000000 
#    z 0.000000 0.000000 1.756170 
# 
# From -- ./inp_files/4077.got.cif
#   From: 2010.06.25/outbox.cif.g09.slc.cpg/sg48_3_cif.got.tgz:4077.got - 2010.06.26 18:06:46.
