data_PCOD8201920
_publ_section_title
;
Structure prediction by ZEFSAII (Michael W. Deem and Ramdas Pophale) SiO2 
 PCOD8201920
Probable space group: P N N N
;
_chemical_formula_sum "Si O2"
_cell_formula_units_Z 42
_cell_length_a 18.018463
_cell_length_b 12.161148
_cell_length_c 9.115993
_cell_angle_alpha 90.000000
_cell_angle_beta 90.000000
_cell_angle_gamma 90.000000
_cell_volume 1997.543746
_symmetry_space_group_name_H-M "P N N N"
_symmetry_group_IT_number 48
_space_group.IT_coordinate_system_code '2'
_symmetry_cell_setting 'orthorhombic'
loop_
_space_group_symop_operation_xyz
x,y,z
1/2-x,1/2-y,z
x,1/2-y,1/2-z
1/2-x,y,1/2-z
-x,-y,-z
1/2+x,1/2+y,-z
-x,1/2+y,1/2+z
1/2+x,-y,1/2+z
loop_
_atom_site_type_symbol
_atom_site_label
_atom_site_fract_x
_atom_site_fract_y
_atom_site_fract_z
Si Si1 0.750000 0.250000 0.750000
Si Si2 0.008229 0.293413 0.901691
Si Si3 0.531173 0.097248 0.405499
Si Si4 0.332836 0.880167 0.771973
Si Si5 0.637047 0.414780 0.601597
Si Si6 0.595083 0.857453 0.824280
O O1 0.698903 0.327906 0.651327
O O2 0.044973 0.250000 0.750000
O O3 0.946831 0.382828 0.853436
O O4 0.961948 0.201629 0.989005
O O5 0.073693 0.338849 0.004956
O O6 0.613222 0.065270 0.349034
O O7 0.480030 0.123509 0.266578
O O8 0.500000 0.000000 0.500000
O O9 0.337911 0.750000 0.750000
O O10 0.250000 0.924512 0.750000
O O11 0.360289 0.921895 0.927757
O O12 0.648995 0.535515 0.676541
O O13 0.635060 0.750000 0.750000
#
# Coordination Sequence:
#
# PCOD8201920 Si02
#       6
#     2   8   8   8   8   8
#     4  12  28  40  64 108 128 172 224 274 344 428
#     4  11  21  36  61  96 132 165 222 278 329 394
#     4  11  22  36  60  94 134 175 225 276 335 402
#     4  11  22  38  60  90 135 178 216 270 345 416
#     4  12  23  40  66  92 139 173 221 275 338 401
#     4  10  23  42  63  96 128 173 223 275 338 391
#
# _framework density 21.025822000000002
#
# number of rings (size 3 to 8) (size 9 to 14) (size 15 to 20)
#    0.000    0.952    4.762    3.429    2.667    0.000 
#    0.000    0.476    0.000    0.000    0.000    2.667 
#    0.000    0.000    0.000    0.000    0.000    0.000 
#
# Total GULP energy -520745.581452 kJ/mol
# GULP energy per Si atom -12398.704320 kJ/mol
# Density = 2.097797 g / cm^3
# Si number density = 21.025822 Si / 1000 Ang^3
#
#
#
# Elastic Constant Matrix: (Units=GPa)
#
#
# Indices 1 2 3 4 5 6 
#
# 1 72.0763 42.2901 31.7324 0.0000 0.0000 0.0000
# 2 42.2901 140.2963 42.7061 0.0000 0.0000 0.0000
# 3 31.7324 42.7061 124.4745 0.0000 0.0000 0.0000
# 4 0.0000 0.0000 0.0000 36.6642 0.0000 0.0000
# 5 0.0000 0.0000 0.0000 0.0000 12.6930 0.0000
# 6 0.0000 0.0000 0.0000 0.0000 0.0000 26.7980
#
#
#
# Elastic Compliance Matrix: (Units=1/GPa)
#
#
# Indices 1 2 3 4 5 6 
#
# 1 0.017813 -0.004452 -0.003014 0.000000 0.000000 0.000000
# 2 -0.004452 0.009072 -0.001977 0.000000 0.000000 0.000000
# 3 -0.003014 -0.001977 0.009480 0.000000 0.000000 0.000000
# 4 0.000000 0.000000 0.000000 0.027275 0.000000 0.000000
# 5 0.000000 0.000000 0.000000 0.000000 0.078783 0.000000
# 6 0.000000 0.000000 0.000000 0.000000 0.000000 0.037316
#
#
# Mechanical properties :
#
#
# Convention : Reuss Voigt Hill
#
# Bulk Modulus (GPa) = 57.21166 63.36716 60.28941
# Shear Modulus (GPa) = 24.45556 29.90560 27.18058
#
# Velocity S-wave (km/s) = 3.41415 3.77547 3.59935
# Velocity P-wave (km/s) = 6.54303 7.01489 6.78306
#
# Compressibility (1/GPa) = 0.01747895
#
# Stress axis : x y z
#
# Youngs Moduli (GPa) = 56.13802 110.23241 105.47976
#
# Poissons Ratio (x) = 0.49077 0.31788
# Poissons Ratio (y) = 0.24994 0.20858
# Poissons Ratio (z) = 0.16918 0.21798
#
# Static dielectric constant tensor:
#      x y z
#    x 3.505500 0.000000 0.000000 
#    y 0.000000 3.641280 0.000000 
#    z 0.000000 0.000000 3.984270 
# 
# 
# High freq. dielectric constant tensor:
#      x y z
#    x 1.782390 0.000000 0.000000 
#    y 0.000000 1.822570 0.000000 
#    z 0.000000 0.000000 1.842250 
# 
# From -- ./inp_files/11040.got.cif
#   From: 2010.06.25/outbox.cif.g09.slc.cpg/sg48_6_cif.got.tgz:11040.got - 2010.06.26 18:06:46.
