data_PCOD8201072
_publ_section_title
;
Structure prediction by ZEFSAII (Michael W. Deem and Ramdas Pophale) SiO2 
 PCOD8201072
Probable space group: P M M M
;
_chemical_formula_sum "Si O2"
_cell_formula_units_Z 44
_cell_length_a 22.918716
_cell_length_b 15.346977
_cell_length_c 9.227411
_cell_angle_alpha 90.000000
_cell_angle_beta 90.000000
_cell_angle_gamma 90.000000
_cell_volume 3245.585021
_symmetry_space_group_name_H-M "P M M M"
_symmetry_group_IT_number 47
_symmetry_cell_setting 'orthorhombic'
loop_
_space_group_symop_operation_xyz
x,y,z
-x,-y,z
x,-y,-z
-x,y,-z
-x,-y,-z
x,y,-z
-x,y,z
x,-y,z
loop_
_atom_site_type_symbol
_atom_site_label
_atom_site_fract_x
_atom_site_fract_y
_atom_site_fract_z
Si Si1 0.339183 0.600088 0.668818
Si Si2 0.430683 0.904759 0.836610
Si Si3 0.112963 0.603908 0.664441
Si Si4 0.566036 0.261339 0.669771
Si Si5 0.000000 0.603803 0.164488
Si Si6 0.224986 0.603623 0.836229
O O1 0.324026 0.611318 0.500000
O O2 0.353687 0.500000 0.705950
O O3 0.395397 0.655853 0.715375
O O4 0.284189 0.635054 0.759418
O O5 0.500000 0.904153 0.829675
O O6 0.406369 0.826208 0.738836
O O7 0.408306 0.000000 0.781570
O O8 0.408931 0.889329 0.000000
O O9 0.111707 0.639728 0.500000
O O10 0.113314 0.500000 0.662821
O O11 0.170152 0.640446 0.745933
O O12 0.056716 0.638944 0.751029
O O13 0.567000 0.246447 0.500000
O O14 0.500000 0.279034 0.724683
O O15 0.000000 0.500000 0.162056
O O16 0.000000 0.639871 0.000000
O O17 0.222429 0.500000 0.837112
O O18 0.222759 0.640221 0.000000
#
# Coordination Sequence:
#
# PCOD8201072 Si02
#       6
#     8   8   8   8   4   8
#     4   9  17  28  39  50  67  92 120 149 181 216
#     4   8  14  25  40  56  73  92 111 132 165 211
#     4   9  15  22  32  45  61  81 105 134 171 212
#     4   9  17  27  39  56  74  91 114 145 180 216
#     4   9  15  21  29  43  63  83 103 131 168 207
#     4   9  16  25  36  48  61  80 110 146 179 209
#
# _framework density 13.556877999999999
#
# number of rings (size 3 to 8) (size 9 to 14) (size 15 to 20)
#    0.000    3.182    0.000    1.909    0.000    6.909 
#    0.000    3.636    0.000    0.000    0.000    5.091 
#    0.000    0.000    0.000    0.000    0.000    0.000 
#
# Total GULP energy -545380.372869 kJ/mol
# GULP energy per Si atom -12395.008474 kJ/mol
# Density = 1.352602 g / cm^3
# Si number density = 13.556878 Si / 1000 Ang^3
#
#
#
# Elastic Constant Matrix: (Units=GPa)
#
#
# Indices 1 2 3 4 5 6 
#
# 1 94.8904 37.3974 54.0618 0.0000 0.0000 0.0000
# 2 37.3974 51.2670 29.5689 0.0000 0.0000 0.0000
# 3 54.0618 29.5689 85.9399 0.0000 0.0000 0.0000
# 4 0.0000 0.0000 0.0000 13.8598 0.0000 0.0000
# 5 0.0000 0.0000 0.0000 0.0000 20.5980 0.0000
# 6 0.0000 0.0000 0.0000 0.0000 0.0000 0.7004
#
#
#
# Elastic Compliance Matrix: (Units=1/GPa)
#
#
# Indices 1 2 3 4 5 6 
#
# 1 0.019126 -0.008749 -0.009022 0.000000 0.000000 0.000000
# 2 -0.008749 0.028337 -0.004246 0.000000 0.000000 0.000000
# 3 -0.009022 -0.004246 0.018772 0.000000 0.000000 0.000000
# 4 0.000000 0.000000 0.000000 0.072151 0.000000 0.000000
# 5 0.000000 0.000000 0.000000 0.000000 0.048549 0.000000
# 6 0.000000 0.000000 0.000000 0.000000 0.000000 1.427753
#
#
# Mechanical properties :
#
#
# Convention : Reuss Voigt Hill
#
# Bulk Modulus (GPa) = 45.04044 52.68373 48.86208
# Shear Modulus (GPa) = 3.00098 14.43625 8.71862
#
# Velocity S-wave (km/s) = 1.48944 3.26677 2.53872
# Velocity P-wave (km/s) = 6.02108 7.29209 6.68685
#
# Compressibility (1/GPa) = 0.02220227
#
# Stress axis : x y z
#
# Youngs Moduli (GPa) = 52.28419 35.29010 53.27041
#
# Poissons Ratio (x) = 0.30874 0.48058
# Poissons Ratio (y) = 0.45741 0.22620
# Poissons Ratio (z) = 0.47169 0.14985
#
# Static dielectric constant tensor:
#      x y z
#    x 2.703670 0.000000 0.000000 
#    y 0.000000 2.453110 0.000000 
#    z 0.000000 0.000000 2.856720 
# 
# 
# High freq. dielectric constant tensor:
#      x y z
#    x 1.503910 0.000000 0.000000 
#    y 0.000000 1.454800 0.000000 
#    z 0.000000 0.000000 1.528550 
# 
# From -- ./inp_files/7503.got.cif
#   From: 2010.03.12/outbox.cif.g09.slc.cpg/sg47_4_cif.got.tgz:7503.got - 2010.04.14 03:12:58.
