data_PCOD8201462
_publ_section_title
;
Structure prediction by ZEFSAII (Michael W. Deem and Ramdas Pophale) SiO2 
 PCOD8201462
Probable space group: P N N N
;
_chemical_formula_sum "Si O2"
_cell_formula_units_Z 52
_cell_length_a 10.370801
_cell_length_b 17.215099
_cell_length_c 15.198946
_cell_angle_alpha 90.000000
_cell_angle_beta 90.000000
_cell_angle_gamma 90.000000
_cell_volume 2713.534187
_symmetry_space_group_name_H-M "P N N N"
_symmetry_group_IT_number 48
_space_group.IT_coordinate_system_code '2'
_symmetry_cell_setting 'orthorhombic'
loop_
_space_group_symop_operation_xyz
x,y,z
1/2-x,1/2-y,z
x,1/2-y,1/2-z
1/2-x,y,1/2-z
-x,-y,-z
1/2+x,1/2+y,-z
-x,1/2+y,1/2+z
1/2+x,-y,1/2+z
loop_
_atom_site_type_symbol
_atom_site_label
_atom_site_fract_x
_atom_site_fract_y
_atom_site_fract_z
Si Si1 0.700932 0.337235 0.840600
Si Si2 0.402548 0.339063 0.247569
Si Si3 0.407842 0.434030 0.077538
Si Si4 0.250000 0.045085 0.750000
Si Si5 0.051026 0.958708 0.636472
Si Si6 0.171939 0.958677 0.452577
Si Si7 0.554850 0.908161 0.388189
O O1 0.750000 0.250000 0.844045
O O2 0.750000 0.376455 0.750000
O O3 0.762214 0.379589 0.923171
O O4 0.546574 0.348821 0.843559
O O5 0.448184 0.250000 0.250000
O O6 0.250000 0.347569 0.250000
O O7 0.438747 0.374129 0.154082
O O8 0.472208 0.383986 0.328277
O O9 0.264004 0.468458 0.068267
O O10 0.507094 0.503338 0.098356
O O11 0.424975 0.382466 0.989114
O O12 0.314335 0.095781 0.670971
O O13 0.134551 0.991712 0.715857
O O14 0.144963 0.940682 0.554800
O O15 0.956897 0.026744 0.602934
#
# Coordination Sequence:
#
# PCOD8201462 Si02
#       7
#     8   8   8   4   8   8   8
#     4  10  22  39  60  85 113 154 200 245 305 366
#     4  11  23  38  59  86 122 164 203 246 309 378
#     4  10  19  37  59  89 116 154 206 248 298 356
#     4  12  20  34  57  95 120 152 200 260 304 346
#     4  11  22  36  58  86 119 154 203 251 296 361
#     4  10  21  37  60  86 113 155 202 252 295 356
#     4  10  21  34  62  88 120 155 198 258 298 358
#
# _framework density 19.163201000000001
#
# number of rings (size 3 to 8) (size 9 to 14) (size 15 to 20)
#    0.000    1.538    4.615    0.923    2.154    1.231 
#    0.000    0.385    0.000    7.385    0.000    0.000 
#    0.000    0.000    0.000    0.000    0.000    0.000 
#
# Total GULP energy -644458.834408 kJ/mol
# GULP energy per Si atom -12393.439123 kJ/mol
# Density = 1.911958 g / cm^3
# Si number density = 19.163201 Si / 1000 Ang^3
#
#
#
# Elastic Constant Matrix: (Units=GPa)
#
#
# Indices 1 2 3 4 5 6 
#
# 1 65.5942 11.1179 22.7542 0.0000 0.0000 0.0000
# 2 11.1179 66.4112 32.8246 0.0000 0.0000 0.0000
# 3 22.7542 32.8246 117.7464 0.0000 0.0000 0.0000
# 4 0.0000 0.0000 0.0000 14.8203 0.0000 0.0000
# 5 0.0000 0.0000 0.0000 0.0000 38.2636 0.0000
# 6 0.0000 0.0000 0.0000 0.0000 0.0000 20.3621
#
#
#
# Elastic Compliance Matrix: (Units=1/GPa)
#
#
# Indices 1 2 3 4 5 6 
#
# 1 0.016448 -0.001371 -0.002796 0.000000 0.000000 0.000000
# 2 -0.001371 0.017578 -0.004635 0.000000 0.000000 0.000000
# 3 -0.002796 -0.004635 0.010325 0.000000 0.000000 0.000000
# 4 0.000000 0.000000 0.000000 0.067475 0.000000 0.000000
# 5 0.000000 0.000000 0.000000 0.000000 0.026134 0.000000
# 6 0.000000 0.000000 0.000000 0.000000 0.000000 0.049111
#
#
# Mechanical properties :
#
#
# Convention : Reuss Voigt Hill
#
# Bulk Modulus (GPa) = 37.38944 42.57168 39.98056
# Shear Modulus (GPa) = 23.40902 26.89288 25.15095
#
# Velocity S-wave (km/s) = 3.49888 3.75021 3.62672
# Velocity P-wave (km/s) = 5.98968 6.40435 6.20048
#
# Compressibility (1/GPa) = 0.02674552
#
# Stress axis : x y z
#
# Youngs Moduli (GPa) = 60.79889 56.88802 96.84865
#
# Poissons Ratio (x) = 0.07802 0.27080
# Poissons Ratio (y) = 0.08338 0.44893
# Poissons Ratio (z) = 0.17000 0.26370
#
# Static dielectric constant tensor:
#      x y z
#    x 3.675380 0.000000 0.000000 
#    y 0.000000 3.120600 0.000000 
#    z 0.000000 0.000000 3.974410 
# 
# 
# High freq. dielectric constant tensor:
#      x y z
#    x 1.753320 0.000000 0.000000 
#    y 0.000000 1.703970 0.000000 
#    z 0.000000 0.000000 1.768500 
# 
# From -- ./inp_files/26636.got.cif
#   From: 2010.06.25/outbox.cif.g09.slc.cpg/sg48_14_cif.got.tgz:26636.got - 2010.06.26 18:06:46.
