data_PCOD8201570
_publ_section_title
;
Structure prediction by ZEFSAII (Michael W. Deem and Ramdas Pophale) SiO2 
 PCOD8201570
Probable space group: P N N N
;
_chemical_formula_sum "Si O2"
_cell_formula_units_Z 58
_cell_length_a 23.405758
_cell_length_b 15.167290
_cell_length_c 8.509716
_cell_angle_alpha 90.000000
_cell_angle_beta 90.000000
_cell_angle_gamma 90.000000
_cell_volume 3020.965512
_symmetry_space_group_name_H-M "P N N N"
_symmetry_group_IT_number 48
_space_group.IT_coordinate_system_code '2'
_symmetry_cell_setting 'orthorhombic'
loop_
_space_group_symop_operation_xyz
x,y,z
1/2-x,1/2-y,z
x,1/2-y,1/2-z
1/2-x,y,1/2-z
-x,-y,-z
1/2+x,1/2+y,-z
-x,1/2+y,1/2+z
1/2+x,-y,1/2+z
loop_
_atom_site_type_symbol
_atom_site_label
_atom_site_fract_x
_atom_site_fract_y
_atom_site_fract_z
Si Si1 0.962895 0.995205 0.152989
Si Si2 0.951887 0.165719 0.358687
Si Si3 0.172672 0.165338 0.647153
Si Si4 0.733600 0.959408 0.928260
Si Si5 0.250000 0.750000 0.750000
Si Si6 0.163563 0.490718 0.631236
Si Si7 0.170749 0.884518 0.593824
Si Si8 0.538785 0.829966 0.138054
O O1 0.967920 0.085032 0.247323
O O2 0.901051 0.973445 0.079793
O O3 0.980416 0.918838 0.274344
O O4 0.000000 0.000000 0.000000
O O5 0.943783 0.250000 0.250000
O O6 0.892893 0.147953 0.454698
O O7 0.003821 0.180351 0.478111
O O8 0.192743 0.250000 0.750000
O O9 0.210335 0.135942 0.494061
O O10 0.186742 0.086258 0.760849
O O11 0.106296 0.171931 0.596690
O O12 0.750000 0.943843 0.750000
O O13 0.794747 0.993853 0.986015
O O14 0.689742 0.040177 0.967916
O O15 0.213916 0.804252 0.619739
O O16 0.166689 0.580083 0.728665
O O17 0.522216 0.750000 0.250000
#
# Coordination Sequence:
#
# PCOD8201570 Si02
#       8
#     8   8   8   8   2   8   8   8
#     4  10  21  36  58  84 114 155 196 238 295 357
#     4  11  22  36  58  90 116 151 200 242 294 352
#     4   9  19  38  61  79 108 157 199 228 286 368
#     4  11  22  37  57  89 122 148 190 258 311 329
#     4  12  16  36  66  76 106 152 214 224 262 360
#     4   9  19  36  56  79 111 154 196 225 280 360
#     4  10  20  36  60  82 111 159 195 230 280 366
#     4  10  21  39  59  83 116 154 196 248 300 356
#
# _framework density 19.199161
#
# number of rings (size 3 to 8) (size 9 to 14) (size 15 to 20)
#    0.000    1.931    2.069    3.310    0.000    3.310 
#    0.000    3.103    0.000    0.000    0.000    0.000 
#    0.000    0.000    0.000    0.000    0.000    0.000 
#
# Total GULP energy -718665.143318 kJ/mol
# GULP energy per Si atom -12390.778333 kJ/mol
# Density = 1.915546 g / cm^3
# Si number density = 19.199161 Si / 1000 Ang^3
#
#
#
# Elastic Constant Matrix: (Units=GPa)
#
#
# Indices 1 2 3 4 5 6 
#
# 1 95.9177 26.2126 55.7361 0.0000 0.0000 0.0000
# 2 26.2126 115.0287 37.9904 0.0000 0.0000 0.0000
# 3 55.7361 37.9904 102.3288 0.0000 0.0000 0.0000
# 4 0.0000 0.0000 0.0000 25.3301 0.0000 0.0000
# 5 0.0000 0.0000 0.0000 0.0000 20.1382 0.0000
# 6 0.0000 0.0000 0.0000 0.0000 0.0000 32.8528
#
#
#
# Elastic Compliance Matrix: (Units=1/GPa)
#
#
# Indices 1 2 3 4 5 6 
#
# 1 0.015324 -0.000838 -0.008035 0.000000 0.000000 0.000000
# 2 -0.000838 0.009954 -0.003239 0.000000 0.000000 0.000000
# 3 -0.008035 -0.003239 0.015352 0.000000 0.000000 0.000000
# 4 0.000000 0.000000 0.000000 0.039479 0.000000 0.000000
# 5 0.000000 0.000000 0.000000 0.000000 0.049657 0.000000
# 6 0.000000 0.000000 0.000000 0.000000 0.000000 0.030439
#
#
# Mechanical properties :
#
#
# Convention : Reuss Voigt Hill
#
# Bulk Modulus (GPa) = 60.95874 61.46150 61.21012
# Shear Modulus (GPa) = 26.32996 28.55328 27.44162
#
# Velocity S-wave (km/s) = 3.70728 3.86063 3.78473
# Velocity P-wave (km/s) = 7.08130 7.20796 7.14491
#
# Compressibility (1/GPa) = 0.01640454
#
# Stress axis : x y z
#
# Youngs Moduli (GPa) = 65.25761 100.45964 65.13961
#
# Poissons Ratio (x) = 0.08420 0.52342
# Poissons Ratio (y) = 0.05470 0.21099
# Poissons Ratio (z) = 0.52437 0.32540
#
# Static dielectric constant tensor:
#      x y z
#    x 3.764980 0.000000 0.000000 
#    y 0.000000 4.831190 0.000000 
#    z 0.000000 0.000000 4.002180 
# 
# 
# High freq. dielectric constant tensor:
#      x y z
#    x 1.762980 0.000000 0.000000 
#    y 0.000000 1.759020 0.000000 
#    z 0.000000 0.000000 1.716060 
# 
# From -- ./inp_files/16025.got.cif
#   From: 2010.06.25/outbox.cif.g09.slc.cpg/sg48_9_cif.got.tgz:16025.got - 2010.06.26 18:06:46.
