data_PCOD8201028
_publ_section_title
;
Structure prediction by ZEFSAII (Michael W. Deem and Ramdas Pophale) SiO2 
 PCOD8201028
Probable space group: P M M M
;
_chemical_formula_sum "Si O2"
_cell_formula_units_Z 64
_cell_length_a 14.118099
_cell_length_b 9.670765
_cell_length_c 29.087839
_cell_angle_alpha 90.000000
_cell_angle_beta 90.000000
_cell_angle_gamma 90.000000
_cell_volume 3971.444619
_symmetry_space_group_name_H-M "P M M M"
_symmetry_group_IT_number 47
_symmetry_cell_setting 'orthorhombic'
loop_
_space_group_symop_operation_xyz
x,y,z
-x,-y,z
x,-y,-z
-x,y,-z
-x,-y,-z
x,y,-z
-x,y,z
x,-y,z
loop_
_atom_site_type_symbol
_atom_site_label
_atom_site_fract_x
_atom_site_fract_y
_atom_site_fract_z
Si Si1 0.604203 0.164046 0.866980
Si Si2 0.390632 0.841005 0.405262
Si Si3 0.268569 0.836994 0.947965
Si Si4 0.897089 0.349497 0.054288
Si Si5 0.392835 0.836034 0.765787
Si Si6 0.110485 0.337903 0.363350
Si Si7 0.734476 0.160599 0.316747
Si Si8 0.761977 0.341937 0.448326
O O1 0.500000 0.226201 0.871028
O O2 0.658404 0.224413 0.911035
O O3 0.644630 0.207090 0.816791
O O4 0.602660 0.000000 0.870637
O O5 0.500000 0.792444 0.403930
O O6 0.345003 0.819275 0.355440
O O7 0.331753 0.749983 0.441316
O O8 0.383642 0.000000 0.420858
O O9 0.170286 0.773985 0.930553
O O10 0.258735 0.000000 0.945538
O O11 0.296395 0.790263 0.000000
O O12 0.859067 0.500000 0.070855
O O13 0.000000 0.321132 0.076368
O O14 0.906277 0.350662 0.000000
O O15 0.500000 0.777939 0.757230
O O16 0.315814 0.780610 0.729342
O O17 0.398526 0.000000 0.761122
O O18 0.121287 0.500000 0.351944
O O19 0.170885 0.250087 0.326286
O O20 0.152404 0.302577 0.413862
O O21 0.000000 0.293511 0.361889
O O22 0.764753 0.000000 0.312424
O O23 0.800017 0.318010 0.500000
O O24 0.731064 0.500000 0.440339
#
# Coordination Sequence:
#
# PCOD8201028 Si02
#       8
#     8   8   8   8   8   8   8   8
#     4   8  14  24  38  59  87 115 141 169 202 242
#     4   9  17  28  42  62  88 114 138 168 209 254
#     4   9  16  24  37  60  86 110 138 173 210 244
#     4   8  14  25  40  56  74  99 132 168 206 247
#     4   8  13  23  42  66  88 110 137 169 205 245
#     4   9  18  32  48  65  86 112 140 171 210 253
#     4   9  16  27  46  69  87 104 134 176 213 246
#     4   9  18  31  45  62  84 111 145 180 208 237
#
# _framework density 16.115044000000001
#
# number of rings (size 3 to 8) (size 9 to 14) (size 15 to 20)
#    0.000    3.375    0.000    1.500    0.000    3.250 
#    0.000    5.000    0.000    3.000    0.000   12.250 
#    0.000    0.000    0.000    0.000    0.000    0.000 
#
# Total GULP energy -792940.639345 kJ/mol
# GULP energy per Si atom -12389.697490 kJ/mol
# Density = 1.607837 g / cm^3
# Si number density = 16.115044 Si / 1000 Ang^3
#
#
#
# Elastic Constant Matrix: (Units=GPa)
#
#
# Indices 1 2 3 4 5 6 
#
# 1 120.3075 39.2758 62.8718 0.0000 0.0000 0.0000
# 2 39.2758 33.3341 32.1414 0.0000 0.0000 0.0000
# 3 62.8718 32.1414 103.5154 0.0000 0.0000 0.0000
# 4 0.0000 0.0000 0.0000 10.5309 0.0000 0.0000
# 5 0.0000 0.0000 0.0000 0.0000 20.1373 0.0000
# 6 0.0000 0.0000 0.0000 0.0000 0.0000 2.0088
#
#
#
# Elastic Compliance Matrix: (Units=1/GPa)
#
#
# Indices 1 2 3 4 5 6 
#
# 1 0.015288 -0.012931 -0.005270 0.000000 0.000000 0.000000
# 2 -0.012931 0.053757 -0.008837 0.000000 0.000000 0.000000
# 3 -0.005270 -0.008837 0.015605 0.000000 0.000000 0.000000
# 4 0.000000 0.000000 0.000000 0.094958 0.000000 0.000000
# 5 0.000000 0.000000 0.000000 0.000000 0.049659 0.000000
# 6 0.000000 0.000000 0.000000 0.000000 0.000000 0.497820
#
#
# Mechanical properties :
#
#
# Convention : Reuss Voigt Hill
#
# Bulk Modulus (GPa) = 32.70940 58.41500 45.56220
# Shear Modulus (GPa) = 6.31827 14.72660 10.52243
#
# Velocity S-wave (km/s) = 1.98223 3.02626 2.55807
# Velocity P-wave (km/s) = 5.05772 6.96695 6.08765
#
# Compressibility (1/GPa) = 0.03057225
#
# Stress axis : x y z
#
# Youngs Moduli (GPa) = 65.41210 18.60236 64.08065
#
# Poissons Ratio (x) = 0.24055 0.33771
# Poissons Ratio (y) = 0.84585 0.56631
# Poissons Ratio (z) = 0.34473 0.16440
#
# Static dielectric constant tensor:
#      x y z
#    x 3.253130 0.000000 0.000000 
#    y 0.000000 2.886830 0.000000 
#    z 0.000000 0.000000 3.160070 
# 
# 
# High freq. dielectric constant tensor:
#      x y z
#    x 1.612340 0.000000 0.000000 
#    y 0.000000 1.592640 0.000000 
#    z 0.000000 0.000000 1.607650 
# 
# From -- ./inp_files/16783.got.cif
#   From: 2010.03.12/outbox.cif.g09.slc.cpg/sg47_9_cif.got.tgz:16783.got - 2010.04.14 03:12:58.
