data_PCOD8201601
_publ_section_title
;
Structure prediction by ZEFSAII (Michael W. Deem and Ramdas Pophale) SiO2 
 PCOD8201601
Probable space group: P N N N
;
_chemical_formula_sum "Si O2"
_cell_formula_units_Z 56
_cell_length_a 14.220315
_cell_length_b 16.278455
_cell_length_c 12.239550
_cell_angle_alpha 90.000000
_cell_angle_beta 90.000000
_cell_angle_gamma 90.000000
_cell_volume 2833.269267
_symmetry_space_group_name_H-M "P N N N"
_symmetry_group_IT_number 48
_space_group.IT_coordinate_system_code '2'
_symmetry_cell_setting 'orthorhombic'
loop_
_space_group_symop_operation_xyz
x,y,z
1/2-x,1/2-y,z
x,1/2-y,1/2-z
1/2-x,y,1/2-z
-x,-y,-z
1/2+x,1/2+y,-z
-x,1/2+y,1/2+z
1/2+x,-y,1/2+z
loop_
_atom_site_type_symbol
_atom_site_label
_atom_site_fract_x
_atom_site_fract_y
_atom_site_fract_z
Si Si1 0.148331 0.787363 0.364009
Si Si2 0.014308 0.424485 0.366912
Si Si3 0.837959 0.793885 0.131667
Si Si4 0.021526 0.088252 0.380775
Si Si5 0.344741 0.468822 0.953306
Si Si6 0.150139 0.545719 0.021540
Si Si7 0.999330 0.758007 0.968126
O O1 0.250000 0.750000 0.371958
O O2 0.103812 0.750000 0.250000
O O3 0.152003 0.887584 0.377458
O O4 0.097140 0.757487 0.472293
O O5 0.034431 0.440408 0.241772
O O6 0.927329 0.481033 0.397155
O O7 0.111923 0.439981 0.430955
O O8 0.983450 0.331023 0.384266
O O9 0.750000 0.750000 0.072013
O O10 0.847935 0.750000 0.250000
O O11 0.819229 0.892633 0.128038
O O12 0.932135 0.779175 0.067604
O O13 0.914395 0.076545 0.421479
O O14 0.044062 0.183702 0.398856
O O15 0.101204 0.038482 0.443745
O O16 0.254223 0.525769 0.976650
#
# Coordination Sequence:
#
# PCOD8201601 Si02
#       7
#     8   8   8   8   8   8   8
#     4  10  21  35  57  84 112 150 191 238 294 349
#     4  10  22  37  58  83 110 149 191 236 290 352
#     4  10  21  35  57  84 112 150 191 238 294 349
#     4  10  22  37  58  83 110 149 191 236 290 352
#     4  10  22  39  58  84 118 151 191 243 297 357
#     4  10  22  39  58  84 118 151 191 243 297 357
#     4  10  20  38  56  78 114 148 190 238 288 348
#
# _framework density 19.765152
#
# number of rings (size 3 to 8) (size 9 to 14) (size 15 to 20)
#    0.000    2.000    0.000    2.571    0.000   12.571 
#    0.000    0.000    0.000    5.143    0.000    0.000 
#    0.000    0.000    0.000    0.000    0.000    0.000 
#
# Total GULP energy -693881.998672 kJ/mol
# GULP energy per Si atom -12390.749976 kJ/mol
# Density = 1.972017 g / cm^3
# Si number density = 19.765152 Si / 1000 Ang^3
#
#
#
# Elastic Constant Matrix: (Units=GPa)
#
#
# Indices 1 2 3 4 5 6 
#
# 1 54.1332 7.4794 -4.2533 0.0000 0.0000 0.0000
# 2 7.4794 118.3030 13.7956 0.0000 0.0000 0.0000
# 3 -4.2533 13.7956 74.1151 0.0000 0.0000 0.0000
# 4 0.0000 0.0000 0.0000 32.7216 0.0000 0.0000
# 5 0.0000 0.0000 0.0000 0.0000 8.4010 0.0000
# 6 0.0000 0.0000 0.0000 0.0000 0.0000 27.6534
#
#
#
# Elastic Compliance Matrix: (Units=1/GPa)
#
#
# Indices 1 2 3 4 5 6 
#
# 1 0.018762 -0.001341 0.001326 0.000000 0.000000 0.000000
# 2 -0.001341 0.008736 -0.001703 0.000000 0.000000 0.000000
# 3 0.001326 -0.001703 0.013886 0.000000 0.000000 0.000000
# 4 0.000000 0.000000 0.000000 0.030561 0.000000 0.000000
# 5 0.000000 0.000000 0.000000 0.000000 0.119034 0.000000
# 6 0.000000 0.000000 0.000000 0.000000 0.000000 0.036162
#
#
# Mechanical properties :
#
#
# Convention : Reuss Voigt Hill
#
# Bulk Modulus (GPa) = 26.35115 31.17720 28.76417
# Shear Modulus (GPa) = 20.55701 29.05717 24.80709
#
# Velocity S-wave (km/s) = 3.22850 3.83838 3.54657
# Velocity P-wave (km/s) = 5.22099 5.95418 5.59959
#
# Compressibility (1/GPa) = 0.03794901
#
# Stress axis : x y z
#
# Youngs Moduli (GPa) = 53.29803 114.46564 72.01681
#
# Poissons Ratio (x) = 0.15348 -0.09552
# Poissons Ratio (y) = 0.07147 0.12265
# Poissons Ratio (z) = -0.07069 0.19494
#
# Static dielectric constant tensor:
#      x y z
#    x 3.635310 0.000000 0.000000 
#    y 0.000000 4.031860 0.000000 
#    z 0.000000 0.000000 3.610950 
# 
# 
# High freq. dielectric constant tensor:
#      x y z
#    x 1.775010 0.000000 0.000000 
#    y 0.000000 1.786940 0.000000 
#    z 0.000000 0.000000 1.757210 
# 
# From -- ./inp_files/21328.got.cif
#   From: 2010.06.25/outbox.cif.g09.slc.cpg/sg48_11_cif.got.tgz:21328.got - 2010.06.26 18:06:46.
