data_PCOD8201155
_publ_section_title
;
Structure prediction by ZEFSAII (Michael W. Deem and Ramdas Pophale) SiO2 
 PCOD8201155
Probable space group: P M M M
;
_chemical_formula_sum "Si O2"
_cell_formula_units_Z 48
_cell_length_a 34.584602
_cell_length_b 9.936670
_cell_length_c 7.728215
_cell_angle_alpha 90.000000
_cell_angle_beta 90.000000
_cell_angle_gamma 90.000000
_cell_volume 2655.845732
_symmetry_space_group_name_H-M "P M M M"
_symmetry_group_IT_number 47
_symmetry_cell_setting 'orthorhombic'
loop_
_space_group_symop_operation_xyz
x,y,z
-x,-y,z
x,-y,-z
-x,y,-z
-x,-y,-z
x,y,-z
-x,y,z
x,-y,z
loop_
_atom_site_type_symbol
_atom_site_label
_atom_site_fract_x
_atom_site_fract_y
_atom_site_fract_z
Si Si1 0.542895 0.850227 0.295830
Si Si2 0.746119 0.338953 0.500000
Si Si3 0.167575 0.341524 0.500000
Si Si4 0.042794 0.850080 0.204933
Si Si5 0.307062 0.660204 0.193485
Si Si6 0.608807 0.353797 0.200191
Si Si7 0.110627 0.342814 0.799486
O O1 0.543979 0.850715 0.500000
O O2 0.500000 0.806788 0.231780
O O3 0.574190 0.747910 0.227198
O O4 0.552315 0.000000 0.225780
O O5 0.746000 0.500000 0.500000
O O6 0.789479 0.278600 0.500000
O O7 0.724699 0.283820 0.327816
O O8 0.171611 0.500000 0.500000
O O9 0.145813 0.296913 0.676058
O O10 0.073504 0.739826 0.268434
O O11 0.000000 0.813299 0.276975
O O12 0.054641 0.000000 0.269735
O O13 0.041483 0.848912 0.000000
O O14 0.305562 0.500000 0.186603
O O15 0.349739 0.702810 0.266474
O O16 0.298706 0.718418 0.000000
O O17 0.599008 0.500000 0.285974
O O18 0.615176 0.377697 0.000000
O O19 0.100988 0.500000 0.776083
O O20 0.121187 0.310441 0.000000
#
# Coordination Sequence:
#
# PCOD8201155 Si02
#       7
#     8   4   4   8   8   8   8
#     4   9  19  34  48  65  92 125 161 196 227 268
#     4   9  16  26  44  66  89 124 154 179 231 283
#     4   9  18  30  42  64  95 121 155 194 225 275
#     4   8  14  26  45  68  92 119 155 196 232 270
#     4   8  15  27  42  66  97 121 148 188 230 278
#     4   9  18  31  47  70  97 121 150 192 236 278
#     4   9  17  29  45  65  92 125 155 188 232 274
#
# _framework density 18.073338
#
# number of rings (size 3 to 8) (size 9 to 14) (size 15 to 20)
#    0.000    3.333    0.000    2.000    1.167    2.333 
#    0.000    8.333    0.000    2.500    0.000    2.333 
#    0.000    2.667    0.000    0.000    0.000    0.000 
#
# Total GULP energy -594699.112176 kJ/mol
# GULP energy per Si atom -12389.564837 kJ/mol
# Density = 1.803220 g / cm^3
# Si number density = 18.073338 Si / 1000 Ang^3
#
#
#
# Elastic Constant Matrix: (Units=GPa)
#
#
# Indices 1 2 3 4 5 6 
#
# 1 175.5822 62.3086 57.9445 0.0000 0.0000 0.0000
# 2 62.3086 55.7161 23.0976 0.0000 0.0000 0.0000
# 3 57.9445 23.0976 73.7367 0.0000 0.0000 0.0000
# 4 0.0000 0.0000 0.0000 12.4301 0.0000 0.0000
# 5 0.0000 0.0000 0.0000 0.0000 27.3945 0.0000
# 6 0.0000 0.0000 0.0000 0.0000 0.0000 -3.1826
#
#
#
# Elastic Compliance Matrix: (Units=1/GPa)
#
#
# Indices 1 2 3 4 5 6 
#
# 1 0.011132 -0.010140 -0.005572 0.000000 0.000000 0.000000
# 2 -0.010140 0.029862 -0.001386 0.000000 0.000000 0.000000
# 3 -0.005572 -0.001386 0.018375 0.000000 0.000000 0.000000
# 4 0.000000 0.000000 0.000000 0.080450 0.000000 0.000000
# 5 0.000000 0.000000 0.000000 0.000000 0.036504 0.000000
# 6 0.000000 0.000000 0.000000 0.000000 0.000000 -0.314208
#
#
# Mechanical properties :
#
#
# Convention : Reuss Voigt Hill
#
# Bulk Modulus (GPa) = 39.72401 65.74849 52.73625
# Shear Modulus (GPa) = -52.46655 18.10738 -17.17959
#
# Velocity S-wave (km/s) = -5.39378 3.16869 -3.08644
# Velocity P-wave (km/s) = 4.09431 7.06011 4.06705
#
# Compressibility (1/GPa) = 0.02517369
#
# Stress axis : x y z
#
# Youngs Moduli (GPa) = 89.82743 33.48709 54.42305
#
# Poissons Ratio (x) = 0.33955 0.30324
# Poissons Ratio (y) = 0.91083 0.07543
# Poissons Ratio (z) = 0.50052 0.04641
#
# Static dielectric constant tensor:
#      x y z
#    x 5.131640 0.000000 0.000000 
#    y 0.000000 2.800250 0.000000 
#    z 0.000000 0.000000 3.346650 
# 
# 
# High freq. dielectric constant tensor:
#      x y z
#    x 1.701340 0.000000 0.000000 
#    y 0.000000 1.653350 0.000000 
#    z 0.000000 0.000000 1.696760 
# 
# From -- ./inp_files/13916.got.cif
#   From: 2010.03.12/outbox.cif.g09.slc.cpg/sg47_7_cif.got.tgz:13916.got - 2010.04.14 03:12:58.
