data_PCOD8201234
_publ_section_title
;
Structure prediction by ZEFSAII (Michael W. Deem and Ramdas Pophale) SiO2 
 PCOD8201234
Probable space group: P M M M
;
_chemical_formula_sum "Si O2"
_cell_formula_units_Z 40
_cell_length_a 9.356780
_cell_length_b 27.749285
_cell_length_c 7.707150
_cell_angle_alpha 90.000000
_cell_angle_beta 90.000000
_cell_angle_gamma 90.000000
_cell_volume 2001.114907
_symmetry_space_group_name_H-M "P M M M"
_symmetry_group_IT_number 47
_symmetry_cell_setting 'orthorhombic'
loop_
_space_group_symop_operation_xyz
x,y,z
-x,-y,z
x,-y,-z
-x,y,-z
-x,-y,-z
x,y,-z
-x,y,z
x,-y,z
loop_
_atom_site_type_symbol
_atom_site_label
_atom_site_fract_x
_atom_site_fract_y
_atom_site_fract_z
Si Si1 0.667403 0.376083 0.800804
Si Si2 0.840011 0.281991 0.205738
Si Si3 0.340275 0.910768 0.295903
Si Si4 0.331035 0.553484 0.500000
Si Si5 0.160527 0.000000 0.292683
Si Si6 0.340404 0.193708 0.796454
O O1 0.500000 0.364780 0.779188
O O2 0.752351 0.329063 0.738802
O O3 0.718049 0.419218 0.675184
O O4 0.703130 0.390294 0.000000
O O5 0.760998 0.234947 0.284514
O O6 0.000000 0.284746 0.283338
O O7 0.846555 0.278251 0.000000
O O8 0.347828 0.916738 0.500000
O O9 0.500000 0.915614 0.216159
O O10 0.240269 0.952665 0.218486
O O11 0.274725 0.858721 0.246786
O O12 0.262283 0.500000 0.500000
O O13 0.500000 0.549286 0.500000
O O14 0.160013 0.000000 0.500000
O O15 0.000000 0.000000 0.219383
O O16 0.500000 0.197824 0.715151
O O17 0.349682 0.201563 0.000000
#
# Coordination Sequence:
#
# PCOD8201234 Si02
#       6
#     8   8   8   4   4   8
#     4   9  17  31  52  75 100 134 172 208 250 300
#     4   9  17  30  49  71  96 128 163 198 239 290
#     4   9  17  30  47  66  87 114 151 192 233 281
#     4   9  18  32  51  79 109 133 167 216 259 294
#     4   9  17  29  46  65  86 116 152 191 234 280
#     4   9  17  30  48  69  94 123 154 192 240 291
#
# _framework density 19.988856999999999
#
# number of rings (size 3 to 8) (size 9 to 14) (size 15 to 20)
#    0.000    3.000    0.000    0.900    0.000    4.800 
#    1.800    3.000    0.000    4.200    0.000    2.800 
#    0.000    0.000    0.000    0.000    0.000    0.000 
#
# Total GULP energy -495866.433062 kJ/mol
# GULP energy per Si atom -12396.660827 kJ/mol
# Density = 1.994336 g / cm^3
# Si number density = 19.988857 Si / 1000 Ang^3
#
#
#
# Elastic Constant Matrix: (Units=GPa)
#
#
# Indices 1 2 3 4 5 6 
#
# 1 105.5022 89.6999 21.7747 0.0000 0.0000 0.0000
# 2 89.6999 215.7397 40.9458 0.0000 0.0000 0.0000
# 3 21.7747 40.9458 46.7698 0.0000 0.0000 0.0000
# 4 0.0000 0.0000 0.0000 28.2110 0.0000 0.0000
# 5 0.0000 0.0000 0.0000 0.0000 8.3091 0.0000
# 6 0.0000 0.0000 0.0000 0.0000 0.0000 10.5242
#
#
#
# Elastic Compliance Matrix: (Units=1/GPa)
#
#
# Indices 1 2 3 4 5 6 
#
# 1 0.014787 -0.005806 -0.001801 0.000000 0.000000 0.000000
# 2 -0.005806 0.007839 -0.004159 0.000000 0.000000 0.000000
# 3 -0.001801 -0.004159 0.025861 0.000000 0.000000 0.000000
# 4 0.000000 0.000000 0.000000 0.035447 0.000000 0.000000
# 5 0.000000 0.000000 0.000000 0.000000 0.120350 0.000000
# 6 0.000000 0.000000 0.000000 0.000000 0.000000 0.095019
#
#
# Mechanical properties :
#
#
# Convention : Reuss Voigt Hill
#
# Bulk Modulus (GPa) = 40.07474 74.76139 57.41807
# Shear Modulus (GPa) = 15.09870 23.78159 19.44015
#
# Velocity S-wave (km/s) = 2.75136 3.45301 3.12196
# Velocity P-wave (km/s) = 5.49412 7.30619 6.46397
#
# Compressibility (1/GPa) = 0.02495337
#
# Stress axis : x y z
#
# Youngs Moduli (GPa) = 67.62825 127.57183 38.66770
#
# Poissons Ratio (x) = 0.74070 0.06965
# Poissons Ratio (y) = 0.39266 0.16084
# Poissons Ratio (z) = 0.12181 0.53063
#
# Static dielectric constant tensor:
#      x y z
#    x 3.730210 0.000000 0.000000 
#    y 0.000000 3.844540 0.000000 
#    z 0.000000 0.000000 3.296240 
# 
# 
# High freq. dielectric constant tensor:
#      x y z
#    x 1.758540 0.000000 0.000000 
#    y 0.000000 1.783750 0.000000 
#    z 0.000000 0.000000 1.756150 
# 
# From -- ./inp_files/1816.got.cif
#   From: 2010.03.12/outbox.cif.g09.slc.cpg/sg47_1_cif.got.tgz:1816.got - 2010.04.14 03:12:58.
