data_PCOD8201090
_publ_section_title
;
Structure prediction by ZEFSAII (Michael W. Deem and Ramdas Pophale) SiO2 
 PCOD8201090
Probable space group: P M M M
;
_chemical_formula_sum "Si O2"
_cell_formula_units_Z 40
_cell_length_a 9.739140
_cell_length_b 25.331502
_cell_length_c 9.759570
_cell_angle_alpha 90.000000
_cell_angle_beta 90.000000
_cell_angle_gamma 90.000000
_cell_volume 2407.754669
_symmetry_space_group_name_H-M "P M M M"
_symmetry_group_IT_number 47
_symmetry_cell_setting 'orthorhombic'
loop_
_space_group_symop_operation_xyz
x,y,z
-x,-y,z
x,-y,-z
-x,y,-z
-x,-y,-z
x,y,-z
-x,y,z
x,-y,z
loop_
_atom_site_type_symbol
_atom_site_label
_atom_site_fract_x
_atom_site_fract_y
_atom_site_fract_z
Si Si1 0.159966 0.847427 0.159662
Si Si2 0.660816 0.635304 0.842388
Si Si3 0.163062 0.941595 0.346404
Si Si4 0.348040 0.753119 0.162701
Si Si5 0.157121 0.438814 0.657498
O O1 0.219074 0.898212 0.240158
O O2 0.239341 0.796080 0.216370
O O3 0.000000 0.837915 0.189245
O O4 0.188447 0.857423 0.000000
O O5 0.500000 0.624025 0.824915
O O6 0.696010 0.694519 0.789669
O O7 0.743856 0.594417 0.752559
O O8 0.705176 0.628259 0.000000
O O9 0.212934 0.927397 0.500000
O O10 0.000000 0.942097 0.341212
O O11 0.217834 0.000000 0.305003
O O12 0.500000 0.767024 0.219723
O O13 0.352750 0.753230 0.000000
O O14 0.191908 0.426383 0.500000
O O15 0.182767 0.500000 0.689516
O O16 0.000000 0.423709 0.689596
#
# Coordination Sequence:
#
# PCOD8201090 Si02
#       5
#     8   8   8   8   8
#     4   9  16  25  41  66  88 106 138 182 217 248
#     4   9  18  32  50  72  95 120 154 193 229 269
#     4   8  14  25  40  58  83 114 142 170 212 262
#     4   8  15  29  46  63  88 120 146 172 215 266
#     4   9  19  35  51  68  94 126 156 187 227 274
#
# _framework density 16.612988999999999
#
# number of rings (size 3 to 8) (size 9 to 14) (size 15 to 20)
#    0.000    3.400    0.000    2.400    0.000    2.800 
#    0.000    8.000    0.000    4.800    0.000    4.200 
#    0.000    0.000    0.000    0.000    0.000    0.000 
#
# Total GULP energy -495782.405163 kJ/mol
# GULP energy per Si atom -12394.560129 kJ/mol
# Density = 1.657518 g / cm^3
# Si number density = 16.612989 Si / 1000 Ang^3
#
#
#
# Elastic Constant Matrix: (Units=GPa)
#
#
# Indices 1 2 3 4 5 6 
#
# 1 59.3968 64.9635 43.7260 0.0000 0.0000 0.0000
# 2 64.9635 133.8250 69.2698 0.0000 0.0000 0.0000
# 3 43.7260 69.2698 69.1330 0.0000 0.0000 0.0000
# 4 0.0000 0.0000 0.0000 1.6600 0.0000 0.0000
# 5 0.0000 0.0000 0.0000 0.0000 20.1677 0.0000
# 6 0.0000 0.0000 0.0000 0.0000 0.0000 3.3966
#
#
#
# Elastic Compliance Matrix: (Units=1/GPa)
#
#
# Indices 1 2 3 4 5 6 
#
# 1 0.040329 -0.013242 -0.012240 0.000000 0.000000 0.000000
# 2 -0.013242 0.019871 -0.011535 0.000000 0.000000 0.000000
# 3 -0.012240 -0.011535 0.033765 0.000000 0.000000 0.000000
# 4 0.000000 0.000000 0.000000 0.602406 0.000000 0.000000
# 5 0.000000 0.000000 0.000000 0.000000 0.049584 0.000000
# 6 0.000000 0.000000 0.000000 0.000000 0.000000 0.294410
#
#
# Mechanical properties :
#
#
# Convention : Reuss Voigt Hill
#
# Bulk Modulus (GPa) = 50.17258 68.69704 59.43481
# Shear Modulus (GPa) = 4.46013 10.67124 7.56568
#
# Velocity S-wave (km/s) = 1.64029 2.53720 2.13634
# Velocity P-wave (km/s) = 5.81840 7.07279 6.47604
#
# Compressibility (1/GPa) = 0.01993120
#
# Stress axis : x y z
#
# Youngs Moduli (GPa) = 24.79577 50.32375 29.61662
#
# Poissons Ratio (x) = 0.66637 0.36251
# Poissons Ratio (y) = 0.32834 0.34164
# Poissons Ratio (z) = 0.30350 0.58050
#
# Static dielectric constant tensor:
#      x y z
#    x 2.986060 0.000000 0.000000 
#    y 0.000000 3.397570 0.000000 
#    z 0.000000 0.000000 2.972330 
# 
# 
# High freq. dielectric constant tensor:
#      x y z
#    x 1.617270 0.000000 0.000000 
#    y 0.000000 1.649220 0.000000 
#    z 0.000000 0.000000 1.619170 
# 
# From -- ./inp_files/1660.got.cif
#   From: 2010.03.12/outbox.cif.g09.slc.cpg/sg47_1_cif.got.tgz:1660.got - 2010.04.14 03:12:58.
