data_PCOD8201289
_publ_section_title
;
Structure prediction by ZEFSAII (Michael W. Deem and Ramdas Pophale) SiO2 
 PCOD8201289
Probable space group: P N N N
;
_chemical_formula_sum "Si O2"
_cell_formula_units_Z 46
_cell_length_a 8.352963
_cell_length_b 22.126919
_cell_length_c 13.223555
_cell_angle_alpha 90.000000
_cell_angle_beta 90.000000
_cell_angle_gamma 90.000000
_cell_volume 2444.047992
_symmetry_space_group_name_H-M "P N N N"
_symmetry_group_IT_number 48
_space_group.IT_coordinate_system_code '2'
_symmetry_cell_setting 'orthorhombic'
loop_
_space_group_symop_operation_xyz
x,y,z
1/2-x,1/2-y,z
x,1/2-y,1/2-z
1/2-x,y,1/2-z
-x,-y,-z
1/2+x,1/2+y,-z
-x,1/2+y,1/2+z
1/2+x,-y,1/2+z
loop_
_atom_site_type_symbol
_atom_site_label
_atom_site_fract_x
_atom_site_fract_y
_atom_site_fract_z
Si Si1 0.571100 0.906466 0.559638
Si Si2 0.750000 0.250000 0.750000
Si Si3 0.750000 0.567507 0.750000
Si Si4 0.809519 0.816195 0.097309
Si Si5 0.499746 0.842581 0.201420
Si Si6 0.181448 0.996492 0.908333
Si Si7 0.493232 0.022775 0.795026
O O1 0.652384 0.892584 0.668637
O O2 0.592029 0.845939 0.494554
O O3 0.384134 0.927426 0.573067
O O4 0.658463 0.963513 0.508074
O O5 0.641768 0.205854 0.822056
O O6 0.631981 0.524814 0.687452
O O7 0.750000 0.750000 0.067552
O O8 0.642721 0.849663 0.120195
O O9 0.926467 0.818222 0.193311
O O10 0.430702 0.910193 0.196402
O O11 0.366211 0.000297 0.878476
O O12 0.078542 0.024395 0.817306
#
# Coordination Sequence:
#
# PCOD8201289 Si02
#       7
#     8   2   4   8   8   8   8
#     4  10  19  34  51  79 103 139 187 226 261 333
#     4  12  22  30  44  80 128 134 168 220 282 330
#     4  10  23  32  49  77 116 135 174 230 284 318
#     4  11  19  36  57  72 102 150 190 212 267 336
#     4  11  19  33  52  81 109 142 172 219 276 350
#     4   9  17  31  57  74 105 137 179 216 273 339
#     4  10  17  34  52  81 107 142 167 219 286 345
#
# _framework density 18.821234
#
# number of rings (size 3 to 8) (size 9 to 14) (size 15 to 20)
#    0.000    1.739    5.217    2.087    0.000    0.696 
#    0.000    0.435    0.000    0.000    0.000    0.000 
#    0.000    0.000    0.000    0.000    0.000    0.000 
#
# Total GULP energy -569865.639640 kJ/mol
# GULP energy per Si atom -12388.383470 kJ/mol
# Density = 1.877840 g / cm^3
# Si number density = 18.821234 Si / 1000 Ang^3
#
#
#
# Elastic Constant Matrix: (Units=GPa)
#
#
# Indices 1 2 3 4 5 6 
#
# 1 79.4499 26.6635 16.8480 0.0000 0.0000 0.0000
# 2 26.6635 94.2034 26.8358 0.0000 0.0000 0.0000
# 3 16.8480 26.8358 62.3741 0.0000 0.0000 0.0000
# 4 0.0000 0.0000 0.0000 6.0589 0.0000 0.0000
# 5 0.0000 0.0000 0.0000 0.0000 17.2792 0.0000
# 6 0.0000 0.0000 0.0000 0.0000 0.0000 11.9617
#
#
#
# Elastic Compliance Matrix: (Units=1/GPa)
#
#
# Indices 1 2 3 4 5 6 
#
# 1 0.014217 -0.003339 -0.002403 0.000000 0.000000 0.000000
# 2 -0.003339 0.012882 -0.004641 0.000000 0.000000 0.000000
# 3 -0.002403 -0.004641 0.018678 0.000000 0.000000 0.000000
# 4 0.000000 0.000000 0.000000 0.165047 0.000000 0.000000
# 5 0.000000 0.000000 0.000000 0.000000 0.057873 0.000000
# 6 0.000000 0.000000 0.000000 0.000000 0.000000 0.083600
#
#
# Mechanical properties :
#
#
# Convention : Reuss Voigt Hill
#
# Bulk Modulus (GPa) = 39.98278 41.85800 40.92039
# Shear Modulus (GPa) = 13.10958 18.10531 15.60745
#
# Velocity S-wave (km/s) = 2.64205 3.10492 2.88279
# Velocity P-wave (km/s) = 5.53144 5.92807 5.73319
#
# Compressibility (1/GPa) = 0.02501077
#
# Stress axis : x y z
#
# Youngs Moduli (GPa) = 70.33891 77.62500 53.53880
#
# Poissons Ratio (x) = 0.25921 0.12868
# Poissons Ratio (y) = 0.23488 0.24845
# Poissons Ratio (z) = 0.16906 0.36022
#
# Static dielectric constant tensor:
#      x y z
#    x 3.714450 0.000000 0.000000 
#    y 0.000000 3.275850 0.000000 
#    z 0.000000 0.000000 3.271630 
# 
# 
# High freq. dielectric constant tensor:
#      x y z
#    x 1.734170 0.000000 0.000000 
#    y 0.000000 1.707570 0.000000 
#    z 0.000000 0.000000 1.703470 
# 
# From -- ./inp_files/11274.got.cif
#   From: 2010.06.25/outbox.cif.g09.slc.cpg/sg48_6_cif.got.tgz:11274.got - 2010.06.26 18:06:46.
