data_PCOD8201769
_publ_section_title
;
Structure prediction by ZEFSAII (Michael W. Deem and Ramdas Pophale) SiO2 
 PCOD8201769
Probable space group: P N N N
;
_chemical_formula_sum "Si O2"
_cell_formula_units_Z 40
_cell_length_a 15.920481
_cell_length_b 8.090608
_cell_length_c 11.268739
_cell_angle_alpha 90.000000
_cell_angle_beta 90.000000
_cell_angle_gamma 90.000000
_cell_volume 1451.485376
_symmetry_space_group_name_H-M "P N N N"
_symmetry_group_IT_number 48
_space_group.IT_coordinate_system_code '2'
_symmetry_cell_setting 'orthorhombic'
loop_
_space_group_symop_operation_xyz
x,y,z
1/2-x,1/2-y,z
x,1/2-y,1/2-z
1/2-x,y,1/2-z
-x,-y,-z
1/2+x,1/2+y,-z
-x,1/2+y,1/2+z
1/2+x,-y,1/2+z
loop_
_atom_site_type_symbol
_atom_site_label
_atom_site_fract_x
_atom_site_fract_y
_atom_site_fract_z
Si Si1 0.049197 0.981462 0.687493
Si Si2 0.376285 0.741072 0.988123
Si Si3 0.634400 0.527291 0.664048
Si Si4 0.449509 0.159539 0.573937
Si Si5 0.804269 0.560382 0.574753
O O1 0.046722 0.156778 0.624974
O O2 0.067449 0.016285 0.825893
O O3 0.958702 0.892772 0.660381
O O4 0.117128 0.854086 0.631034
O O5 0.367091 0.848772 0.105790
O O6 0.461030 0.626225 0.007768
O O7 0.300146 0.606917 0.990461
O O8 0.708808 0.632480 0.595633
O O9 0.658601 0.504703 0.799867
O O10 0.369302 0.182453 0.488432
#
# Coordination Sequence:
#
# PCOD8201769 Si02
#       5
#     8   8   8   8   8
#     4  10  22  42  68  93 136 186 235 274 346 426
#     4  11  21  40  65  97 130 179 236 281 338 418
#     4  10  21  40  64  98 136 174 215 290 360 402
#     4  10  21  41  64 100 134 182 233 281 342 418
#     4  11  22  38  69 101 133 170 230 293 350 397
#
# _framework density 27.557977000000001
#
# number of rings (size 3 to 8) (size 9 to 14) (size 15 to 20)
#    0.000    1.600    2.000    4.200    0.000    2.400 
#    0.000    8.000    0.000   21.600    5.200    0.000 
#    0.000    0.000    0.000    0.000    0.000    0.000 
#
# Total GULP energy -495608.090866 kJ/mol
# GULP energy per Si atom -12390.202272 kJ/mol
# Density = 2.749525 g / cm^3
# Si number density = 27.557977 Si / 1000 Ang^3
#
#
#
# Elastic Constant Matrix: (Units=GPa)
#
#
# Indices 1 2 3 4 5 6 
#
# 1 121.0204 23.1905 75.8967 0.0000 0.0000 0.0000
# 2 23.1905 50.0420 39.8182 0.0000 0.0000 0.0000
# 3 75.8967 39.8182 159.0811 0.0000 0.0000 0.0000
# 4 0.0000 0.0000 0.0000 35.4581 0.0000 0.0000
# 5 0.0000 0.0000 0.0000 0.0000 49.0635 0.0000
# 6 0.0000 0.0000 0.0000 0.0000 0.0000 42.2978
#
#
#
# Elastic Compliance Matrix: (Units=1/GPa)
#
#
# Indices 1 2 3 4 5 6 
#
# 1 0.011852 -0.001240 -0.005344 0.000000 0.000000 0.000000
# 2 -0.001240 0.025083 -0.005687 0.000000 0.000000 0.000000
# 3 -0.005344 -0.005687 0.010259 0.000000 0.000000 0.000000
# 4 0.000000 0.000000 0.000000 0.028202 0.000000 0.000000
# 5 0.000000 0.000000 0.000000 0.000000 0.020382 0.000000
# 6 0.000000 0.000000 0.000000 0.000000 0.000000 0.023642
#
#
# Mechanical properties :
#
#
# Convention : Reuss Voigt Hill
#
# Bulk Modulus (GPa) = 44.14588 67.55049 55.84819
# Shear Modulus (GPa) = 33.00051 38.11307 35.55679
#
# Velocity S-wave (km/s) = 3.46424 3.72292 3.59591
# Velocity P-wave (km/s) = 5.66174 6.56091 6.12784
#
# Compressibility (1/GPa) = 0.02265217
#
# Stress axis : x y z
#
# Youngs Moduli (GPa) = 84.37166 39.86816 97.47391
#
# Poissons Ratio (x) = 0.04945 0.52092
# Poissons Ratio (y) = 0.10464 0.55429
# Poissons Ratio (z) = 0.45090 0.22671
#
# Static dielectric constant tensor:
#      x y z
#    x 5.632290 0.000000 0.000000 
#    y 0.000000 5.057750 0.000000 
#    z 0.000000 0.000000 5.064110 
# 
# 
# High freq. dielectric constant tensor:
#      x y z
#    x 2.103680 0.000000 0.000000 
#    y 0.000000 2.149640 0.000000 
#    z 0.000000 0.000000 2.108760 
# 
# From -- ./inp_files/21912.got.cif
#   From: 2010.06.25/outbox.cif.g09.slc.cpg/sg48_11_cif.got.tgz:21912.got - 2010.06.26 18:06:46.
