data_PCOD8201068
_publ_section_title
;
Structure prediction by ZEFSAII (Michael W. Deem and Ramdas Pophale) SiO2 
 PCOD8201068
Probable space group: P M M M
;
_chemical_formula_sum "Si O2"
_cell_formula_units_Z 44
_cell_length_a 9.663977
_cell_length_b 9.802800
_cell_length_c 27.525732
_cell_angle_alpha 90.000000
_cell_angle_beta 90.000000
_cell_angle_gamma 90.000000
_cell_volume 2607.623624
_symmetry_space_group_name_H-M "P M M M"
_symmetry_group_IT_number 47
_symmetry_cell_setting 'orthorhombic'
loop_
_space_group_symop_operation_xyz
x,y,z
-x,-y,z
x,-y,-z
-x,y,-z
-x,-y,-z
x,y,-z
-x,y,z
x,-y,z
loop_
_atom_site_type_symbol
_atom_site_label
_atom_site_fract_x
_atom_site_fract_y
_atom_site_fract_z
Si Si1 0.159472 0.843774 0.123883
Si Si2 0.346360 0.337964 0.413836
Si Si3 0.660131 0.343118 0.055489
Si Si4 0.159131 0.157152 0.235762
Si Si5 0.156160 0.662932 0.500000
Si Si6 0.337894 0.343550 0.304879
O O1 0.251020 0.748915 0.090613
O O2 0.189187 0.808208 0.179796
O O3 0.000000 0.817060 0.111346
O O4 0.198679 0.000000 0.113226
O O5 0.500000 0.280961 0.426245
O O6 0.352266 0.500000 0.416529
O O7 0.235413 0.280495 0.452367
O O8 0.302143 0.294159 0.359580
O O9 0.500000 0.315490 0.066386
O O10 0.697178 0.500000 0.065594
O O11 0.695168 0.305187 0.000000
O O12 0.255589 0.251019 0.267871
O O13 0.000000 0.187832 0.248456
O O14 0.194260 0.000000 0.246567
O O15 0.154863 0.500000 0.500000
O O16 0.000000 0.720562 0.500000
O O17 0.500000 0.326970 0.294775
O O18 0.292227 0.500000 0.297432
#
# Coordination Sequence:
#
# PCOD8201068 Si02
#       6
#     8   8   8   8   4   8
#     4   9  19  35  52  71  96 125 159 198 236 277
#     4   8  14  25  39  56  84 120 151 182 226 277
#     4   9  19  35  52  72 100 130 158 191 233 280
#     4   9  19  35  51  68  94 127 160 194 235 283
#     4   9  15  21  33  57  86 115 150 189 226 268
#     4   9  18  31  47  70  97 123 156 197 237 280
#
# _framework density 16.873601000000001
#
# number of rings (size 3 to 8) (size 9 to 14) (size 15 to 20)
#    0.000    3.182    0.000    3.000    0.000    5.455 
#    0.000   10.000    0.000    0.000    0.000    0.636 
#    0.000    5.091    0.000    0.000    0.000    0.000 
#
# Total GULP energy -545466.849231 kJ/mol
# GULP energy per Si atom -12396.973846 kJ/mol
# Density = 1.683520 g / cm^3
# Si number density = 16.873601 Si / 1000 Ang^3
#
#
#
# Elastic Constant Matrix: (Units=GPa)
#
#
# Indices 1 2 3 4 5 6 
#
# 1 98.7400 54.8668 81.5455 0.0000 0.0000 0.0000
# 2 54.8668 63.9095 64.7387 0.0000 0.0000 0.0000
# 3 81.5455 64.7387 121.8871 0.0000 0.0000 0.0000
# 4 0.0000 0.0000 0.0000 -110.6806 0.0000 0.0000
# 5 0.0000 0.0000 0.0000 0.0000 56.3160 0.0000
# 6 0.0000 0.0000 0.0000 0.0000 0.0000 41.4448
#
#
#
# Elastic Compliance Matrix: (Units=1/GPa)
#
#
# Indices 1 2 3 4 5 6 
#
# 1 0.025213 -0.009868 -0.011627 0.000000 0.000000 0.000000
# 2 -0.009868 0.037732 -0.013439 0.000000 0.000000 0.000000
# 3 -0.011627 -0.013439 0.023121 0.000000 0.000000 0.000000
# 4 0.000000 0.000000 0.000000 -0.009035 0.000000 0.000000
# 5 0.000000 0.000000 0.000000 0.000000 0.017757 0.000000
# 6 0.000000 0.000000 0.000000 0.000000 0.000000 0.024128
#
#
# Mechanical properties :
#
#
# Convention : Reuss Voigt Hill
#
# Bulk Modulus (GPa) = 61.73418 76.31540 69.02479
# Shear Modulus (GPa) = 25.74865 2.97508 14.36187
#
# Velocity S-wave (km/s) = 3.91061 1.32928 2.92060
# Velocity P-wave (km/s) = 7.55355 6.90520 7.23664
#
# Compressibility (1/GPa) = 0.01619848
#
# Stress axis : x y z
#
# Youngs Moduli (GPa) = 39.66166 26.50252 43.25030
#
# Poissons Ratio (x) = 0.26152 0.50288
# Poissons Ratio (y) = 0.39137 0.58125
# Poissons Ratio (z) = 0.46115 0.35617
#
# Static dielectric constant tensor:
#      x y z
#    x 3.186060 0.000000 0.000000 
#    y 0.000000 2.839620 0.000000 
#    z 0.000000 0.000000 3.251150 
# 
# 
# High freq. dielectric constant tensor:
#      x y z
#    x 1.652750 0.000000 0.000000 
#    y 0.000000 1.617890 0.000000 
#    z 0.000000 0.000000 1.659280 
# 
# From -- ./inp_files/2002.got.cif
#   From: 2010.03.12/outbox.cif.g09.slc.cpg/sg47_2_cif.got.tgz:2002.got - 2010.04.14 03:12:58.
