data_PCOD8201967
_publ_section_title
;
Structure prediction by ZEFSAII (Michael W. Deem and Ramdas Pophale) SiO2 
 PCOD8201967
Probable space group: P N N N
;
_chemical_formula_sum "Si O2"
_cell_formula_units_Z 30
_cell_length_a 9.812098
_cell_length_b 27.725022
_cell_length_c 4.795143
_cell_angle_alpha 90.000000
_cell_angle_beta 90.000000
_cell_angle_gamma 90.000000
_cell_volume 1304.473737
_symmetry_space_group_name_H-M "P N N N"
_symmetry_group_IT_number 48
_space_group.IT_coordinate_system_code '2'
_symmetry_cell_setting 'orthorhombic'
loop_
_space_group_symop_operation_xyz
x,y,z
1/2-x,1/2-y,z
x,1/2-y,1/2-z
1/2-x,y,1/2-z
-x,-y,-z
1/2+x,1/2+y,-z
-x,1/2+y,1/2+z
1/2+x,-y,1/2+z
loop_
_atom_site_type_symbol
_atom_site_label
_atom_site_fract_x
_atom_site_fract_y
_atom_site_fract_z
Si Si1 0.250000 0.016535 0.250000
Si Si2 0.750000 0.250000 0.250000
Si Si3 0.250000 0.948325 0.750000
Si Si4 0.033772 0.096262 0.366218
Si Si5 0.070367 0.750000 0.250000
Si Si6 0.601819 0.658617 0.136767
O O1 0.120885 0.047549 0.347764
O O2 0.295892 0.982257 0.498569
O O3 0.846997 0.224555 0.486602
O O4 0.376319 0.913338 0.806865
O O5 0.036715 0.116314 0.678866
O O6 0.102718 0.136941 0.172679
O O7 0.983602 0.792589 0.118470
O O8 0.750000 0.672156 0.250000
#
# Coordination Sequence:
#
# PCOD8201967 Si02
#       6
#     4   2   4   8   4   8
#     4  12  22  46  66  95 138 173 226 272 342 400
#     4  10  24  44  62 102 128 174 212 268 340 372
#     4  12  26  41  68 101 126 179 226 272 344 407
#     4  12  25  43  69  98 138 173 221 287 328 392
#     4  11  25  44  74  96 137 177 220 268 326 406
#     4  12  24  45  68  99 133 177 226 271 329 391
#
# _framework density 22.997781
#
# number of rings (size 3 to 8) (size 9 to 14) (size 15 to 20)
#    0.000    0.267    2.667    6.800    0.000    6.400 
#    0.000    4.000    0.000    0.000    0.000    0.000 
#    0.000    0.000    0.000    0.000    0.000    0.000 
#
# Total GULP energy -371817.058580 kJ/mol
# GULP energy per Si atom -12393.901953 kJ/mol
# Density = 2.294544 g / cm^3
# Si number density = 22.997781 Si / 1000 Ang^3
#
#
#
# Elastic Constant Matrix: (Units=GPa)
#
#
# Indices 1 2 3 4 5 6 
#
# 1 127.6415 20.6503 -2.7772 0.0000 0.0000 0.0000
# 2 20.6503 74.9101 14.5664 0.0000 0.0000 0.0000
# 3 -2.7772 14.5664 90.8969 0.0000 0.0000 0.0000
# 4 0.0000 0.0000 0.0000 1.4240 0.0000 0.0000
# 5 0.0000 0.0000 0.0000 0.0000 33.3863 0.0000
# 6 0.0000 0.0000 0.0000 0.0000 0.0000 9.3596
#
#
#
# Elastic Compliance Matrix: (Units=1/GPa)
#
#
# Indices 1 2 3 4 5 6 
#
# 1 0.008236 -0.002394 0.000635 0.000000 0.000000 0.000000
# 2 -0.002394 0.014474 -0.002393 0.000000 0.000000 0.000000
# 3 0.000635 -0.002393 0.011404 0.000000 0.000000 0.000000
# 4 0.000000 0.000000 0.000000 0.702246 0.000000 0.000000
# 5 0.000000 0.000000 0.000000 0.000000 0.029952 0.000000
# 6 0.000000 0.000000 0.000000 0.000000 0.000000 0.106843
#
#
# Mechanical properties :
#
#
# Convention : Reuss Voigt Hill
#
# Bulk Modulus (GPa) = 38.74195 39.81418 39.27807
# Shear Modulus (GPa) = 5.61759 26.23458 15.92608
#
# Velocity S-wave (km/s) = 1.56460 3.38115 2.63440
# Velocity P-wave (km/s) = 4.48848 5.70900 5.13513
#
# Compressibility (1/GPa) = 0.02581181
#
# Stress axis : x y z
#
# Youngs Moduli (GPa) = 121.42498 69.08707 87.68608
#
# Poissons Ratio (x) = 0.16538 -0.05570
# Poissons Ratio (y) = 0.29067 0.20981
# Poissons Ratio (z) = -0.07713 0.16530
#
# Static dielectric constant tensor:
#      x y z
#    x 4.267140 0.000000 0.000000 
#    y 0.000000 3.838280 0.000000 
#    z 0.000000 0.000000 4.376400 
# 
# 
# High freq. dielectric constant tensor:
#      x y z
#    x 1.924500 0.000000 0.000000 
#    y 0.000000 1.890440 0.000000 
#    z 0.000000 0.000000 1.930340 
# 
# From -- ./inp_files/1108.got.cif
#   From: 2010.06.25/outbox.cif.g09.slc.cpg/sg48_1_cif.got.tgz:1108.got - 2010.06.26 18:06:46.
