data_PCOD8201797
_publ_section_title
;
Structure prediction by ZEFSAII (Michael W. Deem and Ramdas Pophale) SiO2 
 PCOD8201797
Probable space group: P N N N
;
_chemical_formula_sum "Si O2"
_cell_formula_units_Z 46
_cell_length_a 11.075764
_cell_length_b 8.786013
_cell_length_c 24.603244
_cell_angle_alpha 90.000000
_cell_angle_beta 90.000000
_cell_angle_gamma 90.000000
_cell_volume 2394.186119
_symmetry_space_group_name_H-M "P N N N"
_symmetry_group_IT_number 48
_space_group.IT_coordinate_system_code '2'
_symmetry_cell_setting 'orthorhombic'
loop_
_space_group_symop_operation_xyz
x,y,z
1/2-x,1/2-y,z
x,1/2-y,1/2-z
1/2-x,y,1/2-z
-x,-y,-z
1/2+x,1/2+y,-z
-x,1/2+y,1/2+z
1/2+x,-y,1/2+z
loop_
_atom_site_type_symbol
_atom_site_label
_atom_site_fract_x
_atom_site_fract_y
_atom_site_fract_z
Si Si1 0.455311 0.958169 0.940799
Si Si2 0.250000 0.750000 0.750000
Si Si3 0.250000 0.750000 0.900482
Si Si4 0.938690 0.035330 0.151147
Si Si5 0.885526 0.792864 0.361063
Si Si6 0.888531 0.791310 0.640676
Si Si7 0.548408 0.042885 0.221016
O O1 0.352422 0.827135 0.938763
O O2 0.574283 0.908631 0.906900
O O3 0.396603 0.109483 0.915538
O O4 0.500000 0.000000 0.000000
O O5 0.333865 0.851130 0.790466
O O6 0.188298 0.882769 0.863690
O O7 0.957426 0.016873 0.215454
O O8 0.047656 0.132145 0.127042
O O9 0.952878 0.866217 0.127238
O O10 0.750000 0.750000 0.345555
O O11 0.940718 0.882717 0.309682
O O12 0.750000 0.750000 0.642797
O O13 0.933386 0.863011 0.698071
#
# Coordination Sequence:
#
# PCOD8201797 Si02
#       7
#     8   2   4   8   8   8   8
#     4  10  23  44  65  90 119 159 213 273 325 369
#     4  12  18  32  56  92 120 166 200 246 298 354
#     4  10  21  42  65  92 124 158 209 258 313 380
#     4  11  20  37  59  91 125 161 199 249 307 370
#     4  11  22  36  58  94 131 150 202 264 313 369
#     4  10  23  42  60  86 125 172 218 249 299 393
#     4  11  22  32  59  90 128 166 199 244 306 373
#
# _framework density 19.213211000000001
#
# number of rings (size 3 to 8) (size 9 to 14) (size 15 to 20)
#    0.000    1.391    3.478    2.087    2.435    2.783 
#    3.130    4.348    0.000    4.174    0.000    0.000 
#    0.000    0.000    0.000    0.000    0.000    0.000 
#
# Total GULP energy -570163.331919 kJ/mol
# GULP energy per Si atom -12394.855042 kJ/mol
# Density = 1.916948 g / cm^3
# Si number density = 19.213211 Si / 1000 Ang^3
#
#
#
# Elastic Constant Matrix: (Units=GPa)
#
#
# Indices 1 2 3 4 5 6 
#
# 1 130.5828 41.0641 31.4561 0.0000 0.0000 0.0000
# 2 41.0641 141.4625 30.1379 0.0000 0.0000 0.0000
# 3 31.4561 30.1379 102.3349 0.0000 0.0000 0.0000
# 4 0.0000 0.0000 0.0000 20.2576 0.0000 0.0000
# 5 0.0000 0.0000 0.0000 0.0000 24.7153 0.0000
# 6 0.0000 0.0000 0.0000 0.0000 0.0000 19.1003
#
#
#
# Elastic Compliance Matrix: (Units=1/GPa)
#
#
# Indices 1 2 3 4 5 6 
#
# 1 0.008827 -0.002117 -0.002090 0.000000 0.000000 0.000000
# 2 -0.002117 0.008050 -0.001720 0.000000 0.000000 0.000000
# 3 -0.002090 -0.001720 0.010921 0.000000 0.000000 0.000000
# 4 0.000000 0.000000 0.000000 0.049364 0.000000 0.000000
# 5 0.000000 0.000000 0.000000 0.000000 0.040461 0.000000
# 6 0.000000 0.000000 0.000000 0.000000 0.000000 0.052355
#
#
# Mechanical properties :
#
#
# Convention : Reuss Voigt Hill
#
# Bulk Modulus (GPa) = 62.71933 64.41070 63.56501
# Shear Modulus (GPa) = 26.71699 30.92944 28.82321
#
# Velocity S-wave (km/s) = 3.73306 4.01658 3.87741
# Velocity P-wave (km/s) = 7.16210 7.42345 7.29394
#
# Compressibility (1/GPa) = 0.01594405
#
# Stress axis : x y z
#
# Youngs Moduli (GPa) = 113.28664 124.22344 91.56880
#
# Poissons Ratio (x) = 0.26300 0.19136
# Poissons Ratio (y) = 0.23984 0.15750
# Poissons Ratio (z) = 0.23675 0.21366
#
# Static dielectric constant tensor:
#      x y z
#    x 3.392200 0.000000 0.000000 
#    y 0.000000 4.032760 0.000000 
#    z 0.000000 0.000000 3.256540 
# 
# 
# High freq. dielectric constant tensor:
#      x y z
#    x 1.727200 0.000000 0.000000 
#    y 0.000000 1.766280 0.000000 
#    z 0.000000 0.000000 1.725930 
# 
# From -- ./inp_files/36282.got.cif
#   From: 2010.06.25/outbox.cif.g09.slc.cpg/sg48_19_cif.got.tgz:36282.got - 2010.06.26 18:06:46.
