data_PCOD8201335
_publ_section_title
;
Structure prediction by ZEFSAII (Michael W. Deem and Ramdas Pophale) SiO2 
 PCOD8201335
Probable space group: P N N N
;
_chemical_formula_sum "Si O2"
_cell_formula_units_Z 48
_cell_length_a 16.127159
_cell_length_b 17.818918
_cell_length_c 8.722595
_cell_angle_alpha 90.000000
_cell_angle_beta 90.000000
_cell_angle_gamma 90.000000
_cell_volume 2506.599249
_symmetry_space_group_name_H-M "P N N N"
_symmetry_group_IT_number 48
_space_group.IT_coordinate_system_code '2'
_symmetry_cell_setting 'orthorhombic'
loop_
_space_group_symop_operation_xyz
x,y,z
1/2-x,1/2-y,z
x,1/2-y,1/2-z
1/2-x,y,1/2-z
-x,-y,-z
1/2+x,1/2+y,-z
-x,1/2+y,1/2+z
1/2+x,-y,1/2+z
loop_
_atom_site_type_symbol
_atom_site_label
_atom_site_fract_x
_atom_site_fract_y
_atom_site_fract_z
Si Si1 0.507392 0.450361 0.151112
Si Si2 0.577575 0.533813 0.415550
Si Si3 0.663361 0.517967 0.710471
Si Si4 0.581885 0.290191 0.097339
Si Si5 0.496998 0.191831 0.867225
Si Si6 0.663423 0.149385 0.690255
O O1 0.578916 0.491500 0.252457
O O2 0.418216 0.439949 0.231811
O O3 0.532728 0.365946 0.125976
O O4 0.500000 0.500000 0.000000
O O5 0.500000 0.500000 0.500000
O O6 0.656981 0.514185 0.523015
O O7 0.565116 0.622676 0.390044
O O8 0.750000 0.560502 0.750000
O O9 0.667415 0.440372 0.805499
O O10 0.618927 0.250000 0.250000
O O11 0.515655 0.231015 0.029043
O O12 0.653820 0.314097 0.978399
O O13 0.452948 0.250000 0.750000
O O14 0.586219 0.170120 0.797019
O O15 0.750000 0.183143 0.750000
#
# Coordination Sequence:
#
# PCOD8201335 Si02
#       6
#     8   8   8   8   8   8
#     4  11  19  36  60  86 111 147 193 252 284 331
#     4  10  18  34  60  80 110 154 198 230 276 349
#     4  10  20  36  61  83 111 150 197 236 294 346
#     4  11  22  33  56  86 117 143 193 241 287 331
#     4  10  19  35  55  83 113 158 187 225 288 356
#     4  10  20  37  57  78 116 161 190 220 287 362
#
# _framework density 19.149450999999999
#
# number of rings (size 3 to 8) (size 9 to 14) (size 15 to 20)
#    0.000    1.667    5.000    3.000    0.000    3.000 
#    0.000    2.500    0.000    4.500    0.000    3.500 
#    0.000    0.000    0.000    0.000    0.000    0.000 
#
# Total GULP energy -594637.695891 kJ/mol
# GULP energy per Si atom -12388.285331 kJ/mol
# Density = 1.910587 g / cm^3
# Si number density = 19.149451 Si / 1000 Ang^3
#
#
#
# Elastic Constant Matrix: (Units=GPa)
#
#
# Indices 1 2 3 4 5 6 
#
# 1 83.1038 16.4479 37.7968 0.0000 0.0000 0.0000
# 2 16.4479 82.2644 27.5436 0.0000 0.0000 0.0000
# 3 37.7968 27.5436 131.0530 0.0000 0.0000 0.0000
# 4 0.0000 0.0000 0.0000 41.3903 0.0000 0.0000
# 5 0.0000 0.0000 0.0000 0.0000 31.6311 0.0000
# 6 0.0000 0.0000 0.0000 0.0000 0.0000 9.2097
#
#
#
# Elastic Compliance Matrix: (Units=1/GPa)
#
#
# Indices 1 2 3 4 5 6 
#
# 1 0.014034 -0.001561 -0.003719 0.000000 0.000000 0.000000
# 2 -0.001561 0.013250 -0.002335 0.000000 0.000000 0.000000
# 3 -0.003719 -0.002335 0.009194 0.000000 0.000000 0.000000
# 4 0.000000 0.000000 0.000000 0.024160 0.000000 0.000000
# 5 0.000000 0.000000 0.000000 0.000000 0.031614 0.000000
# 6 0.000000 0.000000 0.000000 0.000000 0.000000 0.108582
#
#
# Mechanical properties :
#
#
# Convention : Reuss Voigt Hill
#
# Bulk Modulus (GPa) = 47.06337 51.11088 49.08713
# Shear Modulus (GPa) = 22.40692 30.75508 26.58100
#
# Velocity S-wave (km/s) = 3.42439 4.01191 3.72974
# Velocity P-wave (km/s) = 6.34551 6.94327 6.65111
#
# Compressibility (1/GPa) = 0.02124795
#
# Stress axis : x y z
#
# Youngs Moduli (GPa) = 71.25725 75.47391 108.76792
#
# Poissons Ratio (x) = 0.11778 0.40456
# Poissons Ratio (y) = 0.11120 0.25393
# Poissons Ratio (z) = 0.26504 0.17620
#
# Static dielectric constant tensor:
#      x y z
#    x 3.571240 0.000000 0.000000 
#    y 0.000000 3.233860 0.000000 
#    z 0.000000 0.000000 4.735320 
# 
# 
# High freq. dielectric constant tensor:
#      x y z
#    x 1.700630 0.000000 0.000000 
#    y 0.000000 1.752100 0.000000 
#    z 0.000000 0.000000 1.758580 
# 
# From -- ./inp_files/14307.got.cif
#   From: 2010.06.25/outbox.cif.g09.slc.cpg/sg48_8_cif.got.tgz:14307.got - 2010.06.26 18:06:46.
