data_PCOD8201101
_publ_section_title
;
Structure prediction by ZEFSAII (Michael W. Deem and Ramdas Pophale) SiO2 
 PCOD8201101
Probable space group: P M M M
;
_chemical_formula_sum "Si O2"
_cell_formula_units_Z 52
_cell_length_a 9.822580
_cell_length_b 33.873053
_cell_length_c 9.082760
_cell_angle_alpha 90.000000
_cell_angle_beta 90.000000
_cell_angle_gamma 90.000000
_cell_volume 3022.022928
_symmetry_space_group_name_H-M "P M M M"
_symmetry_group_IT_number 47
_symmetry_cell_setting 'orthorhombic'
loop_
_space_group_symop_operation_xyz
x,y,z
-x,-y,z
x,-y,-z
-x,y,-z
-x,-y,-z
x,y,-z
-x,y,z
x,-y,z
loop_
_atom_site_type_symbol
_atom_site_label
_atom_site_fract_x
_atom_site_fract_y
_atom_site_fract_z
Si Si1 0.162297 0.345599 0.166432
Si Si2 0.837684 0.422789 0.333534
Si Si3 0.162403 0.268366 0.666428
Si Si4 0.837997 0.191584 0.833948
Si Si5 0.162310 0.500000 0.833531
Si Si6 0.347412 0.043745 0.325070
Si Si7 0.157050 0.113080 0.673110
O O1 0.218227 0.384131 0.250375
O O2 0.217963 0.306859 0.249153
O O3 0.000000 0.345657 0.166255
O O4 0.218298 0.345747 0.000000
O O5 0.781737 0.422859 0.500000
O O6 0.781846 0.461379 0.249897
O O7 0.000000 0.422781 0.333715
O O8 0.218116 0.268885 0.500000
O O9 0.219919 0.229583 0.747983
O O10 0.000000 0.268133 0.666835
O O11 0.787228 0.152125 0.753028
O O12 0.000000 0.192954 0.833134
O O13 0.781285 0.192113 0.000000
O O14 0.000000 0.500000 0.833741
O O15 0.218272 0.500000 0.000000
O O16 0.342093 0.043795 0.500000
O O17 0.500000 0.054249 0.271386
O O18 0.242110 0.076058 0.263572
O O19 0.306256 0.000000 0.267405
O O20 0.178592 0.119268 0.500000
O O21 0.000000 0.104932 0.711185
#
# Coordination Sequence:
#
# PCOD8201101 Si02
#       7
#     8   8   8   8   4   8   8
#     4   9  15  21  28  38  52  70  93 121 155 199
#     4   9  15  21  27  34  44  59  82 114 153 198
#     4   9  15  22  32  45  61  81 105 133 165 203
#     4   9  16  25  36  50  70  95 119 143 176 219
#     4   9  15  21  27  33  41  55  77 109 153 203
#     4   8  14  25  41  61  84 108 133 162 197 235
#     4   9  16  25  39  60  82 102 128 163 197 228
#
# _framework density 17.207015999999999
#
# number of rings (size 3 to 8) (size 9 to 14) (size 15 to 20)
#    0.000    3.154    0.000    2.538    0.000    8.615 
#    0.000    1.538    0.000    0.923    0.000    3.231 
#    0.000    0.000    0.000    0.000    0.000    0.000 
#
# Total GULP energy -644613.710048 kJ/mol
# GULP energy per Si atom -12396.417501 kJ/mol
# Density = 1.716785 g / cm^3
# Si number density = 17.207016 Si / 1000 Ang^3
#
#
#
# Elastic Constant Matrix: (Units=GPa)
#
#
# Indices 1 2 3 4 5 6 
#
# 1 18.8272 34.5968 17.4073 0.0000 0.0000 0.0000
# 2 34.5968 200.9823 88.2939 0.0000 0.0000 0.0000
# 3 17.4073 88.2939 133.5692 0.0000 0.0000 0.0000
# 4 0.0000 0.0000 0.0000 19.7592 0.0000 0.0000
# 5 0.0000 0.0000 0.0000 0.0000 2.9772 0.0000
# 6 0.0000 0.0000 0.0000 0.0000 0.0000 1.0019
#
#
#
# Elastic Compliance Matrix: (Units=1/GPa)
#
#
# Indices 1 2 3 4 5 6 
#
# 1 0.078001 -0.012629 -0.001818 0.000000 0.000000 0.000000
# 2 -0.012629 0.009056 -0.004341 0.000000 0.000000 0.000000
# 3 -0.001818 -0.004341 0.010593 0.000000 0.000000 0.000000
# 4 0.000000 0.000000 0.000000 0.050609 0.000000 0.000000
# 5 0.000000 0.000000 0.000000 0.000000 0.335884 0.000000
# 6 0.000000 0.000000 0.000000 0.000000 0.000000 0.998079
#
#
# Mechanical properties :
#
#
# Convention : Reuss Voigt Hill
#
# Bulk Modulus (GPa) = 16.64531 70.44165 43.54348
# Shear Modulus (GPa) = 3.24713 18.95305 11.10009
#
# Velocity S-wave (km/s) = 1.37521 3.32244 2.54262
# Velocity P-wave (km/s) = 3.49516 7.46624 5.82928
#
# Compressibility (1/GPa) = 0.06007698
#
# Stress axis : x y z
#
# Youngs Moduli (GPa) = 12.82029 110.41936 94.40171
#
# Poissons Ratio (x) = 1.39444 0.17158
# Poissons Ratio (y) = 0.16190 0.40978
# Poissons Ratio (z) = 0.02330 0.47931
#
# Static dielectric constant tensor:
#      x y z
#    x 2.460560 0.000000 0.000000 
#    y 0.000000 3.548850 0.000000 
#    z 0.000000 0.000000 3.254060 
# 
# 
# High freq. dielectric constant tensor:
#      x y z
#    x 1.567860 0.000000 0.000000 
#    y 0.000000 1.686090 0.000000 
#    z 0.000000 0.000000 1.663110 
# 
# From -- ./inp_files/4797.got.cif
#   From: 2010.03.12/outbox.cif.g09.slc.cpg/sg47_3_cif.got.tgz:4797.got - 2010.04.14 03:12:58.
