data_PCOD8201010
_publ_section_title
;
Structure prediction by ZEFSAII (Michael W. Deem and Ramdas Pophale) SiO2 
 PCOD8201010
Probable space group: P M M M
;
_chemical_formula_sum "Si O2"
_cell_formula_units_Z 60
_cell_length_a 17.697695
_cell_length_b 9.989927
_cell_length_c 23.615753
_cell_angle_alpha 90.000000
_cell_angle_beta 90.000000
_cell_angle_gamma 90.000000
_cell_volume 4175.233984
_symmetry_space_group_name_H-M "P M M M"
_symmetry_group_IT_number 47
_symmetry_cell_setting 'orthorhombic'
loop_
_space_group_symop_operation_xyz
x,y,z
-x,-y,z
x,-y,-z
-x,y,-z
-x,-y,-z
x,y,-z
-x,y,z
x,-y,z
loop_
_atom_site_type_symbol
_atom_site_label
_atom_site_fract_x
_atom_site_fract_y
_atom_site_fract_z
Si Si1 0.500000 0.841060 0.564325
Si Si2 0.355834 0.847595 0.633434
Si Si3 0.910834 0.149705 0.936180
Si Si4 0.855468 0.345431 0.158556
Si Si5 0.698087 0.354521 0.208024
Si Si6 0.915783 0.341020 0.277964
Si Si7 0.585074 0.850150 0.760359
Si Si8 0.233930 0.651063 0.332667
O O1 0.500000 0.789641 0.500000
O O2 0.423228 0.788926 0.594164
O O3 0.500000 0.000000 0.569146
O O4 0.385562 0.845196 0.696801
O O5 0.281768 0.752255 0.627296
O O6 0.333776 0.000000 0.615918
O O7 0.876241 0.259554 0.895434
O O8 0.000000 0.159999 0.932873
O O9 0.884915 0.000000 0.918240
O O10 0.883224 0.180084 0.000000
O O11 0.878241 0.500000 0.148210
O O12 0.765757 0.328894 0.164768
O O13 0.897349 0.287864 0.214718
O O14 0.661589 0.500000 0.196573
O O15 0.634420 0.243001 0.198688
O O16 0.729799 0.351542 0.271173
O O17 0.910641 0.500000 0.275033
O O18 0.852758 0.294607 0.324270
O O19 0.000000 0.292209 0.296073
O O20 0.500000 0.796481 0.761367
O O21 0.590431 0.000000 0.784368
O O22 0.235075 0.500000 0.358664
#
# Coordination Sequence:
#
# PCOD8201010 Si02
#       8
#     4   8   8   8   8   8   8   8
#     4   9  16  26  41  59  77 101 135 167 190 221
#     4   9  15  25  39  54  74 100 129 160 191 219
#     4   9  18  30  40  52  73  99 126 157 191 225
#     4   9  16  26  40  56  74  97 127 160 190 221
#     4   8  15  25  35  52  76  98 122 153 186 222
#     4   8  13  22  37  56  77 101 128 157 188 224
#     4   9  15  23  36  54  75  99 128 156 180 213
#     4   8  14  24  37  53  74 100 128 154 184 227
#
# _framework density 14.370452
#
# number of rings (size 3 to 8) (size 9 to 14) (size 15 to 20)
#    0.000    3.400    0.667    2.400    0.000    1.867 
#    0.000    3.000    0.000    2.000    0.000    0.000 
#    0.000    1.067    0.000   12.533    0.000    4.267 
#
# Total GULP energy -743465.072601 kJ/mol
# GULP energy per Si atom -12391.084543 kJ/mol
# Density = 1.433774 g / cm^3
# Si number density = 14.370452 Si / 1000 Ang^3
#
#
#
# Elastic Constant Matrix: (Units=GPa)
#
#
# Indices 1 2 3 4 5 6 
#
# 1 96.7459 46.6555 24.7161 0.0000 0.0000 0.0000
# 2 46.6555 62.9481 24.7901 0.0000 0.0000 0.0000
# 3 24.7161 24.7901 38.9463 0.0000 0.0000 0.0000
# 4 0.0000 0.0000 0.0000 12.3862 0.0000 0.0000
# 5 0.0000 0.0000 0.0000 0.0000 15.0016 0.0000
# 6 0.0000 0.0000 0.0000 0.0000 0.0000 24.4055
#
#
#
# Elastic Compliance Matrix: (Units=1/GPa)
#
#
# Indices 1 2 3 4 5 6 
#
# 1 0.016451 -0.010785 -0.003575 0.000000 0.000000 0.000000
# 2 -0.010785 0.028271 -0.011151 0.000000 0.000000 0.000000
# 3 -0.003575 -0.011151 0.035043 0.000000 0.000000 0.000000
# 4 0.000000 0.000000 0.000000 0.080735 0.000000 0.000000
# 5 0.000000 0.000000 0.000000 0.000000 0.066660 0.000000
# 6 0.000000 0.000000 0.000000 0.000000 0.000000 0.040974
#
#
# Mechanical properties :
#
#
# Convention : Reuss Voigt Hill
#
# Bulk Modulus (GPa) = 34.79103 43.44041 39.11572
# Shear Modulus (GPa) = 15.20977 17.19057 16.20017
#
# Velocity S-wave (km/s) = 3.25684 3.46243 3.36121
# Velocity P-wave (km/s) = 6.19721 6.80288 6.50709
#
# Compressibility (1/GPa) = 0.02874304
#
# Stress axis : x y z
#
# Youngs Moduli (GPa) = 60.78766 35.37193 28.53640
#
# Poissons Ratio (x) = 0.38148 0.10202
# Poissons Ratio (y) = 0.65559 0.31820
# Poissons Ratio (z) = 0.21732 0.39443
#
# Static dielectric constant tensor:
#      x y z
#    x 3.039950 0.000000 0.000000 
#    y 0.000000 2.924250 0.000000 
#    z 0.000000 0.000000 2.526250 
# 
# 
# High freq. dielectric constant tensor:
#      x y z
#    x 1.548060 0.000000 0.000000 
#    y 0.000000 1.538210 0.000000 
#    z 0.000000 0.000000 1.498710 
# 
# From -- ./inp_files/32912.got.cif
#   From: 2010.03.12/outbox.cif.g09.slc.cpg/sg47_17_cif.got.tgz:32912.got - 2010.04.14 03:12:58.
