data_PCOD8201592
_publ_section_title
;
Structure prediction by ZEFSAII (Michael W. Deem and Ramdas Pophale) SiO2 
 PCOD8201592
Probable space group: P N N N
;
_chemical_formula_sum "Si O2"
_cell_formula_units_Z 26
_cell_length_a 25.988022
_cell_length_b 5.084935
_cell_length_c 10.069948
_cell_angle_alpha 90.000000
_cell_angle_beta 90.000000
_cell_angle_gamma 90.000000
_cell_volume 1330.717473
_symmetry_space_group_name_H-M "P N N N"
_symmetry_group_IT_number 48
_space_group.IT_coordinate_system_code '2'
_symmetry_cell_setting 'orthorhombic'
loop_
_space_group_symop_operation_xyz
x,y,z
1/2-x,1/2-y,z
x,1/2-y,1/2-z
1/2-x,y,1/2-z
-x,-y,-z
1/2+x,1/2+y,-z
-x,1/2+y,1/2+z
1/2+x,-y,1/2+z
loop_
_atom_site_type_symbol
_atom_site_label
_atom_site_fract_x
_atom_site_fract_y
_atom_site_fract_z
Si Si1 0.040715 0.750000 0.750000
Si Si2 0.898571 0.181917 0.987449
Si Si3 0.348002 0.308249 0.390502
Si Si4 0.474223 0.750000 0.250000
Si Si5 0.750000 0.750000 0.750000
O O1 0.075888 0.650806 0.629848
O O2 0.007655 0.499569 0.797667
O O3 0.872720 0.464953 0.976472
O O4 0.941102 0.148669 0.873866
O O5 0.853877 0.960543 0.974418
O O6 0.377459 0.250000 0.250000
O O7 0.289189 0.399993 0.351368
#
# Coordination Sequence:
#
# PCOD8201592 Si02
#       5
#     4   8   8   4   2
#     4  12  26  35  56  85 118 157 190 231 282 344
#     4  12  22  39  58  84 119 151 187 238 288 323
#     4  10  20  37  62  87 111 139 188 246 278 333
#     4  12  20  40  56  81 112 155 210 230 262 322
#     4   8  20  36  64 100  96 142 196 242 272 330
#
# _framework density 19.538333000000002
#
# number of rings (size 3 to 8) (size 9 to 14) (size 15 to 20)
#    0.923    0.000    3.077    5.538    0.000    2.462 
#    0.000    0.000    0.000    5.538    0.000    0.000 
#    0.000    0.000    0.000    0.000    0.000    0.000 
#
# Total GULP energy -322094.584256 kJ/mol
# GULP energy per Si atom -12388.253241 kJ/mol
# Density = 1.949386 g / cm^3
# Si number density = 19.538333 Si / 1000 Ang^3
#
#
#
# Elastic Constant Matrix: (Units=GPa)
#
#
# Indices 1 2 3 4 5 6 
#
# 1 94.5284 31.9916 38.3130 0.0000 0.0000 0.0000
# 2 31.9916 122.2395 10.5465 0.0000 0.0000 0.0000
# 3 38.3130 10.5465 96.8495 0.0000 0.0000 0.0000
# 4 0.0000 0.0000 0.0000 23.8803 0.0000 0.0000
# 5 0.0000 0.0000 0.0000 0.0000 7.5866 0.0000
# 6 0.0000 0.0000 0.0000 0.0000 0.0000 5.8112
#
#
#
# Elastic Compliance Matrix: (Units=1/GPa)
#
#
# Indices 1 2 3 4 5 6 
#
# 1 0.013702 -0.003148 -0.005078 0.000000 0.000000 0.000000
# 2 -0.003148 0.008981 0.000267 0.000000 0.000000 0.000000
# 3 -0.005078 0.000267 0.012305 0.000000 0.000000 0.000000
# 4 0.000000 0.000000 0.000000 0.041876 0.000000 0.000000
# 5 0.000000 0.000000 0.000000 0.000000 0.131811 0.000000
# 6 0.000000 0.000000 0.000000 0.000000 0.000000 0.172083
#
#
# Mechanical properties :
#
#
# Convention : Reuss Voigt Hill
#
# Bulk Modulus (GPa) = 52.43343 52.81329 52.62336
# Shear Modulus (GPa) = 12.40597 22.97337 17.68967
#
# Velocity S-wave (km/s) = 2.52257 3.43273 3.01222
# Velocity P-wave (km/s) = 5.94802 6.54223 6.25219
#
# Compressibility (1/GPa) = 0.01907180
#
# Stress axis : x y z
#
# Youngs Moduli (GPa) = 72.98082 111.34050 81.26840
#
# Poissons Ratio (x) = 0.35049 0.41266
# Poissons Ratio (y) = 0.22974 -0.02172
# Poissons Ratio (z) = 0.37058 -0.02976
#
# Static dielectric constant tensor:
#      x y z
#    x 3.523970 0.000000 0.000000 
#    y 0.000000 3.308400 0.000000 
#    z 0.000000 0.000000 3.211420 
# 
# 
# High freq. dielectric constant tensor:
#      x y z
#    x 1.747390 0.000000 0.000000 
#    y 0.000000 1.767680 0.000000 
#    z 0.000000 0.000000 1.742500 
# 
# From -- ./inp_files/1002.got.cif
#   From: 2010.06.25/outbox.cif.g09.slc.cpg/sg48_1_cif.got.tgz:1002.got - 2010.06.26 18:06:46.
