data_PCOD8201299
_publ_section_title
;
Structure prediction by ZEFSAII (Michael W. Deem and Ramdas Pophale) SiO2 
 PCOD8201299
Probable space group: P N N N
;
_chemical_formula_sum "Si O2"
_cell_formula_units_Z 56
_cell_length_a 23.276829
_cell_length_b 15.136526
_cell_length_c 9.459676
_cell_angle_alpha 90.000000
_cell_angle_beta 90.000000
_cell_angle_gamma 90.000000
_cell_volume 3332.930742
_symmetry_space_group_name_H-M "P N N N"
_symmetry_group_IT_number 48
_space_group.IT_coordinate_system_code '2'
_symmetry_cell_setting 'orthorhombic'
loop_
_space_group_symop_operation_xyz
x,y,z
1/2-x,1/2-y,z
x,1/2-y,1/2-z
1/2-x,y,1/2-z
-x,-y,-z
1/2+x,1/2+y,-z
-x,1/2+y,1/2+z
1/2+x,-y,1/2+z
loop_
_atom_site_type_symbol
_atom_site_label
_atom_site_fract_x
_atom_site_fract_y
_atom_site_fract_z
Si Si1 0.008192 0.332212 0.851866
Si Si2 0.900953 0.084302 0.999223
Si Si3 0.047565 0.053981 0.204516
Si Si4 0.575528 0.503287 0.275544
Si Si5 0.682896 0.148045 0.734244
Si Si6 0.601262 0.048302 0.919372
Si Si7 0.004940 0.714131 0.601310
O O1 0.995622 0.250000 0.750000
O O2 0.061271 0.391649 0.791517
O O3 0.952699 0.393780 0.866579
O O4 0.021163 0.293017 0.006792
O O5 0.842899 0.110889 0.914466
O O6 0.942453 0.024432 0.905292
O O7 0.938525 0.171465 0.029397
O O8 0.885642 0.025671 0.139871
O O9 0.049529 0.147794 0.124130
O O10 0.092191 0.045198 0.335698
O O11 0.982888 0.051250 0.263294
O O12 0.607513 0.468485 0.415205
O O13 0.666588 0.250000 0.750000
O O14 0.750000 0.131701 0.750000
O O15 0.658426 0.096250 0.869052
O O16 0.027109 0.750000 0.750000
#
# Coordination Sequence:
#
# PCOD8201299 Si02
#       7
#     8   8   8   8   8   8   8
#     4  11  18  26  43  69 100 130 155 181 220 272
#     4  10  19  32  47  63  93 131 158 181 226 275
#     4   9  17  29  42  62  94 132 158 177 212 274
#     4  10  18  29  44  67  95 126 158 188 222 273
#     4  10  21  36  52  68  86 114 157 201 233 267
#     4  10  18  31  47  64  94 130 159 185 228 272
#     4  11  18  25  41  69  99 126 157 186 218 265
#
# _framework density 16.802029999999998
#
# number of rings (size 3 to 8) (size 9 to 14) (size 15 to 20)
#    0.000    1.857    0.000   10.714    0.000    0.000 
#    0.000    0.714    0.000    1.714    0.000    0.000 
#    0.000   62.857    0.000    0.000    0.000    0.000 
#
# Total GULP energy -693905.767830 kJ/mol
# GULP energy per Si atom -12391.174426 kJ/mol
# Density = 1.676379 g / cm^3
# Si number density = 16.802030 Si / 1000 Ang^3
#
#
#
# Elastic Constant Matrix: (Units=GPa)
#
#
# Indices 1 2 3 4 5 6 
#
# 1 59.8427 32.3213 35.9578 0.0000 0.0000 0.0000
# 2 32.3213 79.0296 40.6957 0.0000 0.0000 0.0000
# 3 35.9578 40.6957 133.8201 0.0000 0.0000 0.0000
# 4 0.0000 0.0000 0.0000 32.5716 0.0000 0.0000
# 5 0.0000 0.0000 0.0000 0.0000 8.4525 0.0000
# 6 0.0000 0.0000 0.0000 0.0000 0.0000 19.7358
#
#
#
# Elastic Compliance Matrix: (Units=1/GPa)
#
#
# Indices 1 2 3 4 5 6 
#
# 1 0.023085 -0.007407 -0.003950 0.000000 0.000000 0.000000
# 2 -0.007407 0.017379 -0.003295 0.000000 0.000000 0.000000
# 3 -0.003950 -0.003295 0.009536 0.000000 0.000000 0.000000
# 4 0.000000 0.000000 0.000000 0.030702 0.000000 0.000000
# 5 0.000000 0.000000 0.000000 0.000000 0.118308 0.000000
# 6 0.000000 0.000000 0.000000 0.000000 0.000000 0.050669
#
#
# Mechanical properties :
#
#
# Convention : Reuss Voigt Hill
#
# Bulk Modulus (GPa) = 48.31895 54.51578 51.41737
# Shear Modulus (GPa) = 17.48974 23.06649 20.27812
#
# Velocity S-wave (km/s) = 3.22985 3.70920 3.47779
# Velocity P-wave (km/s) = 6.53678 7.13167 6.84069
#
# Compressibility (1/GPa) = 0.02069581
#
# Stress axis : x y z
#
# Youngs Moduli (GPa) = 43.31884 57.53918 104.86313
#
# Poissons Ratio (x) = 0.42618 0.41425
# Poissons Ratio (y) = 0.32086 0.34552
# Poissons Ratio (z) = 0.17113 0.18959
#
# Static dielectric constant tensor:
#      x y z
#    x 2.613600 0.000000 0.000000 
#    y 0.000000 3.518270 0.000000 
#    z 0.000000 0.000000 3.565820 
# 
# 
# High freq. dielectric constant tensor:
#      x y z
#    x 1.570520 0.000000 0.000000 
#    y 0.000000 1.658870 0.000000 
#    z 0.000000 0.000000 1.674070 
# 
# From -- ./inp_files/15309.got.cif
#   From: 2010.06.25/outbox.cif.g09.slc.cpg/sg48_8_cif.got.tgz:15309.got - 2010.06.26 18:06:46.
