data_PCOD8201408
_publ_section_title
;
Structure prediction by ZEFSAII (Michael W. Deem and Ramdas Pophale) SiO2 
 PCOD8201408
Probable space group: P N N N
;
_chemical_formula_sum "Si O2"
_cell_formula_units_Z 46
_cell_length_a 27.399044
_cell_length_b 5.257857
_cell_length_c 17.226614
_cell_angle_alpha 90.000000
_cell_angle_beta 90.000000
_cell_angle_gamma 90.000000
_cell_volume 2481.670411
_symmetry_space_group_name_H-M "P N N N"
_symmetry_group_IT_number 48
_space_group.IT_coordinate_system_code '2'
_symmetry_cell_setting 'orthorhombic'
loop_
_space_group_symop_operation_xyz
x,y,z
1/2-x,1/2-y,z
x,1/2-y,1/2-z
1/2-x,y,1/2-z
-x,-y,-z
1/2+x,1/2+y,-z
-x,1/2+y,1/2+z
1/2+x,-y,1/2+z
loop_
_atom_site_type_symbol
_atom_site_label
_atom_site_fract_x
_atom_site_fract_y
_atom_site_fract_z
Si Si1 0.701856 0.110112 0.371580
Si Si2 0.250000 0.250000 0.750000
Si Si3 0.379699 0.041625 0.521747
Si Si4 0.078275 0.961486 0.473149
Si Si5 0.132459 0.750000 0.750000
Si Si6 0.512152 0.454810 0.374615
Si Si7 0.055378 0.047456 0.827653
O O1 0.750000 0.250000 0.402962
O O2 0.675308 0.978911 0.444125
O O3 0.664640 0.305882 0.327819
O O4 0.714684 0.913318 0.303928
O O5 0.390985 0.799503 0.466656
O O6 0.419744 0.051556 0.588560
O O7 0.383751 0.302527 0.473326
O O8 0.046416 0.957794 0.550684
O O9 0.043568 0.992944 0.398587
O O10 0.097496 0.995430 0.763021
O O11 0.516502 0.185949 0.329914
O O12 0.528589 0.679911 0.314631
#
# Coordination Sequence:
#
# PCOD8201408 Si02
#       7
#     8   2   8   8   4   8   8
#     4  11  22  35  43  62  82 119 157 201 237 274
#     4  12  22  32  52  54  80 124 154 200 238 262
#     4   9  19  29  45  62  79 102 142 179 232 270
#     4   9  16  29  45  62  80 100 125 181 226 287
#     4  10  19  34  42  60  90 114 162 188 231 262
#     4   9  16  28  43  62  82 101 131 166 237 269
#     4   9  18  27  42  62  82 110 136 180 211 276
#
# _framework density 18.535900999999999
#
# number of rings (size 3 to 8) (size 9 to 14) (size 15 to 20)
#    0.000    2.435    1.739    1.043    2.435    9.043 
#    0.000    0.000    0.000    0.000    0.000    0.000 
#    0.000    0.000    0.000    0.000    0.000    0.000 
#
# Total GULP energy -570179.283093 kJ/mol
# GULP energy per Si atom -12395.201806 kJ/mol
# Density = 1.849371 g / cm^3
# Si number density = 18.535901 Si / 1000 Ang^3
#
#
#
# Elastic Constant Matrix: (Units=GPa)
#
#
# Indices 1 2 3 4 5 6 
#
# 1 97.6904 46.1851 26.2702 0.0000 0.0000 0.0000
# 2 46.1851 139.4974 11.5248 0.0000 0.0000 0.0000
# 3 26.2702 11.5248 17.8160 0.0000 0.0000 0.0000
# 4 0.0000 0.0000 0.0000 8.0163 0.0000 0.0000
# 5 0.0000 0.0000 0.0000 0.0000 33.5881 0.0000
# 6 0.0000 0.0000 0.0000 0.0000 0.0000 19.9326
#
#
#
# Elastic Compliance Matrix: (Units=1/GPa)
#
#
# Indices 1 2 3 4 5 6 
#
# 1 0.019047 -0.004211 -0.025362 0.000000 0.000000 0.000000
# 2 -0.004211 0.008504 0.000708 0.000000 0.000000 0.000000
# 3 -0.025362 0.000708 0.093068 0.000000 0.000000 0.000000
# 4 0.000000 0.000000 0.000000 0.124746 0.000000 0.000000
# 5 0.000000 0.000000 0.000000 0.000000 0.029772 0.000000
# 6 0.000000 0.000000 0.000000 0.000000 0.000000 0.050169
#
#
# Mechanical properties :
#
#
# Convention : Reuss Voigt Hill
#
# Bulk Modulus (GPa) = 15.90075 46.99601 31.44838
# Shear Modulus (GPa) = 12.37622 23.70900 18.04261
#
# Velocity S-wave (km/s) = 2.58677 3.58031 3.12330
# Velocity P-wave (km/s) = 4.18555 6.51925 5.47811
#
# Compressibility (1/GPa) = 0.06289012
#
# Stress axis : x y z
#
# Youngs Moduli (GPa) = 52.50067 117.58799 10.74478
#
# Poissons Ratio (x) = 0.49515 0.27251
# Poissons Ratio (y) = 0.22108 -0.00761
# Poissons Ratio (z) = 1.33152 -0.08324
#
# Static dielectric constant tensor:
#      x y z
#    x 3.458110 0.000000 0.000000 
#    y 0.000000 3.817630 0.000000 
#    z 0.000000 0.000000 3.017710 
# 
# 
# High freq. dielectric constant tensor:
#      x y z
#    x 1.689800 0.000000 0.000000 
#    y 0.000000 1.739670 0.000000 
#    z 0.000000 0.000000 1.657490 
# 
# From -- ./inp_files/4607.got.cif
#   From: 2010.06.25/outbox.cif.g09.slc.cpg/sg48_3_cif.got.tgz:4607.got - 2010.06.26 18:06:46.
