data_PCOD8201782
_publ_section_title
;
Structure prediction by ZEFSAII (Michael W. Deem and Ramdas Pophale) SiO2 
 PCOD8201782
Probable space group: P N N N
;
_chemical_formula_sum "Si O2"
_cell_formula_units_Z 48
_cell_length_a 15.057481
_cell_length_b 7.971540
_cell_length_c 18.491113
_cell_angle_alpha 90.000000
_cell_angle_beta 90.000000
_cell_angle_gamma 90.000000
_cell_volume 2219.512555
_symmetry_space_group_name_H-M "P N N N"
_symmetry_group_IT_number 48
_space_group.IT_coordinate_system_code '2'
_symmetry_cell_setting 'orthorhombic'
loop_
_space_group_symop_operation_xyz
x,y,z
1/2-x,1/2-y,z
x,1/2-y,1/2-z
1/2-x,y,1/2-z
-x,-y,-z
1/2+x,1/2+y,-z
-x,1/2+y,1/2+z
1/2+x,-y,1/2+z
loop_
_atom_site_type_symbol
_atom_site_label
_atom_site_fract_x
_atom_site_fract_y
_atom_site_fract_z
Si Si1 0.607263 0.250000 0.250000
Si Si2 0.199748 0.490281 0.977748
Si Si3 0.336599 0.665299 0.376469
Si Si4 0.479350 0.557786 0.261332
Si Si5 0.750000 0.250000 0.135873
Si Si6 0.388716 0.332401 0.974436
Si Si7 0.049024 0.534467 0.397840
O O1 0.551199 0.411992 0.279974
O O2 0.670839 0.323119 0.186361
O O3 0.194621 0.628426 0.916143
O O4 0.291030 0.397885 0.964411
O O5 0.114943 0.368651 0.965930
O O6 0.199221 0.545877 0.060945
O O7 0.250000 0.750000 0.337587
O O8 0.399372 0.567061 0.319591
O O9 0.390878 0.807382 0.419903
O O10 0.517966 0.750000 0.250000
O O11 0.436288 0.493501 0.186278
O O12 0.447191 0.413754 0.911388
O O13 0.427484 0.374094 0.053843
#
# Coordination Sequence:
#
# PCOD8201782 Si02
#       7
#     4   8   8   8   4   8   8
#     4  11  26  48  68 103 138 182 240 289 360 419
#     4  11  22  41  65  96 132 178 219 288 347 409
#     4  11  22  42  64  96 134 181 223 276 344 411
#     4  10  25  42  67  96 138 184 228 283 345 421
#     4  11  24  44  70  98 139 178 232 304 345 424
#     4  10  22  38  66  98 131 169 234 279 346 408
#     4  10  21  41  63  96 131 174 224 290 328 417
#
# _framework density 21.626370000000001
#
# number of rings (size 3 to 8) (size 9 to 14) (size 15 to 20)
#    0.000    1.500    2.500    1.000    7.000    5.000 
#    0.000    0.833    0.000    6.000    0.000    0.000 
#    0.000    0.000    0.000    0.000    0.000    0.000 
#
# Total GULP energy -594703.507976 kJ/mol
# GULP energy per Si atom -12389.656416 kJ/mol
# Density = 2.157715 g / cm^3
# Si number density = 21.626370 Si / 1000 Ang^3
#
#
#
# Elastic Constant Matrix: (Units=GPa)
#
#
# Indices 1 2 3 4 5 6 
#
# 1 110.6733 45.8092 44.1365 0.0000 0.0000 0.0000
# 2 45.8092 98.8397 37.8941 0.0000 0.0000 0.0000
# 3 44.1365 37.8941 125.3026 0.0000 0.0000 0.0000
# 4 0.0000 0.0000 0.0000 -0.8396 0.0000 0.0000
# 5 0.0000 0.0000 0.0000 0.0000 227.9624 0.0000
# 6 0.0000 0.0000 0.0000 0.0000 0.0000 29.1828
#
#
#
# Elastic Compliance Matrix: (Units=1/GPa)
#
#
# Indices 1 2 3 4 5 6 
#
# 1 0.012038 -0.004472 -0.002888 0.000000 0.000000 0.000000
# 2 -0.004472 0.013106 -0.002388 0.000000 0.000000 0.000000
# 3 -0.002888 -0.002388 0.009720 0.000000 0.000000 0.000000
# 4 0.000000 0.000000 0.000000 -1.190998 0.000000 0.000000
# 5 0.000000 0.000000 0.000000 0.000000 0.004387 0.000000
# 6 0.000000 0.000000 0.000000 0.000000 0.000000 0.034267
#
#
# Mechanical properties :
#
#
# Convention : Reuss Voigt Hill
#
# Bulk Modulus (GPa) = 65.07157 65.61059 65.34108
# Shear Modulus (GPa) = -4.57515 65.05950 30.24217
#
# Velocity S-wave (km/s) = -1.45607 5.49078 3.74357
# Velocity P-wave (km/s) = 5.22757 8.40252 6.99749
#
# Compressibility (1/GPa) = 0.01536770
#
# Stress axis : x y z
#
# Youngs Moduli (GPa) = 83.06741 76.30251 102.87925
#
# Poissons Ratio (x) = 0.34124 0.29710
# Poissons Ratio (y) = 0.37150 0.24569
# Poissons Ratio (z) = 0.23989 0.18222
#
# Static dielectric constant tensor:
#      x y z
#    x 4.169440 0.000000 0.000000 
#    y 0.000000 4.570670 0.000000 
#    z 0.000000 0.000000 3.828420 
# 
# 
# High freq. dielectric constant tensor:
#      x y z
#    x 1.854490 0.000000 0.000000 
#    y 0.000000 1.837890 0.000000 
#    z 0.000000 0.000000 1.851360 
# 
# From -- ./inp_files/31573.got.cif
#   From: 2010.06.25/outbox.cif.g09.slc.cpg/sg48_16_cif.got.tgz:31573.got - 2010.06.26 18:06:46.
