data_PCOD8201138
_publ_section_title
;
Structure prediction by ZEFSAII (Michael W. Deem and Ramdas Pophale) SiO2 
 PCOD8201138
Probable space group: P M M M
;
_chemical_formula_sum "Si O2"
_cell_formula_units_Z 52
_cell_length_a 30.549336
_cell_length_b 9.607073
_cell_length_c 10.279157
_cell_angle_alpha 90.000000
_cell_angle_beta 90.000000
_cell_angle_gamma 90.000000
_cell_volume 3016.826715
_symmetry_space_group_name_H-M "P M M M"
_symmetry_group_IT_number 47
_symmetry_cell_setting 'orthorhombic'
loop_
_space_group_symop_operation_xyz
x,y,z
-x,-y,z
x,-y,-z
-x,y,-z
-x,-y,-z
x,y,-z
-x,y,z
x,-y,z
loop_
_atom_site_type_symbol
_atom_site_label
_atom_site_fract_x
_atom_site_fract_y
_atom_site_fract_z
Si Si1 0.871534 0.338049 0.649891
Si Si2 0.048165 0.155654 0.654268
Si Si3 0.551527 0.154468 0.500000
Si Si4 0.450966 0.659969 0.738909
Si Si5 0.287620 0.844987 0.153856
Si Si6 0.637920 0.651630 0.148359
Si Si7 0.204619 0.661449 0.149919
O O1 0.859591 0.296337 0.500000
O O2 0.882167 0.500000 0.658050
O O3 0.914485 0.259803 0.703663
O O4 0.833133 0.296663 0.748924
O O5 0.047346 0.157264 0.500000
O O6 0.000000 0.202044 0.706125
O O7 0.058870 0.000000 0.704447
O O8 0.500000 0.139877 0.500000
O O9 0.566084 0.241612 0.624392
O O10 0.572990 0.000000 0.500000
O O11 0.500000 0.700734 0.788996
O O12 0.451664 0.500000 0.691300
O O13 0.414109 0.686291 0.848002
O O14 0.330942 0.768701 0.212992
O O15 0.245565 0.754749 0.192231
O O16 0.284303 0.000000 0.215079
O O17 0.291515 0.858210 0.000000
O O18 0.646141 0.500000 0.214936
O O19 0.652234 0.641158 0.000000
O O20 0.217732 0.500000 0.165516
O O21 0.190292 0.691597 0.000000
#
# Coordination Sequence:
#
# PCOD8201138 Si02
#       7
#     8   8   4   8   8   8   8
#     4   9  17  28  44  68  94 117 145 185 230 269
#     4   8  14  25  41  62  89 121 155 187 220 262
#     4   9  17  29  45  63  83 111 147 183 217 253
#     4   9  17  29  46  67  90 116 147 182 217 258
#     4   9  17  29  46  67  88 112 146 185 219 254
#     4   9  17  29  46  68  93 119 145 175 217 267
#     4   9  17  30  48  67  88 116 150 186 225 273
#
# _framework density 17.236654999999999
#
# number of rings (size 3 to 8) (size 9 to 14) (size 15 to 20)
#    0.000    3.154    0.000    1.154    0.000    4.615 
#    0.000    3.077    1.692    0.462    0.000    7.538 
#    0.000    0.000    0.000    0.000    0.000    0.000 
#
# Total GULP energy -644238.927833 kJ/mol
# GULP energy per Si atom -12389.210151 kJ/mol
# Density = 1.719742 g / cm^3
# Si number density = 17.236655 Si / 1000 Ang^3
#
#
#
# Elastic Constant Matrix: (Units=GPa)
#
#
# Indices 1 2 3 4 5 6 
#
# 1 148.0016 77.1555 35.5132 0.0000 0.0000 0.0000
# 2 77.1555 97.6119 25.4662 0.0000 0.0000 0.0000
# 3 35.5132 25.4662 35.7268 0.0000 0.0000 0.0000
# 4 0.0000 0.0000 0.0000 4.8743 0.0000 0.0000
# 5 0.0000 0.0000 0.0000 0.0000 20.4535 0.0000
# 6 0.0000 0.0000 0.0000 0.0000 0.0000 22.4776
#
#
#
# Elastic Compliance Matrix: (Units=1/GPa)
#
#
# Indices 1 2 3 4 5 6 
#
# 1 0.012678 -0.008271 -0.006706 0.000000 0.000000 0.000000
# 2 -0.008271 0.017982 -0.004595 0.000000 0.000000 0.000000
# 3 -0.006706 -0.004595 0.037932 0.000000 0.000000 0.000000
# 4 0.000000 0.000000 0.000000 0.205160 0.000000 0.000000
# 5 0.000000 0.000000 0.000000 0.000000 0.048891 0.000000
# 6 0.000000 0.000000 0.000000 0.000000 0.000000 0.044489
#
#
# Mechanical properties :
#
#
# Convention : Reuss Voigt Hill
#
# Bulk Modulus (GPa) = 33.96118 61.95668 47.95893
# Shear Modulus (GPa) = 12.01658 19.10809 15.56233
#
# Velocity S-wave (km/s) = 2.64323 3.33314 3.00803
# Velocity P-wave (km/s) = 5.39084 7.12992 6.32048
#
# Compressibility (1/GPa) = 0.02944539
#
# Stress axis : x y z
#
# Youngs Moduli (GPa) = 78.87792 55.61265 26.36304
#
# Poissons Ratio (x) = 0.45999 0.17679
# Poissons Ratio (y) = 0.65243 0.12115
# Poissons Ratio (z) = 0.52897 0.25556
#
# Static dielectric constant tensor:
#      x y z
#    x 3.349490 0.000000 0.000000 
#    y 0.000000 3.549430 0.000000 
#    z 0.000000 0.000000 2.845490 
# 
# 
# High freq. dielectric constant tensor:
#      x y z
#    x 1.666380 0.000000 0.000000 
#    y 0.000000 1.671220 0.000000 
#    z 0.000000 0.000000 1.612640 
# 
# From -- ./inp_files/4546.got.cif
#   From: 2010.03.12/outbox.cif.g09.slc.cpg/sg47_3_cif.got.tgz:4546.got - 2010.04.14 03:12:58.
