data_PCOD8201798
_publ_section_title
;
Structure prediction by ZEFSAII (Michael W. Deem and Ramdas Pophale) SiO2 
 PCOD8201798
Probable space group: P N N N
;
_chemical_formula_sum "Si O2"
_cell_formula_units_Z 58
_cell_length_a 8.815996
_cell_length_b 17.222785
_cell_length_c 19.000982
_cell_angle_alpha 90.000000
_cell_angle_beta 90.000000
_cell_angle_gamma 90.000000
_cell_volume 2885.033173
_symmetry_space_group_name_H-M "P N N N"
_symmetry_group_IT_number 48
_space_group.IT_coordinate_system_code '2'
_symmetry_cell_setting 'orthorhombic'
loop_
_space_group_symop_operation_xyz
x,y,z
1/2-x,1/2-y,z
x,1/2-y,1/2-z
1/2-x,y,1/2-z
-x,-y,-z
1/2+x,1/2+y,-z
-x,1/2+y,1/2+z
1/2+x,-y,1/2+z
loop_
_atom_site_type_symbol
_atom_site_label
_atom_site_fract_x
_atom_site_fract_y
_atom_site_fract_z
Si Si1 0.908189 0.608938 0.481733
Si Si2 0.594733 0.121714 0.155741
Si Si3 0.074981 0.017785 0.754748
Si Si4 0.250000 0.750000 0.750000
Si Si5 0.139121 0.314066 0.050877
Si Si6 0.921707 0.249141 0.935888
Si Si7 0.916379 0.176638 0.715087
Si Si8 0.606030 0.047789 0.402501
O O1 0.739333 0.637757 0.496205
O O2 0.871482 0.524779 0.452835
O O3 0.004452 0.662297 0.425357
O O4 0.995229 0.606939 0.556987
O O5 0.642991 0.196161 0.201858
O O6 0.444974 0.137979 0.110765
O O7 0.736979 0.093060 0.109725
O O8 0.535684 0.051979 0.203355
O O9 0.250000 0.040543 0.750000
O O10 0.986146 0.094153 0.732567
O O11 0.030724 0.985235 0.831370
O O12 0.250000 0.250000 0.086346
O O13 0.009634 0.278734 0.003051
O O14 0.750000 0.250000 0.961517
O O15 0.924704 0.305798 0.868155
O O16 0.005088 0.250000 0.750000
O O17 0.750000 0.175734 0.750000
#
# Coordination Sequence:
#
# PCOD8201798 Si02
#       8
#     8   8   8   2   8   8   8   8
#     4  10  23  41  64  96 131 166 222 268 335 379
#     4  11  24  44  68  96 128 172 221 269 333 401
#     4  10  23  43  65  98 130 173 221 267 331 394
#     4  12  24  44  74  92 122 180 216 264 332 416
#     4  10  25  41  64  99 128 163 219 276 321 389
#     4  11  22  41  64  92 131 178 214 266 325 396
#     4  11  23  42  62  96 134 174 224 265 321 392
#     4  10  21  42  67  91 129 174 212 272 326 400
#
# _framework density 20.103756000000001
#
# number of rings (size 3 to 8) (size 9 to 14) (size 15 to 20)
#    0.000    1.517    3.448    1.655    8.690    1.931 
#    4.966    1.724    0.000    0.000    0.000    0.000 
#    0.000    0.000    0.000    0.000    0.000    0.000 
#
# Total GULP energy -718694.061853 kJ/mol
# GULP energy per Si atom -12391.276928 kJ/mol
# Density = 2.005800 g / cm^3
# Si number density = 20.103756 Si / 1000 Ang^3
#
#
#
# Elastic Constant Matrix: (Units=GPa)
#
#
# Indices 1 2 3 4 5 6 
#
# 1 110.4720 59.7107 51.3703 0.0000 0.0000 0.0000
# 2 59.7107 135.5896 49.9685 0.0000 0.0000 0.0000
# 3 51.3703 49.9685 98.8907 0.0000 0.0000 0.0000
# 4 0.0000 0.0000 0.0000 6.9600 0.0000 0.0000
# 5 0.0000 0.0000 0.0000 0.0000 -18.3753 0.0000
# 6 0.0000 0.0000 0.0000 0.0000 0.0000 31.1794
#
#
#
# Elastic Compliance Matrix: (Units=1/GPa)
#
#
# Indices 1 2 3 4 5 6 
#
# 1 0.013613 -0.004164 -0.004967 0.000000 0.000000 0.000000
# 2 -0.004164 0.010337 -0.003060 0.000000 0.000000 0.000000
# 3 -0.004967 -0.003060 0.014239 0.000000 0.000000 0.000000
# 4 0.000000 0.000000 0.000000 0.143678 0.000000 0.000000
# 5 0.000000 0.000000 0.000000 0.000000 -0.054421 0.000000
# 6 0.000000 0.000000 0.000000 0.000000 0.000000 0.032072
#
#
# Mechanical properties :
#
#
# Convention : Reuss Voigt Hill
#
# Bulk Modulus (GPa) = 72.43530 74.11681 73.27605
# Shear Modulus (GPa) = 26.52501 16.21302 21.36901
#
# Velocity S-wave (km/s) = 3.63630 2.84292 3.26381
# Velocity P-wave (km/s) = 7.33070 6.90821 7.12259
#
# Compressibility (1/GPa) = 0.01380542
#
# Stress axis : x y z
#
# Youngs Moduli (GPa) = 73.46144 96.74324 70.23183
#
# Poissons Ratio (x) = 0.40285 0.34885
# Poissons Ratio (y) = 0.30590 0.21490
# Poissons Ratio (z) = 0.36490 0.29602
#
# Static dielectric constant tensor:
#      x y z
#    x 4.048370 0.000000 0.000000 
#    y 0.000000 3.788270 0.000000 
#    z 0.000000 0.000000 3.736040 
# 
# 
# High freq. dielectric constant tensor:
#      x y z
#    x 1.778640 0.000000 0.000000 
#    y 0.000000 1.803190 0.000000 
#    z 0.000000 0.000000 1.788630 
# 
# From -- ./inp_files/14446.got.cif
#   From: 2010.06.25/outbox.cif.g09.slc.cpg/sg48_8_cif.got.tgz:14446.got - 2010.06.26 18:06:46.
