data_PCOD8201536
_publ_section_title
;
Structure prediction by ZEFSAII (Michael W. Deem and Ramdas Pophale) SiO2 
 PCOD8201536
Probable space group: P N N N
;
_chemical_formula_sum "Si O2"
_cell_formula_units_Z 56
_cell_length_a 18.828612
_cell_length_b 9.216128
_cell_length_c 17.811399
_cell_angle_alpha 90.000000
_cell_angle_beta 90.000000
_cell_angle_gamma 90.000000
_cell_volume 3090.756822
_symmetry_space_group_name_H-M "P N N N"
_symmetry_group_IT_number 48
_space_group.IT_coordinate_system_code '2'
_symmetry_cell_setting 'orthorhombic'
loop_
_space_group_symop_operation_xyz
x,y,z
1/2-x,1/2-y,z
x,1/2-y,1/2-z
1/2-x,y,1/2-z
-x,-y,-z
1/2+x,1/2+y,-z
-x,1/2+y,1/2+z
1/2+x,-y,1/2+z
loop_
_atom_site_type_symbol
_atom_site_label
_atom_site_fract_x
_atom_site_fract_y
_atom_site_fract_z
Si Si1 0.781204 0.910817 0.176233
Si Si2 0.903087 0.096819 0.534900
Si Si3 0.504007 0.401100 0.114183
Si Si4 0.438286 0.412744 0.762703
Si Si5 0.485004 0.570527 0.618523
Si Si6 0.101991 0.575255 0.478769
Si Si7 0.247540 0.582151 0.972320
O O1 0.750000 0.750000 0.170194
O O2 0.750000 0.989729 0.250000
O O3 0.865502 0.909604 0.189755
O O4 0.752216 0.992930 0.104051
O O5 0.939481 0.060135 0.456372
O O6 0.912300 0.266018 0.556272
O O7 0.821238 0.049032 0.523424
O O8 0.939555 0.009388 0.603200
O O9 0.504897 0.502211 0.187023
O O10 0.497572 0.235468 0.140880
O O11 0.435482 0.446386 0.066175
O O12 0.574938 0.423794 0.064782
O O13 0.465304 0.250000 0.750000
O O14 0.437137 0.494661 0.682651
O O15 0.185247 0.539745 0.476722
O O16 0.250000 0.750000 0.948641
#
# Coordination Sequence:
#
# PCOD8201536 Si02
#       7
#     8   8   8   8   8   8   8
#     4  11  22  36  47  78 115 151 183 218 273 333
#     4   9  19  35  56  79 109 146 185 234 272 330
#     4  10  20  35  56  79 109 146 188 236 273 329
#     4  12  22  36  55  76 114 151 184 227 276 332
#     4  10  21  36  55  80 108 146 194 230 275 324
#     4   9  18  35  55  80 110 142 188 228 282 328
#     4  10  20  36  57  82 111 148 185 227 278 334
#
# _framework density 18.118539999999999
#
# number of rings (size 3 to 8) (size 9 to 14) (size 15 to 20)
#    0.000    1.857    2.857    2.143    0.000    2.571 
#    2.571    0.000    0.000    0.857    0.000    6.000 
#    0.000    0.000    0.000    0.000    0.000    0.000 
#
# Total GULP energy -694206.865087 kJ/mol
# GULP energy per Si atom -12396.551162 kJ/mol
# Density = 1.807730 g / cm^3
# Si number density = 18.118540 Si / 1000 Ang^3
#
#
#
# Elastic Constant Matrix: (Units=GPa)
#
#
# Indices 1 2 3 4 5 6 
#
# 1 103.7481 37.9384 19.3153 0.0000 0.0000 0.0000
# 2 37.9384 106.4981 33.3134 0.0000 0.0000 0.0000
# 3 19.3153 33.3134 42.2394 0.0000 0.0000 0.0000
# 4 0.0000 0.0000 0.0000 29.2798 0.0000 0.0000
# 5 0.0000 0.0000 0.0000 0.0000 14.5893 0.0000
# 6 0.0000 0.0000 0.0000 0.0000 0.0000 22.8623
#
#
#
# Elastic Compliance Matrix: (Units=1/GPa)
#
#
# Indices 1 2 3 4 5 6 
#
# 1 0.011301 -0.003198 -0.002645 0.000000 0.000000 0.000000
# 2 -0.003198 0.013370 -0.009082 0.000000 0.000000 0.000000
# 3 -0.002645 -0.009082 0.032047 0.000000 0.000000 0.000000
# 4 0.000000 0.000000 0.000000 0.034153 0.000000 0.000000
# 5 0.000000 0.000000 0.000000 0.000000 0.068544 0.000000
# 6 0.000000 0.000000 0.000000 0.000000 0.000000 0.043740
#
#
# Mechanical properties :
#
#
# Convention : Reuss Voigt Hill
#
# Bulk Modulus (GPa) = 37.22094 48.17997 42.70046
# Shear Modulus (GPa) = 20.66440 24.14086 22.40263
#
# Velocity S-wave (km/s) = 3.38081 3.65414 3.52013
# Velocity P-wave (km/s) = 5.98560 6.66730 6.33563
#
# Compressibility (1/GPa) = 0.02686660
#
# Stress axis : x y z
#
# Youngs Moduli (GPa) = 88.48977 74.79327 31.20396
#
# Poissons Ratio (x) = 0.23921 0.08254
# Poissons Ratio (y) = 0.28302 0.28340
# Poissons Ratio (z) = 0.23407 0.67929
#
# Static dielectric constant tensor:
#      x y z
#    x 3.415360 0.000000 0.000000 
#    y 0.000000 3.428840 0.000000 
#    z 0.000000 0.000000 3.160160 
# 
# 
# High freq. dielectric constant tensor:
#      x y z
#    x 1.695110 0.000000 0.000000 
#    y 0.000000 1.708930 0.000000 
#    z 0.000000 0.000000 1.679930 
# 
# From -- ./inp_files/32187.got.cif
#   From: 2010.06.25/outbox.cif.g09.slc.cpg/sg48_17_cif.got.tgz:32187.got - 2010.06.26 18:06:46.
