data_PCOD8201204
_publ_section_title
;
Structure prediction by ZEFSAII (Michael W. Deem and Ramdas Pophale) SiO2 
 PCOD8201204
Probable space group: P M M M
;
_chemical_formula_sum "Si O2"
_cell_formula_units_Z 40
_cell_length_a 26.021757
_cell_length_b 9.241541
_cell_length_c 9.169378
_cell_angle_alpha 90.000000
_cell_angle_beta 90.000000
_cell_angle_gamma 90.000000
_cell_volume 2205.062421
_symmetry_space_group_name_H-M "P M M M"
_symmetry_group_IT_number 47
_symmetry_cell_setting 'orthorhombic'
loop_
_space_group_symop_operation_xyz
x,y,z
-x,-y,z
x,-y,-z
-x,y,-z
-x,-y,-z
x,y,-z
-x,y,z
x,-y,z
loop_
_atom_site_type_symbol
_atom_site_label
_atom_site_fract_x
_atom_site_fract_y
_atom_site_fract_z
Si Si1 0.000000 0.327918 0.164531
Si Si2 0.700249 0.331503 0.669994
Si Si3 0.899548 0.668354 0.329629
Si Si4 0.500000 0.327303 0.665067
Si Si5 0.200032 0.163337 0.326553
Si Si6 0.400751 0.672229 0.164667
O O1 0.949338 0.270463 0.246197
O O2 0.000000 0.500000 0.169146
O O3 0.000000 0.268580 0.000000
O O4 0.690308 0.301835 0.500000
O O5 0.710505 0.500000 0.699354
O O6 0.749314 0.244831 0.730726
O O7 0.650887 0.273196 0.756930
O O8 0.908598 0.695997 0.500000
O O9 0.889943 0.500000 0.297124
O O10 0.850459 0.754793 0.268517
O O11 0.500000 0.500000 0.665192
O O12 0.500000 0.268135 0.500000
O O13 0.449797 0.266929 0.747798
O O14 0.199888 0.167034 0.500000
O O15 0.200013 0.000000 0.266432
O O16 0.402217 0.500000 0.165289
O O17 0.402281 0.732374 0.000000
#
# Coordination Sequence:
#
# PCOD8201204 Si02
#       6
#     4   8   8   4   8   8
#     4   9  17  29  46  69  94 118 146 181 220 262
#     4   9  16  27  44  65  88 115 148 184 220 260
#     4   9  16  28  48  71  92 116 148 184 220 260
#     4   9  15  23  37  59  88 119 148 181 224 270
#     4   9  17  29  46  68  91 115 147 187 226 262
#     4   9  16  25  38  59  88 119 149 182 221 265
#
# _framework density 18.140077000000002
#
# number of rings (size 3 to 8) (size 9 to 14) (size 15 to 20)
#    0.000    3.000    0.000    1.800    0.000    7.200 
#    0.000    1.500    0.000   10.200    0.000    0.700 
#    0.000    5.600    0.000    0.000    0.000    0.000 
#
# Total GULP energy -495970.308951 kJ/mol
# GULP energy per Si atom -12399.257724 kJ/mol
# Density = 1.809879 g / cm^3
# Si number density = 18.140077 Si / 1000 Ang^3
#
#
#
# Elastic Constant Matrix: (Units=GPa)
#
#
# Indices 1 2 3 4 5 6 
#
# 1 216.4577 57.1993 80.8769 0.0000 0.0000 0.0000
# 2 57.1993 51.6295 28.2884 0.0000 0.0000 0.0000
# 3 80.8769 28.2884 93.9530 0.0000 0.0000 0.0000
# 4 0.0000 0.0000 0.0000 6.8657 0.0000 0.0000
# 5 0.0000 0.0000 0.0000 0.0000 10.5343 0.0000
# 6 0.0000 0.0000 0.0000 0.0000 0.0000 3.3596
#
#
#
# Elastic Compliance Matrix: (Units=1/GPa)
#
#
# Indices 1 2 3 4 5 6 
#
# 1 0.008210 -0.006255 -0.005184 0.000000 0.000000 0.000000
# 2 -0.006255 0.027961 -0.003034 0.000000 0.000000 0.000000
# 3 -0.005184 -0.003034 0.016019 0.000000 0.000000 0.000000
# 4 0.000000 0.000000 0.000000 0.145652 0.000000 0.000000
# 5 0.000000 0.000000 0.000000 0.000000 0.094928 0.000000
# 6 0.000000 0.000000 0.000000 0.000000 0.000000 0.297657
#
#
# Mechanical properties :
#
#
# Convention : Reuss Voigt Hill
#
# Bulk Modulus (GPa) = 43.02174 77.19659 60.10916
# Shear Modulus (GPa) = 7.97294 17.19695 12.58495
#
# Velocity S-wave (km/s) = 2.09875 3.08232 2.63680
# Velocity P-wave (km/s) = 5.44434 7.43746 6.51754
#
# Compressibility (1/GPa) = 0.02324406
#
# Stress axis : x y z
#
# Youngs Moduli (GPa) = 121.80943 35.76388 62.42413
#
# Poissons Ratio (x) = 0.22370 0.32358
# Poissons Ratio (y) = 0.76192 0.18942
# Poissons Ratio (z) = 0.63142 0.10852
#
# Static dielectric constant tensor:
#      x y z
#    x 3.620830 0.000000 0.000000 
#    y 0.000000 2.927830 0.000000 
#    z 0.000000 0.000000 3.217810 
# 
# 
# High freq. dielectric constant tensor:
#      x y z
#    x 1.722670 0.000000 0.000000 
#    y 0.000000 1.649790 0.000000 
#    z 0.000000 0.000000 1.682010 
# 
# From -- ./inp_files/13004.got.cif
#   From: 2010.03.12/outbox.cif.g09.slc.cpg/sg47_7_cif.got.tgz:13004.got - 2010.04.14 03:12:58.
