data_PCOD8201384
_publ_section_title
;
Structure prediction by ZEFSAII (Michael W. Deem and Ramdas Pophale) SiO2 
 PCOD8201384
Probable space group: P N N N
;
_chemical_formula_sum "Si O2"
_cell_formula_units_Z 32
_cell_length_a 8.219235
_cell_length_b 17.504821
_cell_length_c 10.716328
_cell_angle_alpha 90.000000
_cell_angle_beta 90.000000
_cell_angle_gamma 90.000000
_cell_volume 1541.824952
_symmetry_space_group_name_H-M "P N N N"
_symmetry_group_IT_number 48
_space_group.IT_coordinate_system_code '2'
_symmetry_cell_setting 'orthorhombic'
loop_
_space_group_symop_operation_xyz
x,y,z
1/2-x,1/2-y,z
x,1/2-y,1/2-z
1/2-x,y,1/2-z
-x,-y,-z
1/2+x,1/2+y,-z
-x,1/2+y,1/2+z
1/2+x,-y,1/2+z
loop_
_atom_site_type_symbol
_atom_site_label
_atom_site_fract_x
_atom_site_fract_y
_atom_site_fract_z
Si Si1 0.141074 0.402096 0.864825
Si Si2 0.955220 0.607215 0.494903
Si Si3 0.570522 0.998505 0.704741
Si Si4 0.564011 0.240207 0.896598
O O1 0.250000 0.367199 0.750000
O O2 0.269721 0.422690 0.972701
O O3 0.047763 0.478845 0.819603
O O4 0.010769 0.343000 0.923275
O O5 0.999575 0.577009 0.633726
O O6 0.075091 0.569858 0.391929
O O7 0.964173 0.698366 0.479087
O O8 0.750000 0.981554 0.750000
O O9 0.750000 0.250000 0.939265
O O10 0.544707 0.250000 0.750000
#
# Coordination Sequence:
#
# PCOD8201384 Si02
#       4
#     8   8   8   8
#     4  10  19  32  55  80 112 145 182 234 276 334
#     4  10  21  33  54  86 112 148 187 232 288 336
#     4  10  20  35  52  79 118 150 185 228 283 341
#     4  11  19  31  55  81 112 138 180 236 286 329
#
# _framework density 20.754625999999998
#
# number of rings (size 3 to 8) (size 9 to 14) (size 15 to 20)
#    0.000    1.750    5.000    2.250    0.000    1.000 
#    0.000    5.000    0.000    3.000    0.000    5.250 
#    0.000    0.000    0.000    0.000    0.000    0.000 
#
# Total GULP energy -396582.102428 kJ/mol
# GULP energy per Si atom -12393.190701 kJ/mol
# Density = 2.070739 g / cm^3
# Si number density = 20.754626 Si / 1000 Ang^3
#
#
#
# Elastic Constant Matrix: (Units=GPa)
#
#
# Indices 1 2 3 4 5 6 
#
# 1 92.0689 25.7423 23.9933 0.0000 0.0000 0.0000
# 2 25.7423 94.9317 42.3252 0.0000 0.0000 0.0000
# 3 23.9933 42.3252 44.0950 0.0000 0.0000 0.0000
# 4 0.0000 0.0000 0.0000 33.6177 0.0000 0.0000
# 5 0.0000 0.0000 0.0000 0.0000 20.6923 0.0000
# 6 0.0000 0.0000 0.0000 0.0000 0.0000 20.4995
#
#
#
# Elastic Compliance Matrix: (Units=1/GPa)
#
#
# Indices 1 2 3 4 5 6 
#
# 1 0.012678 -0.000633 -0.006291 0.000000 0.000000 0.000000
# 2 -0.000633 0.018446 -0.017361 0.000000 0.000000 0.000000
# 3 -0.006291 -0.017361 0.042766 0.000000 0.000000 0.000000
# 4 0.000000 0.000000 0.000000 0.029746 0.000000 0.000000
# 5 0.000000 0.000000 0.000000 0.000000 0.048327 0.000000
# 6 0.000000 0.000000 0.000000 0.000000 0.000000 0.048782
#
#
# Mechanical properties :
#
#
# Convention : Reuss Voigt Hill
#
# Bulk Modulus (GPa) = 39.49516 46.13524 42.81520
# Shear Modulus (GPa) = 19.39832 24.23087 21.81460
#
# Velocity S-wave (km/s) = 3.06052 3.42057 3.24554
# Velocity P-wave (km/s) = 5.61782 6.15447 5.89226
#
# Compressibility (1/GPa) = 0.02531956
#
# Stress axis : x y z
#
# Youngs Moduli (GPa) = 78.87804 54.21216 23.38331
#
# Poissons Ratio (x) = 0.03432 0.14710
# Poissons Ratio (y) = 0.04994 0.40596
# Poissons Ratio (z) = 0.49619 0.94119
#
# Static dielectric constant tensor:
#      x y z
#    x 3.927840 0.000000 0.000000 
#    y 0.000000 3.608600 0.000000 
#    z 0.000000 0.000000 3.396800 
# 
# 
# High freq. dielectric constant tensor:
#      x y z
#    x 1.821490 0.000000 0.000000 
#    y 0.000000 1.788860 0.000000 
#    z 0.000000 0.000000 1.763970 
# 
# From -- ./inp_files/8637.got.cif
#   From: 2010.06.25/outbox.cif.g09.slc.cpg/sg48_5_cif.got.tgz:8637.got - 2010.06.26 18:06:46.
