data_PCOD8201020
_publ_section_title
;
Structure prediction by ZEFSAII (Michael W. Deem and Ramdas Pophale) SiO2 
 PCOD8201020
Probable space group: P M M M
;
_chemical_formula_sum "Si O2"
_cell_formula_units_Z 52
_cell_length_a 9.254639
_cell_length_b 21.144962
_cell_length_c 14.304710
_cell_angle_alpha 90.000000
_cell_angle_beta 90.000000
_cell_angle_gamma 90.000000
_cell_volume 2799.274252
_symmetry_space_group_name_H-M "P M M M"
_symmetry_group_IT_number 47
_symmetry_cell_setting 'orthorhombic'
loop_
_space_group_symop_operation_xyz
x,y,z
-x,-y,z
x,-y,-z
-x,y,-z
-x,-y,-z
x,y,-z
-x,y,z
x,-y,z
loop_
_atom_site_type_symbol
_atom_site_label
_atom_site_fract_x
_atom_site_fract_y
_atom_site_fract_z
Si Si1 0.832152 0.245339 0.604996
Si Si2 0.336462 0.069005 0.888896
Si Si3 0.167918 0.811040 0.109332
Si Si4 0.828209 0.569685 0.105730
Si Si5 0.164820 0.000000 0.611948
Si Si6 0.663194 0.121130 0.610943
Si Si7 0.830806 0.688404 0.786139
O O1 0.788087 0.266226 0.500000
O O2 0.741846 0.185551 0.641157
O O3 0.799784 0.303754 0.675163
O O4 0.000000 0.225785 0.609210
O O5 0.500000 0.078269 0.854769
O O6 0.242963 0.126487 0.846984
O O7 0.278315 0.000000 0.854791
O O8 0.327648 0.071215 0.000000
O O9 0.233305 0.748925 0.159141
O O10 0.000000 0.818559 0.131144
O O11 0.199753 0.803868 0.000000
O O12 0.769122 0.500000 0.134496
O O13 0.761854 0.622968 0.175300
O O14 0.000000 0.568748 0.111867
O O15 0.780089 0.585968 0.000000
O O16 0.248501 0.061498 0.651779
O O17 0.166535 0.000000 0.500000
O O18 0.000000 0.000000 0.648484
O O19 0.661100 0.116636 0.500000
O O20 0.500000 0.120213 0.650736
O O21 0.000000 0.685966 0.807499
#
# Coordination Sequence:
#
# PCOD8201020 Si02
#       7
#     8   8   8   8   4   8   8
#     4   9  17  29  44  60  81 114 154 190 226 271
#     4   8  14  25  40  57  80 112 145 174 208 254
#     4   9  16  25  40  63  87 109 136 174 219 262
#     4   8  13  22  39  65  96 127 153 176 212 267
#     4   9  15  23  39  63  87 111 142 181 232 295
#     4   9  16  26  41  61  84 109 142 189 239 279
#     4   9  16  26  41  61  88 118 148 183 222 263
#
# _framework density 18.576243999999999
#
# number of rings (size 3 to 8) (size 9 to 14) (size 15 to 20)
#    0.000    3.308    0.000    2.077    0.000    4.923 
#    0.000    2.308    1.692    0.462    0.000    3.231 
#    0.000    2.462    0.000   14.769    0.000   14.154 
#
# Total GULP energy -644446.964523 kJ/mol
# GULP energy per Si atom -12393.210856 kJ/mol
# Density = 1.853396 g / cm^3
# Si number density = 18.576244 Si / 1000 Ang^3
#
#
#
# Elastic Constant Matrix: (Units=GPa)
#
#
# Indices 1 2 3 4 5 6 
#
# 1 56.6897 42.5243 17.8954 0.0000 0.0000 0.0000
# 2 42.5243 177.7622 71.3381 0.0000 0.0000 0.0000
# 3 17.8954 71.3381 63.6252 0.0000 0.0000 0.0000
# 4 0.0000 0.0000 0.0000 25.3481 0.0000 0.0000
# 5 0.0000 0.0000 0.0000 0.0000 3.8262 0.0000
# 6 0.0000 0.0000 0.0000 0.0000 0.0000 3.8864
#
#
#
# Elastic Compliance Matrix: (Units=1/GPa)
#
#
# Indices 1 2 3 4 5 6 
#
# 1 0.021507 -0.004940 -0.000510 0.000000 0.000000 0.000000
# 2 -0.004940 0.011362 -0.011350 0.000000 0.000000 0.000000
# 3 -0.000510 -0.011350 0.028586 0.000000 0.000000 0.000000
# 4 0.000000 0.000000 0.000000 0.039451 0.000000 0.000000
# 5 0.000000 0.000000 0.000000 0.000000 0.261358 0.000000
# 6 0.000000 0.000000 0.000000 0.000000 0.000000 0.257306
#
#
# Mechanical properties :
#
#
# Convention : Reuss Voigt Hill
#
# Bulk Modulus (GPa) = 35.90045 62.39919 49.14982
# Shear Modulus (GPa) = 7.54767 17.70009 12.62388
#
# Velocity S-wave (km/s) = 2.01789 3.09015 2.60969
# Velocity P-wave (km/s) = 4.97967 6.81145 5.96628
#
# Compressibility (1/GPa) = 0.02785481
#
# Stress axis : x y z
#
# Youngs Moduli (GPa) = 46.49732 88.01109 34.98159
#
# Poissons Ratio (x) = 0.43479 0.01784
# Poissons Ratio (y) = 0.22970 0.39704
# Poissons Ratio (z) = 0.02371 0.99893
#
# Static dielectric constant tensor:
#      x y z
#    x 3.156700 0.000000 0.000000 
#    y 0.000000 3.761200 0.000000 
#    z 0.000000 0.000000 3.272590 
# 
# 
# High freq. dielectric constant tensor:
#      x y z
#    x 1.678780 0.000000 0.000000 
#    y 0.000000 1.710490 0.000000 
#    z 0.000000 0.000000 1.711860 
# 
# From -- ./inp_files/21384.got.cif
#   From: 2010.03.12/outbox.cif.g09.slc.cpg/sg47_11_cif.got.tgz:21384.got - 2010.04.14 03:12:58.
