data_PCOD8201602
_publ_section_title
;
Structure prediction by ZEFSAII (Michael W. Deem and Ramdas Pophale) SiO2 
 PCOD8201602
Probable space group: P N N N
;
_chemical_formula_sum "Si O2"
_cell_formula_units_Z 64
_cell_length_a 15.750514
_cell_length_b 20.011652
_cell_length_c 9.992196
_cell_angle_alpha 90.000000
_cell_angle_beta 90.000000
_cell_angle_gamma 90.000000
_cell_volume 3149.478277
_symmetry_space_group_name_H-M "P N N N"
_symmetry_group_IT_number 48
_space_group.IT_coordinate_system_code '2'
_symmetry_cell_setting 'orthorhombic'
loop_
_space_group_symop_operation_xyz
x,y,z
1/2-x,1/2-y,z
x,1/2-y,1/2-z
1/2-x,y,1/2-z
-x,-y,-z
1/2+x,1/2+y,-z
-x,1/2+y,1/2+z
1/2+x,-y,1/2+z
loop_
_atom_site_type_symbol
_atom_site_label
_atom_site_fract_x
_atom_site_fract_y
_atom_site_fract_z
Si Si1 0.346147 0.452712 0.711557
Si Si2 0.382511 0.605546 0.667095
Si Si3 0.837536 0.211206 0.520451
Si Si4 0.579489 0.161721 0.456297
Si Si5 0.046291 0.431379 0.031336
Si Si6 0.439423 0.437062 0.984079
Si Si7 0.848958 0.978463 0.765830
Si Si8 0.847587 0.375402 0.732915
O O1 0.250000 0.430740 0.750000
O O2 0.347305 0.530157 0.665873
O O3 0.392856 0.409703 0.593512
O O4 0.403947 0.437379 0.836839
O O5 0.316161 0.652725 0.587583
O O6 0.469930 0.616799 0.581422
O O7 0.389629 0.627357 0.820534
O O8 0.750000 0.250000 0.551382
O O9 0.910740 0.257793 0.451018
O O10 0.876314 0.180085 0.658390
O O11 0.485935 0.133928 0.490022
O O12 0.640445 0.146087 0.581048
O O13 0.109209 0.432127 0.156168
O O14 0.000000 0.500000 0.000000
O O15 0.364127 0.446250 0.089305
O O16 0.500000 0.500000 0.000000
O O17 0.750000 0.980946 0.750000
O O18 0.892358 0.052269 0.747279
O O19 0.750000 0.389499 0.750000
#
# Coordination Sequence:
#
# PCOD8201602 Si02
#       8
#     8   8   8   8   8   8   8   8
#     4  11  23  37  62  94 129 164 210 266 329 381
#     4  11  24  40  61  87 127 174 212 254 314 380
#     4  12  27  42  59  90 133 173 214 250 301 381
#     4  12  24  39  62  84 124 172 209 257 308 368
#     4  10  20  38  56  89 124 164 208 265 320 379
#     4  12  21  39  61  92 124 163 211 266 320 378
#     4  11  21  36  64  90 123 165 210 261 320 376
#     4  11  22  39  58  89 127 169 210 254 305 368
#
# _framework density 20.320826
#
# number of rings (size 3 to 8) (size 9 to 14) (size 15 to 20)
#    0.000    0.750    5.000    3.750    3.500    2.500 
#    0.000    0.000    0.000    0.000    0.000    5.250 
#    0.000    0.000    0.000    0.000    0.000    0.000 
#
# Total GULP energy -793014.733609 kJ/mol
# GULP energy per Si atom -12390.855213 kJ/mol
# Density = 2.027458 g / cm^3
# Si number density = 20.320826 Si / 1000 Ang^3
#
#
#
# Elastic Constant Matrix: (Units=GPa)
#
#
# Indices 1 2 3 4 5 6 
#
# 1 67.7713 12.7121 24.1104 0.0000 0.0000 0.0000
# 2 12.7121 60.0276 14.9029 0.0000 0.0000 0.0000
# 3 24.1104 14.9029 132.7923 0.0000 0.0000 0.0000
# 4 0.0000 0.0000 0.0000 30.1804 0.0000 0.0000
# 5 0.0000 0.0000 0.0000 0.0000 42.1364 0.0000
# 6 0.0000 0.0000 0.0000 0.0000 0.0000 15.6321
#
#
#
# Elastic Compliance Matrix: (Units=1/GPa)
#
#
# Indices 1 2 3 4 5 6 
#
# 1 0.016213 -0.002780 -0.002632 0.000000 0.000000 0.000000
# 2 -0.002780 0.017613 -0.001472 0.000000 0.000000 0.000000
# 3 -0.002632 -0.001472 0.008174 0.000000 0.000000 0.000000
# 4 0.000000 0.000000 0.000000 0.033134 0.000000 0.000000
# 5 0.000000 0.000000 0.000000 0.000000 0.023732 0.000000
# 6 0.000000 0.000000 0.000000 0.000000 0.000000 0.063971
#
#
# Mechanical properties :
#
#
# Convention : Reuss Voigt Hill
#
# Bulk Modulus (GPa) = 35.42020 40.44909 37.93465
# Shear Modulus (GPa) = 26.87946 31.51419 29.19682
#
# Velocity S-wave (km/s) = 3.64091 3.94233 3.79462
# Velocity P-wave (km/s) = 5.92818 6.37739 6.15688
#
# Compressibility (1/GPa) = 0.02823248
#
# Stress axis : x y z
#
# Youngs Moduli (GPa) = 61.67795 56.77573 122.34547
#
# Poissons Ratio (x) = 0.15784 0.32198
# Poissons Ratio (y) = 0.17147 0.18008
# Poissons Ratio (z) = 0.16232 0.08357
#
# Static dielectric constant tensor:
#      x y z
#    x 3.633340 0.000000 0.000000 
#    y 0.000000 4.035550 0.000000 
#    z 0.000000 0.000000 3.079420 
# 
# 
# High freq. dielectric constant tensor:
#      x y z
#    x 1.780820 0.000000 0.000000 
#    y 0.000000 1.754710 0.000000 
#    z 0.000000 0.000000 1.824390 
# 
# From -- ./inp_files/13284.got.cif
#   From: 2010.06.25/outbox.cif.g09.slc.cpg/sg48_7_cif.got.tgz:13284.got - 2010.06.26 18:06:46.
