data_PCOD8201740
_publ_section_title
;
Structure prediction by ZEFSAII (Michael W. Deem and Ramdas Pophale) SiO2 
 PCOD8201740
Probable space group: P N N N
;
_chemical_formula_sum "Si O2"
_cell_formula_units_Z 40
_cell_length_a 15.069003
_cell_length_b 16.962446
_cell_length_c 7.301953
_cell_angle_alpha 90.000000
_cell_angle_beta 90.000000
_cell_angle_gamma 90.000000
_cell_volume 1866.431393
_symmetry_space_group_name_H-M "P N N N"
_symmetry_group_IT_number 48
_space_group.IT_coordinate_system_code '2'
_symmetry_cell_setting 'orthorhombic'
loop_
_space_group_symop_operation_xyz
x,y,z
1/2-x,1/2-y,z
x,1/2-y,1/2-z
1/2-x,y,1/2-z
-x,-y,-z
1/2+x,1/2+y,-z
-x,1/2+y,1/2+z
1/2+x,-y,1/2+z
loop_
_atom_site_type_symbol
_atom_site_label
_atom_site_fract_x
_atom_site_fract_y
_atom_site_fract_z
Si Si1 0.981882 0.340676 0.553277
Si Si2 0.578465 0.426568 0.310596
Si Si3 0.343550 0.721345 0.545610
Si Si4 0.558225 0.593416 0.392499
Si Si5 0.148304 0.245506 0.465967
O O1 0.939295 0.395350 0.394986
O O2 0.924089 0.260003 0.568991
O O3 0.979929 0.386907 0.745197
O O4 0.085569 0.317221 0.531508
O O5 0.646889 0.373201 0.431813
O O6 0.612801 0.517173 0.313797
O O7 0.483941 0.426918 0.411479
O O8 0.250000 0.750000 0.458726
O O9 0.353534 0.750000 0.750000
O O10 0.622481 0.665529 0.431910
O O11 0.250000 0.250000 0.524699
O O12 0.135867 0.250000 0.250000
#
# Coordination Sequence:
#
# PCOD8201740 Si02
#       5
#     8   8   8   8   8
#     4  11  20  39  62  88 118 162 207 248 297 368
#     4  10  21  39  59  90 124 158 195 254 306 354
#     4   9  18  36  63  86 116 160 201 240 296 361
#     4  11  22  37  62  89 122 160 198 251 309 356
#     4  11  22  40  64  89 121 165 209 253 304 368
#
# _framework density 21.431274999999999
#
# number of rings (size 3 to 8) (size 9 to 14) (size 15 to 20)
#    0.000    1.600    4.000    1.800    0.000    1.600 
#    0.000   12.000    0.000    0.000    0.000    0.000 
#    0.000    0.000    0.000    0.000    0.000    0.000 
#
# Total GULP energy -495535.190421 kJ/mol
# GULP energy per Si atom -12388.379761 kJ/mol
# Density = 2.138250 g / cm^3
# Si number density = 21.431275 Si / 1000 Ang^3
#
#
#
# Elastic Constant Matrix: (Units=GPa)
#
#
# Indices 1 2 3 4 5 6 
#
# 1 85.7622 12.9243 20.8312 0.0000 0.0000 0.0000
# 2 12.9243 135.4738 42.6181 0.0000 0.0000 0.0000
# 3 20.8312 42.6181 93.8157 0.0000 0.0000 0.0000
# 4 0.0000 0.0000 0.0000 24.9223 0.0000 0.0000
# 5 0.0000 0.0000 0.0000 0.0000 -0.4594 0.0000
# 6 0.0000 0.0000 0.0000 0.0000 0.0000 20.5508
#
#
#
# Elastic Compliance Matrix: (Units=1/GPa)
#
#
# Indices 1 2 3 4 5 6 
#
# 1 0.012341 -0.000368 -0.002573 0.000000 0.000000 0.000000
# 2 -0.000368 0.008623 -0.003836 0.000000 0.000000 0.000000
# 3 -0.002573 -0.003836 0.012973 0.000000 0.000000 0.000000
# 4 0.000000 0.000000 0.000000 0.040125 0.000000 0.000000
# 5 0.000000 0.000000 0.000000 0.000000 -2.176580 0.000000
# 6 0.000000 0.000000 0.000000 0.000000 0.000000 0.048660
#
#
# Mechanical properties :
#
#
# Convention : Reuss Voigt Hill
#
# Bulk Modulus (GPa) = 49.05884 51.97767 50.51825
# Shear Modulus (GPa) = -2.45880 24.91459 11.22789
#
# Velocity S-wave (km/s) = -1.07228 3.41329 2.29137
# Velocity P-wave (km/s) = 4.62687 6.31189 5.53389
#
# Compressibility (1/GPa) = 0.02038369
#
# Stress axis : x y z
#
# Youngs Moduli (GPa) = 81.03357 115.96584 77.08345
#
# Poissons Ratio (x) = 0.04266 0.19834
# Poissons Ratio (y) = 0.02981 0.29566
# Poissons Ratio (z) = 0.20850 0.44480
#
# Static dielectric constant tensor:
#      x y z
#    x 3.862620 0.000000 0.000000 
#    y 0.000000 4.388550 0.000000 
#    z 0.000000 0.000000 3.974810 
# 
# 
# High freq. dielectric constant tensor:
#      x y z
#    x 1.807700 0.000000 0.000000 
#    y 0.000000 1.842580 0.000000 
#    z 0.000000 0.000000 1.854200 
# 
# From -- ./inp_files/12532.got.cif
#   From: 2010.06.25/outbox.cif.g09.slc.cpg/sg48_7_cif.got.tgz:12532.got - 2010.06.26 18:06:46.
