data_PCOD8201708
_publ_section_title
;
Structure prediction by ZEFSAII (Michael W. Deem and Ramdas Pophale) SiO2 
 PCOD8201708
Probable space group: P N N N
;
_chemical_formula_sum "Si O2"
_cell_formula_units_Z 32
_cell_length_a 16.842540
_cell_length_b 7.101323
_cell_length_c 11.579617
_cell_angle_alpha 90.000000
_cell_angle_beta 90.000000
_cell_angle_gamma 90.000000
_cell_volume 1384.972179
_symmetry_space_group_name_H-M "P N N N"
_symmetry_group_IT_number 48
_space_group.IT_coordinate_system_code '2'
_symmetry_cell_setting 'orthorhombic'
loop_
_space_group_symop_operation_xyz
x,y,z
1/2-x,1/2-y,z
x,1/2-y,1/2-z
1/2-x,y,1/2-z
-x,-y,-z
1/2+x,1/2+y,-z
-x,1/2+y,1/2+z
1/2+x,-y,1/2+z
loop_
_atom_site_type_symbol
_atom_site_label
_atom_site_fract_x
_atom_site_fract_y
_atom_site_fract_z
Si Si1 0.561387 0.410177 0.587282
Si Si2 0.265286 0.529350 0.377060
Si Si3 0.013810 0.563221 0.691953
Si Si4 0.107272 0.486967 0.483054
O O1 0.500000 0.500000 0.500000
O O2 0.646016 0.520947 0.581092
O O3 0.524063 0.421254 0.715376
O O4 0.579814 0.195253 0.557444
O O5 0.250000 0.750000 0.372933
O O6 0.250000 0.443798 0.250000
O O7 0.200399 0.441922 0.465812
O O8 0.050903 0.750000 0.750000
O O9 0.083433 0.458465 0.617712
O O10 0.945876 0.641731 0.602722
#
# Coordination Sequence:
#
# PCOD8201708 Si02
#       4
#     8   8   8   8
#     4  11  20  36  60  84 117 151 195 243 293 350
#     4   9  17  33  57  83 109 146 197 238 281 340
#     4  11  21  35  57  88 117 151 197 238 296 353
#     4  10  21  37  59  84 119 153 193 245 294 345
#
# _framework density 23.105157999999999
#
# number of rings (size 3 to 8) (size 9 to 14) (size 15 to 20)
#    0.000    1.750    5.000    0.750    0.000    0.000 
#    0.000    3.750    0.000    0.000    0.000    3.500 
#    0.000    0.000    0.000    0.000    0.000    0.000 
#
# Total GULP energy -396557.280338 kJ/mol
# GULP energy per Si atom -12392.415011 kJ/mol
# Density = 2.305257 g / cm^3
# Si number density = 23.105158 Si / 1000 Ang^3
#
#
#
# Elastic Constant Matrix: (Units=GPa)
#
#
# Indices 1 2 3 4 5 6 
#
# 1 215.0595 2.6115 93.1383 0.0000 0.0000 0.0000
# 2 2.6115 14.3279 7.4867 0.0000 0.0000 0.0000
# 3 93.1383 7.4867 145.6068 0.0000 0.0000 0.0000
# 4 0.0000 0.0000 0.0000 26.9848 0.0000 0.0000
# 5 0.0000 0.0000 0.0000 0.0000 47.3812 0.0000
# 6 0.0000 0.0000 0.0000 0.0000 0.0000 23.9394
#
#
#
# Elastic Compliance Matrix: (Units=1/GPa)
#
#
# Indices 1 2 3 4 5 6 
#
# 1 0.006446 0.001007 -0.004175 0.000000 0.000000 0.000000
# 2 0.001007 0.071878 -0.004340 0.000000 0.000000 0.000000
# 3 -0.004175 -0.004340 0.009761 0.000000 0.000000 0.000000
# 4 0.000000 0.000000 0.000000 0.037058 0.000000 0.000000
# 5 0.000000 0.000000 0.000000 0.000000 0.021105 0.000000
# 6 0.000000 0.000000 0.000000 0.000000 0.000000 0.041772
#
#
# Mechanical properties :
#
#
# Convention : Reuss Voigt Hill
#
# Bulk Modulus (GPa) = 13.68564 64.60748 39.14656
# Shear Modulus (GPa) = 21.98842 37.77824 29.88333
#
# Velocity S-wave (km/s) = 3.08826 4.04797 3.60024
# Velocity P-wave (km/s) = 4.31885 7.06195 5.85336
#
# Compressibility (1/GPa) = 0.07306927
#
# Stress axis : x y z
#
# Youngs Moduli (GPa) = 155.14298 13.91249 102.44478
#
# Poissons Ratio (x) = -0.01400 0.42768
# Poissons Ratio (y) = -0.15616 0.44457
# Poissons Ratio (z) = 0.64769 0.06037
#
# Static dielectric constant tensor:
#      x y z
#    x 4.555260 0.000000 0.000000 
#    y 0.000000 4.070510 0.000000 
#    z 0.000000 0.000000 4.459400 
# 
# 
# High freq. dielectric constant tensor:
#      x y z
#    x 1.903190 0.000000 0.000000 
#    y 0.000000 1.909030 0.000000 
#    z 0.000000 0.000000 1.901350 
# 
# From -- ./inp_files/10535.got.cif
#   From: 2010.06.25/outbox.cif.g09.slc.cpg/sg48_6_cif.got.tgz:10535.got - 2010.06.26 18:06:46.
