data_PCOD8201894
_publ_section_title
;
Structure prediction by ZEFSAII (Michael W. Deem and Ramdas Pophale) SiO2 
 PCOD8201894
Probable space group: P N N N
;
_chemical_formula_sum "Si O2"
_cell_formula_units_Z 56
_cell_length_a 21.517647
_cell_length_b 8.622185
_cell_length_c 13.887761
_cell_angle_alpha 90.000000
_cell_angle_beta 90.000000
_cell_angle_gamma 90.000000
_cell_volume 2576.584260
_symmetry_space_group_name_H-M "P N N N"
_symmetry_group_IT_number 48
_space_group.IT_coordinate_system_code '2'
_symmetry_cell_setting 'orthorhombic'
loop_
_space_group_symop_operation_xyz
x,y,z
1/2-x,1/2-y,z
x,1/2-y,1/2-z
1/2-x,y,1/2-z
-x,-y,-z
1/2+x,1/2+y,-z
-x,1/2+y,1/2+z
1/2+x,-y,1/2+z
loop_
_atom_site_type_symbol
_atom_site_label
_atom_site_fract_x
_atom_site_fract_y
_atom_site_fract_z
Si Si1 0.137087 0.429230 0.362642
Si Si2 0.799285 0.411708 0.187387
Si Si3 0.254271 0.921334 0.470553
Si Si4 0.974647 0.430273 0.903417
Si Si5 0.067709 0.568206 0.760692
Si Si6 0.349543 0.074334 0.144782
Si Si7 0.506540 0.431225 0.896372
O O1 0.176038 0.512723 0.449465
O O2 0.167949 0.448140 0.257123
O O3 0.128672 0.247058 0.383459
O O4 0.069589 0.504429 0.350601
O O5 0.805317 0.250000 0.250000
O O6 0.750000 0.513776 0.250000
O O7 0.867937 0.487966 0.188048
O O8 0.769529 0.402574 0.080926
O O9 0.250000 0.750000 0.424429
O O10 0.212154 0.042750 0.414821
O O11 0.007616 0.524119 0.820111
O O12 0.901091 0.452654 0.891828
O O13 0.992053 0.252235 0.896567
O O14 0.000000 0.500000 0.000000
O O15 0.068110 0.750000 0.750000
O O16 0.056278 0.485410 0.658488
O O17 0.500000 0.500000 0.000000
#
# Coordination Sequence:
#
# PCOD8201894 Si02
#       7
#     8   8   8   8   8   8   8
#     4  11  25  44  70 101 143 188 235 300 364 438
#     4  10  22  44  68  97 135 184 232 286 351 417
#     4  12  24  40  71 103 137 188 243 288 354 434
#     4  12  24  43  68  99 143 184 236 294 355 431
#     4  11  23  41  71 100 138 182 232 291 356 417
#     4  11  24  45  68 100 146 187 236 295 372 425
#     4  12  26  42  69 104 137 184 240 291 358 432
#
# _framework density 21.734202
#
# number of rings (size 3 to 8) (size 9 to 14) (size 15 to 20)
#    0.000    0.714    2.857    5.571    2.000    4.571 
#    0.000    0.000    3.143    0.000    0.000    0.000 
#    0.000    0.000    0.000    0.000    0.000    0.000 
#
# Total GULP energy -693998.606005 kJ/mol
# GULP energy per Si atom -12392.832250 kJ/mol
# Density = 2.168473 g / cm^3
# Si number density = 21.734202 Si / 1000 Ang^3
#
#
#
# Elastic Constant Matrix: (Units=GPa)
#
#
# Indices 1 2 3 4 5 6 
#
# 1 109.1486 31.5445 30.2024 0.0000 0.0000 0.0000
# 2 31.5445 122.5198 33.3458 0.0000 0.0000 0.0000
# 3 30.2024 33.3458 122.2583 0.0000 0.0000 0.0000
# 4 0.0000 0.0000 0.0000 29.5096 0.0000 0.0000
# 5 0.0000 0.0000 0.0000 0.0000 46.9930 0.0000
# 6 0.0000 0.0000 0.0000 0.0000 0.0000 -29.3042
#
#
#
# Elastic Compliance Matrix: (Units=1/GPa)
#
#
# Indices 1 2 3 4 5 6 
#
# 1 0.010320 -0.002121 -0.001971 0.000000 0.000000 0.000000
# 2 -0.002121 0.009252 -0.002000 0.000000 0.000000 0.000000
# 3 -0.001971 -0.002000 0.009212 0.000000 0.000000 0.000000
# 4 0.000000 0.000000 0.000000 0.033887 0.000000 0.000000
# 5 0.000000 0.000000 0.000000 0.000000 0.021280 0.000000
# 6 0.000000 0.000000 0.000000 0.000000 0.000000 -0.034125
#
#
# Mechanical properties :
#
#
# Convention : Reuss Voigt Hill
#
# Bulk Modulus (GPa) = 60.23600 60.45691 60.34646
# Shear Modulus (GPa) = 74.02730 26.69528 50.36129
#
# Velocity S-wave (km/s) = 5.84245 3.50846 4.81890
# Velocity P-wave (km/s) = 8.56080 6.65502 7.66735
#
# Compressibility (1/GPa) = 0.01660137
#
# Stress axis : x y z
#
# Youngs Moduli (GPa) = 96.89831 108.08282 108.55727
#
# Poissons Ratio (x) = 0.22920 0.21397
# Poissons Ratio (y) = 0.20548 0.21708
# Poissons Ratio (z) = 0.19099 0.21613
#
# Static dielectric constant tensor:
#      x y z
#    x 4.516090 0.000000 0.000000 
#    y 0.000000 3.775730 0.000000 
#    z 0.000000 0.000000 3.938940 
# 
# 
# High freq. dielectric constant tensor:
#      x y z
#    x 1.869920 0.000000 0.000000 
#    y 0.000000 1.844880 0.000000 
#    z 0.000000 0.000000 1.863570 
# 
# From -- ./inp_files/28339.got.cif
#   From: 2010.06.25/outbox.cif.g09.slc.cpg/sg48_15_cif.got.tgz:28339.got - 2010.06.26 18:06:46.
