data_PCOD8201079
_publ_section_title
;
Structure prediction by ZEFSAII (Michael W. Deem and Ramdas Pophale) SiO2 
 PCOD8201079
Probable space group: P M M M
;
_chemical_formula_sum "Si O2"
_cell_formula_units_Z 52
_cell_length_a 9.809898
_cell_length_b 9.233079
_cell_length_c 33.763460
_cell_angle_alpha 90.000000
_cell_angle_beta 90.000000
_cell_angle_gamma 90.000000
_cell_volume 3058.144406
_symmetry_space_group_name_H-M "P M M M"
_symmetry_group_IT_number 47
_symmetry_cell_setting 'orthorhombic'
loop_
_space_group_symop_operation_xyz
x,y,z
-x,-y,z
x,-y,-z
-x,y,-z
-x,-y,-z
x,y,-z
-x,y,z
x,-y,z
loop_
_atom_site_type_symbol
_atom_site_label
_atom_site_fract_x
_atom_site_fract_y
_atom_site_fract_z
Si Si1 0.347785 0.327532 0.224470
Si Si2 0.662006 0.339246 0.688974
Si Si3 0.343458 0.829405 0.613153
Si Si4 0.847089 0.827808 0.456087
Si Si5 0.157926 0.669538 0.846072
Si Si6 0.162064 0.836253 0.923890
Si Si7 0.837311 0.335661 0.000000
O O1 0.500000 0.267271 0.215507
O O2 0.352142 0.500000 0.225081
O O3 0.294827 0.275693 0.267889
O O4 0.243778 0.271379 0.191189
O O5 0.500000 0.346592 0.688360
O O6 0.723046 0.500000 0.682523
O O7 0.715813 0.237306 0.653779
O O8 0.500000 0.784716 0.606044
O O9 0.257397 0.765174 0.576390
O O10 0.326410 0.000000 0.616798
O O11 0.805076 0.772188 0.500000
O O12 0.000000 0.774928 0.445867
O O13 0.841567 0.000000 0.455638
O O14 0.182610 0.500000 0.853936
O O15 0.211375 0.756071 0.884236
O O16 0.000000 0.701716 0.837286
O O17 0.000000 0.838024 0.925574
O O18 0.219603 0.000000 0.924714
O O19 0.219376 0.747926 0.961479
O O20 0.781453 0.500000 0.000000
O O21 0.000000 0.336850 0.000000
#
# Coordination Sequence:
#
# PCOD8201079 Si02
#       7
#     8   8   8   8   8   8   4
#     4   8  14  26  44  62  79 105 141 172 197 235
#     4   8  14  26  43  60  80 108 137 163 198 245
#     4   9  16  25  40  63  84  99 124 167 208 235
#     4   8  14  25  40  57  79 108 137 162 194 240
#     4   9  16  26  41  61  83 105 132 169 207 237
#     4   9  16  25  37  55  82 113 139 165 204 252
#     4   9  15  23  37  57  80 107 142 179 208 238
#
# _framework density 17.003775000000001
#
# number of rings (size 3 to 8) (size 9 to 14) (size 15 to 20)
#    0.000    3.462    0.000    2.077    0.000    3.077 
#    0.000    3.077    0.000    3.231    0.000    3.769 
#    0.000    4.308    0.000    0.000    0.000    0.000 
#
# Total GULP energy -644458.907404 kJ/mol
# GULP energy per Si atom -12393.440527 kJ/mol
# Density = 1.696507 g / cm^3
# Si number density = 17.003775 Si / 1000 Ang^3
#
#
#
# Elastic Constant Matrix: (Units=GPa)
#
#
# Indices 1 2 3 4 5 6 
#
# 1 49.5409 22.9326 64.8644 0.0000 0.0000 0.0000
# 2 22.9326 56.4202 55.9553 0.0000 0.0000 0.0000
# 3 64.8644 55.9553 195.8974 0.0000 0.0000 0.0000
# 4 0.0000 0.0000 0.0000 26.9403 0.0000 0.0000
# 5 0.0000 0.0000 0.0000 0.0000 22.8250 0.0000
# 6 0.0000 0.0000 0.0000 0.0000 0.0000 7.9244
#
#
#
# Elastic Compliance Matrix: (Units=1/GPa)
#
#
# Indices 1 2 3 4 5 6 
#
# 1 0.036253 -0.003949 -0.010876 0.000000 0.000000 0.000000
# 2 -0.003949 0.025160 -0.005879 0.000000 0.000000 0.000000
# 3 -0.010876 -0.005879 0.010385 0.000000 0.000000 0.000000
# 4 0.000000 0.000000 0.000000 0.037119 0.000000 0.000000
# 5 0.000000 0.000000 0.000000 0.000000 0.043812 0.000000
# 6 0.000000 0.000000 0.000000 0.000000 0.000000 0.126192
#
#
# Mechanical properties :
#
#
# Convention : Reuss Voigt Hill
#
# Bulk Modulus (GPa) = 32.90541 65.48480 49.19511
# Shear Modulus (GPa) = 15.13044 22.07835 18.60439
#
# Velocity S-wave (km/s) = 2.98623 3.60729 3.31136
# Velocity P-wave (km/s) = 5.59321 7.47968 6.60415
#
# Compressibility (1/GPa) = 0.03039014
#
# Stress axis : x y z
#
# Youngs Moduli (GPa) = 27.58358 39.74593 96.29157
#
# Poissons Ratio (x) = 0.15697 1.04727
# Poissons Ratio (y) = 0.10893 0.56609
# Poissons Ratio (z) = 0.30000 0.23366
#
# Static dielectric constant tensor:
#      x y z
#    x 2.910370 0.000000 0.000000 
#    y 0.000000 2.981970 0.000000 
#    z 0.000000 0.000000 3.633510 
# 
# 
# High freq. dielectric constant tensor:
#      x y z
#    x 1.608200 0.000000 0.000000 
#    y 0.000000 1.624140 0.000000 
#    z 0.000000 0.000000 1.673950 
# 
# From -- ./inp_files/34527.got.cif
#   From: 2010.03.12/outbox.cif.g09.slc.cpg/sg47_18_cif.got.tgz:34527.got - 2010.04.14 03:12:58.
