data_PCOD8201586
_publ_section_title
;
Structure prediction by ZEFSAII (Michael W. Deem and Ramdas Pophale) SiO2 
 PCOD8201586
Probable space group: P N N N
;
_chemical_formula_sum "Si O2"
_cell_formula_units_Z 40
_cell_length_a 12.803315
_cell_length_b 8.545366
_cell_length_c 16.573991
_cell_angle_alpha 90.000000
_cell_angle_beta 90.000000
_cell_angle_gamma 90.000000
_cell_volume 1813.343992
_symmetry_space_group_name_H-M "P N N N"
_symmetry_group_IT_number 48
_space_group.IT_coordinate_system_code '2'
_symmetry_cell_setting 'orthorhombic'
loop_
_space_group_symop_operation_xyz
x,y,z
1/2-x,1/2-y,z
x,1/2-y,1/2-z
1/2-x,y,1/2-z
-x,-y,-z
1/2+x,1/2+y,-z
-x,1/2+y,1/2+z
1/2+x,-y,1/2+z
loop_
_atom_site_type_symbol
_atom_site_label
_atom_site_fract_x
_atom_site_fract_y
_atom_site_fract_z
Si Si1 0.880525 0.140699 0.827684
Si Si2 0.264862 0.065927 0.933820
Si Si3 0.321559 0.942884 0.108114
Si Si4 0.474178 0.926373 0.912741
Si Si5 0.457137 0.557739 0.914994
O O1 0.899839 0.250000 0.750000
O O2 0.770497 0.044657 0.824668
O O3 0.860944 0.261743 0.903025
O O4 0.976233 0.024584 0.843897
O O5 0.250000 0.250000 0.927363
O O6 0.366301 0.007627 0.882682
O O7 0.162302 0.985856 0.898231
O O8 0.278663 0.015207 0.025990
O O9 0.424379 0.034246 0.142243
O O10 0.464768 0.742217 0.911908
O O11 0.500000 0.000000 0.000000
O O12 0.500000 0.500000 0.000000
#
# Coordination Sequence:
#
# PCOD8201586 Si02
#       5
#     8   8   8   8   8
#     4  11  24  40  63  88 127 183 226 274 348 432
#     4  11  21  35  61  99 132 165 222 294 355 404
#     4  10  20  37  59  84 130 166 226 271 342 410
#     4  10  22  33  57  96 132 169 218 286 350 407
#     4  12  21  37  63  92 130 174 225 287 351 410
#
# _framework density 22.058696000000001
#
# number of rings (size 3 to 8) (size 9 to 14) (size 15 to 20)
#    0.000    1.200    2.000    7.800    5.600    0.000 
#    0.000    1.000    4.400    6.600    0.000    5.600 
#    0.000    0.000    0.000    0.000    0.000    0.000 
#
# Total GULP energy -495563.254216 kJ/mol
# GULP energy per Si atom -12389.081355 kJ/mol
# Density = 2.200849 g / cm^3
# Si number density = 22.058696 Si / 1000 Ang^3
#
#
#
# Elastic Constant Matrix: (Units=GPa)
#
#
# Indices 1 2 3 4 5 6 
#
# 1 246.8101 106.7912 45.1843 0.0000 0.0000 0.0000
# 2 106.7912 195.1762 33.4090 0.0000 0.0000 0.0000
# 3 45.1843 33.4090 50.3370 0.0000 0.0000 0.0000
# 4 0.0000 0.0000 0.0000 34.1848 0.0000 0.0000
# 5 0.0000 0.0000 0.0000 0.0000 12.7897 0.0000
# 6 0.0000 0.0000 0.0000 0.0000 0.0000 49.1426
#
#
#
# Elastic Compliance Matrix: (Units=1/GPa)
#
#
# Indices 1 2 3 4 5 6 
#
# 1 0.005809 -0.002579 -0.003503 0.000000 0.000000 0.000000
# 2 -0.002579 0.006925 -0.002281 0.000000 0.000000 0.000000
# 3 -0.003503 -0.002281 0.024524 0.000000 0.000000 0.000000
# 4 0.000000 0.000000 0.000000 0.029253 0.000000 0.000000
# 5 0.000000 0.000000 0.000000 0.000000 0.078188 0.000000
# 6 0.000000 0.000000 0.000000 0.000000 0.000000 0.020349
#
#
# Mechanical properties :
#
#
# Convention : Reuss Voigt Hill
#
# Bulk Modulus (GPa) = 48.70305 95.89917 72.30111
# Shear Modulus (GPa) = 26.50867 39.68599 33.09733
#
# Velocity S-wave (km/s) = 3.47036 4.24619 3.87773
# Velocity P-wave (km/s) = 6.17937 8.22248 7.27303
#
# Compressibility (1/GPa) = 0.02053259
#
# Stress axis : x y z
#
# Youngs Moduli (GPa) = 172.15586 144.40349 40.77575
#
# Poissons Ratio (x) = 0.37237 0.14282
# Poissons Ratio (y) = 0.44394 0.09303
# Poissons Ratio (z) = 0.60299 0.32945
#
# Static dielectric constant tensor:
#      x y z
#    x 5.496080 0.000000 0.000000 
#    y 0.000000 4.222650 0.000000 
#    z 0.000000 0.000000 3.891480 
# 
# 
# High freq. dielectric constant tensor:
#      x y z
#    x 1.904020 0.000000 0.000000 
#    y 0.000000 1.877210 0.000000 
#    z 0.000000 0.000000 1.805910 
# 
# From -- ./inp_files/18645.got.cif
#   From: 2010.06.25/outbox.cif.g09.slc.cpg/sg48_10_cif.got.tgz:18645.got - 2010.06.26 18:06:46.
