data_PCOD8201738
_publ_section_title
;
Structure prediction by ZEFSAII (Michael W. Deem and Ramdas Pophale) SiO2 
 PCOD8201738
Probable space group: P N N N
;
_chemical_formula_sum "Si O2"
_cell_formula_units_Z 64
_cell_length_a 8.487151
_cell_length_b 21.272802
_cell_length_c 15.443896
_cell_angle_alpha 90.000000
_cell_angle_beta 90.000000
_cell_angle_gamma 90.000000
_cell_volume 2788.325659
_symmetry_space_group_name_H-M "P N N N"
_symmetry_group_IT_number 48
_space_group.IT_coordinate_system_code '2'
_symmetry_cell_setting 'orthorhombic'
loop_
_space_group_symop_operation_xyz
x,y,z
1/2-x,1/2-y,z
x,1/2-y,1/2-z
1/2-x,y,1/2-z
-x,-y,-z
1/2+x,1/2+y,-z
-x,1/2+y,1/2+z
1/2+x,-y,1/2+z
loop_
_atom_site_type_symbol
_atom_site_label
_atom_site_fract_x
_atom_site_fract_y
_atom_site_fract_z
Si Si1 0.898858 0.315387 0.050736
Si Si2 0.811291 0.879018 0.154730
Si Si3 0.016029 0.504561 0.601617
Si Si4 0.589640 0.788172 0.479430
Si Si5 0.421401 0.642885 0.880115
Si Si6 0.160652 0.023515 0.382275
Si Si7 0.912307 0.849285 0.708847
Si Si8 0.035966 0.421393 0.948652
O O1 0.724845 0.313646 0.090930
O O2 0.032357 0.309390 0.125911
O O3 0.938461 0.258503 0.985094
O O4 0.906653 0.381614 0.000822
O O5 0.750000 0.863419 0.250000
O O6 0.894903 0.946812 0.147558
O O7 0.920004 0.823591 0.113991
O O8 0.655384 0.874101 0.096634
O O9 0.113572 0.568397 0.618869
O O10 0.000000 0.500000 0.500000
O O11 0.841081 0.509121 0.642749
O O12 0.750000 0.750000 0.492823
O O13 0.569527 0.840735 0.556210
O O14 0.455834 0.660225 0.781418
O O15 0.099845 0.077736 0.318941
O O16 0.142450 0.038081 0.484907
O O17 0.049512 0.962014 0.372977
O O18 0.750000 0.824111 0.750000
#
# Coordination Sequence:
#
# PCOD8201738 Si02
#       8
#     8   8   8   8   8   8   8   8
#     4  11  25  44  71 101 141 195 247 310 355 442
#     4  12  28  45  73 111 141 189 252 315 379 442
#     4  12  22  42  72 104 149 190 236 301 381 460
#     4  12  25  50  74  97 140 192 254 302 369 442
#     4  12  25  43  73 110 144 191 243 304 375 456
#     4  10  21  38  65 101 151 194 225 288 365 453
#     4  11  23  41  67 107 153 189 233 292 373 449
#     4  10  21  41  64 102 141 186 247 290 365 434
#
# _framework density 22.952843999999999
#
# number of rings (size 3 to 8) (size 9 to 14) (size 15 to 20)
#    0.000    0.750    5.000    2.250    5.250    0.750 
#    0.000    2.500    0.000    0.000    3.250    0.000 
#    0.000    0.000    0.000    0.000    0.000    0.000 
#
# Total GULP energy -793483.912746 kJ/mol
# GULP energy per Si atom -12398.186137 kJ/mol
# Density = 2.290060 g / cm^3
# Si number density = 22.952844 Si / 1000 Ang^3
#
#
#
# Elastic Constant Matrix: (Units=GPa)
#
#
# Indices 1 2 3 4 5 6 
#
# 1 109.4379 43.0151 35.2883 0.0000 0.0000 0.0000
# 2 43.0151 110.4784 43.1271 0.0000 0.0000 0.0000
# 3 35.2883 43.1271 102.9003 0.0000 0.0000 0.0000
# 4 0.0000 0.0000 0.0000 26.6402 0.0000 0.0000
# 5 0.0000 0.0000 0.0000 0.0000 32.2928 0.0000
# 6 0.0000 0.0000 0.0000 0.0000 0.0000 39.7530
#
#
#
# Elastic Compliance Matrix: (Units=1/GPa)
#
#
# Indices 1 2 3 4 5 6 
#
# 1 0.011272 -0.003443 -0.002423 0.000000 0.000000 0.000000
# 2 -0.003443 0.011874 -0.003796 0.000000 0.000000 0.000000
# 3 -0.002423 -0.003796 0.012140 0.000000 0.000000 0.000000
# 4 0.000000 0.000000 0.000000 0.037537 0.000000 0.000000
# 5 0.000000 0.000000 0.000000 0.000000 0.030967 0.000000
# 6 0.000000 0.000000 0.000000 0.000000 0.000000 0.025155
#
#
# Mechanical properties :
#
#
# Convention : Reuss Voigt Hill
#
# Bulk Modulus (GPa) = 62.64530 62.85306 62.74918
# Shear Modulus (GPa) = 32.55448 33.16296 32.85872
#
# Velocity S-wave (km/s) = 3.77014 3.80522 3.78772
# Velocity P-wave (km/s) = 6.80472 6.83734 6.82105
#
# Compressibility (1/GPa) = 0.01596289
#
# Stress axis : x y z
#
# Youngs Moduli (GPa) = 88.71469 84.21855 82.37388
#
# Poissons Ratio (x) = 0.28998 0.19955
# Poissons Ratio (y) = 0.30546 0.31267
# Poissons Ratio (z) = 0.21492 0.31967
#
# Static dielectric constant tensor:
#      x y z
#    x 4.174530 0.000000 0.000000 
#    y 0.000000 4.205130 0.000000 
#    z 0.000000 0.000000 4.013640 
# 
# 
# High freq. dielectric constant tensor:
#      x y z
#    x 1.903500 0.000000 0.000000 
#    y 0.000000 1.911590 0.000000 
#    z 0.000000 0.000000 1.889300 
# 
# From -- ./inp_files/25764.got.cif
#   From: 2010.06.25/outbox.cif.g09.slc.cpg/sg48_13_cif.got.tgz:25764.got - 2010.06.26 18:06:46.
