data_PCOD8201788
_publ_section_title
;
Structure prediction by ZEFSAII (Michael W. Deem and Ramdas Pophale) SiO2 
 PCOD8201788
Probable space group: P N N N
;
_chemical_formula_sum "Si O2"
_cell_formula_units_Z 58
_cell_length_a 27.771630
_cell_length_b 11.026398
_cell_length_c 9.292080
_cell_angle_alpha 90.000000
_cell_angle_beta 90.000000
_cell_angle_gamma 90.000000
_cell_volume 2845.430452
_symmetry_space_group_name_H-M "P N N N"
_symmetry_group_IT_number 48
_space_group.IT_coordinate_system_code '2'
_symmetry_cell_setting 'orthorhombic'
loop_
_space_group_symop_operation_xyz
x,y,z
1/2-x,1/2-y,z
x,1/2-y,1/2-z
1/2-x,y,1/2-z
-x,-y,-z
1/2+x,1/2+y,-z
-x,1/2+y,1/2+z
1/2+x,-y,1/2+z
loop_
_atom_site_type_symbol
_atom_site_label
_atom_site_fract_x
_atom_site_fract_y
_atom_site_fract_z
Si Si1 0.859031 0.860187 0.066391
Si Si2 0.306167 0.114830 0.289278
Si Si3 0.357037 0.419588 0.615648
Si Si4 0.081265 0.752395 0.087445
Si Si5 0.325639 0.905289 0.097707
Si Si6 0.051606 0.984898 0.931317
Si Si7 0.250000 0.750000 0.250000
Si Si8 0.955385 0.044081 0.406752
O O1 0.846206 0.924100 0.216020
O O2 0.850521 0.716637 0.061400
O O3 0.915826 0.893861 0.045187
O O4 0.819865 0.911758 0.954620
O O5 0.323734 0.250000 0.250000
O O6 0.250000 0.098121 0.250000
O O7 0.338078 0.014896 0.207303
O O8 0.320254 0.520967 0.552541
O O9 0.409992 0.458186 0.562127
O O10 0.058423 0.750000 0.250000
O O11 0.134570 0.698829 0.099294
O O12 0.082293 0.885491 0.019142
O O13 0.051329 0.677631 0.970677
O O14 0.277446 0.837723 0.141171
O O15 0.039570 0.951190 0.765816
O O16 0.000000 0.000000 0.000000
O O17 0.000000 0.000000 0.500000
#
# Coordination Sequence:
#
# PCOD8201788 Si02
#       8
#     8   8   8   8   8   8   2   8
#     4  10  21  41  67  91 133 173 211 282 342 406
#     4  11  22  39  68 100 133 165 227 291 341 408
#     4   9  21  41  65  92 127 174 217 266 352 400
#     4  11  22  39  62  88 131 175 219 272 335 398
#     4  11  22  41  64  98 126 175 220 273 335 404
#     4  11  24  40  61  98 130 173 228 277 337 412
#     4  12  24  40  74  94 144 172 238 282 340 396
#     4  10  22  39  62  89 129 172 225 278 332 404
#
# _framework density 20.383559000000002
#
# number of rings (size 3 to 8) (size 9 to 14) (size 15 to 20)
#    0.000    1.517    2.759    2.069    1.931    1.103 
#    0.000    0.690    0.000    0.828    0.000    0.000 
#    0.000    0.000    0.000    0.000    0.000    0.000 
#
# Total GULP energy -718528.743312 kJ/mol
# GULP energy per Si atom -12388.426609 kJ/mol
# Density = 2.033717 g / cm^3
# Si number density = 20.383559 Si / 1000 Ang^3
#
#
#
# Elastic Constant Matrix: (Units=GPa)
#
#
# Indices 1 2 3 4 5 6 
#
# 1 103.6042 44.7876 65.8950 0.0000 0.0000 0.0000
# 2 44.7876 106.0409 46.5849 0.0000 0.0000 0.0000
# 3 65.8950 46.5849 154.9521 0.0000 0.0000 0.0000
# 4 0.0000 0.0000 0.0000 39.9485 0.0000 0.0000
# 5 0.0000 0.0000 0.0000 0.0000 37.4390 0.0000
# 6 0.0000 0.0000 0.0000 0.0000 0.0000 19.7183
#
#
#
# Elastic Compliance Matrix: (Units=1/GPa)
#
#
# Indices 1 2 3 4 5 6 
#
# 1 0.014534 -0.003944 -0.004995 0.000000 0.000000 0.000000
# 2 -0.003944 0.011936 -0.001911 0.000000 0.000000 0.000000
# 3 -0.004995 -0.001911 0.009152 0.000000 0.000000 0.000000
# 4 0.000000 0.000000 0.000000 0.025032 0.000000 0.000000
# 5 0.000000 0.000000 0.000000 0.000000 0.026710 0.000000
# 6 0.000000 0.000000 0.000000 0.000000 0.000000 0.050714
#
#
# Mechanical properties :
#
#
# Convention : Reuss Voigt Hill
#
# Bulk Modulus (GPa) = 71.83075 75.45911 73.64493
# Shear Modulus (GPa) = 30.40992 33.24316 31.82654
#
# Velocity S-wave (km/s) = 3.86668 4.04280 3.95572
# Velocity P-wave (km/s) = 7.43310 7.67413 7.55458
#
# Compressibility (1/GPa) = 0.01392161
#
# Stress axis : x y z
#
# Youngs Moduli (GPa) = 68.80342 83.78170 109.26206
#
# Poissons Ratio (x) = 0.33046 0.54576
# Poissons Ratio (y) = 0.27138 0.20880
# Poissons Ratio (z) = 0.34367 0.16011
#
# Static dielectric constant tensor:
#      x y z
#    x 3.525190 0.000000 0.000000 
#    y 0.000000 4.239720 0.000000 
#    z 0.000000 0.000000 3.981860 
# 
# 
# High freq. dielectric constant tensor:
#      x y z
#    x 1.776020 0.000000 0.000000 
#    y 0.000000 1.810500 0.000000 
#    z 0.000000 0.000000 1.810540 
# 
# From -- ./inp_files/16466.got.cif
#   From: 2010.06.25/outbox.cif.g09.slc.cpg/sg48_9_cif.got.tgz:16466.got - 2010.06.26 18:06:46.
