data_PCOD8201560
_publ_section_title
;
Structure prediction by ZEFSAII (Michael W. Deem and Ramdas Pophale) SiO2 
 PCOD8201560
Probable space group: P N N N
;
_chemical_formula_sum "Si O2"
_cell_formula_units_Z 64
_cell_length_a 12.039902
_cell_length_b 31.316802
_cell_length_c 8.768657
_cell_angle_alpha 90.000000
_cell_angle_beta 90.000000
_cell_angle_gamma 90.000000
_cell_volume 3306.232881
_symmetry_space_group_name_H-M "P N N N"
_symmetry_group_IT_number 48
_space_group.IT_coordinate_system_code '2'
_symmetry_cell_setting 'orthorhombic'
loop_
_space_group_symop_operation_xyz
x,y,z
1/2-x,1/2-y,z
x,1/2-y,1/2-z
1/2-x,y,1/2-z
-x,-y,-z
1/2+x,1/2+y,-z
-x,1/2+y,1/2+z
1/2+x,-y,1/2+z
loop_
_atom_site_type_symbol
_atom_site_label
_atom_site_fract_x
_atom_site_fract_y
_atom_site_fract_z
Si Si1 0.542383 0.345768 0.431736
Si Si2 0.253478 0.874959 0.080576
Si Si3 0.495386 0.980502 0.741408
Si Si4 0.382710 0.741570 0.420873
Si Si5 0.647337 0.309197 0.147883
Si Si6 0.149911 0.094152 0.366629
Si Si7 0.813565 0.974348 0.406688
Si Si8 0.148991 0.535626 0.463010
O O1 0.623844 0.381818 0.505843
O O2 0.567542 0.304568 0.537335
O O3 0.565926 0.335437 0.255980
O O4 0.416812 0.363629 0.422801
O O5 0.250000 0.854710 0.250000
O O6 0.187754 0.918736 0.093719
O O7 0.191679 0.841255 0.977374
O O8 0.570678 0.941330 0.792133
O O9 0.404472 0.959728 0.629789
O O10 0.434773 0.004900 0.880735
O O11 0.562481 0.017662 0.657754
O O12 0.250000 0.750000 0.425957
O O13 0.428083 0.750000 0.250000
O O14 0.423717 0.773012 0.557364
O O15 0.750000 0.290623 0.250000
O O16 0.250000 0.106369 0.250000
O O17 0.191611 0.073089 0.523324
O O18 0.750000 0.970689 0.250000
O O19 0.754247 0.004523 0.530173
#
# Coordination Sequence:
#
# PCOD8201560 Si02
#       8
#     8   8   8   8   8   8   8   8
#     4  11  24  37  60  92 120 166 198 242 314 374
#     4  11  22  32  53  90 124 155 200 256 302 369
#     4  10  21  38  58  80 113 163 212 260 312 361
#     4  11  20  37  63  93 129 155 185 233 311 401
#     4  10  20  36  57  87 128 159 188 235 308 384
#     4  12  24  41  60  84 122 162 219 263 303 363
#     4  10  22  40  60  82 113 162 210 267 317 365
#     4  10  21  36  56  84 115 156 211 261 312 350
#
# _framework density 19.357378000000001
#
# number of rings (size 3 to 8) (size 9 to 14) (size 15 to 20)
#    0.000    1.375    3.750    3.000    3.500    3.500 
#    0.000    0.000    0.000    1.500    0.000    0.875 
#    0.000    0.000    0.000    0.000    0.000    0.000 
#
# Total GULP energy -793115.824602 kJ/mol
# GULP energy per Si atom -12392.434759 kJ/mol
# Density = 1.931332 g / cm^3
# Si number density = 19.357378 Si / 1000 Ang^3
#
#
#
# Elastic Constant Matrix: (Units=GPa)
#
#
# Indices 1 2 3 4 5 6 
#
# 1 85.0829 42.0476 31.2824 0.0000 0.0000 0.0000
# 2 42.0476 98.9560 36.0504 0.0000 0.0000 0.0000
# 3 31.2824 36.0504 105.2707 0.0000 0.0000 0.0000
# 4 0.0000 0.0000 0.0000 11.0478 0.0000 0.0000
# 5 0.0000 0.0000 0.0000 0.0000 19.3336 0.0000
# 6 0.0000 0.0000 0.0000 0.0000 0.0000 15.2399
#
#
#
# Elastic Compliance Matrix: (Units=1/GPa)
#
#
# Indices 1 2 3 4 5 6 
#
# 1 0.015516 -0.005613 -0.002688 0.000000 0.000000 0.000000
# 2 -0.005613 0.013577 -0.002981 0.000000 0.000000 0.000000
# 3 -0.002688 -0.002981 0.011319 0.000000 0.000000 0.000000
# 4 0.000000 0.000000 0.000000 0.090516 0.000000 0.000000
# 5 0.000000 0.000000 0.000000 0.000000 0.051723 0.000000
# 6 0.000000 0.000000 0.000000 0.000000 0.000000 0.065617
#
#
# Mechanical properties :
#
#
# Convention : Reuss Voigt Hill
#
# Bulk Modulus (GPa) = 56.03649 56.45227 56.24438
# Shear Modulus (GPa) = 18.06468 21.11953 19.59210
#
# Velocity S-wave (km/s) = 3.05818 3.30666 3.18484
# Velocity P-wave (km/s) = 6.44059 6.61855 6.53017
#
# Compressibility (1/GPa) = 0.01784551
#
# Stress axis : x y z
#
# Youngs Moduli (GPa) = 64.45029 73.65473 88.34571
#
# Poissons Ratio (x) = 0.41346 0.23750
# Poissons Ratio (y) = 0.36179 0.26339
# Poissons Ratio (z) = 0.17326 0.21959
#
# Static dielectric constant tensor:
#      x y z
#    x 3.480740 0.000000 0.000000 
#    y 0.000000 3.564590 0.000000 
#    z 0.000000 0.000000 4.228740 
# 
# 
# High freq. dielectric constant tensor:
#      x y z
#    x 1.716460 0.000000 0.000000 
#    y 0.000000 1.746840 0.000000 
#    z 0.000000 0.000000 1.779660 
# 
# From -- ./inp_files/11582.got.cif
#   From: 2010.06.25/outbox.cif.g09.slc.cpg/sg48_6_cif.got.tgz:11582.got - 2010.06.26 18:06:46.
