data_PCOD8201177
_publ_section_title
;
Structure prediction by ZEFSAII (Michael W. Deem and Ramdas Pophale) SiO2 
 PCOD8201177
Probable space group: P M M M
;
_chemical_formula_sum "Si O2"
_cell_formula_units_Z 52
_cell_length_a 7.753246
_cell_length_b 15.246432
_cell_length_c 23.986753
_cell_angle_alpha 90.000000
_cell_angle_beta 90.000000
_cell_angle_gamma 90.000000
_cell_volume 2835.458191
_symmetry_space_group_name_H-M "P M M M"
_symmetry_group_IT_number 47
_symmetry_cell_setting 'orthorhombic'
loop_
_space_group_symop_operation_xyz
x,y,z
-x,-y,z
x,-y,-z
-x,y,-z
-x,-y,-z
x,y,-z
-x,y,z
x,-y,z
loop_
_atom_site_type_symbol
_atom_site_label
_atom_site_fract_x
_atom_site_fract_y
_atom_site_fract_z
Si Si1 0.299456 0.768170 0.565712
Si Si2 0.692233 0.000000 0.933915
Si Si3 0.804149 0.601339 0.250761
Si Si4 0.206149 0.338538 0.865523
Si Si5 0.000000 0.899775 0.566006
Si Si6 0.205396 0.500000 0.062722
Si Si7 0.802655 0.184352 0.061744
Si Si8 0.304950 0.597009 0.371842
O O1 0.285751 0.755407 0.500000
O O2 0.500000 0.787706 0.583193
O O3 0.173964 0.847844 0.585478
O O4 0.225586 0.677612 0.592930
O O5 0.787361 0.912957 0.912551
O O6 0.500000 0.000000 0.910183
O O7 0.697767 0.000000 0.000000
O O8 0.793805 0.500000 0.233661
O O9 0.724705 0.654231 0.198041
O O10 0.697989 0.621753 0.306492
O O11 0.000000 0.629539 0.263165
O O12 0.276370 0.415916 0.904530
O O13 0.281312 0.250171 0.893607
O O14 0.000000 0.341717 0.862359
O O15 0.000000 0.905590 0.500000
O O16 0.000000 0.000000 0.590402
O O17 0.000000 0.500000 0.060822
O O18 0.280177 0.500000 0.000000
O O19 0.000000 0.210754 0.054690
O O20 0.714427 0.191103 0.000000
O O21 0.500000 0.587833 0.391699
O O22 0.214865 0.500000 0.381426
#
# Coordination Sequence:
#
# PCOD8201177 Si02
#       8
#     8   4   8   8   4   4   8   8
#     4   9  18  32  50  75 107 139 170 209 256 302
#     4   9  17  29  43  59  81 107 135 173 222 275
#     4   9  16  27  43  63  89 122 158 194 228 267
#     4   9  15  24  38  61  90 116 146 182 222 269
#     4   9  18  32  51  77 107 137 172 212 251 302
#     4   9  14  20  34  58  91 123 144 173 220 272
#     4   9  16  26  42  64  86 108 138 177 222 271
#     4   9  18  31  47  69  97 129 166 203 239 288
#
# _framework density 18.339189000000001
#
# number of rings (size 3 to 8) (size 9 to 14) (size 15 to 20)
#    0.000    3.000    0.769    0.692    1.077    3.385 
#    0.000    3.846    0.000    1.385    2.000    0.000 
#    0.000    3.692    0.000    0.000    0.000    0.000 
#
# Total GULP energy -644228.753592 kJ/mol
# GULP energy per Si atom -12389.014492 kJ/mol
# Density = 1.829745 g / cm^3
# Si number density = 18.339189 Si / 1000 Ang^3
#
#
#
# Elastic Constant Matrix: (Units=GPa)
#
#
# Indices 1 2 3 4 5 6 
#
# 1 44.3636 28.5679 12.9854 0.0000 0.0000 0.0000
# 2 28.5679 155.9192 54.8796 0.0000 0.0000 0.0000
# 3 12.9854 54.8796 64.4710 0.0000 0.0000 0.0000
# 4 0.0000 0.0000 0.0000 11.7184 0.0000 0.0000
# 5 0.0000 0.0000 0.0000 0.0000 10.7125 0.0000
# 6 0.0000 0.0000 0.0000 0.0000 0.0000 9.0409
#
#
#
# Elastic Compliance Matrix: (Units=1/GPa)
#
#
# Indices 1 2 3 4 5 6 
#
# 1 0.025681 -0.004119 -0.001667 0.000000 0.000000 0.000000
# 2 -0.004119 0.009818 -0.007528 0.000000 0.000000 0.000000
# 3 -0.001667 -0.007528 0.022254 0.000000 0.000000 0.000000
# 4 0.000000 0.000000 0.000000 0.085336 0.000000 0.000000
# 5 0.000000 0.000000 0.000000 0.000000 0.093349 0.000000
# 6 0.000000 0.000000 0.000000 0.000000 0.000000 0.110608
#
#
# Mechanical properties :
#
#
# Convention : Reuss Voigt Hill
#
# Bulk Modulus (GPa) = 32.12618 50.84664 41.48641
# Shear Modulus (GPa) = 13.01922 17.51576 15.26749
#
# Velocity S-wave (km/s) = 2.66731 3.09382 2.88845
# Velocity P-wave (km/s) = 5.20018 6.36775 5.81335
#
# Compressibility (1/GPa) = 0.03112726
#
# Stress axis : x y z
#
# Youngs Moduli (GPa) = 38.93919 101.85643 44.93531
#
# Poissons Ratio (x) = 0.41952 0.07489
# Poissons Ratio (y) = 0.16038 0.33825
# Poissons Ratio (z) = 0.06489 0.76673
#
# Static dielectric constant tensor:
#      x y z
#    x 3.151310 0.000000 0.000000 
#    y 0.000000 3.621430 0.000000 
#    z 0.000000 0.000000 3.256520 
# 
# 
# High freq. dielectric constant tensor:
#      x y z
#    x 1.688300 0.000000 0.000000 
#    y 0.000000 1.703400 0.000000 
#    z 0.000000 0.000000 1.682270 
# 
# From -- ./inp_files/32046.got.cif
#   From: 2010.03.12/outbox.cif.g09.slc.cpg/sg47_17_cif.got.tgz:32046.got - 2010.04.14 03:12:58.
