data_PCOD8201930
_publ_section_title
;
Structure prediction by ZEFSAII (Michael W. Deem and Ramdas Pophale) SiO2 
 PCOD8201930
Probable space group: P N N N
;
_chemical_formula_sum "Si O2"
_cell_formula_units_Z 38
_cell_length_a 9.943329
_cell_length_b 9.325569
_cell_length_c 15.956926
_cell_angle_alpha 90.000000
_cell_angle_beta 90.000000
_cell_angle_gamma 90.000000
_cell_volume 1479.641079
_symmetry_space_group_name_H-M "P N N N"
_symmetry_group_IT_number 48
_space_group.IT_coordinate_system_code '2'
_symmetry_cell_setting 'orthorhombic'
loop_
_space_group_symop_operation_xyz
x,y,z
1/2-x,1/2-y,z
x,1/2-y,1/2-z
1/2-x,y,1/2-z
-x,-y,-z
1/2+x,1/2+y,-z
-x,1/2+y,1/2+z
1/2+x,-y,1/2+z
loop_
_atom_site_type_symbol
_atom_site_label
_atom_site_fract_x
_atom_site_fract_y
_atom_site_fract_z
Si Si1 0.907793 0.471232 0.842502
Si Si2 0.750000 0.250000 0.564898
Si Si3 0.893652 0.765865 0.134670
Si Si4 0.990386 0.072593 0.177175
Si Si5 0.478256 0.282444 0.462127
Si Si6 0.250000 0.750000 0.750000
O O1 0.769482 0.392041 0.873922
O O2 0.011507 0.345769 0.817362
O O3 0.906136 0.565649 0.757043
O O4 0.972628 0.561881 0.918526
O O5 0.621673 0.242395 0.504605
O O6 0.750000 0.750000 0.179223
O O7 0.959432 0.920422 0.137916
O O8 0.872872 0.721107 0.037504
O O9 0.065748 0.165253 0.106645
O O10 0.847205 0.149383 0.195225
#
# Coordination Sequence:
#
# PCOD8201930 Si02
#       6
#     8   4   8   8   8   2
#     4  11  24  47  73 106 148 190 245 309 371 448
#     4  10  23  42  76 103 144 198 236 296 376 450
#     4  11  25  42  71 103 147 186 245 306 375 443
#     4  12  24  42  69 110 143 192 248 313 367 441
#     4  11  24  45  74 104 146 194 249 302 371 452
#     4  12  22  40  74 102 150 188 244 316 378 418
#
# _framework density 25.681903999999999
#
# number of rings (size 3 to 8) (size 9 to 14) (size 15 to 20)
#    0.000    0.842    2.105    5.684    5.895    0.842 
#    0.000    8.421    0.000    1.263    0.000    0.000 
#    0.000    0.000    0.000    0.000    0.000    0.000 
#
# Total GULP energy -470907.406108 kJ/mol
# GULP energy per Si atom -12392.300161 kJ/mol
# Density = 2.562345 g / cm^3
# Si number density = 25.681904 Si / 1000 Ang^3
#
#
#
# Elastic Constant Matrix: (Units=GPa)
#
#
# Indices 1 2 3 4 5 6 
#
# 1 88.4411 20.9565 1.6490 0.0000 0.0000 0.0000
# 2 20.9565 117.5234 25.9969 0.0000 0.0000 0.0000
# 3 1.6490 25.9969 133.3514 0.0000 0.0000 0.0000
# 4 0.0000 0.0000 0.0000 28.4712 0.0000 0.0000
# 5 0.0000 0.0000 0.0000 0.0000 -45.2034 0.0000
# 6 0.0000 0.0000 0.0000 0.0000 0.0000 46.3404
#
#
#
# Elastic Compliance Matrix: (Units=1/GPa)
#
#
# Indices 1 2 3 4 5 6 
#
# 1 0.011816 -0.002168 0.000277 0.000000 0.000000 0.000000
# 2 -0.002168 0.009290 -0.001784 0.000000 0.000000 0.000000
# 3 0.000277 -0.001784 0.007843 0.000000 0.000000 0.000000
# 4 0.000000 0.000000 0.000000 0.035123 0.000000 0.000000
# 5 0.000000 0.000000 0.000000 0.000000 -0.022122 0.000000
# 6 0.000000 0.000000 0.000000 0.000000 0.000000 0.021579
#
#
# Mechanical properties :
#
#
# Convention : Reuss Voigt Hill
#
# Bulk Modulus (GPa) = 46.30168 48.50231 47.40200
# Shear Modulus (GPa) = 64.03646 25.30254 44.66950
#
# Velocity S-wave (km/s) = 4.99886 3.14224 4.17506
# Velocity P-wave (km/s) = 7.16842 5.66495 6.46057
#
# Compressibility (1/GPa) = 0.02159749
#
# Stress axis : x y z
#
# Youngs Moduli (GPa) = 84.63434 107.63965 127.49539
#
# Poissons Ratio (x) = 0.23337 -0.03526
# Poissons Ratio (y) = 0.18349 0.22749
# Poissons Ratio (z) = -0.02341 0.19206
#
# Static dielectric constant tensor:
#      x y z
#    x 4.407540 0.000000 0.000000 
#    y 0.000000 4.912530 0.000000 
#    z 0.000000 0.000000 4.988980 
# 
# 
# High freq. dielectric constant tensor:
#      x y z
#    x 2.004600 0.000000 0.000000 
#    y 0.000000 2.039280 0.000000 
#    z 0.000000 0.000000 2.052180 
# 
# From -- ./inp_files/10754.got.cif
#   From: 2010.06.25/outbox.cif.g09.slc.cpg/sg48_6_cif.got.tgz:10754.got - 2010.06.26 18:06:46.
