data_PCOD8201363
_publ_section_title
;
Structure prediction by ZEFSAII (Michael W. Deem and Ramdas Pophale) SiO2 
 PCOD8201363
Probable space group: P N N N
;
_chemical_formula_sum "Si O2"
_cell_formula_units_Z 56
_cell_length_a 14.897769
_cell_length_b 21.701970
_cell_length_c 9.846271
_cell_angle_alpha 90.000000
_cell_angle_beta 90.000000
_cell_angle_gamma 90.000000
_cell_volume 3183.407092
_symmetry_space_group_name_H-M "P N N N"
_symmetry_group_IT_number 48
_space_group.IT_coordinate_system_code '2'
_symmetry_cell_setting 'orthorhombic'
loop_
_space_group_symop_operation_xyz
x,y,z
1/2-x,1/2-y,z
x,1/2-y,1/2-z
1/2-x,y,1/2-z
-x,-y,-z
1/2+x,1/2+y,-z
-x,1/2+y,1/2+z
1/2+x,-y,1/2+z
loop_
_atom_site_type_symbol
_atom_site_label
_atom_site_fract_x
_atom_site_fract_y
_atom_site_fract_z
Si Si1 0.993844 0.567775 0.216394
Si Si2 0.202970 0.974848 0.885982
Si Si3 0.893677 0.597927 0.464706
Si Si4 0.908256 0.588178 0.936432
Si Si5 0.679880 0.463032 0.633073
Si Si6 0.743499 0.677832 0.592086
Si Si7 0.475373 0.931101 0.698409
O O1 0.947278 0.614520 0.324136
O O2 0.994429 0.503767 0.296981
O O3 0.095512 0.582141 0.167572
O O4 0.933358 0.562637 0.083378
O O5 0.250000 0.999902 0.750000
O O6 0.129682 0.922997 0.841076
O O7 0.156961 0.032469 0.960855
O O8 0.275539 0.944865 0.988508
O O9 0.820970 0.649736 0.498134
O O10 0.965906 0.600255 0.583412
O O11 0.849056 0.534791 0.866200
O O12 0.852824 0.651179 0.954667
O O13 0.996959 0.599572 0.843225
O O14 0.750000 0.451388 0.750000
O O15 0.750000 0.750000 0.568130
O O16 0.750000 0.659963 0.750000
#
# Coordination Sequence:
#
# PCOD8201363 Si02
#       7
#     8   8   8   8   8   8   8
#     4  10  21  30  47  73 105 136 175 205 262 317
#     4  11  19  28  47  74 107 135 175 203 249 312
#     4  11  20  34  49  70 104 141 173 215 255 300
#     4  11  19  34  49  70 105 142 171 217 260 296
#     4  11  18  29  48  72 104 142 173 199 247 317
#     4  11  23  38  57  77  97 140 190 221 252 306
#     4  10  19  31  47  71  98 145 175 203 247 320
#
# _framework density 17.591214999999998
#
# number of rings (size 3 to 8) (size 9 to 14) (size 15 to 20)
#    0.000    1.286    2.857    9.000    0.000    0.000 
#    0.000    1.429    0.000    0.000    0.000    0.000 
#    0.000   17.143    0.000    0.000    0.000    0.000 
#
# Total GULP energy -694134.994096 kJ/mol
# GULP energy per Si atom -12395.267752 kJ/mol
# Density = 1.755118 g / cm^3
# Si number density = 17.591215 Si / 1000 Ang^3
#
#
#
# Elastic Constant Matrix: (Units=GPa)
#
#
# Indices 1 2 3 4 5 6 
#
# 1 114.1021 36.0805 50.2783 0.0000 0.0000 0.0000
# 2 36.0805 44.3344 19.3999 0.0000 0.0000 0.0000
# 3 50.2783 19.3999 116.0560 0.0000 0.0000 0.0000
# 4 0.0000 0.0000 0.0000 1.5836 0.0000 0.0000
# 5 0.0000 0.0000 0.0000 0.0000 43.8311 0.0000
# 6 0.0000 0.0000 0.0000 0.0000 0.0000 12.3568
#
#
#
# Elastic Compliance Matrix: (Units=1/GPa)
#
#
# Indices 1 2 3 4 5 6 
#
# 1 0.013572 -0.009141 -0.004352 0.000000 0.000000 0.000000
# 2 -0.009141 0.030493 -0.001137 0.000000 0.000000 0.000000
# 3 -0.004352 -0.001137 0.010692 0.000000 0.000000 0.000000
# 4 0.000000 0.000000 0.000000 0.631463 0.000000 0.000000
# 5 0.000000 0.000000 0.000000 0.000000 0.022815 0.000000
# 6 0.000000 0.000000 0.000000 0.000000 0.000000 0.080927
#
#
# Mechanical properties :
#
#
# Convention : Reuss Voigt Hill
#
# Bulk Modulus (GPa) = 39.22040 54.00109 46.61075
# Shear Modulus (GPa) = 6.04068 22.80322 14.42195
#
# Velocity S-wave (km/s) = 1.85509 3.60430 2.86639
# Velocity P-wave (km/s) = 5.18964 6.93439 6.12446
#
# Compressibility (1/GPa) = 0.02549693
#
# Stress axis : x y z
#
# Youngs Moduli (GPa) = 73.67994 32.79480 93.52886
#
# Poissons Ratio (x) = 0.29978 0.40702
# Poissons Ratio (y) = 0.67352 0.10634
# Poissons Ratio (z) = 0.32064 0.03729
#
# Static dielectric constant tensor:
#      x y z
#    x 3.828150 0.000000 0.000000 
#    y 0.000000 2.625350 0.000000 
#    z 0.000000 0.000000 3.553310 
# 
# 
# High freq. dielectric constant tensor:
#      x y z
#    x 1.700440 0.000000 0.000000 
#    y 0.000000 1.586510 0.000000 
#    z 0.000000 0.000000 1.705660 
# 
# From -- ./inp_files/13100.got.cif
#   From: 2010.06.25/outbox.cif.g09.slc.cpg/sg48_7_cif.got.tgz:13100.got - 2010.06.26 18:06:46.
