data_PCOD8201131
_publ_section_title
;
Structure prediction by ZEFSAII (Michael W. Deem and Ramdas Pophale) SiO2 
 PCOD8201131
Probable space group: P M M M
;
_chemical_formula_sum "Si O2"
_cell_formula_units_Z 44
_cell_length_a 9.653986
_cell_length_b 28.400109
_cell_length_c 9.253987
_cell_angle_alpha 90.000000
_cell_angle_beta 90.000000
_cell_angle_gamma 90.000000
_cell_volume 2537.204989
_symmetry_space_group_name_H-M "P M M M"
_symmetry_group_IT_number 47
_symmetry_cell_setting 'orthorhombic'
loop_
_space_group_symop_operation_xyz
x,y,z
-x,-y,z
x,-y,-z
-x,y,-z
-x,-y,-z
x,y,-z
-x,y,z
x,-y,z
loop_
_atom_site_type_symbol
_atom_site_label
_atom_site_fract_x
_atom_site_fract_y
_atom_site_fract_z
Si Si1 0.344570 0.051990 0.828324
Si Si2 0.660236 0.591152 0.168181
Si Si3 0.664596 0.500000 0.337133
Si Si4 0.161045 0.862838 0.168960
Si Si5 0.160305 0.319731 0.168131
Si Si6 0.164646 0.228402 0.663092
O O1 0.500000 0.063490 0.774856
O O2 0.240520 0.091543 0.768540
O O3 0.299633 0.000000 0.772021
O O4 0.339622 0.052041 0.000000
O O5 0.500000 0.601617 0.204200
O O6 0.718458 0.546466 0.255762
O O7 0.749964 0.635714 0.217475
O O8 0.680794 0.579954 0.000000
O O9 0.500000 0.500000 0.334127
O O10 0.722536 0.500000 0.500000
O O11 0.219785 0.817443 0.252842
O O12 0.000000 0.871182 0.200220
O O13 0.189520 0.854676 0.000000
O O14 0.217808 0.275197 0.256845
O O15 0.000000 0.330328 0.203226
O O16 0.181432 0.308328 0.000000
O O17 0.222283 0.227926 0.500000
O O18 0.000000 0.228008 0.665919
#
# Coordination Sequence:
#
# PCOD8201131 Si02
#       6
#     8   8   4   8   8   8
#     4   8  14  25  41  62  88 115 141 172 214 260
#     4   9  17  30  48  68  89 114 145 180 217 257
#     4   9  17  29  46  67  90 118 150 181 214 254
#     4   9  16  26  43  66  87 108 140 181 216 247
#     4   9  17  30  48  68  89 114 145 180 217 257
#     4   9  17  29  45  64  87 116 146 175 212 259
#
# _framework density 17.341916999999999
#
# number of rings (size 3 to 8) (size 9 to 14) (size 15 to 20)
#    0.000    3.182    0.000    1.364    0.000    4.364 
#    0.000    3.182    0.000    9.273    0.000    3.818 
#    0.000    0.000    0.000    0.000    0.000    0.000 
#
# Total GULP energy -545501.577942 kJ/mol
# GULP energy per Si atom -12397.763135 kJ/mol
# Density = 1.730245 g / cm^3
# Si number density = 17.341917 Si / 1000 Ang^3
#
#
#
# Elastic Constant Matrix: (Units=GPa)
#
#
# Indices 1 2 3 4 5 6 
#
# 1 51.4953 67.5616 30.7022 0.0000 0.0000 0.0000
# 2 67.5616 199.4050 75.2039 0.0000 0.0000 0.0000
# 3 30.7022 75.2039 71.1733 0.0000 0.0000 0.0000
# 4 0.0000 0.0000 0.0000 7.7383 0.0000 0.0000
# 5 0.0000 0.0000 0.0000 0.0000 10.5250 0.0000
# 6 0.0000 0.0000 0.0000 0.0000 0.0000 24.8582
#
#
#
# Elastic Compliance Matrix: (Units=1/GPa)
#
#
# Indices 1 2 3 4 5 6 
#
# 1 0.035756 -0.010470 -0.004361 0.000000 0.000000 0.000000
# 2 -0.010470 0.011403 -0.007532 0.000000 0.000000 0.000000
# 3 -0.004361 -0.007532 0.023891 0.000000 0.000000 0.000000
# 4 0.000000 0.000000 0.000000 0.129228 0.000000 0.000000
# 5 0.000000 0.000000 0.000000 0.000000 0.095012 0.000000
# 6 0.000000 0.000000 0.000000 0.000000 0.000000 0.040228
#
#
# Mechanical properties :
#
#
# Convention : Reuss Voigt Hill
#
# Bulk Modulus (GPa) = 37.99059 74.33434 56.16246
# Shear Modulus (GPa) = 12.85284 18.53135 15.69209
#
# Velocity S-wave (km/s) = 2.72535 3.27247 3.01136
# Velocity P-wave (km/s) = 5.64426 7.56543 6.67433
#
# Compressibility (1/GPa) = 0.02632231
#
# Stress axis : x y z
#
# Youngs Moduli (GPa) = 27.96738 87.69580 41.85751
#
# Poissons Ratio (x) = 0.91816 0.18256
# Poissons Ratio (y) = 0.29281 0.31529
# Poissons Ratio (z) = 0.12198 0.66056
#
# Static dielectric constant tensor:
#      x y z
#    x 3.000460 0.000000 0.000000 
#    y 0.000000 3.520400 0.000000 
#    z 0.000000 0.000000 3.096910 
# 
# 
# High freq. dielectric constant tensor:
#      x y z
#    x 1.635500 0.000000 0.000000 
#    y 0.000000 1.684310 0.000000 
#    z 0.000000 0.000000 1.648070 
# 
# From -- ./inp_files/2264.got.cif
#   From: 2010.03.12/outbox.cif.g09.slc.cpg/sg47_2_cif.got.tgz:2264.got - 2010.04.14 03:12:58.
