data_PCOD8201440
_publ_section_title
;
Structure prediction by ZEFSAII (Michael W. Deem and Ramdas Pophale) SiO2 
 PCOD8201440
Probable space group: P N N N
;
_chemical_formula_sum "Si O2"
_cell_formula_units_Z 42
_cell_length_a 28.241840
_cell_length_b 7.509375
_cell_length_c 9.619735
_cell_angle_alpha 90.000000
_cell_angle_beta 90.000000
_cell_angle_gamma 90.000000
_cell_volume 2040.139616
_symmetry_space_group_name_H-M "P N N N"
_symmetry_group_IT_number 48
_space_group.IT_coordinate_system_code '2'
_symmetry_cell_setting 'orthorhombic'
loop_
_space_group_symop_operation_xyz
x,y,z
1/2-x,1/2-y,z
x,1/2-y,1/2-z
1/2-x,y,1/2-z
-x,-y,-z
1/2+x,1/2+y,-z
-x,1/2+y,1/2+z
1/2+x,-y,1/2+z
loop_
_atom_site_type_symbol
_atom_site_label
_atom_site_fract_x
_atom_site_fract_y
_atom_site_fract_z
Si Si1 0.750000 0.750000 0.250000
Si Si2 0.317978 0.557610 0.719823
Si Si3 0.398606 0.464233 0.534011
Si Si4 0.576939 0.458689 0.766425
Si Si5 0.610263 0.558682 0.060709
Si Si6 0.472334 0.040170 0.753349
O O1 0.717051 0.604019 0.331293
O O2 0.293055 0.750000 0.750000
O O3 0.357057 0.586289 0.598636
O O4 0.341992 0.509635 0.867688
O O5 0.396920 0.465418 0.368603
O O6 0.389034 0.267610 0.589193
O O7 0.449715 0.523678 0.598362
O O8 0.573843 0.250000 0.750000
O O9 0.524157 0.545678 0.772749
O O10 0.608672 0.510509 0.898206
O O11 0.563299 0.474532 0.132089
O O12 0.479181 0.250000 0.750000
#
# Coordination Sequence:
#
# PCOD8201440 Si02
#       6
#     2   8   8   8   8   8
#     4  12  22  44  68  96 116 140 194 242 304 358
#     4  11  22  40  66  92 115 147 186 240 296 357
#     4  10  19  36  54  79 117 158 196 241 296 342
#     4  11  20  30  49  82 116 160 207 241 282 345
#     4  10  19  36  54  79 117 158 196 241 296 342
#     4   8  17  31  50  75 113 157 207 250 280 330
#
# _framework density 20.586827
#
# number of rings (size 3 to 8) (size 9 to 14) (size 15 to 20)
#    0.000    1.905    1.905    4.286    0.000    0.000 
#    0.000    9.524    0.000    2.286    0.000    4.000 
#    0.000    0.000    0.000    0.000    0.000    0.000 
#
# Total GULP energy -520333.651382 kJ/mol
# GULP energy per Si atom -12388.896461 kJ/mol
# Density = 2.053997 g / cm^3
# Si number density = 20.586827 Si / 1000 Ang^3
#
#
#
# Elastic Constant Matrix: (Units=GPa)
#
#
# Indices 1 2 3 4 5 6 
#
# 1 89.7534 20.9158 31.5769 0.0000 0.0000 0.0000
# 2 20.9158 86.7598 -0.7310 0.0000 0.0000 0.0000
# 3 31.5769 -0.7310 142.7576 0.0000 0.0000 0.0000
# 4 0.0000 0.0000 0.0000 19.4475 0.0000 0.0000
# 5 0.0000 0.0000 0.0000 0.0000 7.8593 0.0000
# 6 0.0000 0.0000 0.0000 0.0000 0.0000 19.1931
#
#
#
# Elastic Compliance Matrix: (Units=1/GPa)
#
#
# Indices 1 2 3 4 5 6 
#
# 1 0.012879 -0.003129 -0.002865 0.000000 0.000000 0.000000
# 2 -0.003129 0.012287 0.000755 0.000000 0.000000 0.000000
# 3 -0.002865 0.000755 0.007642 0.000000 0.000000 0.000000
# 4 0.000000 0.000000 0.000000 0.051421 0.000000 0.000000
# 5 0.000000 0.000000 0.000000 0.000000 0.127238 0.000000
# 6 0.000000 0.000000 0.000000 0.000000 0.000000 0.052102
#
#
# Mechanical properties :
#
#
# Convention : Reuss Voigt Hill
#
# Bulk Modulus (GPa) = 44.78149 46.97711 45.87930
# Shear Modulus (GPa) = 17.76266 27.13391 22.44828
#
# Velocity S-wave (km/s) = 2.94056 3.63440 3.30573
# Velocity P-wave (km/s) = 5.77312 6.36242 6.07492
#
# Compressibility (1/GPa) = 0.02233065
#
# Stress axis : x y z
#
# Youngs Moduli (GPa) = 77.64803 81.38861 130.84909
#
# Poissons Ratio (x) = 0.25465 0.37484
# Poissons Ratio (y) = 0.24295 -0.09879
# Poissons Ratio (z) = 0.22244 -0.06145
#
# Static dielectric constant tensor:
#      x y z
#    x 3.721350 0.000000 0.000000 
#    y 0.000000 3.698540 0.000000 
#    z 0.000000 0.000000 2.915680 
# 
# 
# High freq. dielectric constant tensor:
#      x y z
#    x 1.780610 0.000000 0.000000 
#    y 0.000000 1.811670 0.000000 
#    z 0.000000 0.000000 1.784530 
# 
# From -- ./inp_files/16289.got.cif
#   From: 2010.06.25/outbox.cif.g09.slc.cpg/sg48_9_cif.got.tgz:16289.got - 2010.06.26 18:06:46.
