data_PCOD8201652
_publ_section_title
;
Structure prediction by ZEFSAII (Michael W. Deem and Ramdas Pophale) SiO2 
 PCOD8201652
Probable space group: P N N N
;
_chemical_formula_sum "Si O2"
_cell_formula_units_Z 58
_cell_length_a 12.176632
_cell_length_b 25.922531
_cell_length_c 9.048491
_cell_angle_alpha 90.000000
_cell_angle_beta 90.000000
_cell_angle_gamma 90.000000
_cell_volume 2856.148226
_symmetry_space_group_name_H-M "P N N N"
_symmetry_group_IT_number 48
_space_group.IT_coordinate_system_code '2'
_symmetry_cell_setting 'orthorhombic'
loop_
_space_group_symop_operation_xyz
x,y,z
1/2-x,1/2-y,z
x,1/2-y,1/2-z
1/2-x,y,1/2-z
-x,-y,-z
1/2+x,1/2+y,-z
-x,1/2+y,1/2+z
1/2+x,-y,1/2+z
loop_
_atom_site_type_symbol
_atom_site_label
_atom_site_fract_x
_atom_site_fract_y
_atom_site_fract_z
Si Si1 0.655590 0.925885 0.532356
Si Si2 0.637658 0.304083 0.176191
Si Si3 0.124101 0.003446 0.781271
Si Si4 0.492836 0.901324 0.768664
Si Si5 0.856671 0.195500 0.827321
Si Si6 0.750000 0.750000 0.250000
Si Si7 0.098858 0.160486 0.814174
Si Si8 0.106942 0.085351 0.557760
O O1 0.600547 0.974403 0.445431
O O2 0.605119 0.922533 0.695542
O O3 0.620138 0.872922 0.456900
O O4 0.786783 0.931027 0.537877
O O5 0.600700 0.250000 0.250000
O O6 0.750000 0.323787 0.250000
O O7 0.543314 0.345997 0.206610
O O8 0.659353 0.297239 0.002519
O O9 0.250000 0.015374 0.750000
O O10 0.060415 0.037760 0.657160
O O11 0.100542 0.943159 0.768754
O O12 0.511700 0.897749 0.944372
O O13 0.869024 0.250000 0.750000
O O14 0.750000 0.167688 0.750000
O O15 0.967906 0.165080 0.794988
O O16 0.834093 0.786287 0.157931
O O17 0.141444 0.132971 0.664033
#
# Coordination Sequence:
#
# PCOD8201652 Si02
#       8
#     8   8   8   8   8   2   8   8
#     4  10  20  41  58  87 121 160 195 256 314 359
#     4  11  25  42  59  86 129 164 197 250 316 357
#     4   9  20  40  62  85 118 159 206 250 305 372
#     4  12  22  36  64  91 120 160 201 252 305 377
#     4  11  23  39  64  85 118 162 216 252 300 361
#     4  12  20  36  70  86 120 156 228 240 294 356
#     4  11  21  38  61  90 116 163 207 257 294 361
#     4  10  22  37  62  87 126 156 200 248 319 362
#
# _framework density 20.30707
#
# number of rings (size 3 to 8) (size 9 to 14) (size 15 to 20)
#    0.000    1.379    3.448    4.138    3.862    0.000 
#    0.000    0.000    0.000    1.655    0.000    0.000 
#    0.000    0.000    0.000    0.000    0.000    0.000 
#
# Total GULP energy -718943.366310 kJ/mol
# GULP energy per Si atom -12395.575281 kJ/mol
# Density = 2.026085 g / cm^3
# Si number density = 20.307070 Si / 1000 Ang^3
#
#
#
# Elastic Constant Matrix: (Units=GPa)
#
#
# Indices 1 2 3 4 5 6 
#
# 1 67.6768 18.1280 13.7765 0.0000 0.0000 0.0000
# 2 18.1280 99.6094 28.9821 0.0000 0.0000 0.0000
# 3 13.7765 28.9821 114.8959 0.0000 0.0000 0.0000
# 4 0.0000 0.0000 0.0000 11.1774 0.0000 0.0000
# 5 0.0000 0.0000 0.0000 0.0000 32.3152 0.0000
# 6 0.0000 0.0000 0.0000 0.0000 0.0000 23.0438
#
#
#
# Elastic Compliance Matrix: (Units=1/GPa)
#
#
# Indices 1 2 3 4 5 6 
#
# 1 0.015699 -0.002492 -0.001254 0.000000 0.000000 0.000000
# 2 -0.002492 0.011230 -0.002534 0.000000 0.000000 0.000000
# 3 -0.001254 -0.002534 0.009493 0.000000 0.000000 0.000000
# 4 0.000000 0.000000 0.000000 0.089466 0.000000 0.000000
# 5 0.000000 0.000000 0.000000 0.000000 0.030945 0.000000
# 6 0.000000 0.000000 0.000000 0.000000 0.000000 0.043396
#
#
# Mechanical properties :
#
#
# Convention : Reuss Voigt Hill
#
# Bulk Modulus (GPa) = 41.90727 44.88391 43.39559
# Shear Modulus (GPa) = 22.65077 28.06031 25.35554
#
# Velocity S-wave (km/s) = 3.34340 3.72129 3.53740
# Velocity P-wave (km/s) = 5.96540 6.37296 6.17255
#
# Compressibility (1/GPa) = 0.02386221
#
# Stress axis : x y z
#
# Youngs Moduli (GPa) = 63.69870 89.04682 105.34053
#
# Poissons Ratio (x) = 0.22193 0.13207
# Poissons Ratio (y) = 0.15876 0.26692
# Poissons Ratio (z) = 0.07986 0.22564
#
# Static dielectric constant tensor:
#      x y z
#    x 3.893970 0.000000 0.000000 
#    y 0.000000 3.533820 0.000000 
#    z 0.000000 0.000000 3.680300 
# 
# 
# High freq. dielectric constant tensor:
#      x y z
#    x 1.792780 0.000000 0.000000 
#    y 0.000000 1.785010 0.000000 
#    z 0.000000 0.000000 1.794010 
# 
# From -- ./inp_files/11481.got.cif
#   From: 2010.06.25/outbox.cif.g09.slc.cpg/sg48_6_cif.got.tgz:11481.got - 2010.06.26 18:06:46.
