data_PCOD8201980
_publ_section_title
;
Structure prediction by ZEFSAII (Michael W. Deem and Ramdas Pophale) SiO2 
 PCOD8201980
Probable space group: P N N N
;
_chemical_formula_sum "Si O2"
_cell_formula_units_Z 26
_cell_length_a 5.467576
_cell_length_b 7.541403
_cell_length_c 22.387274
_cell_angle_alpha 90.000000
_cell_angle_beta 90.000000
_cell_angle_gamma 90.000000
_cell_volume 923.098813
_symmetry_space_group_name_H-M "P N N N"
_symmetry_group_IT_number 48
_space_group.IT_coordinate_system_code '2'
_symmetry_cell_setting 'orthorhombic'
loop_
_space_group_symop_operation_xyz
x,y,z
1/2-x,1/2-y,z
x,1/2-y,1/2-z
1/2-x,y,1/2-z
-x,-y,-z
1/2+x,1/2+y,-z
-x,1/2+y,1/2+z
1/2+x,-y,1/2+z
loop_
_atom_site_type_symbol
_atom_site_label
_atom_site_fract_x
_atom_site_fract_y
_atom_site_fract_z
Si Si1 0.405478 0.030924 0.422093
Si Si2 0.750000 0.250000 0.250000
Si Si3 0.750000 0.750000 0.124771
Si Si4 0.893466 0.013824 0.690933
Si Si5 0.750000 0.250000 0.008124
O O1 0.650312 0.909430 0.415884
O O2 0.288426 0.069677 0.358103
O O3 0.218246 0.923959 0.465678
O O4 0.505768 0.216458 0.450831
O O5 0.590745 0.365156 0.294845
O O6 0.523811 0.809769 0.166484
O O7 0.750000 0.068514 0.750000
#
# Coordination Sequence:
#
# PCOD8201980 Si02
#       5
#     8   2   4   8   4
#     4  11  25  50  82 120 160 214 264 337 401 482
#     4  12  30  48  80 110 160 206 260 332 402 488
#     4  12  26  47  80 118 158 206 263 324 414 484
#     4  12  28  51  78 115 158 205 267 336 405 483
#     4  10  24  53  81 119 164 212 271 328 396 490
#
# _framework density 28.165998999999999
#
# number of rings (size 3 to 8) (size 9 to 14) (size 15 to 20)
#    0.000    0.615    3.077    2.308    0.000   17.846 
#    0.000    0.000    0.000    1.846    0.000    0.000 
#    0.000    0.000    0.000    0.000    0.000    0.000 
#
# Total GULP energy -322569.189114 kJ/mol
# GULP energy per Si atom -12406.507274 kJ/mol
# Density = 2.810189 g / cm^3
# Si number density = 28.165999 Si / 1000 Ang^3
#
#
#
# Elastic Constant Matrix: (Units=GPa)
#
#
# Indices 1 2 3 4 5 6 
#
# 1 133.9874 50.4164 79.0523 0.0000 0.0000 0.0000
# 2 50.4164 130.5939 47.9668 0.0000 0.0000 0.0000
# 3 79.0523 47.9668 207.6408 0.0000 0.0000 0.0000
# 4 0.0000 0.0000 0.0000 23.3211 0.0000 0.0000
# 5 0.0000 0.0000 0.0000 0.0000 29.4048 0.0000
# 6 0.0000 0.0000 0.0000 0.0000 0.0000 53.3807
#
#
#
# Elastic Compliance Matrix: (Units=1/GPa)
#
#
# Indices 1 2 3 4 5 6 
#
# 1 0.010500 -0.002825 -0.003345 0.000000 0.000000 0.000000
# 2 -0.002825 0.009127 -0.001033 0.000000 0.000000 0.000000
# 3 -0.003345 -0.001033 0.006328 0.000000 0.000000 0.000000
# 4 0.000000 0.000000 0.000000 0.042880 0.000000 0.000000
# 5 0.000000 0.000000 0.000000 0.000000 0.034008 0.000000
# 6 0.000000 0.000000 0.000000 0.000000 0.000000 0.018733
#
#
# Mechanical properties :
#
#
# Convention : Reuss Voigt Hill
#
# Bulk Modulus (GPa) = 86.58287 91.89923 89.24105
# Shear Modulus (GPa) = 35.75729 40.87378 38.31554
#
# Velocity S-wave (km/s) = 3.56690 3.81356 3.69229
# Velocity P-wave (km/s) = 6.91163 7.21731 7.06612
#
# Compressibility (1/GPa) = 0.01154963
#
# Stress axis : x y z
#
# Youngs Moduli (GPa) = 95.23970 109.56114 158.02567
#
# Poissons Ratio (x) = 0.30950 0.52858
# Poissons Ratio (y) = 0.26905 0.16324
# Poissons Ratio (z) = 0.31856 0.11317
#
# Static dielectric constant tensor:
#      x y z
#    x 5.213960 0.000000 0.000000 
#    y 0.000000 5.276360 0.000000 
#    z 0.000000 0.000000 5.012170 
# 
# 
# High freq. dielectric constant tensor:
#      x y z
#    x 2.141960 0.000000 0.000000 
#    y 0.000000 2.142110 0.000000 
#    z 0.000000 0.000000 2.157910 
# 
# From -- ./inp_files/35115.got.cif
#   From: 2010.06.25/outbox.cif.g09.slc.cpg/sg48_18_cif.got.tgz:35115.got - 2010.06.26 18:06:46.
