data_PCOD8201662
_publ_section_title
;
Structure prediction by ZEFSAII (Michael W. Deem and Ramdas Pophale) SiO2 
 PCOD8201662
Probable space group: P N N N
;
_chemical_formula_sum "Si O2"
_cell_formula_units_Z 58
_cell_length_a 8.709109
_cell_length_b 26.205378
_cell_length_c 11.944714
_cell_angle_alpha 90.000000
_cell_angle_beta 90.000000
_cell_angle_gamma 90.000000
_cell_volume 2726.088246
_symmetry_space_group_name_H-M "P N N N"
_symmetry_group_IT_number 48
_space_group.IT_coordinate_system_code '2'
_symmetry_cell_setting 'orthorhombic'
loop_
_space_group_symop_operation_xyz
x,y,z
1/2-x,1/2-y,z
x,1/2-y,1/2-z
1/2-x,y,1/2-z
-x,-y,-z
1/2+x,1/2+y,-z
-x,1/2+y,1/2+z
1/2+x,-y,1/2+z
loop_
_atom_site_type_symbol
_atom_site_label
_atom_site_fract_x
_atom_site_fract_y
_atom_site_fract_z
Si Si1 0.750000 0.250000 0.750000
Si Si2 0.596860 0.861295 0.385238
Si Si3 0.652854 0.192986 0.353466
Si Si4 0.856546 0.395965 0.052343
Si Si5 0.568405 0.887515 0.739167
Si Si6 0.557947 0.647043 0.370347
Si Si7 0.552637 0.055046 0.462540
Si Si8 0.031047 0.739503 0.438869
O O1 0.855963 0.280785 0.661530
O O2 0.774793 0.875965 0.395077
O O3 0.530430 0.856788 0.260763
O O4 0.494946 0.902875 0.446747
O O5 0.593107 0.805643 0.444327
O O6 0.750000 0.215098 0.250000
O O7 0.750734 0.152400 0.422351
O O8 0.499209 0.165782 0.306822
O O9 0.611032 0.239975 0.437716
O O10 0.990293 0.402934 0.143518
O O11 0.739240 0.444025 0.049690
O O12 0.934696 0.388523 0.931861
O O13 0.750000 0.880917 0.750000
O O14 0.529429 0.933482 0.655077
O O15 0.540733 0.705738 0.411431
O O16 0.500000 0.000000 0.500000
#
# Coordination Sequence:
#
# PCOD8201662 Si02
#       8
#     2   8   8   8   8   8   8   8
#     4  12  24  32  60 100 124 184 230 270 332 404
#     4  11  23  43  63  93 146 176 226 279 335 408
#     4   9  20  38  62  94 130 177 221 276 318 389
#     4  10  21  41  68  95 132 171 226 277 333 403
#     4  10  20  42  70  94 131 176 220 277 345 397
#     4  11  24  40  65 101 134 184 220 278 340 406
#     4  11  24  46  71  98 129 174 226 287 348 402
#     4  12  21  37  66  93 139 180 227 272 333 403
#
# _framework density 21.275908000000001
#
# number of rings (size 3 to 8) (size 9 to 14) (size 15 to 20)
#    0.000    1.379    4.138    3.310    0.000    1.655 
#    7.448   10.690    0.000    0.828    0.000    0.000 
#    0.000    0.000    0.000    0.000    0.000    0.000 
#
# Total GULP energy -718840.998252 kJ/mol
# GULP energy per Si atom -12393.810315 kJ/mol
# Density = 2.122748 g / cm^3
# Si number density = 21.275908 Si / 1000 Ang^3
#
#
#
# Elastic Constant Matrix: (Units=GPa)
#
#
# Indices 1 2 3 4 5 6 
#
# 1 153.3380 40.5632 67.3036 0.0000 0.0000 0.0000
# 2 40.5632 85.5344 35.7092 0.0000 0.0000 0.0000
# 3 67.3036 35.7092 147.3458 0.0000 0.0000 0.0000
# 4 0.0000 0.0000 0.0000 24.1035 0.0000 0.0000
# 5 0.0000 0.0000 0.0000 0.0000 40.0481 0.0000
# 6 0.0000 0.0000 0.0000 0.0000 0.0000 19.5882
#
#
#
# Elastic Compliance Matrix: (Units=1/GPa)
#
#
# Indices 1 2 3 4 5 6 
#
# 1 0.008700 -0.002744 -0.003309 0.000000 0.000000 0.000000
# 2 -0.002744 0.013873 -0.002109 0.000000 0.000000 0.000000
# 3 -0.003309 -0.002109 0.008809 0.000000 0.000000 0.000000
# 4 0.000000 0.000000 0.000000 0.041488 0.000000 0.000000
# 5 0.000000 0.000000 0.000000 0.000000 0.024970 0.000000
# 6 0.000000 0.000000 0.000000 0.000000 0.000000 0.051051
#
#
# Mechanical properties :
#
#
# Convention : Reuss Voigt Hill
#
# Bulk Modulus (GPa) = 66.40750 74.81889 70.61319
# Shear Modulus (GPa) = 29.37140 32.92411 31.14775
#
# Velocity S-wave (km/s) = 3.71954 3.93807 3.83037
# Velocity P-wave (km/s) = 7.05173 7.47798 7.26798
#
# Compressibility (1/GPa) = 0.01505854
#
# Stress axis : x y z
#
# Youngs Moduli (GPa) = 114.94510 72.08267 113.51900
#
# Poissons Ratio (x) = 0.19782 0.37560
# Poissons Ratio (y) = 0.31545 0.23936
# Poissons Ratio (z) = 0.38032 0.15199
#
# Static dielectric constant tensor:
#      x y z
#    x 4.130140 0.000000 0.000000 
#    y 0.000000 3.512860 0.000000 
#    z 0.000000 0.000000 4.163670 
# 
# 
# High freq. dielectric constant tensor:
#      x y z
#    x 1.845550 0.000000 0.000000 
#    y 0.000000 1.793580 0.000000 
#    z 0.000000 0.000000 1.855190 
# 
# From -- ./inp_files/18964.got.cif
#   From: 2010.06.25/outbox.cif.g09.slc.cpg/sg48_10_cif.got.tgz:18964.got - 2010.06.26 18:06:46.
