data_PCOD8201478
_publ_section_title
;
Structure prediction by ZEFSAII (Michael W. Deem and Ramdas Pophale) SiO2 
 PCOD8201478
Probable space group: P N N N
;
_chemical_formula_sum "Si O2"
_cell_formula_units_Z 28
_cell_length_a 7.111374
_cell_length_b 10.404248
_cell_length_c 19.004968
_cell_angle_alpha 90.000000
_cell_angle_beta 90.000000
_cell_angle_gamma 90.000000
_cell_volume 1406.149050
_symmetry_space_group_name_H-M "P N N N"
_symmetry_group_IT_number 48
_space_group.IT_coordinate_system_code '2'
_symmetry_cell_setting 'orthorhombic'
loop_
_space_group_symop_operation_xyz
x,y,z
1/2-x,1/2-y,z
x,1/2-y,1/2-z
1/2-x,y,1/2-z
-x,-y,-z
1/2+x,1/2+y,-z
-x,1/2+y,1/2+z
1/2+x,-y,1/2+z
loop_
_atom_site_type_symbol
_atom_site_label
_atom_site_fract_x
_atom_site_fract_y
_atom_site_fract_z
Si Si1 0.096694 0.990788 0.425304
Si Si2 0.750000 0.750000 0.966927
Si Si3 0.263345 0.097365 0.828544
Si Si4 0.976849 0.393085 0.557458
O O1 0.201473 0.129706 0.416089
O O2 0.255579 0.878134 0.424374
O O3 0.000000 0.000000 0.500000
O O4 0.954218 0.957974 0.362781
O O5 0.573568 0.732483 0.022061
O O6 0.250000 0.250000 0.825657
O O7 0.250000 0.039494 0.750000
O O8 0.084214 0.053930 0.873659
O O9 0.000000 0.500000 0.500000
#
# Coordination Sequence:
#
# PCOD8201478 Si02
#       4
#     8   4   8   8
#     4  11  21  37  62  93 123 162 210 260 306 378
#     4  10  20  36  61  95 120 160 216 258 306 368
#     4  11  23  40  60  92 129 157 200 262 323 378
#     4  10  19  38  60  91 120 158 209 255 304 371
#
# _framework density 19.912541000000001
#
# number of rings (size 3 to 8) (size 9 to 14) (size 15 to 20)
#    0.000    1.429    7.143    0.000    0.000    5.714 
#    0.000    2.857    0.000   20.571    0.000    0.000 
#    0.000    0.000    0.000    0.000    0.000    0.000 
#
# Total GULP energy -346933.185763 kJ/mol
# GULP energy per Si atom -12390.470920 kJ/mol
# Density = 1.986722 g / cm^3
# Si number density = 19.912541 Si / 1000 Ang^3
#
#
#
# Elastic Constant Matrix: (Units=GPa)
#
#
# Indices 1 2 3 4 5 6 
#
# 1 180.7684 33.9968 71.7160 0.0000 0.0000 0.0000
# 2 33.9968 71.8455 29.4894 0.0000 0.0000 0.0000
# 3 71.7160 29.4894 159.4123 0.0000 0.0000 0.0000
# 4 0.0000 0.0000 0.0000 22.2677 0.0000 0.0000
# 5 0.0000 0.0000 0.0000 0.0000 29.5598 0.0000
# 6 0.0000 0.0000 0.0000 0.0000 0.0000 33.9833
#
#
#
# Elastic Compliance Matrix: (Units=1/GPa)
#
#
# Indices 1 2 3 4 5 6 
#
# 1 0.007041 -0.002198 -0.002761 0.000000 0.000000 0.000000
# 2 -0.002198 0.015749 -0.001924 0.000000 0.000000 0.000000
# 3 -0.002761 -0.001924 0.007871 0.000000 0.000000 0.000000
# 4 0.000000 0.000000 0.000000 0.044908 0.000000 0.000000
# 5 0.000000 0.000000 0.000000 0.000000 0.033830 0.000000
# 6 0.000000 0.000000 0.000000 0.000000 0.000000 0.029426
#
#
# Mechanical properties :
#
#
# Convention : Reuss Voigt Hill
#
# Bulk Modulus (GPa) = 59.19421 75.82562 67.50991
# Shear Modulus (GPa) = 31.60101 35.61710 33.60905
#
# Velocity S-wave (km/s) = 3.98803 4.23386 4.11278
# Velocity P-wave (km/s) = 7.14125 7.87799 7.51865
#
# Compressibility (1/GPa) = 0.01689354
#
# Stress axis : x y z
#
# Youngs Moduli (GPa) = 142.03207 63.49654 127.04828
#
# Poissons Ratio (x) = 0.13959 0.35075
# Poissons Ratio (y) = 0.31225 0.24448
# Poissons Ratio (z) = 0.39212 0.12219
#
# Static dielectric constant tensor:
#      x y z
#    x 4.733270 0.000000 0.000000 
#    y 0.000000 4.272760 0.000000 
#    z 0.000000 0.000000 3.758300 
# 
# 
# High freq. dielectric constant tensor:
#      x y z
#    x 1.795590 0.000000 0.000000 
#    y 0.000000 1.771300 0.000000 
#    z 0.000000 0.000000 1.749810 
# 
# From -- ./inp_files/29903.got.cif
#   From: 2010.06.25/outbox.cif.g09.slc.cpg/sg48_15_cif.got.tgz:29903.got - 2010.06.26 18:06:46.
