data_PCOD8201690
_publ_section_title
;
Structure prediction by ZEFSAII (Michael W. Deem and Ramdas Pophale) SiO2 
 PCOD8201690
Probable space group: P N N N
;
_chemical_formula_sum "Si O2"
_cell_formula_units_Z 44
_cell_length_a 13.619176
_cell_length_b 18.195740
_cell_length_c 8.469325
_cell_angle_alpha 90.000000
_cell_angle_beta 90.000000
_cell_angle_gamma 90.000000
_cell_volume 2098.791775
_symmetry_space_group_name_H-M "P N N N"
_symmetry_group_IT_number 48
_space_group.IT_coordinate_system_code '2'
_symmetry_cell_setting 'orthorhombic'
loop_
_space_group_symop_operation_xyz
x,y,z
1/2-x,1/2-y,z
x,1/2-y,1/2-z
1/2-x,y,1/2-z
-x,-y,-z
1/2+x,1/2+y,-z
-x,1/2+y,1/2+z
1/2+x,-y,1/2+z
loop_
_atom_site_type_symbol
_atom_site_label
_atom_site_fract_x
_atom_site_fract_y
_atom_site_fract_z
Si Si1 0.661014 0.646439 0.996931
Si Si2 0.340981 0.617013 0.643054
Si Si3 0.364086 0.751857 0.076104
Si Si4 0.442204 0.895985 0.553217
Si Si5 0.250000 0.250000 0.750000
Si Si6 0.223906 0.991784 0.068424
Si Si7 0.250000 0.250000 0.250000
O O1 0.554282 0.609538 0.998225
O O2 0.733573 0.576847 0.983906
O O3 0.676071 0.699758 0.849109
O O4 0.679926 0.696194 0.150283
O O5 0.250000 0.647728 0.750000
O O6 0.390266 0.676617 0.527012
O O7 0.427534 0.588475 0.759358
O O8 0.302874 0.549466 0.539003
O O9 0.250000 0.750000 0.106679
O O10 0.416113 0.750000 0.250000
O O11 0.392737 0.682011 0.976108
O O12 0.386437 0.959442 0.454525
O O13 0.250000 0.981049 0.250000
#
# Coordination Sequence:
#
# PCOD8201690 Si02
#       7
#     8   8   8   8   2   8   2
#     4  11  25  48  71  93 126 172 236 279 326 387
#     4  10  21  35  59  97 135 175 205 257 338 400
#     4  11  20  34  57  94 139 175 205 255 330 405
#     4  11  24  37  68 102 133 167 222 272 323 405
#     4  10  28  50  76  90 122 180 228 290 336 378
#     4  11  22  43  66  96 140 177 210 267 344 398
#     4  10  24  50  68  90 118 184 224 278 340 366
#
# _framework density 20.964444
#
# number of rings (size 3 to 8) (size 9 to 14) (size 15 to 20)
#    0.000    1.273    4.545    2.182    7.636    0.000 
#    0.000    0.909    0.000    0.000    0.000    0.000 
#    0.000    0.000    0.000    0.000    0.000    0.000 
#
# Total GULP energy -545454.140094 kJ/mol
# GULP energy per Si atom -12396.685002 kJ/mol
# Density = 2.091673 g / cm^3
# Si number density = 20.964444 Si / 1000 Ang^3
#
#
#
# Elastic Constant Matrix: (Units=GPa)
#
#
# Indices 1 2 3 4 5 6 
#
# 1 65.6618 28.0584 44.2891 0.0000 0.0000 0.0000
# 2 28.0584 151.6459 68.8619 0.0000 0.0000 0.0000
# 3 44.2891 68.8619 168.6908 0.0000 0.0000 0.0000
# 4 0.0000 0.0000 0.0000 -12.4543 0.0000 0.0000
# 5 0.0000 0.0000 0.0000 0.0000 18.6865 0.0000
# 6 0.0000 0.0000 0.0000 0.0000 0.0000 2.6063
#
#
#
# Elastic Compliance Matrix: (Units=1/GPa)
#
#
# Indices 1 2 3 4 5 6 
#
# 1 0.018787 -0.001518 -0.004313 0.000000 0.000000 0.000000
# 2 -0.001518 0.008217 -0.002956 0.000000 0.000000 0.000000
# 3 -0.004313 -0.002956 0.008267 0.000000 0.000000 0.000000
# 4 0.000000 0.000000 0.000000 -0.080294 0.000000 0.000000
# 5 0.000000 0.000000 0.000000 0.000000 0.053515 0.000000
# 6 0.000000 0.000000 0.000000 0.000000 0.000000 0.383692
#
#
# Mechanical properties :
#
#
# Convention : Reuss Voigt Hill
#
# Bulk Modulus (GPa) = 56.50222 74.26859 65.38540
# Shear Modulus (GPa) = 12.02913 18.08697 15.05805
#
# Velocity S-wave (km/s) = 2.39798 2.94044 2.68296
# Velocity P-wave (km/s) = 5.88872 6.85792 6.39172
#
# Compressibility (1/GPa) = 0.01769842
#
# Stress axis : x y z
#
# Youngs Moduli (GPa) = 53.22785 121.69262 120.96200
#
# Poissons Ratio (x) = 0.18468 0.52171
# Poissons Ratio (y) = 0.08078 0.35757
# Poissons Ratio (z) = 0.22957 0.35973
#
# Static dielectric constant tensor:
#      x y z
#    x 3.346320 0.000000 0.000000 
#    y 0.000000 3.864430 0.000000 
#    z 0.000000 0.000000 4.189550 
# 
# 
# High freq. dielectric constant tensor:
#      x y z
#    x 1.784560 0.000000 0.000000 
#    y 0.000000 1.833200 0.000000 
#    z 0.000000 0.000000 1.837150 
# 
# From -- ./inp_files/12702.got.cif
#   From: 2010.06.25/outbox.cif.g09.slc.cpg/sg48_7_cif.got.tgz:12702.got - 2010.06.26 18:06:46.
