data_PCOD8201641
_publ_section_title
;
Structure prediction by ZEFSAII (Michael W. Deem and Ramdas Pophale) SiO2 
 PCOD8201641
Probable space group: P N N N
;
_chemical_formula_sum "Si O2"
_cell_formula_units_Z 48
_cell_length_a 27.277069
_cell_length_b 9.664105
_cell_length_c 9.241817
_cell_angle_alpha 90.000000
_cell_angle_beta 90.000000
_cell_angle_gamma 90.000000
_cell_volume 2436.221137
_symmetry_space_group_name_H-M "P N N N"
_symmetry_group_IT_number 48
_space_group.IT_coordinate_system_code '2'
_symmetry_cell_setting 'orthorhombic'
loop_
_space_group_symop_operation_xyz
x,y,z
1/2-x,1/2-y,z
x,1/2-y,1/2-z
1/2-x,y,1/2-z
-x,-y,-z
1/2+x,1/2+y,-z
-x,1/2+y,1/2+z
1/2+x,-y,1/2+z
loop_
_atom_site_type_symbol
_atom_site_label
_atom_site_fract_x
_atom_site_fract_y
_atom_site_fract_z
Si Si1 0.542912 0.340979 0.609416
Si Si2 0.201025 0.517431 0.922718
Si Si3 0.456821 0.161166 0.113632
Si Si4 0.846858 0.781224 0.585100
Si Si5 0.811597 0.972217 0.097339
Si Si6 0.630438 0.238097 0.412270
O O1 0.536073 0.250000 0.750000
O O2 0.494648 0.318686 0.515207
O O3 0.548636 0.500320 0.656691
O O4 0.590370 0.290232 0.524013
O O5 0.258732 0.528745 0.951903
O O6 0.188588 0.445762 0.769183
O O7 0.179699 0.671607 0.924025
O O8 0.175407 0.430332 0.048974
O O9 0.475547 0.250000 0.250000
O O10 0.405014 0.219873 0.059128
O O11 0.833456 0.750000 0.750000
O O12 0.821957 0.670821 0.480830
O O13 0.853753 0.081294 0.052030
O O14 0.608529 0.250000 0.250000
#
# Coordination Sequence:
#
# PCOD8201641 Si02
#       6
#     8   8   8   8   8   8
#     4  11  24  42  67  92 120 157 199 247 301 359
#     4  10  20  40  59  88 122 158 206 252 290 352
#     4  10  24  45  62  90 125 157 198 247 298 359
#     4  11  23  39  59  88 123 161 195 249 302 354
#     4  10  22  36  63  88 119 162 206 245 297 351
#     4  10  21  39  62  90 121 159 199 250 301 351
#
# _framework density 19.702645
#
# number of rings (size 3 to 8) (size 9 to 14) (size 15 to 20)
#    0.000    1.667    1.667    2.000    4.667    6.667 
#    3.000    0.000    0.000    3.000    0.000    0.000 
#    0.000    0.000    0.000    0.000    0.000    0.000 
#
# Total GULP energy -595418.129116 kJ/mol
# GULP energy per Si atom -12404.544357 kJ/mol
# Density = 1.965780 g / cm^3
# Si number density = 19.702645 Si / 1000 Ang^3
#
#
#
# Elastic Constant Matrix: (Units=GPa)
#
#
# Indices 1 2 3 4 5 6 
#
# 1 77.9389 20.6950 41.9096 0.0000 0.0000 0.0000
# 2 20.6950 87.4942 47.6775 0.0000 0.0000 0.0000
# 3 41.9096 47.6775 93.4629 0.0000 0.0000 0.0000
# 4 0.0000 0.0000 0.0000 36.1092 0.0000 0.0000
# 5 0.0000 0.0000 0.0000 0.0000 25.6091 0.0000
# 6 0.0000 0.0000 0.0000 0.0000 0.0000 21.3613
#
#
#
# Elastic Compliance Matrix: (Units=1/GPa)
#
#
# Indices 1 2 3 4 5 6 
#
# 1 0.016909 0.000183 -0.007676 0.000000 0.000000 0.000000
# 2 0.000183 0.015832 -0.008158 0.000000 0.000000 0.000000
# 3 -0.007676 -0.008158 0.018303 0.000000 0.000000 0.000000
# 4 0.000000 0.000000 0.000000 0.027694 0.000000 0.000000
# 5 0.000000 0.000000 0.000000 0.000000 0.039049 0.000000
# 6 0.000000 0.000000 0.000000 0.000000 0.000000 0.046814
#
#
# Mechanical properties :
#
#
# Convention : Reuss Voigt Hill
#
# Bulk Modulus (GPa) = 50.65248 53.27334 51.96291
# Shear Modulus (GPa) = 24.69353 26.52351 25.60852
#
# Velocity S-wave (km/s) = 3.54405 3.67303 3.60912
# Velocity P-wave (km/s) = 6.52007 6.71458 6.61804
#
# Compressibility (1/GPa) = 0.01974237
#
# Stress axis : x y z
#
# Youngs Moduli (GPa) = 59.13880 63.16495 54.63605
#
# Poissons Ratio (x) = -0.01157 0.41937
# Poissons Ratio (y) = -0.01083 0.44573
# Poissons Ratio (z) = 0.45393 0.51531
#
# Static dielectric constant tensor:
#      x y z
#    x 3.594100 0.000000 0.000000 
#    y 0.000000 3.636940 0.000000 
#    z 0.000000 0.000000 3.674910 
# 
# 
# High freq. dielectric constant tensor:
#      x y z
#    x 1.777340 0.000000 0.000000 
#    y 0.000000 1.777060 0.000000 
#    z 0.000000 0.000000 1.762100 
# 
# From -- ./inp_files/9458.got.cif
#   From: 2010.06.25/outbox.cif.g09.slc.cpg/sg48_5_cif.got.tgz:9458.got - 2010.06.26 18:06:46.
