data_PCOD8201958
_publ_section_title
;
Structure prediction by ZEFSAII (Michael W. Deem and Ramdas Pophale) SiO2 
 PCOD8201958
Probable space group: P N N N
;
_chemical_formula_sum "Si O2"
_cell_formula_units_Z 48
_cell_length_a 14.348512
_cell_length_b 17.688513
_cell_length_c 8.800024
_cell_angle_alpha 90.000000
_cell_angle_beta 90.000000
_cell_angle_gamma 90.000000
_cell_volume 2233.479892
_symmetry_space_group_name_H-M "P N N N"
_symmetry_group_IT_number 48
_space_group.IT_coordinate_system_code '2'
_symmetry_cell_setting 'orthorhombic'
loop_
_space_group_symop_operation_xyz
x,y,z
1/2-x,1/2-y,z
x,1/2-y,1/2-z
1/2-x,y,1/2-z
-x,-y,-z
1/2+x,1/2+y,-z
-x,1/2+y,1/2+z
1/2+x,-y,1/2+z
loop_
_atom_site_type_symbol
_atom_site_label
_atom_site_fract_x
_atom_site_fract_y
_atom_site_fract_z
Si Si1 0.265227 0.574681 0.575663
Si Si2 0.737498 0.930613 0.918843
Si Si3 0.948522 0.921574 0.952891
Si Si4 0.076231 0.329087 0.161455
Si Si5 0.095449 0.818515 0.449528
Si Si6 0.895369 0.149925 0.888526
O O1 0.250000 0.559868 0.750000
O O2 0.311893 0.497714 0.512436
O O3 0.336159 0.643749 0.569626
O O4 0.172016 0.591966 0.477316
O O5 0.750000 0.962347 0.750000
O O6 0.839223 0.917473 0.995185
O O7 0.674857 0.854606 0.913375
O O8 0.959490 0.895979 0.775333
O O9 0.999006 0.858444 0.053884
O O10 0.000000 0.000000 0.000000
O O11 0.089895 0.250000 0.250000
O O12 0.007101 0.318985 0.020391
O O13 0.103396 0.865343 0.292126
O O14 0.134993 0.735041 0.423110
#
# Coordination Sequence:
#
# PCOD8201958 Si02
#       6
#     8   8   8   8   8   8
#     4  12  25  40  68 103 143 180 230 291 354 425
#     4  10  24  42  66 101 134 183 227 294 350 409
#     4  11  22  41  73  96 137 178 229 292 349 415
#     4  11  24  46  70 103 136 184 245 286 346 423
#     4  11  25  41  69  98 138 186 229 286 354 423
#     4  11  23  45  66  99 140 183 229 288 357 417
#
# _framework density 21.491128
#
# number of rings (size 3 to 8) (size 9 to 14) (size 15 to 20)
#    0.000    1.000    3.333    3.000    2.333    7.000 
#    0.000    0.000    0.000    2.000    0.000    0.000 
#    0.000    0.000    0.000    0.000    0.000    0.000 
#
# Total GULP energy -594949.320029 kJ/mol
# GULP energy per Si atom -12394.777501 kJ/mol
# Density = 2.144221 g / cm^3
# Si number density = 21.491128 Si / 1000 Ang^3
#
#
#
# Elastic Constant Matrix: (Units=GPa)
#
#
# Indices 1 2 3 4 5 6 
#
# 1 114.6392 53.1901 34.5130 0.0000 0.0000 0.0000
# 2 53.1901 107.7387 53.8443 0.0000 0.0000 0.0000
# 3 34.5130 53.8443 105.9082 0.0000 0.0000 0.0000
# 4 0.0000 0.0000 0.0000 30.7430 0.0000 0.0000
# 5 0.0000 0.0000 0.0000 0.0000 33.4687 0.0000
# 6 0.0000 0.0000 0.0000 0.0000 0.0000 35.5089
#
#
#
# Elastic Compliance Matrix: (Units=1/GPa)
#
#
# Indices 1 2 3 4 5 6 
#
# 1 0.011418 -0.005064 -0.001146 0.000000 0.000000 0.000000
# 2 -0.005064 0.014689 -0.005818 0.000000 0.000000 0.000000
# 3 -0.001146 -0.005818 0.012774 0.000000 0.000000 0.000000
# 4 0.000000 0.000000 0.000000 0.032528 0.000000 0.000000
# 5 0.000000 0.000000 0.000000 0.000000 0.029879 0.000000
# 6 0.000000 0.000000 0.000000 0.000000 0.000000 0.028162
#
#
# Mechanical properties :
#
#
# Convention : Reuss Voigt Hill
#
# Bulk Modulus (GPa) = 67.45661 67.93121 67.69391
# Shear Modulus (GPa) = 31.55637 32.39338 31.97488
#
# Velocity S-wave (km/s) = 3.83606 3.88660 3.86141
# Velocity P-wave (km/s) = 7.14680 7.19850 7.17269
#
# Compressibility (1/GPa) = 0.01482434
#
# Stress axis : x y z
#
# Youngs Moduli (GPa) = 87.58341 68.07626 78.28698
#
# Poissons Ratio (x) = 0.34474 0.08973
# Poissons Ratio (y) = 0.44353 0.45547
# Poissons Ratio (z) = 0.10039 0.39606
#
# Static dielectric constant tensor:
#      x y z
#    x 4.003110 0.000000 0.000000 
#    y 0.000000 3.983620 0.000000 
#    z 0.000000 0.000000 3.864200 
# 
# 
# High freq. dielectric constant tensor:
#      x y z
#    x 1.842750 0.000000 0.000000 
#    y 0.000000 1.849930 0.000000 
#    z 0.000000 0.000000 1.838250 
# 
# From -- ./inp_files/12752.got.cif
#   From: 2010.06.25/outbox.cif.g09.slc.cpg/sg48_7_cif.got.tgz:12752.got - 2010.06.26 18:06:46.
