data_PCOD8201405
_publ_section_title
;
Structure prediction by ZEFSAII (Michael W. Deem and Ramdas Pophale) SiO2 
 PCOD8201405
Probable space group: P N N N
;
_chemical_formula_sum "Si O2"
_cell_formula_units_Z 56
_cell_length_a 14.696780
_cell_length_b 29.620864
_cell_length_c 5.499568
_cell_angle_alpha 90.000000
_cell_angle_beta 90.000000
_cell_angle_gamma 90.000000
_cell_volume 2394.134206
_symmetry_space_group_name_H-M "P N N N"
_symmetry_group_IT_number 48
_space_group.IT_coordinate_system_code '2'
_symmetry_cell_setting 'orthorhombic'
loop_
_space_group_symop_operation_xyz
x,y,z
1/2-x,1/2-y,z
x,1/2-y,1/2-z
1/2-x,y,1/2-z
-x,-y,-z
1/2+x,1/2+y,-z
-x,1/2+y,1/2+z
1/2+x,-y,1/2+z
loop_
_atom_site_type_symbol
_atom_site_label
_atom_site_fract_x
_atom_site_fract_y
_atom_site_fract_z
Si Si1 0.154592 0.169179 0.800867
Si Si2 0.286832 0.699708 0.003398
Si Si3 0.510486 0.296564 0.110813
Si Si4 0.394827 0.509402 0.957026
Si Si5 0.531969 0.877705 0.922138
Si Si6 0.831875 0.919162 0.917074
Si Si7 0.572948 0.460161 0.541332
O O1 0.250000 0.196686 0.750000
O O2 0.110868 0.148971 0.560143
O O3 0.078790 0.198826 0.939689
O O4 0.192155 0.127236 0.954035
O O5 0.250000 0.750000 0.999627
O O6 0.250000 0.676551 0.750000
O O7 0.395861 0.702881 0.037614
O O8 0.250000 0.674905 0.250000
O O9 0.496579 0.250000 0.250000
O O10 0.524757 0.338708 0.290271
O O11 0.347087 0.461206 0.901676
O O12 0.363806 0.531025 0.219358
O O13 0.500000 0.500000 0.000000
O O14 0.372390 0.540423 0.718966
O O15 0.574863 0.912550 0.730999
O O16 0.469641 0.910046 0.089499
O O17 0.750000 0.934200 0.750000
O O18 0.500000 0.500000 0.500000
#
# Coordination Sequence:
#
# PCOD8201405 Si02
#       7
#     8   8   8   8   8   8   8
#     4  11  24  41  67  96 146 195 254 306 364 433
#     4  10  21  42  78 107 136 161 229 300 362 432
#     4  11  26  45  69 109 140 185 248 308 377 451
#     4  10  19  33  60  90 125 164 221 287 352 402
#     4  11  23  39  65  96 134 186 239 297 360 434
#     4  11  21  36  61  96 131 179 247 302 342 428
#     4  10  19  35  61  92 126 165 228 283 356 422
#
# _framework density 23.390499999999999
#
# number of rings (size 3 to 8) (size 9 to 14) (size 15 to 20)
#    0.000    1.429    5.714    1.714    4.000    0.571 
#    0.000    2.143    0.000    2.571    0.000    0.000 
#    0.000    0.000    0.000    0.000    0.000    0.000 
#
# Total GULP energy -693740.290003 kJ/mol
# GULP energy per Si atom -12388.219464 kJ/mol
# Density = 2.333726 g / cm^3
# Si number density = 23.390500 Si / 1000 Ang^3
#
#
#
# Elastic Constant Matrix: (Units=GPa)
#
#
# Indices 1 2 3 4 5 6 
#
# 1 134.8328 43.7885 39.3889 0.0000 0.0000 0.0000
# 2 43.7885 89.8346 22.3443 0.0000 0.0000 0.0000
# 3 39.3889 22.3443 165.2465 0.0000 0.0000 0.0000
# 4 0.0000 0.0000 0.0000 -173.6628 0.0000 0.0000
# 5 0.0000 0.0000 0.0000 0.0000 35.3992 0.0000
# 6 0.0000 0.0000 0.0000 0.0000 0.0000 239.8904
#
#
#
# Elastic Compliance Matrix: (Units=1/GPa)
#
#
# Indices 1 2 3 4 5 6 
#
# 1 0.009225 -0.004087 -0.001646 0.000000 0.000000 0.000000
# 2 -0.004087 0.013330 -0.000828 0.000000 0.000000 0.000000
# 3 -0.001646 -0.000828 0.006556 0.000000 0.000000 0.000000
# 4 0.000000 0.000000 0.000000 -0.005758 0.000000 0.000000
# 5 0.000000 0.000000 0.000000 0.000000 0.028249 0.000000
# 6 0.000000 0.000000 0.000000 0.000000 0.000000 0.004169
#
#
# Mechanical properties :
#
#
# Convention : Reuss Voigt Hill
#
# Bulk Modulus (GPa) = 62.54865 66.77301 64.66083
# Shear Modulus (GPa) = 67.36535 39.28485 53.32510
#
# Velocity S-wave (km/s) = 5.37241 4.10264 4.77988
# Velocity P-wave (km/s) = 8.07978 7.14502 7.62673
#
# Compressibility (1/GPa) = 0.01598756
#
# Stress axis : x y z
#
# Youngs Moduli (GPa) = 108.40318 75.02025 152.53305
#
# Poissons Ratio (x) = 0.30661 0.25110
# Poissons Ratio (y) = 0.44305 0.12633
# Poissons Ratio (z) = 0.17846 0.06213
#
# Static dielectric constant tensor:
#      x y z
#    x 3.858180 0.000000 0.000000 
#    y 0.000000 3.954910 0.000000 
#    z 0.000000 0.000000 1.506590 
# 
# 
# High freq. dielectric constant tensor:
#      x y z
#    x 1.905920 0.000000 0.000000 
#    y 0.000000 1.897580 0.000000 
#    z 0.000000 0.000000 1.940050 
# 
# From -- ./inp_files/3731.got.cif
#   From: 2010.06.25/outbox.cif.g09.slc.cpg/sg48_2_cif.got.tgz:3731.got - 2010.06.26 18:06:46.
