data_PCOD8201003
_publ_section_title
;
Structure prediction by ZEFSAII (Michael W. Deem and Ramdas Pophale) SiO2 
 PCOD8201003
Probable space group: P M M M
;
_chemical_formula_sum "Si O2"
_cell_formula_units_Z 36
_cell_length_a 23.350661
_cell_length_b 9.604148
_cell_length_c 9.713741
_cell_angle_alpha 90.000000
_cell_angle_beta 90.000000
_cell_angle_gamma 90.000000
_cell_volume 2178.434681
_symmetry_space_group_name_H-M "P M M M"
_symmetry_group_IT_number 47
_symmetry_cell_setting 'orthorhombic'
loop_
_space_group_symop_operation_xyz
x,y,z
-x,-y,z
x,-y,-z
-x,y,-z
-x,-y,-z
x,y,-z
-x,y,z
x,-y,z
loop_
_atom_site_type_symbol
_atom_site_label
_atom_site_fract_x
_atom_site_fract_y
_atom_site_fract_z
Si Si1 0.563163 0.843714 0.163510
Si Si2 0.229461 0.665497 0.653197
Si Si3 0.896761 0.344379 0.336274
Si Si4 0.667715 0.337184 0.159811
Si Si5 0.000000 0.842598 0.664381
O O1 0.500000 0.798466 0.217777
O O2 0.611448 0.739165 0.219836
O O3 0.577190 0.000000 0.214249
O O4 0.562836 0.838632 0.000000
O O5 0.241402 0.725711 0.500000
O O6 0.230667 0.500000 0.647163
O O7 0.166405 0.710907 0.706915
O O8 0.277478 0.721476 0.757789
O O9 0.899797 0.351816 0.500000
O O10 0.908436 0.500000 0.277125
O O11 0.944021 0.237536 0.278382
O O12 0.658370 0.500000 0.184823
O O13 0.678056 0.302972 0.000000
O O14 0.000000 0.843296 0.500000
O O15 0.000000 0.000000 0.721906
#
# Coordination Sequence:
#
# PCOD8201003 Si02
#       5
#     8   8   8   8   4
#     4   8  14  25  40  57  78 104 131 158 191 232
#     4   8  14  25  40  57  79 107 133 155 186 232
#     4   8  13  22  36  51  68  96 131 156 177 219
#     4   9  16  25  40  63  84  99 123 163 201 226
#     4   9  15  21  31  51  78  99 116 152 202 231
#
# _framework density 16.525627
#
# number of rings (size 3 to 8) (size 9 to 14) (size 15 to 20)
#    0.000    3.667    0.000    2.333    0.000    1.778 
#    0.000    3.333    0.000    2.667    0.000    5.444 
#    0.000    6.222    0.000    0.000    0.000    0.000 
#
# Total GULP energy -446087.103612 kJ/mol
# GULP energy per Si atom -12391.308434 kJ/mol
# Density = 1.648801 g / cm^3
# Si number density = 16.525627 Si / 1000 Ang^3
#
#
#
# Elastic Constant Matrix: (Units=GPa)
#
#
# Indices 1 2 3 4 5 6 
#
# 1 186.4276 75.2503 41.2185 0.0000 0.0000 0.0000
# 2 75.2503 73.5665 20.0403 0.0000 0.0000 0.0000
# 3 41.2185 20.0403 27.3147 0.0000 0.0000 0.0000
# 4 0.0000 0.0000 0.0000 6.9118 0.0000 0.0000
# 5 0.0000 0.0000 0.0000 0.0000 17.8840 0.0000
# 6 0.0000 0.0000 0.0000 0.0000 0.0000 12.6001
#
#
#
# Elastic Compliance Matrix: (Units=1/GPa)
#
#
# Indices 1 2 3 4 5 6 
#
# 1 0.011134 -0.008514 -0.010556 0.000000 0.000000 0.000000
# 2 -0.008514 0.023498 -0.004393 0.000000 0.000000 0.000000
# 3 -0.010556 -0.004393 0.055762 0.000000 0.000000 0.000000
# 4 0.000000 0.000000 0.000000 0.144679 0.000000 0.000000
# 5 0.000000 0.000000 0.000000 0.000000 0.055916 0.000000
# 6 0.000000 0.000000 0.000000 0.000000 0.000000 0.079365
#
#
# Mechanical properties :
#
#
# Convention : Reuss Voigt Hill
#
# Bulk Modulus (GPa) = 23.00421 62.25854 42.63138
# Shear Modulus (GPa) = 11.58025 17.53248 14.55637
#
# Velocity S-wave (km/s) = 2.65003 3.26072 2.97111
# Velocity P-wave (km/s) = 4.82847 7.20639 6.13377
#
# Compressibility (1/GPa) = 0.04347030
#
# Stress axis : x y z
#
# Youngs Moduli (GPa) = 89.81224 42.55606 17.93332
#
# Poissons Ratio (x) = 0.36231 0.18930
# Poissons Ratio (y) = 0.76464 0.07878
# Poissons Ratio (z) = 0.94803 0.18695
#
# Static dielectric constant tensor:
#      x y z
#    x 3.671780 0.000000 0.000000 
#    y 0.000000 3.042290 0.000000 
#    z 0.000000 0.000000 2.668410 
# 
# 
# High freq. dielectric constant tensor:
#      x y z
#    x 1.654850 0.000000 0.000000 
#    y 0.000000 1.612480 0.000000 
#    z 0.000000 0.000000 1.569330 
# 
# From -- ./inp_files/10573.got.cif
#   From: 2010.03.12/outbox.cif.g09.slc.cpg/sg47_6_cif.got.tgz:10573.got - 2010.04.14 03:12:58.
