data_PCOD8201023
_publ_section_title
;
Structure prediction by ZEFSAII (Michael W. Deem and Ramdas Pophale) SiO2 
 PCOD8201023
Probable space group: P M M M
;
_chemical_formula_sum "Si O2"
_cell_formula_units_Z 52
_cell_length_a 13.827088
_cell_length_b 23.646756
_cell_length_c 9.839796
_cell_angle_alpha 90.000000
_cell_angle_beta 90.000000
_cell_angle_gamma 90.000000
_cell_volume 3217.276536
_symmetry_space_group_name_H-M "P M M M"
_symmetry_group_IT_number 47
_symmetry_cell_setting 'orthorhombic'
loop_
_space_group_symop_operation_xyz
x,y,z
-x,-y,z
x,-y,-z
-x,y,-z
-x,-y,-z
x,y,-z
-x,y,z
x,-y,z
loop_
_atom_site_type_symbol
_atom_site_label
_atom_site_fract_x
_atom_site_fract_y
_atom_site_fract_z
Si Si1 0.392110 0.936137 0.161352
Si Si2 0.263193 0.677541 0.348554
Si Si3 0.750477 0.159040 0.156118
Si Si4 0.167335 0.436239 0.348112
Si Si5 0.391579 0.262396 0.848298
Si Si6 0.112542 0.773020 0.658313
Si Si7 0.000000 0.433415 0.849524
O O1 0.500000 0.918645 0.215284
O O2 0.304107 0.896735 0.214577
O O3 0.368913 0.000000 0.208208
O O4 0.394208 0.931236 0.000000
O O5 0.293784 0.695351 0.500000
O O6 0.251248 0.609917 0.339543
O O7 0.351615 0.689498 0.249836
O O8 0.166585 0.713486 0.309334
O O9 0.669193 0.206151 0.165493
O O10 0.840900 0.176328 0.251520
O O11 0.786726 0.151316 0.000000
O O12 0.120738 0.434952 0.500000
O O13 0.205618 0.500000 0.317134
O O14 0.092454 0.414771 0.235781
O O15 0.500000 0.247038 0.805745
O O16 0.386432 0.287116 0.000000
O O17 0.122910 0.789424 0.500000
O O18 0.000000 0.765824 0.698627
O O19 0.000000 0.500000 0.864588
O O20 0.000000 0.405172 0.000000
#
# Coordination Sequence:
#
# PCOD8201023 Si02
#       7
#     8   8   8   8   8   8   4
#     4   8  13  22  40  68  97 120 142 172 214 261
#     4   9  18  30  46  66  86 110 143 180 217 259
#     4   9  16  27  45  68  91 114 145 180 214 253
#     4   9  17  29  45  63  84 111 142 176 217 264
#     4   9  17  29  45  65  90 116 141 174 217 261
#     4   9  18  31  45  61  85 117 148 179 217 259
#     4   9  17  27  39  59  85 111 139 169 204 249
#
# _framework density 16.162738999999998
#
# number of rings (size 3 to 8) (size 9 to 14) (size 15 to 20)
#    0.000    3.154    0.000    1.154    1.077    4.000 
#    0.000    0.000    0.000    2.769    0.000    7.538 
#    0.000    0.000    0.000    0.000    0.000    0.000 
#
# Total GULP energy -644314.532205 kJ/mol
# GULP energy per Si atom -12390.664081 kJ/mol
# Density = 1.612595 g / cm^3
# Si number density = 16.162739 Si / 1000 Ang^3
#
#
#
# Elastic Constant Matrix: (Units=GPa)
#
#
# Indices 1 2 3 4 5 6 
#
# 1 78.6544 26.8348 37.9337 0.0000 0.0000 0.0000
# 2 26.8348 73.4314 27.3493 0.0000 0.0000 0.0000
# 3 37.9337 27.3493 66.5862 0.0000 0.0000 0.0000
# 4 0.0000 0.0000 0.0000 16.9530 0.0000 0.0000
# 5 0.0000 0.0000 0.0000 0.0000 26.0314 0.0000
# 6 0.0000 0.0000 0.0000 0.0000 0.0000 19.2797
#
#
#
# Elastic Compliance Matrix: (Units=1/GPa)
#
#
# Indices 1 2 3 4 5 6 
#
# 1 0.018179 -0.003289 -0.009006 0.000000 0.000000 0.000000
# 2 -0.003289 0.016673 -0.004974 0.000000 0.000000 0.000000
# 3 -0.009006 -0.004974 0.022192 0.000000 0.000000 0.000000
# 4 0.000000 0.000000 0.000000 0.058987 0.000000 0.000000
# 5 0.000000 0.000000 0.000000 0.000000 0.038415 0.000000
# 6 0.000000 0.000000 0.000000 0.000000 0.000000 0.051868
#
#
# Mechanical properties :
#
#
# Convention : Reuss Voigt Hill
#
# Bulk Modulus (GPa) = 44.43356 44.76752 44.60054
# Shear Modulus (GPa) = 20.13259 20.88978 20.51119
#
# Velocity S-wave (km/s) = 3.53316 3.59899 3.56623
# Velocity P-wave (km/s) = 6.64796 6.71032 6.67921
#
# Compressibility (1/GPa) = 0.02250551
#
# Stress axis : x y z
#
# Youngs Moduli (GPa) = 55.00753 59.97784 45.06209
#
# Poissons Ratio (x) = 0.19729 0.40581
# Poissons Ratio (y) = 0.18094 0.22415
# Poissons Ratio (z) = 0.49537 0.29834
#
# Static dielectric constant tensor:
#      x y z
#    x 2.966490 0.000000 0.000000 
#    y 0.000000 3.089300 0.000000 
#    z 0.000000 0.000000 3.221700 
# 
# 
# High freq. dielectric constant tensor:
#      x y z
#    x 1.598980 0.000000 0.000000 
#    y 0.000000 1.610000 0.000000 
#    z 0.000000 0.000000 1.610410 
# 
# From -- ./inp_files/7601.got.cif
#   From: 2010.03.12/outbox.cif.g09.slc.cpg/sg47_4_cif.got.tgz:7601.got - 2010.04.14 03:12:58.
