data_PCOD8201348
_publ_section_title
;
Structure prediction by ZEFSAII (Michael W. Deem and Ramdas Pophale) SiO2 
 PCOD8201348
Probable space group: P N N N
;
_chemical_formula_sum "Si O2"
_cell_formula_units_Z 32
_cell_length_a 15.210154
_cell_length_b 11.692719
_cell_length_c 8.889095
_cell_angle_alpha 90.000000
_cell_angle_beta 90.000000
_cell_angle_gamma 90.000000
_cell_volume 1580.908271
_symmetry_space_group_name_H-M "P N N N"
_symmetry_group_IT_number 48
_space_group.IT_coordinate_system_code '2'
_symmetry_cell_setting 'orthorhombic'
loop_
_space_group_symop_operation_xyz
x,y,z
1/2-x,1/2-y,z
x,1/2-y,1/2-z
1/2-x,y,1/2-z
-x,-y,-z
1/2+x,1/2+y,-z
-x,1/2+y,1/2+z
1/2+x,-y,1/2+z
loop_
_atom_site_type_symbol
_atom_site_label
_atom_site_fract_x
_atom_site_fract_y
_atom_site_fract_z
Si Si1 0.984944 0.750000 0.750000
Si Si2 0.281799 0.582752 0.921582
Si Si3 0.387637 0.811431 0.988812
Si Si4 0.422533 0.091483 0.506033
Si Si5 0.505403 0.750000 0.250000
O O1 0.924631 0.671641 0.641863
O O2 0.046522 0.664729 0.849181
O O3 0.250000 0.582952 0.750000
O O4 0.348652 0.685252 0.957167
O O5 0.190189 0.597273 0.010885
O O6 0.327161 0.466732 0.977972
O O7 0.442061 0.821513 0.141131
O O8 0.433062 0.165676 0.656384
O O9 0.500000 0.000000 0.500000
#
# Coordination Sequence:
#
# PCOD8201348 Si02
#       5
#     4   8   8   8   4
#     4  10  18  37  66  94 127 164 216 262 313 392
#     4  11  19  35  66  91 122 163 210 268 327 371
#     4  10  18  36  64  95 121 154 213 272 319 371
#     4  11  21  40  63  93 131 171 211 266 326 374
#     4  10  22  37  65  96 126 160 218 272 313 390
#
# _framework density 20.241529
#
# number of rings (size 3 to 8) (size 9 to 14) (size 15 to 20)
#    0.000    1.500    7.500    0.750    0.000    2.000 
#    0.000   11.875    0.000    3.000    0.000    0.000 
#    0.000    0.000    0.000    0.000    0.000    0.000 
#
# Total GULP energy -396632.428127 kJ/mol
# GULP energy per Si atom -12394.763379 kJ/mol
# Density = 2.019546 g / cm^3
# Si number density = 20.241529 Si / 1000 Ang^3
#
#
#
# Elastic Constant Matrix: (Units=GPa)
#
#
# Indices 1 2 3 4 5 6 
#
# 1 113.2442 67.4377 55.1398 0.0000 0.0000 0.0000
# 2 67.4377 106.3080 56.2940 0.0000 0.0000 0.0000
# 3 55.1398 56.2940 134.6652 0.0000 0.0000 0.0000
# 4 0.0000 0.0000 0.0000 26.5118 0.0000 0.0000
# 5 0.0000 0.0000 0.0000 0.0000 10.8968 0.0000
# 6 0.0000 0.0000 0.0000 0.0000 0.0000 52.8485
#
#
#
# Elastic Compliance Matrix: (Units=1/GPa)
#
#
# Indices 1 2 3 4 5 6 
#
# 1 0.014956 -0.008020 -0.002771 0.000000 0.000000 0.000000
# 2 -0.008020 0.016381 -0.003564 0.000000 0.000000 0.000000
# 3 -0.002771 -0.003564 0.010050 0.000000 0.000000 0.000000
# 4 0.000000 0.000000 0.000000 0.037719 0.000000 0.000000
# 5 0.000000 0.000000 0.000000 0.000000 0.091770 0.000000
# 6 0.000000 0.000000 0.000000 0.000000 0.000000 0.018922
#
#
# Mechanical properties :
#
#
# Convention : Reuss Voigt Hill
#
# Bulk Modulus (GPa) = 78.88180 79.10672 78.99426
# Shear Modulus (GPa) = 22.44821 29.74115 26.09468
#
# Velocity S-wave (km/s) = 3.33380 3.83732 3.59439
# Velocity P-wave (km/s) = 7.33988 7.66809 7.50578
#
# Compressibility (1/GPa) = 0.01267719
#
# Stress axis : x y z
#
# Youngs Moduli (GPa) = 66.86427 61.04460 99.49826
#
# Poissons Ratio (x) = 0.48957 0.27573
# Poissons Ratio (y) = 0.53624 0.35463
# Poissons Ratio (z) = 0.18529 0.21757
#
# Static dielectric constant tensor:
#      x y z
#    x 3.859000 0.000000 0.000000 
#    y 0.000000 3.269120 0.000000 
#    z 0.000000 0.000000 3.816890 
# 
# 
# High freq. dielectric constant tensor:
#      x y z
#    x 1.784100 0.000000 0.000000 
#    y 0.000000 1.758360 0.000000 
#    z 0.000000 0.000000 1.800610 
# 
# From -- ./inp_files/10196.got.cif
#   From: 2010.06.25/outbox.cif.g09.slc.cpg/sg48_6_cif.got.tgz:10196.got - 2010.06.26 18:06:46.
