data_PCOD8201921
_publ_section_title
;
Structure prediction by ZEFSAII (Michael W. Deem and Ramdas Pophale) SiO2 
 PCOD8201921
Probable space group: P N N N
;
_chemical_formula_sum "Si O2"
_cell_formula_units_Z 64
_cell_length_a 29.497955
_cell_length_b 9.392012
_cell_length_c 10.655457
_cell_angle_alpha 90.000000
_cell_angle_beta 90.000000
_cell_angle_gamma 90.000000
_cell_volume 2952.042654
_symmetry_space_group_name_H-M "P N N N"
_symmetry_group_IT_number 48
_space_group.IT_coordinate_system_code '2'
_symmetry_cell_setting 'orthorhombic'
loop_
_space_group_symop_operation_xyz
x,y,z
1/2-x,1/2-y,z
x,1/2-y,1/2-z
1/2-x,y,1/2-z
-x,-y,-z
1/2+x,1/2+y,-z
-x,1/2+y,1/2+z
1/2+x,-y,1/2+z
loop_
_atom_site_type_symbol
_atom_site_label
_atom_site_fract_x
_atom_site_fract_y
_atom_site_fract_z
Si Si1 0.959600 0.215760 0.607554
Si Si2 0.306599 0.616171 0.577399
Si Si3 0.389414 0.496705 0.463886
Si Si4 0.235619 0.086825 0.046198
Si Si5 0.093904 0.968657 0.991987
Si Si6 0.436750 0.253347 0.605989
Si Si7 0.817785 0.426655 0.360926
Si Si8 0.845604 0.586716 0.716547
O O1 0.947471 0.250000 0.750000
O O2 0.937009 0.067606 0.569120
O O3 0.939958 0.340453 0.521081
O O4 0.012697 0.187757 0.589227
O O5 0.360244 0.595073 0.556324
O O6 0.277149 0.523011 0.477906
O O7 0.296131 0.785409 0.571647
O O8 0.299786 0.563232 0.719751
O O9 0.400416 0.344857 0.526836
O O10 0.356294 0.493257 0.344387
O O11 0.250000 0.250000 0.045031
O O12 0.207193 0.060785 0.175900
O O13 0.200814 0.066039 0.931267
O O14 0.121412 0.022225 0.112441
O O15 0.127928 0.923195 0.878981
O O16 0.061888 0.093759 0.944351
O O17 0.421000 0.250000 0.750000
O O18 0.855606 0.750000 0.750000
#
# Coordination Sequence:
#
# PCOD8201921 Si02
#       8
#     8   8   8   8   8   8   8   8
#     4  11  23  42  67 100 137 174 230 287 341 403
#     4  11  23  41  66  93 134 175 217 276 332 398
#     4  12  23  42  69  97 135 180 221 281 341 409
#     4  11  25  42  65  99 128 169 221 279 330 400
#     4  11  21  43  68  94 133 177 228 271 342 404
#     4  11  25  42  66 100 137 178 229 285 336 409
#     4  10  23  42  65  93 132 176 221 269 332 404
#     4  11  23  42  69  94 132 177 220 273 346 409
#
# _framework density 21.679901999999998
#
# number of rings (size 3 to 8) (size 9 to 14) (size 15 to 20)
#    0.000    1.000    3.750    3.000    1.750    3.750 
#    0.000    0.000    2.750    3.000    0.000    0.000 
#    0.000    0.000    0.000    0.000    0.000    0.000 
#
# Total GULP energy -793332.715117 kJ/mol
# GULP energy per Si atom -12395.823674 kJ/mol
# Density = 2.163056 g / cm^3
# Si number density = 21.679902 Si / 1000 Ang^3
#
#
#
# Elastic Constant Matrix: (Units=GPa)
#
#
# Indices 1 2 3 4 5 6 
#
# 1 80.3706 25.1486 52.6899 0.0000 0.0000 0.0000
# 2 25.1486 88.7359 42.9006 0.0000 0.0000 0.0000
# 3 52.6899 42.9006 91.0882 0.0000 0.0000 0.0000
# 4 0.0000 0.0000 0.0000 29.2699 0.0000 0.0000
# 5 0.0000 0.0000 0.0000 0.0000 15.6386 0.0000
# 6 0.0000 0.0000 0.0000 0.0000 0.0000 37.2042
#
#
#
# Elastic Compliance Matrix: (Units=1/GPa)
#
#
# Indices 1 2 3 4 5 6 
#
# 1 0.020044 -0.000097 -0.011549 0.000000 0.000000 0.000000
# 2 -0.000097 0.014593 -0.006816 0.000000 0.000000 0.000000
# 3 -0.011549 -0.006816 0.020869 0.000000 0.000000 0.000000
# 4 0.000000 0.000000 0.000000 0.034165 0.000000 0.000000
# 5 0.000000 0.000000 0.000000 0.000000 0.063944 0.000000
# 6 0.000000 0.000000 0.000000 0.000000 0.000000 0.026879
#
#
# Mechanical properties :
#
#
# Convention : Reuss Voigt Hill
#
# Bulk Modulus (GPa) = 53.81911 55.74144 54.78027
# Shear Modulus (GPa) = 22.36022 25.71957 24.03990
#
# Velocity S-wave (km/s) = 3.21499 3.44805 3.33356
# Velocity P-wave (km/s) = 6.21771 6.45128 6.33557
#
# Compressibility (1/GPa) = 0.01858076
#
# Stress axis : x y z
#
# Youngs Moduli (GPa) = 49.89058 68.52833 47.91792
#
# Poissons Ratio (x) = 0.00667 0.55338
# Poissons Ratio (y) = 0.00486 0.32663
# Poissons Ratio (z) = 0.57616 0.46712
#
# Static dielectric constant tensor:
#      x y z
#    x 3.938730 0.000000 0.000000 
#    y 0.000000 3.817480 0.000000 
#    z 0.000000 0.000000 4.066680 
# 
# 
# High freq. dielectric constant tensor:
#      x y z
#    x 1.862630 0.000000 0.000000 
#    y 0.000000 1.850830 0.000000 
#    z 0.000000 0.000000 1.852790 
# 
# From -- ./inp_files/23851.got.cif
#   From: 2010.06.25/outbox.cif.g09.slc.cpg/sg48_12_cif.got.tgz:23851.got - 2010.06.26 18:06:46.
