data_PCOD8201891
_publ_section_title
;
Structure prediction by ZEFSAII (Michael W. Deem and Ramdas Pophale) SiO2 
 PCOD8201891
Probable space group: P N N N
;
_chemical_formula_sum "Si O2"
_cell_formula_units_Z 46
_cell_length_a 24.601258
_cell_length_b 10.968606
_cell_length_c 8.727857
_cell_angle_alpha 90.000000
_cell_angle_beta 90.000000
_cell_angle_gamma 90.000000
_cell_volume 2355.138078
_symmetry_space_group_name_H-M "P N N N"
_symmetry_group_IT_number 48
_space_group.IT_coordinate_system_code '2'
_symmetry_cell_setting 'orthorhombic'
loop_
_space_group_symop_operation_xyz
x,y,z
1/2-x,1/2-y,z
x,1/2-y,1/2-z
1/2-x,y,1/2-z
-x,-y,-z
1/2+x,1/2+y,-z
-x,1/2+y,1/2+z
1/2+x,-y,1/2+z
loop_
_atom_site_type_symbol
_atom_site_label
_atom_site_fract_x
_atom_site_fract_y
_atom_site_fract_z
Si Si1 0.135898 0.885904 0.294719
Si Si2 0.250000 0.750000 0.750000
Si Si3 0.607113 0.750000 0.750000
Si Si4 0.059266 0.050197 0.466398
Si Si5 0.861341 0.885763 0.289199
Si Si6 0.779510 0.457346 0.023840
Si Si7 0.659770 0.943207 0.538539
O O1 0.124097 0.750000 0.250000
O O2 0.195784 0.910316 0.363691
O O3 0.092613 0.929879 0.420043
O O4 0.129168 0.955871 0.136150
O O5 0.217566 0.659246 0.862353
O O6 0.567065 0.653586 0.665313
O O7 0.647685 0.813898 0.625237
O O8 0.080995 0.106121 0.625590
O O9 0.000000 0.000000 0.500000
O O10 0.843171 0.750000 0.250000
O O11 0.814771 0.937565 0.398671
O O12 0.867639 0.953591 0.127507
O O13 0.722760 0.521344 0.984119
#
# Coordination Sequence:
#
# PCOD8201891 Si02
#       7
#     8   2   4   8   8   8   8
#     4  10  23  42  60  89 131 167 216 259 310 390
#     4  12  20  36  58  84 128 162 226 238 296 372
#     4  10  22  44  68  94 128 159 209 268 308 394
#     4  10  23  45  66  94 120 160 214 270 329 371
#     4  11  22  42  63  91 128 158 211 265 306 382
#     4  11  23  37  60  93 125 177 204 253 308 381
#     4  11  21  41  62  92 127 165 206 247 325 369
#
# _framework density 19.531763000000002
#
# number of rings (size 3 to 8) (size 9 to 14) (size 15 to 20)
#    0.000    1.391    3.478    1.565    0.000    2.783 
#    6.261    1.739    0.000    0.000    0.000    0.000 
#    0.000    0.000    0.000    0.000    0.000    0.000 
#
# Total GULP energy -570056.667631 kJ/mol
# GULP energy per Si atom -12392.536253 kJ/mol
# Density = 1.948731 g / cm^3
# Si number density = 19.531763 Si / 1000 Ang^3
#
#
#
# Elastic Constant Matrix: (Units=GPa)
#
#
# Indices 1 2 3 4 5 6 
#
# 1 104.3616 45.2716 36.5087 0.0000 0.0000 0.0000
# 2 45.2716 128.5961 36.3113 0.0000 0.0000 0.0000
# 3 36.5087 36.3113 111.0363 0.0000 0.0000 0.0000
# 4 0.0000 0.0000 0.0000 31.2463 0.0000 0.0000
# 5 0.0000 0.0000 0.0000 0.0000 18.0568 0.0000
# 6 0.0000 0.0000 0.0000 0.0000 0.0000 24.1620
#
#
#
# Elastic Compliance Matrix: (Units=1/GPa)
#
#
# Indices 1 2 3 4 5 6 
#
# 1 0.012072 -0.003447 -0.002842 0.000000 0.000000 0.000000
# 2 -0.003447 0.009552 -0.001990 0.000000 0.000000 0.000000
# 3 -0.002842 -0.001990 0.010591 0.000000 0.000000 0.000000
# 4 0.000000 0.000000 0.000000 0.032004 0.000000 0.000000
# 5 0.000000 0.000000 0.000000 0.000000 0.055381 0.000000
# 6 0.000000 0.000000 0.000000 0.000000 0.000000 0.041387
#
#
# Mechanical properties :
#
#
# Convention : Reuss Voigt Hill
#
# Bulk Modulus (GPa) = 63.87265 64.46414 64.16839
# Shear Modulus (GPa) = 27.35766 29.75317 28.55541
#
# Velocity S-wave (km/s) = 3.74662 3.90721 3.82776
# Velocity P-wave (km/s) = 7.17559 7.30968 7.24295
#
# Compressibility (1/GPa) = 0.01565615
#
# Stress axis : x y z
#
# Youngs Moduli (GPa) = 82.83873 104.69158 94.41727
#
# Poissons Ratio (x) = 0.36091 0.26832
# Poissons Ratio (y) = 0.28557 0.18791
# Poissons Ratio (z) = 0.23541 0.20836
#
# Static dielectric constant tensor:
#      x y z
#    x 3.304970 0.000000 0.000000 
#    y 0.000000 3.784270 0.000000 
#    z 0.000000 0.000000 4.163240 
# 
# 
# High freq. dielectric constant tensor:
#      x y z
#    x 1.725490 0.000000 0.000000 
#    y 0.000000 1.771980 0.000000 
#    z 0.000000 0.000000 1.788450 
# 
# From -- ./inp_files/11379.got.cif
#   From: 2010.06.25/outbox.cif.g09.slc.cpg/sg48_6_cif.got.tgz:11379.got - 2010.06.26 18:06:46.
