data_PCOD8201608
_publ_section_title
;
Structure prediction by ZEFSAII (Michael W. Deem and Ramdas Pophale) SiO2 
 PCOD8201608
Probable space group: P N N N
;
_chemical_formula_sum "Si O2"
_cell_formula_units_Z 64
_cell_length_a 26.089819
_cell_length_b 9.557885
_cell_length_c 12.776685
_cell_angle_alpha 90.000000
_cell_angle_beta 90.000000
_cell_angle_gamma 90.000000
_cell_volume 3186.038758
_symmetry_space_group_name_H-M "P N N N"
_symmetry_group_IT_number 48
_space_group.IT_coordinate_system_code '2'
_symmetry_cell_setting 'orthorhombic'
loop_
_space_group_symop_operation_xyz
x,y,z
1/2-x,1/2-y,z
x,1/2-y,1/2-z
1/2-x,y,1/2-z
-x,-y,-z
1/2+x,1/2+y,-z
-x,1/2+y,1/2+z
1/2+x,-y,1/2+z
loop_
_atom_site_type_symbol
_atom_site_label
_atom_site_fract_x
_atom_site_fract_y
_atom_site_fract_z
Si Si1 0.188303 0.637707 0.989758
Si Si2 0.576813 0.768405 0.513372
Si Si3 0.105586 0.499184 0.648407
Si Si4 0.525093 0.255363 0.133166
Si Si5 0.809316 0.402542 0.780134
Si Si6 0.905868 0.007357 0.386458
Si Si7 0.295732 0.956578 0.522775
Si Si8 0.833659 0.646336 0.658082
O O1 0.141900 0.606783 0.913148
O O2 0.238061 0.565984 0.934277
O O3 0.191556 0.801678 0.023269
O O4 0.182330 0.558902 0.099437
O O5 0.519497 0.793739 0.553289
O O6 0.587703 0.616382 0.467986
O O7 0.615548 0.787534 0.609916
O O8 0.582314 0.878020 0.421304
O O9 0.073084 0.638947 0.626631
O O10 0.102223 0.451891 0.768692
O O11 0.165331 0.517934 0.618381
O O12 0.502362 0.250000 0.250000
O O13 0.543622 0.100557 0.103737
O O14 0.827994 0.250000 0.750000
O O15 0.750000 0.429269 0.750000
O O16 0.847742 0.504964 0.719076
O O17 0.297692 0.086034 0.438093
O O18 0.809570 0.750000 0.750000
#
# Coordination Sequence:
#
# PCOD8201608 Si02
#       8
#     8   8   8   8   8   8   8   8
#     4  11  20  36  63  91 121 160 209 246 306 357
#     4  11  23  41  62  87 127 162 198 251 313 369
#     4  10  22  41  64  90 122 160 204 250 309 360
#     4  10  21  40  67  90 115 155 204 259 308 363
#     4  11  19  36  59  84 122 165 204 243 301 353
#     4  11  23  40  62  94 121 158 207 251 303 366
#     4  10  20  38  60  89 121 161 201 257 296 363
#     4  11  22  37  55  88 124 160 202 246 304 367
#
# _framework density 20.087641000000001
#
# number of rings (size 3 to 8) (size 9 to 14) (size 15 to 20)
#    0.000    1.375    3.750    3.000    0.000    0.750 
#    2.250    3.125    0.000    4.500    0.000    0.000 
#    0.000    0.000    0.000    0.000    0.000    0.000 
#
# Total GULP energy -792968.857906 kJ/mol
# GULP energy per Si atom -12390.138405 kJ/mol
# Density = 2.004192 g / cm^3
# Si number density = 20.087641 Si / 1000 Ang^3
#
#
#
# Elastic Constant Matrix: (Units=GPa)
#
#
# Indices 1 2 3 4 5 6 
#
# 1 82.9901 31.3585 46.9285 0.0000 0.0000 0.0000
# 2 31.3585 105.4108 40.1110 0.0000 0.0000 0.0000
# 3 46.9285 40.1110 72.6514 0.0000 0.0000 0.0000
# 4 0.0000 0.0000 0.0000 33.3501 0.0000 0.0000
# 5 0.0000 0.0000 0.0000 0.0000 19.4324 0.0000
# 6 0.0000 0.0000 0.0000 0.0000 0.0000 17.8653
#
#
#
# Elastic Compliance Matrix: (Units=1/GPa)
#
#
# Indices 1 2 3 4 5 6 
#
# 1 0.019113 -0.001251 -0.011655 0.000000 0.000000 0.000000
# 2 -0.001251 0.012092 -0.005868 0.000000 0.000000 0.000000
# 3 -0.011655 -0.005868 0.024533 0.000000 0.000000 0.000000
# 4 0.000000 0.000000 0.000000 0.029985 0.000000 0.000000
# 5 0.000000 0.000000 0.000000 0.000000 0.051461 0.000000
# 6 0.000000 0.000000 0.000000 0.000000 0.000000 0.055974
#
#
# Mechanical properties :
#
#
# Convention : Reuss Voigt Hill
#
# Bulk Modulus (GPa) = 54.97724 55.31647 55.14686
# Shear Modulus (GPa) = 21.11770 23.63984 22.37877
#
# Velocity S-wave (km/s) = 3.24586 3.43422 3.34137
# Velocity P-wave (km/s) = 6.44015 6.58199 6.51146
#
# Compressibility (1/GPa) = 0.01818935
#
# Stress axis : x y z
#
# Youngs Moduli (GPa) = 52.32036 82.70175 40.76196
#
# Poissons Ratio (x) = 0.10344 0.47509
# Poissons Ratio (y) = 0.06544 0.23919
# Poissons Ratio (z) = 0.60981 0.48528
#
# Static dielectric constant tensor:
#      x y z
#    x 3.469830 0.000000 0.000000 
#    y 0.000000 3.784080 0.000000 
#    z 0.000000 0.000000 3.692880 
# 
# 
# High freq. dielectric constant tensor:
#      x y z
#    x 1.764740 0.000000 0.000000 
#    y 0.000000 1.792020 0.000000 
#    z 0.000000 0.000000 1.787990 
# 
# From -- ./inp_files/23841.got.cif
#   From: 2010.06.25/outbox.cif.g09.slc.cpg/sg48_12_cif.got.tgz:23841.got - 2010.06.26 18:06:46.
