data_PCOD8201414
_publ_section_title
;
Structure prediction by ZEFSAII (Michael W. Deem and Ramdas Pophale) SiO2 
 PCOD8201414
Probable space group: P N N N
;
_chemical_formula_sum "Si O2"
_cell_formula_units_Z 38
_cell_length_a 12.865571
_cell_length_b 10.999757
_cell_length_c 14.067355
_cell_angle_alpha 90.000000
_cell_angle_beta 90.000000
_cell_angle_gamma 90.000000
_cell_volume 1990.786121
_symmetry_space_group_name_H-M "P N N N"
_symmetry_group_IT_number 48
_space_group.IT_coordinate_system_code '2'
_symmetry_cell_setting 'orthorhombic'
loop_
_space_group_symop_operation_xyz
x,y,z
1/2-x,1/2-y,z
x,1/2-y,1/2-z
1/2-x,y,1/2-z
-x,-y,-z
1/2+x,1/2+y,-z
-x,1/2+y,1/2+z
1/2+x,-y,1/2+z
loop_
_atom_site_type_symbol
_atom_site_label
_atom_site_fract_x
_atom_site_fract_y
_atom_site_fract_z
Si Si1 0.827526 0.018310 0.669745
Si Si2 0.183977 0.130219 0.055917
Si Si3 0.750000 0.750000 0.250000
Si Si4 0.980956 0.622332 0.719554
Si Si5 0.414741 0.099077 0.640671
Si Si6 0.582717 0.250000 0.750000
O O1 0.750000 0.971776 0.750000
O O2 0.847427 0.162677 0.682885
O O3 0.768634 0.980202 0.571777
O O4 0.935559 0.945689 0.686203
O O5 0.250000 0.250000 0.032847
O O6 0.112074 0.150869 0.146882
O O7 0.103907 0.098142 0.971853
O O8 0.685023 0.840012 0.314294
O O9 0.032203 0.750000 0.750000
O O10 0.071406 0.539932 0.673960
O O11 0.517039 0.172976 0.673316
#
# Coordination Sequence:
#
# PCOD8201414 Si02
#       6
#     8   8   2   8   8   4
#     4   9  18  31  57  82 111 144 187 228 284 339
#     4  11  19  33  57  89 116 146 187 238 289 340
#     4  10  20  40  56  72 108 164 198 222 284 350
#     4  10  19  34  55  84 113 147 188 233 282 338
#     4  10  21  36  57  79 114 153 193 232 285 341
#     4   9  19  37  53  82 112 152 189 237 275 341
#
# _framework density 19.087935999999999
#
# number of rings (size 3 to 8) (size 9 to 14) (size 15 to 20)
#    0.000    2.105    3.158    0.947    0.000    0.000 
#    0.000    3.684    0.000    5.053    0.000    0.000 
#    0.000    0.000    0.000    0.000    0.000    0.000 
#
# Total GULP energy -470856.601463 kJ/mol
# GULP energy per Si atom -12390.963196 kJ/mol
# Density = 1.904449 g / cm^3
# Si number density = 19.087936 Si / 1000 Ang^3
#
#
#
# Elastic Constant Matrix: (Units=GPa)
#
#
# Indices 1 2 3 4 5 6 
#
# 1 63.8280 49.8971 27.7307 0.0000 0.0000 0.0000
# 2 49.8971 164.5184 44.0891 0.0000 0.0000 0.0000
# 3 27.7307 44.0891 79.5291 0.0000 0.0000 0.0000
# 4 0.0000 0.0000 0.0000 26.0481 0.0000 0.0000
# 5 0.0000 0.0000 0.0000 0.0000 -0.1593 0.0000
# 6 0.0000 0.0000 0.0000 0.0000 0.0000 18.3388
#
#
#
# Elastic Compliance Matrix: (Units=1/GPa)
#
#
# Indices 1 2 3 4 5 6 
#
# 1 0.021906 -0.005399 -0.004645 0.000000 0.000000 0.000000
# 2 -0.005399 0.008470 -0.002813 0.000000 0.000000 0.000000
# 3 -0.004645 -0.002813 0.015753 0.000000 0.000000 0.000000
# 4 0.000000 0.000000 0.000000 0.038390 0.000000 0.000000
# 5 0.000000 0.000000 0.000000 0.000000 -6.275969 0.000000
# 6 0.000000 0.000000 0.000000 0.000000 0.000000 0.054529
#
#
# Mechanical properties :
#
#
# Convention : Reuss Voigt Hill
#
# Bulk Modulus (GPa) = 48.98461 61.25658 55.12060
# Shear Modulus (GPa) = -0.81908 21.25608 10.21850
#
# Velocity S-wave (km/s) = -0.65578 3.34067 2.31625
# Velocity P-wave (km/s) = 5.01447 6.85868 6.00776
#
# Compressibility (1/GPa) = 0.02041458
#
# Stress axis : x y z
#
# Youngs Moduli (GPa) = 45.64978 118.06892 63.47964
#
# Poissons Ratio (x) = 0.63746 0.29488
# Poissons Ratio (y) = 0.24646 0.17856
# Poissons Ratio (z) = 0.21205 0.33210
#
# Static dielectric constant tensor:
#      x y z
#    x 3.450890 0.000000 0.000000 
#    y 0.000000 3.654990 0.000000 
#    z 0.000000 0.000000 3.354430 
# 
# 
# High freq. dielectric constant tensor:
#      x y z
#    x 1.730580 0.000000 0.000000 
#    y 0.000000 1.750520 0.000000 
#    z 0.000000 0.000000 1.713750 
# 
# From -- ./inp_files/19833.got.cif
#   From: 2010.06.25/outbox.cif.g09.slc.cpg/sg48_10_cif.got.tgz:19833.got - 2010.06.26 18:06:46.
