data_PCOD8201456
_publ_section_title
;
Structure prediction by ZEFSAII (Michael W. Deem and Ramdas Pophale) SiO2 
 PCOD8201456
Probable space group: P N N N
;
_chemical_formula_sum "Si O2"
_cell_formula_units_Z 56
_cell_length_a 14.907536
_cell_length_b 9.468051
_cell_length_c 20.255606
_cell_angle_alpha 90.000000
_cell_angle_beta 90.000000
_cell_angle_gamma 90.000000
_cell_volume 2858.983811
_symmetry_space_group_name_H-M "P N N N"
_symmetry_group_IT_number 48
_space_group.IT_coordinate_system_code '2'
_symmetry_cell_setting 'orthorhombic'
loop_
_space_group_symop_operation_xyz
x,y,z
1/2-x,1/2-y,z
x,1/2-y,1/2-z
1/2-x,y,1/2-z
-x,-y,-z
1/2+x,1/2+y,-z
-x,1/2+y,1/2+z
1/2+x,-y,1/2+z
loop_
_atom_site_type_symbol
_atom_site_label
_atom_site_fract_x
_atom_site_fract_y
_atom_site_fract_z
Si Si1 0.086267 0.589556 0.324937
Si Si2 0.105034 0.405917 0.632388
Si Si3 0.909017 0.092942 0.673421
Si Si4 0.746689 0.918753 0.620589
Si Si5 0.751095 0.584530 0.027163
Si Si6 0.351854 0.598603 0.745946
Si Si7 0.901267 0.583052 0.124806
O O1 0.128079 0.746820 0.332360
O O2 0.055408 0.566224 0.248469
O O3 0.158283 0.471314 0.342368
O O4 0.002454 0.575163 0.375987
O O5 0.164518 0.463560 0.570911
O O6 0.126838 0.491691 0.696660
O O7 0.128125 0.241546 0.645247
O O8 0.990645 0.072385 0.621048
O O9 0.832622 0.981020 0.657532
O O10 0.750000 0.750000 0.624573
O O11 0.744028 0.980526 0.545973
O O12 0.750000 0.750000 0.017990
O O13 0.847742 0.540469 0.058051
O O14 0.404743 0.750000 0.750000
O O15 0.250000 0.638179 0.750000
O O16 0.369206 0.529401 0.676542
#
# Coordination Sequence:
#
# PCOD8201456 Si02
#       7
#     8   8   8   8   8   8   8
#     4  10  21  38  61  88 110 140 194 247 283 329
#     4  10  19  36  62  85 109 150 195 233 276 334
#     4  10  21  38  61  88 110 140 194 247 283 329
#     4  11  24  40  56  81 116 156 191 232 289 340
#     4   9  20  37  59  85 115 150 195 230 267 343
#     4  11  21  31  49  86 127 150 175 229 292 340
#     4  10  19  36  62  85 109 150 195 233 276 334
#
# _framework density 19.587378999999999
#
# number of rings (size 3 to 8) (size 9 to 14) (size 15 to 20)
#    0.000    1.857    2.857    1.286    0.000    5.143 
#    0.000    2.857    0.000    0.000    0.000    0.000 
#    0.000    0.000    0.000    0.000    0.000    0.000 
#
# Total GULP energy -693947.569807 kJ/mol
# GULP energy per Si atom -12391.920889 kJ/mol
# Density = 1.954280 g / cm^3
# Si number density = 19.587379 Si / 1000 Ang^3
#
#
#
# Elastic Constant Matrix: (Units=GPa)
#
#
# Indices 1 2 3 4 5 6 
#
# 1 114.3856 33.3868 33.1421 0.0000 0.0000 0.0000
# 2 33.3868 72.0191 20.1775 0.0000 0.0000 0.0000
# 3 33.1421 20.1775 79.2909 0.0000 0.0000 0.0000
# 4 0.0000 0.0000 0.0000 17.1392 0.0000 0.0000
# 5 0.0000 0.0000 0.0000 0.0000 -6.8864 0.0000
# 6 0.0000 0.0000 0.0000 0.0000 0.0000 16.0979
#
#
#
# Elastic Compliance Matrix: (Units=1/GPa)
#
#
# Indices 1 2 3 4 5 6 
#
# 1 0.010962 -0.004090 -0.003541 0.000000 0.000000 0.000000
# 2 -0.004090 0.016477 -0.002484 0.000000 0.000000 0.000000
# 3 -0.003541 -0.002484 0.014724 0.000000 0.000000 0.000000
# 4 0.000000 0.000000 0.000000 0.058346 0.000000 0.000000
# 5 0.000000 0.000000 0.000000 0.000000 -0.145213 0.000000
# 6 0.000000 0.000000 0.000000 0.000000 0.000000 0.062120
#
#
# Mechanical properties :
#
#
# Convention : Reuss Voigt Hill
#
# Bulk Modulus (GPa) = 45.59122 48.78982 47.19052
# Shear Modulus (GPa) = 111.22190 17.20277 64.21234
#
# Velocity S-wave (km/s) = 7.54359 2.96676 5.73181
# Velocity P-wave (km/s) = 9.95995 6.05792 8.24315
#
# Compressibility (1/GPa) = 0.02193405
#
# Stress axis : x y z
#
# Youngs Moduli (GPa) = 91.22356 60.69098 67.91653
#
# Poissons Ratio (x) = 0.24821 0.24051
# Poissons Ratio (y) = 0.37308 0.16867
# Poissons Ratio (z) = 0.32304 0.15073
#
# Static dielectric constant tensor:
#      x y z
#    x 3.724820 0.000000 0.000000 
#    y 0.000000 3.566430 0.000000 
#    z 0.000000 0.000000 3.672330 
# 
# 
# High freq. dielectric constant tensor:
#      x y z
#    x 1.767500 0.000000 0.000000 
#    y 0.000000 1.755970 0.000000 
#    z 0.000000 0.000000 1.747650 
# 
# From -- ./inp_files/15277.got.cif
#   From: 2010.06.25/outbox.cif.g09.slc.cpg/sg48_8_cif.got.tgz:15277.got - 2010.06.26 18:06:46.
