data_PCOD8201517
_publ_section_title
;
Structure prediction by ZEFSAII (Michael W. Deem and Ramdas Pophale) SiO2 
 PCOD8201517
Probable space group: P N N N
;
_chemical_formula_sum "Si O2"
_cell_formula_units_Z 52
_cell_length_a 20.023035
_cell_length_b 15.332326
_cell_length_c 8.272503
_cell_angle_alpha 90.000000
_cell_angle_beta 90.000000
_cell_angle_gamma 90.000000
_cell_volume 2539.655940
_symmetry_space_group_name_H-M "P N N N"
_symmetry_group_IT_number 48
_space_group.IT_coordinate_system_code '2'
_symmetry_cell_setting 'orthorhombic'
loop_
_space_group_symop_operation_xyz
x,y,z
1/2-x,1/2-y,z
x,1/2-y,1/2-z
1/2-x,y,1/2-z
-x,-y,-z
1/2+x,1/2+y,-z
-x,1/2+y,1/2+z
1/2+x,-y,1/2+z
loop_
_atom_site_type_symbol
_atom_site_label
_atom_site_fract_x
_atom_site_fract_y
_atom_site_fract_z
Si Si1 0.464292 0.994614 0.249091
Si Si2 0.453129 0.264400 0.062511
Si Si3 0.670976 0.641329 0.003116
Si Si4 0.561912 0.112336 0.451086
Si Si5 0.177004 0.981478 0.802660
Si Si6 0.750000 0.750000 0.750000
Si Si7 0.250000 0.250000 0.750000
Si Si8 0.416532 0.079496 0.945474
O O1 0.426718 0.930893 0.373859
O O2 0.513906 0.939963 0.138901
O O3 0.503851 0.067995 0.346085
O O4 0.410943 0.038053 0.125994
O O5 0.443726 0.250000 0.250000
O O6 0.531885 0.288859 0.026373
O O7 0.408943 0.347230 0.005395
O O8 0.420393 0.183969 0.964296
O O9 0.683082 0.538345 0.032258
O O10 0.701354 0.688369 0.154958
O O11 0.704242 0.682568 0.845812
O O12 0.630604 0.102749 0.346887
O O13 0.250000 0.947430 0.750000
O O14 0.144984 0.043314 0.661948
#
# Coordination Sequence:
#
# PCOD8201517 Si02
#       8
#     8   8   8   8   8   2   2   8
#     4   9  18  37  59  85 117 155 198 263 307 361
#     4  12  22  34  59  91 122 161 200 257 314 363
#     4  11  21  36  51  83 118 165 198 242 297 375
#     4  10  21  38  58  86 125 153 212 260 311 366
#     4  11  24  41  61  84 124 172 210 252 311 387
#     4  10  24  34  52  82 136 158 202 244 300 394
#     4  10  20  34  52  78 128 162 198 240 304 386
#     4  10  21  35  59  90 120 157 204 251 312 378
#
# _framework density 20.475214000000001
#
# number of rings (size 3 to 8) (size 9 to 14) (size 15 to 20)
#    0.000    1.538    3.077    3.692    2.154    1.846 
#    0.000    0.000    0.000    0.462    0.000    0.000 
#    4.615    0.000    0.000    0.000    0.000    0.000 
#
# Total GULP energy -644216.132887 kJ/mol
# GULP energy per Si atom -12388.771786 kJ/mol
# Density = 2.042861 g / cm^3
# Si number density = 20.475214 Si / 1000 Ang^3
#
#
#
# Elastic Constant Matrix: (Units=GPa)
#
#
# Indices 1 2 3 4 5 6 
#
# 1 128.3358 36.6503 34.6967 0.0000 0.0000 0.0000
# 2 36.6503 34.2116 17.5486 0.0000 0.0000 0.0000
# 3 34.6967 17.5486 96.1649 0.0000 0.0000 0.0000
# 4 0.0000 0.0000 0.0000 18.1516 0.0000 0.0000
# 5 0.0000 0.0000 0.0000 0.0000 21.7530 0.0000
# 6 0.0000 0.0000 0.0000 0.0000 0.0000 33.4455
#
#
#
# Elastic Compliance Matrix: (Units=1/GPa)
#
#
# Indices 1 2 3 4 5 6 
#
# 1 0.011604 -0.011346 -0.002116 0.000000 0.000000 0.000000
# 2 -0.011346 0.043342 -0.003815 0.000000 0.000000 0.000000
# 3 -0.002116 -0.003815 0.011859 0.000000 0.000000 0.000000
# 4 0.000000 0.000000 0.000000 0.055092 0.000000 0.000000
# 5 0.000000 0.000000 0.000000 0.000000 0.045971 0.000000
# 6 0.000000 0.000000 0.000000 0.000000 0.000000 0.029899
#
#
# Mechanical properties :
#
#
# Convention : Reuss Voigt Hill
#
# Bulk Modulus (GPa) = 31.00877 48.50037 39.75457
# Shear Modulus (GPa) = 20.57003 25.99115 23.28059
#
# Velocity S-wave (km/s) = 3.17303 3.56672 3.37562
# Velocity P-wave (km/s) = 5.34804 6.37972 5.88653
#
# Compressibility (1/GPa) = 0.03224894
#
# Stress axis : x y z
#
# Youngs Moduli (GPa) = 86.17366 23.07245 84.32625
#
# Poissons Ratio (x) = 0.26178 0.17847
# Poissons Ratio (y) = 0.97773 0.32175
# Poissons Ratio (z) = 0.18238 0.08803
#
# Static dielectric constant tensor:
#      x y z
#    x 3.664530 0.000000 0.000000 
#    y 0.000000 3.684440 0.000000 
#    z 0.000000 0.000000 3.914220 
# 
# 
# High freq. dielectric constant tensor:
#      x y z
#    x 1.781850 0.000000 0.000000 
#    y 0.000000 1.768850 0.000000 
#    z 0.000000 0.000000 1.816190 
# 
# From -- ./inp_files/15248.got.cif
#   From: 2010.06.25/outbox.cif.g09.slc.cpg/sg48_8_cif.got.tgz:15248.got - 2010.06.26 18:06:46.
