data_PCOD8201544
_publ_section_title
;
Structure prediction by ZEFSAII (Michael W. Deem and Ramdas Pophale) SiO2 
 PCOD8201544
Probable space group: P N N N
;
_chemical_formula_sum "Si O2"
_cell_formula_units_Z 48
_cell_length_a 12.443123
_cell_length_b 18.213005
_cell_length_c 10.062611
_cell_angle_alpha 90.000000
_cell_angle_beta 90.000000
_cell_angle_gamma 90.000000
_cell_volume 2280.455936
_symmetry_space_group_name_H-M "P N N N"
_symmetry_group_IT_number 48
_space_group.IT_coordinate_system_code '2'
_symmetry_cell_setting 'orthorhombic'
loop_
_space_group_symop_operation_xyz
x,y,z
1/2-x,1/2-y,z
x,1/2-y,1/2-z
1/2-x,y,1/2-z
-x,-y,-z
1/2+x,1/2+y,-z
-x,1/2+y,1/2+z
1/2+x,-y,1/2+z
loop_
_atom_site_type_symbol
_atom_site_label
_atom_site_fract_x
_atom_site_fract_y
_atom_site_fract_z
Si Si1 0.446660 0.616605 0.008317
Si Si2 0.457574 0.728849 0.391226
Si Si3 0.808349 0.523230 0.055930
Si Si4 0.285999 0.888644 0.099681
Si Si5 0.575676 0.994506 0.321461
Si Si6 0.692250 0.820755 0.110433
O O1 0.483918 0.701742 0.012068
O O2 0.318624 0.624104 0.012197
O O3 0.497777 0.572700 0.134523
O O4 0.477923 0.572044 0.872777
O O5 0.404163 0.750000 0.250000
O O6 0.373626 0.670535 0.451640
O O7 0.569423 0.691837 0.355536
O O8 0.903402 0.508581 0.163972
O O9 0.689839 0.508115 0.107896
O O10 0.805029 0.609054 0.012686
O O11 0.832714 0.470546 0.930681
O O12 0.250000 0.881874 0.250000
O O13 0.750000 0.750000 0.044220
O O14 0.750000 0.841139 0.250000
#
# Coordination Sequence:
#
# PCOD8201544 Si02
#       6
#     8   8   8   8   8   8
#     4  10  20  35  57  85 115 157 191 238 302 363
#     4  12  21  34  55  84 120 146 193 248 298 356
#     4  10  20  37  57  86 117 148 203 250 295 357
#     4  11  24  36  53  83 120 162 195 238 298 362
#     4   9  18  36  60  83 115 151 196 249 297 352
#     4  11  20  34  61  91 109 138 191 255 308 343
#
# _framework density 21.048421999999999
#
# number of rings (size 3 to 8) (size 9 to 14) (size 15 to 20)
#    0.000    1.500    5.000    2.500    0.000    0.667 
#    0.000    0.833    0.000    4.500    4.333    0.000 
#    0.000    0.000    0.000    0.000    0.000    0.000 
#
# Total GULP energy -594626.820339 kJ/mol
# GULP energy per Si atom -12388.058757 kJ/mol
# Density = 2.100051 g / cm^3
# Si number density = 21.048422 Si / 1000 Ang^3
#
#
#
# Elastic Constant Matrix: (Units=GPa)
#
#
# Indices 1 2 3 4 5 6 
#
# 1 100.8026 34.1988 12.3012 0.0000 0.0000 0.0000
# 2 34.1988 178.9468 33.9265 0.0000 0.0000 0.0000
# 3 12.3012 33.9265 24.6034 0.0000 0.0000 0.0000
# 4 0.0000 0.0000 0.0000 25.3661 0.0000 0.0000
# 5 0.0000 0.0000 0.0000 0.0000 13.1011 0.0000
# 6 0.0000 0.0000 0.0000 0.0000 0.0000 34.2164
#
#
#
# Elastic Compliance Matrix: (Units=1/GPa)
#
#
# Indices 1 2 3 4 5 6 
#
# 1 0.010822 -0.001411 -0.003465 0.000000 0.000000 0.000000
# 2 -0.001411 0.007750 -0.009982 0.000000 0.000000 0.000000
# 3 -0.003465 -0.009982 0.056141 0.000000 0.000000 0.000000
# 4 0.000000 0.000000 0.000000 0.039423 0.000000 0.000000
# 5 0.000000 0.000000 0.000000 0.000000 0.076329 0.000000
# 6 0.000000 0.000000 0.000000 0.000000 0.000000 0.029226
#
#
# Mechanical properties :
#
#
# Convention : Reuss Voigt Hill
#
# Bulk Modulus (GPa) = 22.22310 51.68955 36.95632
# Shear Modulus (GPa) = 18.91032 29.46514 24.18773
#
# Velocity S-wave (km/s) = 3.00062 3.74555 3.39358
# Velocity P-wave (km/s) = 4.75247 6.58151 5.74031
#
# Compressibility (1/GPa) = 0.04499823
#
# Stress axis : x y z
#
# Youngs Moduli (GPa) = 92.40435 129.02557 17.81228
#
# Poissons Ratio (x) = 0.18210 0.06171
# Poissons Ratio (y) = 0.13042 0.17780
# Poissons Ratio (z) = 0.32014 1.28789
#
# Static dielectric constant tensor:
#      x y z
#    x 3.998710 0.000000 0.000000 
#    y 0.000000 4.554030 0.000000 
#    z 0.000000 0.000000 3.546760 
# 
# 
# High freq. dielectric constant tensor:
#      x y z
#    x 1.837920 0.000000 0.000000 
#    y 0.000000 1.845910 0.000000 
#    z 0.000000 0.000000 1.749670 
# 
# From -- ./inp_files/20091.got.cif
#   From: 2010.06.25/outbox.cif.g09.slc.cpg/sg48_11_cif.got.tgz:20091.got - 2010.06.26 18:06:46.
