data_PCOD8201100
_publ_section_title
;
Structure prediction by ZEFSAII (Michael W. Deem and Ramdas Pophale) SiO2 
 PCOD8201100
Probable space group: P M M M
;
_chemical_formula_sum "Si O2"
_cell_formula_units_Z 44
_cell_length_a 9.744669
_cell_length_b 29.588470
_cell_length_c 9.561204
_cell_angle_alpha 90.000000
_cell_angle_beta 90.000000
_cell_angle_gamma 90.000000
_cell_volume 2756.780480
_symmetry_space_group_name_H-M "P M M M"
_symmetry_group_IT_number 47
_symmetry_cell_setting 'orthorhombic'
loop_
_space_group_symop_operation_xyz
x,y,z
-x,-y,z
x,-y,-z
-x,y,-z
-x,-y,-z
x,y,-z
-x,y,z
x,-y,z
loop_
_atom_site_type_symbol
_atom_site_label
_atom_site_fract_x
_atom_site_fract_y
_atom_site_fract_z
Si Si1 0.158741 0.632674 0.162902
Si Si2 0.000000 0.053003 0.163230
Si Si3 0.150308 0.882917 0.656342
Si Si4 0.341414 0.196888 0.337882
Si Si5 0.837027 0.549745 0.657001
Si Si6 0.658315 0.716702 0.837580
O O1 0.218871 0.588580 0.240818
O O2 0.248070 0.675212 0.212366
O O3 0.000000 0.642142 0.201008
O O4 0.177855 0.623291 0.000000
O O5 0.863291 0.074244 0.237557
O O6 0.000000 0.000000 0.189116
O O7 0.000000 0.065352 0.000000
O O8 0.193843 0.899451 0.500000
O O9 0.258544 0.846849 0.715451
O O10 0.000000 0.859192 0.648817
O O11 0.309899 0.206769 0.500000
O O12 0.500000 0.186268 0.311096
O O13 0.293230 0.239967 0.249630
O O14 0.785722 0.560100 0.500000
O O15 0.783400 0.500000 0.704508
O O16 0.000000 0.549600 0.661843
O O17 0.500000 0.704644 0.806442
O O18 0.681962 0.727633 0.000000
#
# Coordination Sequence:
#
# PCOD8201100 Si02
#       6
#     8   4   8   8   8   8
#     4   9  17  28  42  62  85 107 137 177 214 248
#     4   9  17  29  47  71  95 119 151 187 220 257
#     4   8  16  29  45  67  92 118 148 181 219 260
#     4   9  17  30  47  66  89 116 148 185 220 257
#     4   8  14  25  41  61  84 107 132 166 211 260
#     4   9  18  31  44  59  84 118 148 173 210 261
#
# _framework density 15.960648000000001
#
# number of rings (size 3 to 8) (size 9 to 14) (size 15 to 20)
#    0.545    2.818    0.000    0.545    0.000    3.273 
#    0.000    1.818    0.000    1.091    0.000    7.636 
#    0.000    0.000    0.000    0.000    0.000    0.000 
#
# Total GULP energy -545271.975884 kJ/mol
# GULP energy per Si atom -12392.544906 kJ/mol
# Density = 1.592432 g / cm^3
# Si number density = 15.960648 Si / 1000 Ang^3
#
#
#
# Elastic Constant Matrix: (Units=GPa)
#
#
# Indices 1 2 3 4 5 6 
#
# 1 42.6809 52.4323 30.7212 0.0000 0.0000 0.0000
# 2 52.4323 151.7521 78.9836 0.0000 0.0000 0.0000
# 3 30.7212 78.9836 75.0476 0.0000 0.0000 0.0000
# 4 0.0000 0.0000 0.0000 34.7856 0.0000 0.0000
# 5 0.0000 0.0000 0.0000 0.0000 15.0400 0.0000
# 6 0.0000 0.0000 0.0000 0.0000 0.0000 6.9716
#
#
#
# Elastic Compliance Matrix: (Units=1/GPa)
#
#
# Indices 1 2 3 4 5 6 
#
# 1 0.041292 -0.012094 -0.004175 0.000000 0.000000 0.000000
# 2 -0.012094 0.018114 -0.014113 0.000000 0.000000 0.000000
# 3 -0.004175 -0.014113 0.029887 0.000000 0.000000 0.000000
# 4 0.000000 0.000000 0.000000 0.028748 0.000000 0.000000
# 5 0.000000 0.000000 0.000000 0.000000 0.066489 0.000000
# 6 0.000000 0.000000 0.000000 0.000000 0.000000 0.143439
#
#
# Mechanical properties :
#
#
# Convention : Reuss Voigt Hill
#
# Bulk Modulus (GPa) = 35.05210 65.97278 50.51244
# Shear Modulus (GPa) = 12.55516 18.51566 15.53541
#
# Velocity S-wave (km/s) = 2.80774 3.40969 3.12325
# Velocity P-wave (km/s) = 5.70267 7.54491 6.68753
#
# Compressibility (1/GPa) = 0.02852896
#
# Stress axis : x y z
#
# Youngs Moduli (GPa) = 24.21797 55.20627 33.45908
#
# Poissons Ratio (x) = 0.66766 0.13969
# Poissons Ratio (y) = 0.29289 0.47221
# Poissons Ratio (z) = 0.10111 0.77914
#
# Static dielectric constant tensor:
#      x y z
#    x 2.803250 0.000000 0.000000 
#    y 0.000000 3.061550 0.000000 
#    z 0.000000 0.000000 3.063190 
# 
# 
# High freq. dielectric constant tensor:
#      x y z
#    x 1.582220 0.000000 0.000000 
#    y 0.000000 1.607880 0.000000 
#    z 0.000000 0.000000 1.613720 
# 
# From -- ./inp_files/4457.got.cif
#   From: 2010.03.12/outbox.cif.g09.slc.cpg/sg47_3_cif.got.tgz:4457.got - 2010.04.14 03:12:58.
