data_PCOD8201811
_publ_section_title
;
Structure prediction by ZEFSAII (Michael W. Deem and Ramdas Pophale) SiO2 
 PCOD8201811
Probable space group: P N N N
;
_chemical_formula_sum "Si O2"
_cell_formula_units_Z 34
_cell_length_a 5.116517
_cell_length_b 18.910252
_cell_length_c 16.613966
_cell_angle_alpha 90.000000
_cell_angle_beta 90.000000
_cell_angle_gamma 90.000000
_cell_volume 1607.478064
_symmetry_space_group_name_H-M "P N N N"
_symmetry_group_IT_number 48
_space_group.IT_coordinate_system_code '2'
_symmetry_cell_setting 'orthorhombic'
loop_
_space_group_symop_operation_xyz
x,y,z
1/2-x,1/2-y,z
x,1/2-y,1/2-z
1/2-x,y,1/2-z
-x,-y,-z
1/2+x,1/2+y,-z
-x,1/2+y,1/2+z
1/2+x,-y,1/2+z
loop_
_atom_site_type_symbol
_atom_site_label
_atom_site_fract_x
_atom_site_fract_y
_atom_site_fract_z
Si Si1 0.561095 0.126968 0.823056
Si Si2 0.254052 0.666899 0.489405
Si Si3 0.750000 0.986135 0.250000
Si Si4 0.750000 0.750000 0.250000
Si Si5 0.749918 0.666840 0.590046
Si Si6 0.750000 0.579708 0.750000
O O1 0.750000 0.107453 0.750000
O O2 0.338483 0.065517 0.824242
O O3 0.427023 0.203232 0.809593
O O4 0.735852 0.127616 0.903406
O O5 0.250000 0.750000 0.473930
O O6 0.512544 0.643184 0.534802
O O7 0.009156 0.642287 0.542828
O O8 0.503433 0.034033 0.273254
O O9 0.750000 0.750000 0.607487
O O10 0.702138 0.629011 0.674005
#
# Coordination Sequence:
#
# PCOD8201811 Si02
#       6
#     8   8   4   2   8   4
#     4  11  23  41  63  96 134 173 214 253 317 387
#     4  10  22  38  64 100 132 156 204 271 329 380
#     4  11  26  41  67  90 129 182 218 260 301 392
#     4  10  22  32  68  98 118 184 206 258 318 386
#     4  10  23  41  68  98 122 161 212 278 331 381
#     4  12  23  48  66  87 126 174 222 268 326 375
#
# _framework density 21.151145
#
# number of rings (size 3 to 8) (size 9 to 14) (size 15 to 20)
#    0.000    1.412    1.176    3.529   11.529    0.000 
#    0.000   11.765    0.000    0.000    0.000    0.000 
#    0.000    0.000    0.000    0.000    0.000    0.000 
#
# Total GULP energy -421583.759252 kJ/mol
# GULP energy per Si atom -12399.522331 kJ/mol
# Density = 2.110300 g / cm^3
# Si number density = 21.151145 Si / 1000 Ang^3
#
#
#
# Elastic Constant Matrix: (Units=GPa)
#
#
# Indices 1 2 3 4 5 6 
#
# 1 124.7906 33.6023 28.1408 0.0000 0.0000 0.0000
# 2 33.6023 72.5290 42.1351 0.0000 0.0000 0.0000
# 3 28.1408 42.1351 127.3209 0.0000 0.0000 0.0000
# 4 0.0000 0.0000 0.0000 4.5135 0.0000 0.0000
# 5 0.0000 0.0000 0.0000 0.0000 44.2922 0.0000
# 6 0.0000 0.0000 0.0000 0.0000 0.0000 7.0046
#
#
#
# Elastic Compliance Matrix: (Units=1/GPa)
#
#
# Indices 1 2 3 4 5 6 
#
# 1 0.009217 -0.003821 -0.000772 0.000000 0.000000 0.000000
# 2 -0.003821 0.018654 -0.005329 0.000000 0.000000 0.000000
# 3 -0.000772 -0.005329 0.009788 0.000000 0.000000 0.000000
# 4 0.000000 0.000000 0.000000 0.221559 0.000000 0.000000
# 5 0.000000 0.000000 0.000000 0.000000 0.022577 0.000000
# 6 0.000000 0.000000 0.000000 0.000000 0.000000 0.142764
#
#
# Mechanical properties :
#
#
# Convention : Reuss Voigt Hill
#
# Bulk Modulus (GPa) = 56.13598 59.15520 57.64559
# Shear Modulus (GPa) = 11.10271 25.87953 18.49112
#
# Velocity S-wave (km/s) = 2.29360 3.50173 2.95996
# Velocity P-wave (km/s) = 5.79760 6.66168 6.24460
#
# Compressibility (1/GPa) = 0.01781389
#
# Stress axis : x y z
#
# Youngs Moduli (GPa) = 108.50031 53.60923 102.16265
#
# Poissons Ratio (x) = 0.20485 0.07892
# Poissons Ratio (y) = 0.41460 0.54438
# Poissons Ratio (z) = 0.08382 0.28566
#
# Static dielectric constant tensor:
#      x y z
#    x 4.086680 0.000000 0.000000 
#    y 0.000000 2.865830 0.000000 
#    z 0.000000 0.000000 4.000690 
# 
# 
# High freq. dielectric constant tensor:
#      x y z
#    x 1.851460 0.000000 0.000000 
#    y 0.000000 1.818470 0.000000 
#    z 0.000000 0.000000 1.817090 
# 
# From -- ./inp_files/3253.got.cif
#   From: 2010.06.25/outbox.cif.g09.slc.cpg/sg48_2_cif.got.tgz:3253.got - 2010.06.26 18:06:46.
