data_PCOD8201655
_publ_section_title
;
Structure prediction by ZEFSAII (Michael W. Deem and Ramdas Pophale) SiO2 
 PCOD8201655
Probable space group: P N N N
;
_chemical_formula_sum "Si O2"
_cell_formula_units_Z 44
_cell_length_a 6.337223
_cell_length_b 24.882402
_cell_length_c 14.151681
_cell_angle_alpha 90.000000
_cell_angle_beta 90.000000
_cell_angle_gamma 90.000000
_cell_volume 2231.512492
_symmetry_space_group_name_H-M "P N N N"
_symmetry_group_IT_number 48
_space_group.IT_coordinate_system_code '2'
_symmetry_cell_setting 'orthorhombic'
loop_
_space_group_symop_operation_xyz
x,y,z
1/2-x,1/2-y,z
x,1/2-y,1/2-z
1/2-x,y,1/2-z
-x,-y,-z
1/2+x,1/2+y,-z
-x,1/2+y,1/2+z
1/2+x,-y,1/2+z
loop_
_atom_site_type_symbol
_atom_site_label
_atom_site_fract_x
_atom_site_fract_y
_atom_site_fract_z
Si Si1 0.485452 0.936764 0.997624
Si Si2 0.230885 0.367821 0.141107
Si Si3 0.572604 0.283862 0.436727
Si Si4 0.889687 0.130462 0.002179
Si Si5 0.750000 0.750000 0.424789
Si Si6 0.747889 0.867210 0.358507
O O1 0.608249 0.917485 0.904407
O O2 0.235188 0.925800 0.988893
O O3 0.587052 0.905544 0.087563
O O4 0.500000 0.000000 0.000000
O O5 0.250000 0.381217 0.250000
O O6 0.457874 0.360304 0.092150
O O7 0.096711 0.312667 0.130244
O O8 0.750000 0.250000 0.378394
O O9 0.697814 0.326874 0.500673
O O10 0.454078 0.241794 0.507099
O O11 0.016403 0.127293 0.904057
O O12 0.799654 0.803359 0.364761
O O13 0.750000 0.885213 0.250000
#
# Coordination Sequence:
#
# PCOD8201655 Si02
#       6
#     8   8   8   8   4   8
#     4  10  23  45  65  92 127 170 211 263 335 380
#     4  10  22  41  63  93 125 161 221 268 315 387
#     4  11  19  36  64  85 124 176 207 252 325 379
#     4  10  20  41  65  82 131 164 200 269 317 374
#     4  12  19  40  61  90 132 170 207 266 319 390
#     4  11  23  39  64  99 129 162 219 260 314 396
#
# _framework density 19.717568
#
# number of rings (size 3 to 8) (size 9 to 14) (size 15 to 20)
#    0.000    1.455    7.273    0.273    0.000    6.545 
#    6.545    6.818    0.000    0.000    0.000    0.000 
#    0.000    0.000    0.000    0.000    0.000    0.000 
#
# Total GULP energy -545222.783658 kJ/mol
# GULP energy per Si atom -12391.426901 kJ/mol
# Density = 1.967269 g / cm^3
# Si number density = 19.717568 Si / 1000 Ang^3
#
#
#
# Elastic Constant Matrix: (Units=GPa)
#
#
# Indices 1 2 3 4 5 6 
#
# 1 121.5219 38.7994 53.2604 0.0000 0.0000 0.0000
# 2 38.7994 122.1180 39.4652 0.0000 0.0000 0.0000
# 3 53.2604 39.4652 162.3463 0.0000 0.0000 0.0000
# 4 0.0000 0.0000 0.0000 13.7431 0.0000 0.0000
# 5 0.0000 0.0000 0.0000 0.0000 13.2116 0.0000
# 6 0.0000 0.0000 0.0000 0.0000 0.0000 30.7950
#
#
#
# Elastic Compliance Matrix: (Units=1/GPa)
#
#
# Indices 1 2 3 4 5 6 
#
# 1 0.010193 -0.002342 -0.002775 0.000000 0.000000 0.000000
# 2 -0.002342 0.009425 -0.001523 0.000000 0.000000 0.000000
# 3 -0.002775 -0.001523 0.007440 0.000000 0.000000 0.000000
# 4 0.000000 0.000000 0.000000 0.072764 0.000000 0.000000
# 5 0.000000 0.000000 0.000000 0.000000 0.075691 0.000000
# 6 0.000000 0.000000 0.000000 0.000000 0.000000 0.032473
#
#
# Mechanical properties :
#
#
# Convention : Reuss Voigt Hill
#
# Bulk Modulus (GPa) = 72.57271 74.33737 73.45504
# Shear Modulus (GPa) = 22.13791 29.84734 25.99262
#
# Velocity S-wave (km/s) = 3.35438 3.89491 3.63471
# Velocity P-wave (km/s) = 7.20337 7.61643 7.41278
#
# Compressibility (1/GPa) = 0.01377928
#
# Stress axis : x y z
#
# Youngs Moduli (GPa) = 98.10943 106.10095 134.40604
#
# Poissons Ratio (x) = 0.24846 0.37293
# Poissons Ratio (y) = 0.22975 0.20469
# Poissons Ratio (z) = 0.27222 0.16158
#
# Static dielectric constant tensor:
#      x y z
#    x 4.002390 0.000000 0.000000 
#    y 0.000000 3.600090 0.000000 
#    z 0.000000 0.000000 3.226810 
# 
# 
# High freq. dielectric constant tensor:
#      x y z
#    x 1.791700 0.000000 0.000000 
#    y 0.000000 1.766160 0.000000 
#    z 0.000000 0.000000 1.732390 
# 
# From -- ./inp_files/24374.got.cif
#   From: 2010.06.25/outbox.cif.g09.slc.cpg/sg48_13_cif.got.tgz:24374.got - 2010.06.26 18:06:46.
