data_PCOD8201262
_publ_section_title
;
Structure prediction by ZEFSAII (Michael W. Deem and Ramdas Pophale) SiO2 
 PCOD8201262
Probable space group: P N N N
;
_chemical_formula_sum "Si O2"
_cell_formula_units_Z 58
_cell_length_a 8.671707
_cell_length_b 31.015574
_cell_length_c 10.808129
_cell_angle_alpha 90.000000
_cell_angle_beta 90.000000
_cell_angle_gamma 90.000000
_cell_volume 2906.932437
_symmetry_space_group_name_H-M "P N N N"
_symmetry_group_IT_number 48
_space_group.IT_coordinate_system_code '2'
_symmetry_cell_setting 'orthorhombic'
loop_
_space_group_symop_operation_xyz
x,y,z
1/2-x,1/2-y,z
x,1/2-y,1/2-z
1/2-x,y,1/2-z
-x,-y,-z
1/2+x,1/2+y,-z
-x,1/2+y,1/2+z
1/2+x,-y,1/2+z
loop_
_atom_site_type_symbol
_atom_site_label
_atom_site_fract_x
_atom_site_fract_y
_atom_site_fract_z
Si Si1 0.900444 0.045848 0.101950
Si Si2 0.250000 0.750000 0.750000
Si Si3 0.847462 0.388103 0.079212
Si Si4 0.914845 0.470898 0.683126
Si Si5 0.581313 0.620125 0.797482
Si Si6 0.925928 0.294961 0.707637
Si Si7 0.921673 0.115694 0.698627
Si Si8 0.407909 0.685527 0.928133
O O1 0.735409 0.068438 0.130839
O O2 0.036966 0.080768 0.113181
O O3 0.881639 0.030269 0.962031
O O4 0.951792 0.007665 0.197451
O O5 0.361899 0.722939 0.836054
O O6 0.724479 0.350292 0.064228
O O7 0.971908 0.375061 0.178996
O O8 0.929070 0.394287 0.946905
O O9 0.750000 0.481331 0.750000
O O10 0.991711 0.426332 0.732527
O O11 0.750000 0.612517 0.750000
O O12 0.564881 0.663899 0.876779
O O13 0.007635 0.250000 0.750000
O O14 0.750000 0.293496 0.750000
O O15 0.004608 0.338576 0.766319
O O16 0.940909 0.294825 0.560919
O O17 0.750000 0.119784 0.750000
#
# Coordination Sequence:
#
# PCOD8201262 Si02
#       8
#     8   2   8   8   8   8   8   8
#     4  10  19  34  62  88 115 155 203 252 306 370
#     4  12  20  32  56 100 120 148 206 262 284 364
#     4  11  19  38  61  87 116 162 198 255 303 361
#     4  10  18  32  58  91 123 156 193 250 321 367
#     4  11  24  41  59  83 122 170 206 247 305 362
#     4  10  18  29  53  95 126 150 193 245 303 353
#     4  10  16  31  55  86 119 153 189 249 309 357
#     4  11  20  34  60  91 124 155 199 254 302 356
#
# _framework density 19.952304000000002
#
# number of rings (size 3 to 8) (size 9 to 14) (size 15 to 20)
#    0.000    1.517    6.897    3.310    0.000    0.000 
#    0.000    1.034    6.069    2.483    0.000    1.931 
#    0.000    0.000    0.000    0.000    0.000    0.000 
#
# Total GULP energy -718683.518040 kJ/mol
# GULP energy per Si atom -12391.095139 kJ/mol
# Density = 1.990689 g / cm^3
# Si number density = 19.952304 Si / 1000 Ang^3
#
#
#
# Elastic Constant Matrix: (Units=GPa)
#
#
# Indices 1 2 3 4 5 6 
#
# 1 47.3241 22.8417 26.7050 0.0000 0.0000 0.0000
# 2 22.8417 165.9422 53.3949 0.0000 0.0000 0.0000
# 3 26.7050 53.3949 131.9627 0.0000 0.0000 0.0000
# 4 0.0000 0.0000 0.0000 29.0186 0.0000 0.0000
# 5 0.0000 0.0000 0.0000 0.0000 15.3370 0.0000
# 6 0.0000 0.0000 0.0000 0.0000 0.0000 9.9737
#
#
#
# Elastic Compliance Matrix: (Units=1/GPa)
#
#
# Indices 1 2 3 4 5 6 
#
# 1 0.024440 -0.002038 -0.004121 0.000000 0.000000 0.000000
# 2 -0.002038 0.007098 -0.002460 0.000000 0.000000 0.000000
# 3 -0.004121 -0.002460 0.009407 0.000000 0.000000 0.000000
# 4 0.000000 0.000000 0.000000 0.034461 0.000000 0.000000
# 5 0.000000 0.000000 0.000000 0.000000 0.065202 0.000000
# 6 0.000000 0.000000 0.000000 0.000000 0.000000 0.100264
#
#
# Mechanical properties :
#
#
# Convention : Reuss Voigt Hill
#
# Bulk Modulus (GPa) = 42.18060 61.23467 51.70764
# Shear Modulus (GPa) = 18.79614 27.01835 22.90724
#
# Velocity S-wave (km/s) = 3.07262 3.68387 3.39204
# Velocity P-wave (km/s) = 5.81159 6.98940 6.42753
#
# Compressibility (1/GPa) = 0.02370758
#
# Stress axis : x y z
#
# Youngs Moduli (GPa) = 40.91618 140.88158 106.30235
#
# Poissons Ratio (x) = 0.28712 0.43810
# Poissons Ratio (y) = 0.08339 0.26146
# Poissons Ratio (z) = 0.16863 0.34652
#
# Static dielectric constant tensor:
#      x y z
#    x 3.486600 0.000000 0.000000 
#    y 0.000000 4.691820 0.000000 
#    z 0.000000 0.000000 3.905630 
# 
# 
# High freq. dielectric constant tensor:
#      x y z
#    x 1.712030 0.000000 0.000000 
#    y 0.000000 1.797660 0.000000 
#    z 0.000000 0.000000 1.797090 
# 
# From -- ./inp_files/19019.got.cif
#   From: 2010.06.25/outbox.cif.g09.slc.cpg/sg48_10_cif.got.tgz:19019.got - 2010.06.26 18:06:46.
