data_PCOD8201653
_publ_section_title
;
Structure prediction by ZEFSAII (Michael W. Deem and Ramdas Pophale) SiO2 
 PCOD8201653
Probable space group: P N N N
;
_chemical_formula_sum "Si O2"
_cell_formula_units_Z 48
_cell_length_a 9.379630
_cell_length_b 16.741683
_cell_length_c 14.213210
_cell_angle_alpha 90.000000
_cell_angle_beta 90.000000
_cell_angle_gamma 90.000000
_cell_volume 2231.911625
_symmetry_space_group_name_H-M "P N N N"
_symmetry_group_IT_number 48
_space_group.IT_coordinate_system_code '2'
_symmetry_cell_setting 'orthorhombic'
loop_
_space_group_symop_operation_xyz
x,y,z
1/2-x,1/2-y,z
x,1/2-y,1/2-z
1/2-x,y,1/2-z
-x,-y,-z
1/2+x,1/2+y,-z
-x,1/2+y,1/2+z
1/2+x,-y,1/2+z
loop_
_atom_site_type_symbol
_atom_site_label
_atom_site_fract_x
_atom_site_fract_y
_atom_site_fract_z
Si Si1 0.150263 0.620196 0.436643
Si Si2 0.250000 0.750000 0.940432
Si Si3 0.750000 0.459322 0.750000
Si Si4 0.460874 0.048803 0.132683
Si Si5 0.344644 0.180625 0.533047
Si Si6 0.547660 0.764834 0.856682
Si Si7 0.780304 0.990978 0.461622
O O1 0.267436 0.674794 0.489481
O O2 0.203418 0.598687 0.333548
O O3 0.140906 0.543248 0.507974
O O4 0.003273 0.669717 0.426231
O O5 0.384036 0.740655 0.871819
O O6 0.887200 0.516033 0.771867
O O7 0.432236 0.142409 0.118453
O O8 0.630609 0.026212 0.128251
O O9 0.383408 0.999888 0.050835
O O10 0.250000 0.250000 0.584100
O O11 0.357012 0.206947 0.422965
O O12 0.262258 0.099609 0.554360
O O13 0.594325 0.750000 0.750000
#
# Coordination Sequence:
#
# PCOD8201653 Si02
#       7
#     8   4   4   8   8   8   8
#     4  10  22  40  68  88 126 169 218 261 317 385
#     4  10  21  43  60  90 124 172 212 255 325 378
#     4  10  24  41  65  98 118 164 226 268 313 383
#     4  10  21  38  65  91 131 167 209 265 319 378
#     4  11  23  39  64  96 129 168 211 259 326 384
#     4  11  23  37  62  96 131 165 204 270 319 387
#     4  10  20  41  62  90 130 175 210 247 319 399
#
# _framework density 21.506229000000001
#
# number of rings (size 3 to 8) (size 9 to 14) (size 15 to 20)
#    0.000    1.667    3.333    0.750    4.667    0.667 
#    0.000    0.833    0.000    3.000    0.000    0.000 
#    0.000    0.000    0.000    0.000    0.000    0.000 
#
# Total GULP energy -594759.077690 kJ/mol
# GULP energy per Si atom -12390.814119 kJ/mol
# Density = 2.145728 g / cm^3
# Si number density = 21.506229 Si / 1000 Ang^3
#
#
#
# Elastic Constant Matrix: (Units=GPa)
#
#
# Indices 1 2 3 4 5 6 
#
# 1 97.1298 32.4295 22.0067 0.0000 0.0000 0.0000
# 2 32.4295 133.0069 29.4029 0.0000 0.0000 0.0000
# 3 22.0067 29.4029 73.7969 0.0000 0.0000 0.0000
# 4 0.0000 0.0000 0.0000 25.9357 0.0000 0.0000
# 5 0.0000 0.0000 0.0000 0.0000 16.0346 0.0000
# 6 0.0000 0.0000 0.0000 0.0000 0.0000 43.2664
#
#
#
# Elastic Compliance Matrix: (Units=1/GPa)
#
#
# Indices 1 2 3 4 5 6 
#
# 1 0.011634 -0.002270 -0.002565 0.000000 0.000000 0.000000
# 2 -0.002270 0.008687 -0.002784 0.000000 0.000000 0.000000
# 3 -0.002565 -0.002784 0.015425 0.000000 0.000000 0.000000
# 4 0.000000 0.000000 0.000000 0.038557 0.000000 0.000000
# 5 0.000000 0.000000 0.000000 0.000000 0.062365 0.000000
# 6 0.000000 0.000000 0.000000 0.000000 0.000000 0.023113
#
#
# Mechanical properties :
#
#
# Convention : Reuss Voigt Hill
#
# Bulk Modulus (GPa) = 48.76074 52.40132 50.58103
# Shear Modulus (GPa) = 27.49424 31.72031 29.60727
#
# Velocity S-wave (km/s) = 3.57939 3.84466 3.71439
# Velocity P-wave (km/s) = 6.30911 6.64282 6.47811
#
# Compressibility (1/GPa) = 0.02050830
#
# Stress axis : x y z
#
# Youngs Moduli (GPa) = 85.95139 115.11019 64.82946
#
# Poissons Ratio (x) = 0.26126 0.16630
# Poissons Ratio (y) = 0.19508 0.18052
# Poissons Ratio (z) = 0.22048 0.32052
#
# Static dielectric constant tensor:
#      x y z
#    x 4.179350 0.000000 0.000000 
#    y 0.000000 4.010320 0.000000 
#    z 0.000000 0.000000 3.585400 
# 
# 
# High freq. dielectric constant tensor:
#      x y z
#    x 1.853670 0.000000 0.000000 
#    y 0.000000 1.859030 0.000000 
#    z 0.000000 0.000000 1.804490 
# 
# From -- ./inp_files/26491.got.cif
#   From: 2010.06.25/outbox.cif.g09.slc.cpg/sg48_14_cif.got.tgz:26491.got - 2010.06.26 18:06:46.
