data_PCOD8201997
_publ_section_title
;
Structure prediction by ZEFSAII (Michael W. Deem and Ramdas Pophale) SiO2 
 PCOD8201997
Probable space group: P N N N
;
_chemical_formula_sum "Si O2"
_cell_formula_units_Z 22
_cell_length_a 5.202278
_cell_length_b 31.306933
_cell_length_c 5.141582
_cell_angle_alpha 90.000000
_cell_angle_beta 90.000000
_cell_angle_gamma 90.000000
_cell_volume 837.395932
_symmetry_space_group_name_H-M "P N N N"
_symmetry_group_IT_number 48
_space_group.IT_coordinate_system_code '2'
_symmetry_cell_setting 'orthorhombic'
loop_
_space_group_symop_operation_xyz
x,y,z
1/2-x,1/2-y,z
x,1/2-y,1/2-z
1/2-x,y,1/2-z
-x,-y,-z
1/2+x,1/2+y,-z
-x,1/2+y,1/2+z
1/2+x,-y,1/2+z
loop_
_atom_site_type_symbol
_atom_site_label
_atom_site_fract_x
_atom_site_fract_y
_atom_site_fract_z
Si Si1 0.573900 0.178308 0.993197
Si Si2 0.000883 0.548690 0.586754
Si Si3 0.250000 0.250000 0.750000
Si Si4 0.250000 0.111607 0.750000
O O1 0.750000 0.167882 0.750000
O O2 0.428568 0.223092 0.947045
O O3 0.357043 0.141028 0.988690
O O4 0.750000 0.179340 0.250000
O O5 0.750000 0.558016 0.750000
O O6 0.984028 0.580929 0.343665
O O7 0.250000 0.560383 0.750000
O O8 0.000000 0.500000 0.500000
#
# Coordination Sequence:
#
# PCOD8201997 Si02
#       4
#     8   8   2   4
#     4  11  28  51  83 121 168 219 275 352 433 518
#     4  12  28  49  79 116 163 223 294 359 430 502
#     4  10  26  54  84 124 160 218 278 346 422 530
#     4  11  30  47  78 118 170 218 288 354 435 508
#
# _framework density 26.271920000000001
#
# number of rings (size 3 to 8) (size 9 to 14) (size 15 to 20)
#    0.000    0.727    1.818    1.636   10.182    8.727 
#    0.000    5.455    0.000    0.000    0.000    0.000 
#    0.000    0.000    0.000    0.000    0.000    0.000 
#
# Total GULP energy -272805.789676 kJ/mol
# GULP energy per Si atom -12400.263167 kJ/mol
# Density = 2.621212 g / cm^3
# Si number density = 26.271920 Si / 1000 Ang^3
#
#
#
# Elastic Constant Matrix: (Units=GPa)
#
#
# Indices 1 2 3 4 5 6 
#
# 1 177.2534 73.5540 79.9043 0.0000 0.0000 0.0000
# 2 73.5540 218.0964 74.9669 0.0000 0.0000 0.0000
# 3 79.9043 74.9669 165.4282 0.0000 0.0000 0.0000
# 4 0.0000 0.0000 0.0000 22.7784 0.0000 0.0000
# 5 0.0000 0.0000 0.0000 0.0000 74.7516 0.0000
# 6 0.0000 0.0000 0.0000 0.0000 0.0000 47.8541
#
#
#
# Elastic Compliance Matrix: (Units=1/GPa)
#
#
# Indices 1 2 3 4 5 6 
#
# 1 0.007629 -0.001547 -0.002984 0.000000 0.000000 0.000000
# 2 -0.001547 0.005745 -0.001856 0.000000 0.000000 0.000000
# 3 -0.002984 -0.001856 0.008327 0.000000 0.000000 0.000000
# 4 0.000000 0.000000 0.000000 0.043901 0.000000 0.000000
# 5 0.000000 0.000000 0.000000 0.000000 0.013378 0.000000
# 6 0.000000 0.000000 0.000000 0.000000 0.000000 0.020897
#
#
# Mechanical properties :
#
#
# Convention : Reuss Voigt Hill
#
# Bulk Modulus (GPa) = 112.02076 113.06981 112.54528
# Shear Modulus (GPa) = 43.24283 51.23366 47.23825
#
# Velocity S-wave (km/s) = 4.06146 4.42082 4.24494
# Velocity P-wave (km/s) = 8.04521 8.31805 8.18277
#
# Compressibility (1/GPa) = 0.00892692
#
# Stress axis : x y z
#
# Youngs Moduli (GPa) = 131.08433 174.06619 120.08893
#
# Poissons Ratio (x) = 0.26932 0.35830
# Poissons Ratio (y) = 0.20282 0.22290
# Poissons Ratio (z) = 0.39110 0.32308
#
# Static dielectric constant tensor:
#      x y z
#    x 5.928210 0.000000 0.000000 
#    y 0.000000 2.820130 0.000000 
#    z 0.000000 0.000000 5.394730 
# 
# 
# High freq. dielectric constant tensor:
#      x y z
#    x 2.073310 0.000000 0.000000 
#    y 0.000000 2.079630 0.000000 
#    z 0.000000 0.000000 2.043740 
# 
# From -- ./inp_files/354.got.cif
#   From: 2010.06.25/outbox.cif.g09.slc.cpg/sg48_1_cif.got.tgz:354.got - 2010.06.26 18:06:46.
