data_PCOD8201571
_publ_section_title
;
Structure prediction by ZEFSAII (Michael W. Deem and Ramdas Pophale) SiO2 
 PCOD8201571
Probable space group: P N N N
;
_chemical_formula_sum "Si O2"
_cell_formula_units_Z 64
_cell_length_a 11.735872
_cell_length_b 9.069016
_cell_length_c 31.257095
_cell_angle_alpha 90.000000
_cell_angle_beta 90.000000
_cell_angle_gamma 90.000000
_cell_volume 3326.780483
_symmetry_space_group_name_H-M "P N N N"
_symmetry_group_IT_number 48
_space_group.IT_coordinate_system_code '2'
_symmetry_cell_setting 'orthorhombic'
loop_
_space_group_symop_operation_xyz
x,y,z
1/2-x,1/2-y,z
x,1/2-y,1/2-z
1/2-x,y,1/2-z
-x,-y,-z
1/2+x,1/2+y,-z
-x,1/2+y,1/2+z
1/2+x,-y,1/2+z
loop_
_atom_site_type_symbol
_atom_site_label
_atom_site_fract_x
_atom_site_fract_y
_atom_site_fract_z
Si Si1 0.761494 0.418784 0.962370
Si Si2 0.470935 0.423654 0.428140
Si Si3 0.378595 0.424889 0.252871
Si Si4 0.355593 0.350530 0.095630
Si Si5 0.773917 0.084430 0.441854
Si Si6 0.238892 0.075708 0.856587
Si Si7 0.032006 0.923821 0.668020
Si Si8 0.982874 0.084276 0.171820
O O1 0.750000 0.250000 0.949327
O O2 0.891517 0.463766 0.953601
O O3 0.679705 0.513281 0.933007
O O4 0.720707 0.444248 0.011457
O O5 0.431719 0.254471 0.434604
O O6 0.593122 0.442224 0.448643
O O7 0.470142 0.453914 0.377087
O O8 0.370118 0.250000 0.250000
O O9 0.250000 0.491273 0.250000
O O10 0.443434 0.479250 0.295835
O O11 0.454073 0.479997 0.213330
O O12 0.250000 0.250000 0.113037
O O13 0.425329 0.421816 0.134023
O O14 0.750000 0.250000 0.425218
O O15 0.727810 0.973115 0.406195
O O16 0.250000 0.250000 0.854512
O O17 0.347103 0.007381 0.831716
O O18 0.123438 0.023787 0.834197
O O19 0.061080 0.752058 0.676121
#
# Coordination Sequence:
#
# PCOD8201571 Si02
#       8
#     8   8   8   8   8   8   8   8
#     4  10  21  34  52  81 113 144 182 230 283 337
#     4   9  18  34  56  76 108 148 183 228 280 332
#     4   9  19  32  61  95 114 139 190 241 276 325
#     4   9  19  32  54  81 110 149 183 225 286 336
#     4  10  20  38  58  79 105 143 191 238 279 322
#     4  11  23  38  58  82 113 152 192 230 279 345
#     4   9  19  37  60  85 115 146 189 236 284 325
#     4  10  20  36  60  86 115 150 186 236 283 329
#
# _framework density 19.237819999999999
#
# number of rings (size 3 to 8) (size 9 to 14) (size 15 to 20)
#    0.000    2.375    0.000    3.000    7.000    4.000 
#    0.000    8.750    0.000    0.750    0.000    0.000 
#    0.000    0.000    0.000    0.000    0.000    0.000 
#
# Total GULP energy -793442.252261 kJ/mol
# GULP energy per Si atom -12397.535192 kJ/mol
# Density = 1.919403 g / cm^3
# Si number density = 19.237820 Si / 1000 Ang^3
#
#
#
# Elastic Constant Matrix: (Units=GPa)
#
#
# Indices 1 2 3 4 5 6 
#
# 1 112.8928 52.1348 65.8001 0.0000 0.0000 0.0000
# 2 52.1348 101.0048 59.4043 0.0000 0.0000 0.0000
# 3 65.8001 59.4043 97.4955 0.0000 0.0000 0.0000
# 4 0.0000 0.0000 0.0000 17.9709 0.0000 0.0000
# 5 0.0000 0.0000 0.0000 0.0000 19.2046 0.0000
# 6 0.0000 0.0000 0.0000 0.0000 0.0000 23.2042
#
#
#
# Elastic Compliance Matrix: (Units=1/GPa)
#
#
# Indices 1 2 3 4 5 6 
#
# 1 0.015095 -0.002805 -0.008479 0.000000 0.000000 0.000000
# 2 -0.002805 0.015951 -0.007826 0.000000 0.000000 0.000000
# 3 -0.008479 -0.007826 0.020748 0.000000 0.000000 0.000000
# 4 0.000000 0.000000 0.000000 0.055646 0.000000 0.000000
# 5 0.000000 0.000000 0.000000 0.000000 0.052071 0.000000
# 6 0.000000 0.000000 0.000000 0.000000 0.000000 0.043096
#
#
# Mechanical properties :
#
#
# Convention : Reuss Voigt Hill
#
# Bulk Modulus (GPa) = 73.66724 74.00795 73.83759
# Shear Modulus (GPa) = 20.37906 21.01286 20.69596
#
# Velocity S-wave (km/s) = 3.25825 3.30853 3.28349
# Velocity P-wave (km/s) = 7.24783 7.29032 7.26910
#
# Compressibility (1/GPa) = 0.01357456
#
# Stress axis : x y z
#
# Youngs Moduli (GPa) = 66.24637 62.69200 48.19837
#
# Poissons Ratio (x) = 0.17585 0.40866
# Poissons Ratio (y) = 0.18582 0.37720
# Poissons Ratio (z) = 0.56169 0.49062
#
# Static dielectric constant tensor:
#      x y z
#    x 3.711370 0.000000 0.000000 
#    y 0.000000 3.250060 0.000000 
#    z 0.000000 0.000000 3.540990 
# 
# 
# High freq. dielectric constant tensor:
#      x y z
#    x 1.759080 0.000000 0.000000 
#    y 0.000000 1.719870 0.000000 
#    z 0.000000 0.000000 1.749480 
# 
# From -- ./inp_files/38991.got.cif
#   From: 2010.06.25/outbox.cif.g09.slc.cpg/sg48_20_cif.got.tgz:38991.got - 2010.06.26 18:06:46.
