data_PCOD8201941
_publ_section_title
;
Structure prediction by ZEFSAII (Michael W. Deem and Ramdas Pophale) SiO2 
 PCOD8201941
Probable space group: P N N N
;
_chemical_formula_sum "Si O2"
_cell_formula_units_Z 32
_cell_length_a 27.459336
_cell_length_b 9.337579
_cell_length_c 5.120365
_cell_angle_alpha 90.000000
_cell_angle_beta 90.000000
_cell_angle_gamma 90.000000
_cell_volume 1312.880630
_symmetry_space_group_name_H-M "P N N N"
_symmetry_group_IT_number 48
_space_group.IT_coordinate_system_code '2'
_symmetry_cell_setting 'orthorhombic'
loop_
_space_group_symop_operation_xyz
x,y,z
1/2-x,1/2-y,z
x,1/2-y,1/2-z
1/2-x,y,1/2-z
-x,-y,-z
1/2+x,1/2+y,-z
-x,1/2+y,1/2+z
1/2+x,-y,1/2+z
loop_
_atom_site_type_symbol
_atom_site_label
_atom_site_fract_x
_atom_site_fract_y
_atom_site_fract_z
Si Si1 0.056792 0.750000 0.750000
Si Si2 0.008037 0.250000 0.750000
Si Si3 0.844619 0.894464 0.859456
Si Si4 0.094457 0.052360 0.654226
Si Si5 0.195832 0.814586 0.005194
O O1 0.092240 0.614911 0.781779
O O2 0.024842 0.711789 0.497116
O O3 0.040259 0.115916 0.653096
O O4 0.817966 0.750000 0.750000
O O5 0.880467 0.940951 0.628015
O O6 0.805062 0.013216 0.955998
O O7 0.876589 0.862136 0.116735
O O8 0.250000 0.750000 0.006321
O O9 0.166355 0.750000 0.250000
O O10 0.169664 0.750000 0.750000
#
# Coordination Sequence:
#
# PCOD8201941 Si02
#       5
#     4   4   8   8   8
#     4  12  26  40  66  98 133 192 232 301 350 412
#     4  12  22  46  62  94 146 181 237 294 358 408
#     4  12  24  44  69 102 143 182 230 292 352 417
#     4  12  25  42  67 101 137 183 242 289 347 416
#     4  10  23  44  72 106 138 177 222 286 352 424
#
# _framework density 24.373884
#
# number of rings (size 3 to 8) (size 9 to 14) (size 15 to 20)
#    0.000    0.500    2.500    6.000    5.250    0.000 
#    0.000    2.500    0.000    6.000    0.000    0.000 
#    0.000    0.000    0.000    0.000    0.000    0.000 
#
# Total GULP energy -396502.864297 kJ/mol
# GULP energy per Si atom -12390.714509 kJ/mol
# Density = 2.431841 g / cm^3
# Si number density = 24.373884 Si / 1000 Ang^3
#
#
#
# Elastic Constant Matrix: (Units=GPa)
#
#
# Indices 1 2 3 4 5 6 
#
# 1 54.4200 30.9982 33.1616 0.0000 0.0000 0.0000
# 2 30.9982 178.7721 47.9638 0.0000 0.0000 0.0000
# 3 33.1616 47.9638 201.8594 0.0000 0.0000 0.0000
# 4 0.0000 0.0000 0.0000 44.8921 0.0000 0.0000
# 5 0.0000 0.0000 0.0000 0.0000 6.8462 0.0000
# 6 0.0000 0.0000 0.0000 0.0000 0.0000 21.5120
#
#
#
# Elastic Compliance Matrix: (Units=1/GPa)
#
#
# Indices 1 2 3 4 5 6 
#
# 1 0.021844 -0.003017 -0.002872 0.000000 0.000000 0.000000
# 2 -0.003017 0.006391 -0.001023 0.000000 0.000000 0.000000
# 3 -0.002872 -0.001023 0.005669 0.000000 0.000000 0.000000
# 4 0.000000 0.000000 0.000000 0.022276 0.000000 0.000000
# 5 0.000000 0.000000 0.000000 0.000000 0.146066 0.000000
# 6 0.000000 0.000000 0.000000 0.000000 0.000000 0.046486
#
#
# Mechanical properties :
#
#
# Convention : Reuss Voigt Hill
#
# Bulk Modulus (GPa) = 49.79939 73.25540 61.52740
# Shear Modulus (GPa) = 18.57020 36.17859 27.37439
#
# Velocity S-wave (km/s) = 2.76323 3.85686 3.35491
# Velocity P-wave (km/s) = 5.53682 7.06781 6.34864
#
# Compressibility (1/GPa) = 0.02008057
#
# Stress axis : x y z
#
# Youngs Moduli (GPa) = 45.77889 156.46162 176.40517
#
# Poissons Ratio (x) = 0.47208 0.50657
# Poissons Ratio (y) = 0.13812 0.18046
# Poissons Ratio (z) = 0.13146 0.16006
#
# Static dielectric constant tensor:
#      x y z
#    x 3.898610 0.000000 0.000000 
#    y 0.000000 4.700410 0.000000 
#    z 0.000000 0.000000 1.246860 
# 
# 
# High freq. dielectric constant tensor:
#      x y z
#    x 1.938800 0.000000 0.000000 
#    y 0.000000 1.985660 0.000000 
#    z 0.000000 0.000000 2.002890 
# 
# From -- ./inp_files/1073.got.cif
#   From: 2010.06.25/outbox.cif.g09.slc.cpg/sg48_1_cif.got.tgz:1073.got - 2010.06.26 18:06:46.
