data_PCOD8201617
_publ_section_title
;
Structure prediction by ZEFSAII (Michael W. Deem and Ramdas Pophale) SiO2 
 PCOD8201617
Probable space group: P N N N
;
_chemical_formula_sum "Si O2"
_cell_formula_units_Z 52
_cell_length_a 15.578977
_cell_length_b 18.560149
_cell_length_c 8.448435
_cell_angle_alpha 90.000000
_cell_angle_beta 90.000000
_cell_angle_gamma 90.000000
_cell_volume 2442.849219
_symmetry_space_group_name_H-M "P N N N"
_symmetry_group_IT_number 48
_space_group.IT_coordinate_system_code '2'
_symmetry_cell_setting 'orthorhombic'
loop_
_space_group_symop_operation_xyz
x,y,z
1/2-x,1/2-y,z
x,1/2-y,1/2-z
1/2-x,y,1/2-z
-x,-y,-z
1/2+x,1/2+y,-z
-x,1/2+y,1/2+z
1/2+x,-y,1/2+z
loop_
_atom_site_type_symbol
_atom_site_label
_atom_site_fract_x
_atom_site_fract_y
_atom_site_fract_z
Si Si1 0.250000 0.546708 0.750000
Si Si2 0.933514 0.009883 0.736255
Si Si3 0.680946 0.559069 0.994646
Si Si4 0.207533 0.182596 0.419632
Si Si5 0.528215 0.857048 0.357185
Si Si6 0.082900 0.581357 0.904659
Si Si7 0.024526 0.205739 0.519789
O O1 0.302193 0.502440 0.880097
O O2 0.176294 0.594345 0.830124
O O3 0.903402 0.033143 0.561914
O O4 0.958365 0.079107 0.844074
O O5 0.016315 0.957613 0.715798
O O6 0.854295 0.971188 0.825883
O O7 0.611885 0.615160 0.057352
O O8 0.770089 0.603576 0.986679
O O9 0.250000 0.250000 0.517518
O O10 0.250000 0.184342 0.250000
O O11 0.105940 0.195041 0.405602
O O12 0.493624 0.788472 0.458472
O O13 0.554347 0.830073 0.183851
O O14 0.053654 0.661965 0.944951
#
# Coordination Sequence:
#
# PCOD8201617 Si02
#       7
#     4   8   8   8   8   8   8
#     4  12  26  38  63  97 128 164 220 266 318 378
#     4  10  22  41  65  89 129 165 216 261 326 375
#     4  12  23  38  61  95 130 166 206 263 312 393
#     4  11  23  36  53  90 133 168 202 246 322 392
#     4  10  20  38  64  92 117 171 213 257 314 388
#     4  10  23  42  62  93 126 171 212 270 319 384
#     4  10  21  41  61  87 130 166 211 259 322 386
#
# _framework density 21.286619000000002
#
# number of rings (size 3 to 8) (size 9 to 14) (size 15 to 20)
#    0.000    1.385    3.077    2.308    6.462    0.000 
#    0.000    0.000    0.000    1.846    0.000    4.308 
#    0.000    0.000    0.000    0.000    0.000    0.000 
#
# Total GULP energy -644594.179119 kJ/mol
# GULP energy per Si atom -12396.041906 kJ/mol
# Density = 2.123817 g / cm^3
# Si number density = 21.286619 Si / 1000 Ang^3
#
#
#
# Elastic Constant Matrix: (Units=GPa)
#
#
# Indices 1 2 3 4 5 6 
#
# 1 107.7741 57.3165 44.5609 0.0000 0.0000 0.0000
# 2 57.3165 128.1077 38.2432 0.0000 0.0000 0.0000
# 3 44.5609 38.2432 75.1472 0.0000 0.0000 0.0000
# 4 0.0000 0.0000 0.0000 23.0274 0.0000 0.0000
# 5 0.0000 0.0000 0.0000 0.0000 31.7705 0.0000
# 6 0.0000 0.0000 0.0000 0.0000 0.0000 2.9527
#
#
#
# Elastic Compliance Matrix: (Units=1/GPa)
#
#
# Indices 1 2 3 4 5 6 
#
# 1 0.014223 -0.004535 -0.006126 0.000000 0.000000 0.000000
# 2 -0.004535 0.010650 -0.002731 0.000000 0.000000 0.000000
# 3 -0.006126 -0.002731 0.018330 0.000000 0.000000 0.000000
# 4 0.000000 0.000000 0.000000 0.043427 0.000000 0.000000
# 5 0.000000 0.000000 0.000000 0.000000 0.031476 0.000000
# 6 0.000000 0.000000 0.000000 0.000000 0.000000 0.338668
#
#
# Mechanical properties :
#
#
# Convention : Reuss Voigt Hill
#
# Bulk Modulus (GPa) = 60.90453 65.69668 63.30060
# Shear Modulus (GPa) = 10.22430 22.94402 16.58416
#
# Velocity S-wave (km/s) = 2.19399 3.28664 2.79424
# Velocity P-wave (km/s) = 5.92384 6.73295 6.34131
#
# Compressibility (1/GPa) = 0.01641914
#
# Stress axis : x y z
#
# Youngs Moduli (GPa) = 70.30649 93.89603 54.55587
#
# Poissons Ratio (x) = 0.42580 0.33423
# Poissons Ratio (y) = 0.31883 0.14898
# Poissons Ratio (z) = 0.43073 0.25642
#
# Static dielectric constant tensor:
#      x y z
#    x 3.635990 0.000000 0.000000 
#    y 0.000000 4.781390 0.000000 
#    z 0.000000 0.000000 3.635390 
# 
# 
# High freq. dielectric constant tensor:
#      x y z
#    x 1.811910 0.000000 0.000000 
#    y 0.000000 1.838410 0.000000 
#    z 0.000000 0.000000 1.837150 
# 
# From -- ./inp_files/14385.got.cif
#   From: 2010.06.25/outbox.cif.g09.slc.cpg/sg48_8_cif.got.tgz:14385.got - 2010.06.26 18:06:46.
