data_PCOD8201518
_publ_section_title
;
Structure prediction by ZEFSAII (Michael W. Deem and Ramdas Pophale) SiO2 
 PCOD8201518
Probable space group: P N N N
;
_chemical_formula_sum "Si O2"
_cell_formula_units_Z 42
_cell_length_a 5.095136
_cell_length_b 18.680267
_cell_length_c 21.774619
_cell_angle_alpha 90.000000
_cell_angle_beta 90.000000
_cell_angle_gamma 90.000000
_cell_volume 2072.475594
_symmetry_space_group_name_H-M "P N N N"
_symmetry_group_IT_number 48
_space_group.IT_coordinate_system_code '2'
_symmetry_cell_setting 'orthorhombic'
loop_
_space_group_symop_operation_xyz
x,y,z
1/2-x,1/2-y,z
x,1/2-y,1/2-z
1/2-x,y,1/2-z
-x,-y,-z
1/2+x,1/2+y,-z
-x,1/2+y,1/2+z
1/2+x,-y,1/2+z
loop_
_atom_site_type_symbol
_atom_site_label
_atom_site_fract_x
_atom_site_fract_y
_atom_site_fract_z
Si Si1 0.838486 0.832051 0.082955
Si Si2 0.750000 0.014686 0.750000
Si Si3 0.258034 0.334798 0.054177
Si Si4 0.250000 0.918438 0.750000
Si Si5 0.140032 0.635854 0.156871
Si Si6 0.244044 0.835118 0.626695
Si Si7 0.250000 0.750000 0.250000
O O1 0.750000 0.750000 0.084836
O O2 0.629932 0.878430 0.121305
O O3 0.129142 0.840011 0.110562
O O4 0.827424 0.862912 0.013862
O O5 0.713666 0.062343 0.810511
O O6 0.499023 0.966998 0.736100
O O7 0.250000 0.250000 0.052563
O O8 0.480251 0.363203 0.100465
O O9 0.978520 0.362092 0.079004
O O10 0.186679 0.868184 0.692604
O O11 0.076299 0.698303 0.206753
O O12 0.250000 0.750000 0.633812
#
# Coordination Sequence:
#
# PCOD8201518 Si02
#       7
#     8   4   8   4   8   8   2
#     4  11  19  34  58  88 116 157 184 236 288 341
#     4  11  26  41  55  82 113 166 186 244 277 340
#     4   9  19  33  56  90 125 140 177 229 303 341
#     4  12  23  42  64  79 114 150 198 222 302 353
#     4  11  22  36  56  82 121 150 203 236 282 321
#     4  10  20  37  62  93 113 140 178 247 288 349
#     4  10  20  34  52  86 110 146 194 252 262 314
#
# _framework density 20.265616999999999
#
# number of rings (size 3 to 8) (size 9 to 14) (size 15 to 20)
#    0.000    1.524    1.905    3.714    0.000    6.095 
#    0.000    3.810    0.000   22.857    0.000    0.000 
#    0.000    0.000    0.000    0.000    0.000    0.000 
#
# Total GULP energy -520840.839359 kJ/mol
# GULP energy per Si atom -12400.972366 kJ/mol
# Density = 2.021949 g / cm^3
# Si number density = 20.265617 Si / 1000 Ang^3
#
#
#
# Elastic Constant Matrix: (Units=GPa)
#
#
# Indices 1 2 3 4 5 6 
#
# 1 114.9775 23.2364 33.8850 0.0000 0.0000 0.0000
# 2 23.2364 49.8447 32.6491 0.0000 0.0000 0.0000
# 3 33.8850 32.6491 137.3177 0.0000 0.0000 0.0000
# 4 0.0000 0.0000 0.0000 6.1914 0.0000 0.0000
# 5 0.0000 0.0000 0.0000 0.0000 33.2901 0.0000
# 6 0.0000 0.0000 0.0000 0.0000 0.0000 25.1776
#
#
#
# Elastic Compliance Matrix: (Units=1/GPa)
#
#
# Indices 1 2 3 4 5 6 
#
# 1 0.009887 -0.003567 -0.001592 0.000000 0.000000 0.000000
# 2 -0.003567 0.025050 -0.005076 0.000000 0.000000 0.000000
# 3 -0.001592 -0.005076 0.008882 0.000000 0.000000 0.000000
# 4 0.000000 0.000000 0.000000 0.161513 0.000000 0.000000
# 5 0.000000 0.000000 0.000000 0.000000 0.030039 0.000000
# 6 0.000000 0.000000 0.000000 0.000000 0.000000 0.039718
#
#
# Mechanical properties :
#
#
# Convention : Reuss Voigt Hill
#
# Bulk Modulus (GPa) = 42.82537 53.52009 48.17273
# Shear Modulus (GPa) = 16.48310 27.08980 21.78645
#
# Velocity S-wave (km/s) = 2.85503 3.66011 3.28234
# Velocity P-wave (km/s) = 5.66093 6.65796 6.17959
#
# Compressibility (1/GPa) = 0.02335064
#
# Stress axis : x y z
#
# Youngs Moduli (GPa) = 101.14032 39.92069 112.58695
#
# Poissons Ratio (x) = 0.14238 0.17922
# Poissons Ratio (y) = 0.36072 0.57147
# Poissons Ratio (z) = 0.16100 0.20263
#
# Static dielectric constant tensor:
#      x y z
#    x 3.825980 0.000000 0.000000 
#    y 0.000000 3.378340 0.000000 
#    z 0.000000 0.000000 3.913490 
# 
# 
# High freq. dielectric constant tensor:
#      x y z
#    x 1.801990 0.000000 0.000000 
#    y 0.000000 1.754520 0.000000 
#    z 0.000000 0.000000 1.806360 
# 
# From -- ./inp_files/32878.got.cif
#   From: 2010.06.25/outbox.cif.g09.slc.cpg/sg48_17_cif.got.tgz:32878.got - 2010.06.26 18:06:46.
