data_PCOD8201196
_publ_section_title
;
Structure prediction by ZEFSAII (Michael W. Deem and Ramdas Pophale) SiO2 
 PCOD8201196
Probable space group: P M M M
;
_chemical_formula_sum "Si O2"
_cell_formula_units_Z 52
_cell_length_a 13.750872
_cell_length_b 9.295734
_cell_length_c 26.435619
_cell_angle_alpha 90.000000
_cell_angle_beta 90.000000
_cell_angle_gamma 90.000000
_cell_volume 3379.118416
_symmetry_space_group_name_H-M "P M M M"
_symmetry_group_IT_number 47
_symmetry_cell_setting 'orthorhombic'
loop_
_space_group_symop_operation_xyz
x,y,z
-x,-y,z
x,-y,-z
-x,y,-z
-x,-y,-z
x,y,-z
-x,y,z
x,-y,z
loop_
_atom_site_type_symbol
_atom_site_label
_atom_site_fract_x
_atom_site_fract_y
_atom_site_fract_z
Si Si1 0.115610 0.337258 0.596585
Si Si2 0.112477 0.167450 0.305061
Si Si3 0.774663 0.167382 0.795074
Si Si4 0.610250 0.330565 0.153725
Si Si5 0.726196 0.333750 0.056344
Si Si6 0.109880 0.831853 0.105460
Si Si7 0.883962 0.836601 0.500000
O O1 0.156591 0.500000 0.594688
O O2 0.150678 0.260203 0.647776
O O3 0.156402 0.247040 0.549114
O O4 0.000000 0.338929 0.594371
O O5 0.177176 0.214655 0.257509
O O6 0.000000 0.200570 0.292560
O O7 0.125853 0.000000 0.318253
O O8 0.675086 0.254431 0.803469
O O9 0.851564 0.205545 0.838696
O O10 0.748464 0.000000 0.795241
O O11 0.500000 0.276684 0.159703
O O12 0.618360 0.500000 0.161759
O O13 0.646058 0.285290 0.097489
O O14 0.751807 0.500000 0.063647
O O15 0.826012 0.247305 0.063462
O O16 0.685041 0.303033 0.000000
O O17 0.000000 0.775256 0.101402
O O18 0.115932 0.000000 0.094456
O O19 0.000000 0.838175 0.500000
O O20 0.844059 0.000000 0.500000
#
# Coordination Sequence:
#
# PCOD8201196 Si02
#       7
#     8   8   8   8   8   8   4
#     4   9  16  24  34  51  76 106 141 179 214 244
#     4   9  16  26  40  58  81 109 140 171 203 241
#     4   9  17  29  45  63  82 105 134 168 203 241
#     4   9  18  32  48  64  81 102 129 162 203 250
#     4   9  18  31  45  62  83 105 131 164 200 239
#     4   9  17  29  44  61  82 109 138 165 196 236
#     4   9  15  23  35  49  69 103 146 185 216 245
#
# _framework density 15.388629
#
# number of rings (size 3 to 8) (size 9 to 14) (size 15 to 20)
#    0.000    3.000    0.000    1.154    0.000    6.769 
#    0.000    3.077    0.000    2.769    0.000    4.308 
#    0.000    0.000    0.000    0.692    0.000   13.000 
#
# Total GULP energy -644748.605383 kJ/mol
# GULP energy per Si atom -12399.011642 kJ/mol
# Density = 1.535360 g / cm^3
# Si number density = 15.388629 Si / 1000 Ang^3
#
#
#
# Elastic Constant Matrix: (Units=GPa)
#
#
# Indices 1 2 3 4 5 6 
#
# 1 84.5336 33.0362 40.2262 0.0000 0.0000 0.0000
# 2 33.0362 64.0337 50.5135 0.0000 0.0000 0.0000
# 3 40.2262 50.5135 117.3065 0.0000 0.0000 0.0000
# 4 0.0000 0.0000 0.0000 27.1295 0.0000 0.0000
# 5 0.0000 0.0000 0.0000 0.0000 11.9964 0.0000
# 6 0.0000 0.0000 0.0000 0.0000 0.0000 20.0945
#
#
#
# Elastic Compliance Matrix: (Units=1/GPa)
#
#
# Indices 1 2 3 4 5 6 
#
# 1 0.015409 -0.005727 -0.002818 0.000000 0.000000 0.000000
# 2 -0.005727 0.025779 -0.009137 0.000000 0.000000 0.000000
# 3 -0.002818 -0.009137 0.013425 0.000000 0.000000 0.000000
# 4 0.000000 0.000000 0.000000 0.036860 0.000000 0.000000
# 5 0.000000 0.000000 0.000000 0.000000 0.083358 0.000000
# 6 0.000000 0.000000 0.000000 0.000000 0.000000 0.049765
#
#
# Mechanical properties :
#
#
# Convention : Reuss Voigt Hill
#
# Bulk Modulus (GPa) = 51.94798 57.04728 54.49763
# Shear Modulus (GPa) = 18.77047 21.31728 20.04387
#
# Velocity S-wave (km/s) = 3.49630 3.72595 3.61295
# Velocity P-wave (km/s) = 7.08022 7.46068 7.27294
#
# Compressibility (1/GPa) = 0.01925003
#
# Stress axis : x y z
#
# Youngs Moduli (GPa) = 64.89913 38.79121 74.48535
#
# Poissons Ratio (x) = 0.22214 0.20989
# Poissons Ratio (y) = 0.37165 0.68057
# Poissons Ratio (z) = 0.18288 0.35444
#
# Static dielectric constant tensor:
#      x y z
#    x 2.695660 0.000000 0.000000 
#    y 0.000000 2.992160 0.000000 
#    z 0.000000 0.000000 3.014620 
# 
# 
# High freq. dielectric constant tensor:
#      x y z
#    x 1.544040 0.000000 0.000000 
#    y 0.000000 1.593750 0.000000 
#    z 0.000000 0.000000 1.590250 
# 
# From -- ./inp_files/8019.got.cif
#   From: 2010.03.12/outbox.cif.g09.slc.cpg/sg47_5_cif.got.tgz:8019.got - 2010.04.14 03:12:58.
