data_PCOD8201226
_publ_section_title
;
Structure prediction by ZEFSAII (Michael W. Deem and Ramdas Pophale) SiO2 
 PCOD8201226
Probable space group: P M M M
;
_chemical_formula_sum "Si O2"
_cell_formula_units_Z 36
_cell_length_a 9.624930
_cell_length_b 16.032079
_cell_length_c 13.536529
_cell_angle_alpha 90.000000
_cell_angle_beta 90.000000
_cell_angle_gamma 90.000000
_cell_volume 2088.789818
_symmetry_space_group_name_H-M "P M M M"
_symmetry_group_IT_number 47
_symmetry_cell_setting 'orthorhombic'
loop_
_space_group_symop_operation_xyz
x,y,z
-x,-y,z
x,-y,-z
-x,y,-z
-x,-y,-z
x,y,-z
-x,y,z
x,-y,z
loop_
_atom_site_type_symbol
_atom_site_label
_atom_site_fract_x
_atom_site_fract_y
_atom_site_fract_z
Si Si1 0.159916 0.667110 0.887479
Si Si2 0.662161 0.756240 0.386852
Si Si3 0.161025 0.163952 0.223815
Si Si4 0.165011 0.000000 0.111156
Si Si5 0.340953 0.407290 0.274175
O O1 0.185047 0.761494 0.852835
O O2 0.249421 0.603114 0.823646
O O3 0.000000 0.641635 0.875351
O O4 0.209107 0.660067 0.000000
O O5 0.705706 0.768109 0.500000
O O6 0.500000 0.774651 0.370411
O O7 0.750013 0.821681 0.322749
O O8 0.699745 0.661103 0.356428
O O9 0.000000 0.155850 0.254429
O O10 0.216898 0.081051 0.170358
O O11 0.000000 0.000000 0.103798
O O12 0.227502 0.000000 0.000000
O O13 0.500000 0.395497 0.241924
O O14 0.315329 0.500000 0.318195
#
# Coordination Sequence:
#
# PCOD8201226 Si02
#       5
#     8   8   8   4   8
#     4   9  17  29  45  65  91 123 154 183 221 271
#     4   9  18  33  51  68  89 120 154 188 230 276
#     4   9  17  30  49  72  95 119 151 190 227 265
#     4   9  16  28  50  77 100 122 151 187 224 263
#     4   9  18  31  46  66  90 115 149 193 233 269
#
# _framework density 17.234860000000001
#
# number of rings (size 3 to 8) (size 9 to 14) (size 15 to 20)
#    0.000    3.000    0.000    0.667    0.000    4.889 
#    0.000    5.556    0.000    6.000    0.000    6.222 
#    0.000    0.000    0.000    0.000    0.000    0.000 
#
# Total GULP energy -446387.347733 kJ/mol
# GULP energy per Si atom -12399.648548 kJ/mol
# Density = 1.719563 g / cm^3
# Si number density = 17.234860 Si / 1000 Ang^3
#
#
#
# Elastic Constant Matrix: (Units=GPa)
#
#
# Indices 1 2 3 4 5 6 
#
# 1 46.1169 31.8112 50.4060 0.0000 0.0000 0.0000
# 2 31.8112 103.6184 53.6681 0.0000 0.0000 0.0000
# 3 50.4060 53.6681 141.5585 0.0000 0.0000 0.0000
# 4 0.0000 0.0000 0.0000 18.4907 0.0000 0.0000
# 5 0.0000 0.0000 0.0000 0.0000 28.9515 0.0000
# 6 0.0000 0.0000 0.0000 0.0000 0.0000 22.4153
#
#
#
# Elastic Compliance Matrix: (Units=1/GPa)
#
#
# Indices 1 2 3 4 5 6 
#
# 1 0.038123 -0.005815 -0.011370 0.000000 0.000000 0.000000
# 2 -0.005815 0.012896 -0.002819 0.000000 0.000000 0.000000
# 3 -0.011370 -0.002819 0.012181 0.000000 0.000000 0.000000
# 4 0.000000 0.000000 0.000000 0.054081 0.000000 0.000000
# 5 0.000000 0.000000 0.000000 0.000000 0.034541 0.000000
# 6 0.000000 0.000000 0.000000 0.000000 0.000000 0.044612
#
#
# Mechanical properties :
#
#
# Convention : Reuss Voigt Hill
#
# Bulk Modulus (GPa) = 43.11655 62.56272 52.83963
# Shear Modulus (GPa) = 20.47736 24.33206 22.40471
#
# Velocity S-wave (km/s) = 3.45067 3.76146 3.60941
# Velocity P-wave (km/s) = 6.39903 7.43261 6.93510
#
# Compressibility (1/GPa) = 0.02319295
#
# Stress axis : x y z
#
# Youngs Moduli (GPa) = 26.23113 77.54457 82.09184
#
# Poissons Ratio (x) = 0.45090 0.93340
# Poissons Ratio (y) = 0.15253 0.23138
# Poissons Ratio (z) = 0.29825 0.21857
#
# Static dielectric constant tensor:
#      x y z
#    x 3.107200 0.000000 0.000000 
#    y 0.000000 3.249470 0.000000 
#    z 0.000000 0.000000 3.191020 
# 
# 
# High freq. dielectric constant tensor:
#      x y z
#    x 1.649680 0.000000 0.000000 
#    y 0.000000 1.663500 0.000000 
#    z 0.000000 0.000000 1.660050 
# 
# From -- ./inp_files/5495.got.cif
#   From: 2010.03.12/outbox.cif.g09.slc.cpg/sg47_3_cif.got.tgz:5495.got - 2010.04.14 03:12:58.
