data_PCOD8201965
_publ_section_title
;
Structure prediction by ZEFSAII (Michael W. Deem and Ramdas Pophale) SiO2 
 PCOD8201965
Probable space group: P N N N
;
_chemical_formula_sum "Si O2"
_cell_formula_units_Z 64
_cell_length_a 13.012966
_cell_length_b 11.791548
_cell_length_c 18.524712
_cell_angle_alpha 90.000000
_cell_angle_beta 90.000000
_cell_angle_gamma 90.000000
_cell_volume 2842.487628
_symmetry_space_group_name_H-M "P N N N"
_symmetry_group_IT_number 48
_space_group.IT_coordinate_system_code '2'
_symmetry_cell_setting 'orthorhombic'
loop_
_space_group_symop_operation_xyz
x,y,z
1/2-x,1/2-y,z
x,1/2-y,1/2-z
1/2-x,y,1/2-z
-x,-y,-z
1/2+x,1/2+y,-z
-x,1/2+y,1/2+z
1/2+x,-y,1/2+z
loop_
_atom_site_type_symbol
_atom_site_label
_atom_site_fract_x
_atom_site_fract_y
_atom_site_fract_z
Si Si1 0.308450 0.912774 0.432469
Si Si2 0.366668 0.489140 0.921288
Si Si3 0.962817 0.508732 0.807272
Si Si4 0.691782 0.936184 0.176013
Si Si5 0.431493 0.077825 0.351721
Si Si6 0.855681 0.697742 0.896512
Si Si7 0.614664 0.774717 0.055798
Si Si8 0.103308 0.682525 0.102169
O O1 0.187882 0.889417 0.442035
O O2 0.358726 0.810835 0.385609
O O3 0.359763 0.926361 0.510863
O O4 0.326473 0.026940 0.386439
O O5 0.270907 0.515195 0.868506
O O6 0.472376 0.508036 0.880472
O O7 0.368435 0.359208 0.945858
O O8 0.924569 0.561767 0.733293
O O9 0.903864 0.582112 0.867185
O O10 0.923390 0.379213 0.821357
O O11 0.087556 0.508371 0.810502
O O12 0.750000 0.899524 0.250000
O O13 0.668829 0.824964 0.127365
O O14 0.441804 0.207765 0.376350
O O15 0.750000 0.750000 0.861919
O O16 0.837009 0.676946 0.981951
O O17 0.496940 0.813188 0.052616
#
# Coordination Sequence:
#
# PCOD8201965 Si02
#       8
#     8   8   8   8   8   8   8   8
#     4  11  23  42  70 102 137 186 234 291 361 429
#     4  12  23  44  72 102 137 182 245 294 358 431
#     4  11  27  46  68 104 146 188 235 297 363 429
#     4  11  25  47  71 107 144 185 237 302 377 435
#     4  12  24  45  72  98 145 185 239 297 356 437
#     4  12  26  45  73 107 140 191 246 293 353 428
#     4  11  24  43  72 107 140 184 239 303 351 434
#     4  10  24  43  66 102 141 179 234 286 365 421
#
# _framework density 22.51549
#
# number of rings (size 3 to 8) (size 9 to 14) (size 15 to 20)
#    0.000    0.750    3.750    3.375    3.500    5.000 
#    0.000    1.250    0.000    0.000    0.000    0.000 
#    0.000    0.000    0.000    0.000    0.000    0.000 
#
# Total GULP energy -793382.812926 kJ/mol
# GULP energy per Si atom -12396.606452 kJ/mol
# Density = 2.246424 g / cm^3
# Si number density = 22.515490 Si / 1000 Ang^3
#
#
#
# Elastic Constant Matrix: (Units=GPa)
#
#
# Indices 1 2 3 4 5 6 
#
# 1 132.5420 25.9801 29.8513 0.0000 0.0000 0.0000
# 2 25.9801 82.6300 40.4521 0.0000 0.0000 0.0000
# 3 29.8513 40.4521 134.6028 0.0000 0.0000 0.0000
# 4 0.0000 0.0000 0.0000 30.2556 0.0000 0.0000
# 5 0.0000 0.0000 0.0000 0.0000 33.0589 0.0000
# 6 0.0000 0.0000 0.0000 0.0000 0.0000 20.6350
#
#
#
# Elastic Compliance Matrix: (Units=1/GPa)
#
#
# Indices 1 2 3 4 5 6 
#
# 1 0.008209 -0.001981 -0.001225 0.000000 0.000000 0.000000
# 2 -0.001981 0.014668 -0.003969 0.000000 0.000000 0.000000
# 3 -0.001225 -0.003969 0.008894 0.000000 0.000000 0.000000
# 4 0.000000 0.000000 0.000000 0.033052 0.000000 0.000000
# 5 0.000000 0.000000 0.000000 0.000000 0.030249 0.000000
# 6 0.000000 0.000000 0.000000 0.000000 0.000000 0.048461
#
#
# Mechanical properties :
#
#
# Convention : Reuss Voigt Hill
#
# Bulk Modulus (GPa) = 57.40387 60.26020 58.83203
# Shear Modulus (GPa) = 30.54551 33.68931 32.11741
#
# Velocity S-wave (km/s) = 3.68726 3.87236 3.78095
# Velocity P-wave (km/s) = 6.60897 6.84219 6.72659
#
# Compressibility (1/GPa) = 0.01742043
#
# Stress axis : x y z
#
# Youngs Moduli (GPa) = 121.81658 68.17544 112.43912
#
# Poissons Ratio (x) = 0.13508 0.13775
# Poissons Ratio (y) = 0.24135 0.44625
# Poissons Ratio (z) = 0.14924 0.27057
#
# Static dielectric constant tensor:
#      x y z
#    x 4.474050 0.000000 0.000000 
#    y 0.000000 3.998640 0.000000 
#    z 0.000000 0.000000 3.935880 
# 
# 
# High freq. dielectric constant tensor:
#      x y z
#    x 1.911920 0.000000 0.000000 
#    y 0.000000 1.882570 0.000000 
#    z 0.000000 0.000000 1.875380 
# 
# From -- ./inp_files/31697.got.cif
#   From: 2010.06.25/outbox.cif.g09.slc.cpg/sg48_16_cif.got.tgz:31697.got - 2010.06.26 18:06:46.
