data_PCOD8201506
_publ_section_title
;
Structure prediction by ZEFSAII (Michael W. Deem and Ramdas Pophale) SiO2 
 PCOD8201506
Probable space group: P N N N
;
_chemical_formula_sum "Si O2"
_cell_formula_units_Z 56
_cell_length_a 11.957015
_cell_length_b 12.844076
_cell_length_c 19.865784
_cell_angle_alpha 90.000000
_cell_angle_beta 90.000000
_cell_angle_gamma 90.000000
_cell_volume 3050.923723
_symmetry_space_group_name_H-M "P N N N"
_symmetry_group_IT_number 48
_space_group.IT_coordinate_system_code '2'
_symmetry_cell_setting 'orthorhombic'
loop_
_space_group_symop_operation_xyz
x,y,z
1/2-x,1/2-y,z
x,1/2-y,1/2-z
1/2-x,y,1/2-z
-x,-y,-z
1/2+x,1/2+y,-z
-x,1/2+y,1/2+z
1/2+x,-y,1/2+z
loop_
_atom_site_type_symbol
_atom_site_label
_atom_site_fract_x
_atom_site_fract_y
_atom_site_fract_z
Si Si1 0.662328 0.661095 0.350250
Si Si2 0.877294 0.205630 0.316733
Si Si3 0.631667 0.298994 0.047907
Si Si4 0.874550 0.140963 0.777907
Si Si5 0.657776 0.517532 0.106994
Si Si6 0.483336 0.694036 0.090371
Si Si7 0.076573 0.006639 0.747019
O O1 0.750000 0.750000 0.334682
O O2 0.721116 0.573166 0.397303
O O3 0.549732 0.703992 0.384404
O O4 0.633614 0.612374 0.278033
O O5 0.750000 0.250000 0.317723
O O6 0.939365 0.250000 0.250000
O O7 0.930017 0.245797 0.387008
O O8 0.896159 0.081508 0.309337
O O9 0.750000 0.250000 0.033643
O O10 0.653277 0.421133 0.057041
O O11 0.558237 0.276522 0.983110
O O12 0.923619 0.250000 0.750000
O O13 0.750000 0.122192 0.750000
O O14 0.883127 0.158476 0.859002
O O15 0.945856 0.038527 0.756280
O O16 0.564965 0.597184 0.082861
O O17 0.633325 0.474855 0.182635
#
# Coordination Sequence:
#
# PCOD8201506 Si02
#       7
#     8   8   8   8   8   8   8
#     4  10  20  32  52  85 116 140 179 230 295 342
#     4  10  20  35  55  85 115 142 182 230 285 337
#     4  11  22  36  55  82 110 150 187 227 277 333
#     4  10  21  37  58  81 114 153 197 232 271 328
#     4  10  21  35  56  81 114 147 182 228 287 352
#     4  10  22  37  54  81 116 151 183 234 286 338
#     4  11  20  33  59  87 113 144 186 236 285 339
#
# _framework density 18.355097000000001
#
# number of rings (size 3 to 8) (size 9 to 14) (size 15 to 20)
#    0.000    1.714    2.857    2.571    4.000    2.857 
#    0.000    4.286    0.000    2.143    0.000    0.000 
#    0.000    0.000    0.000    0.000    0.000    0.000 
#
# Total GULP energy -693886.990999 kJ/mol
# GULP energy per Si atom -12390.839125 kJ/mol
# Density = 1.831332 g / cm^3
# Si number density = 18.355097 Si / 1000 Ang^3
#
#
#
# Elastic Constant Matrix: (Units=GPa)
#
#
# Indices 1 2 3 4 5 6 
#
# 1 88.7672 34.2734 47.5928 0.0000 0.0000 0.0000
# 2 34.2734 84.7061 27.7476 0.0000 0.0000 0.0000
# 3 47.5928 27.7476 121.1525 0.0000 0.0000 0.0000
# 4 0.0000 0.0000 0.0000 46.1829 0.0000 0.0000
# 5 0.0000 0.0000 0.0000 0.0000 18.4860 0.0000
# 6 0.0000 0.0000 0.0000 0.0000 0.0000 19.3443
#
#
#
# Elastic Compliance Matrix: (Units=1/GPa)
#
#
# Indices 1 2 3 4 5 6 
#
# 1 0.015848 -0.004728 -0.005143 0.000000 0.000000 0.000000
# 2 -0.004728 0.014173 -0.001389 0.000000 0.000000 0.000000
# 3 -0.005143 -0.001389 0.010592 0.000000 0.000000 0.000000
# 4 0.000000 0.000000 0.000000 0.021653 0.000000 0.000000
# 5 0.000000 0.000000 0.000000 0.000000 0.054095 0.000000
# 6 0.000000 0.000000 0.000000 0.000000 0.000000 0.051695
#
#
# Mechanical properties :
#
#
# Convention : Reuss Voigt Hill
#
# Bulk Modulus (GPa) = 55.26407 57.09483 56.17945
# Shear Modulus (GPa) = 25.43132 29.13675 27.28403
#
# Velocity S-wave (km/s) = 3.72629 3.98853 3.85964
# Velocity P-wave (km/s) = 6.97763 7.23771 7.10886
#
# Compressibility (1/GPa) = 0.01809494
#
# Stress axis : x y z
#
# Youngs Moduli (GPa) = 63.09854 70.55454 94.40653
#
# Poissons Ratio (x) = 0.33356 0.48553
# Poissons Ratio (y) = 0.29831 0.13112
# Poissons Ratio (z) = 0.32451 0.09800
#
# Static dielectric constant tensor:
#      x y z
#    x 3.191390 0.000000 0.000000 
#    y 0.000000 3.565660 0.000000 
#    z 0.000000 0.000000 3.526950 
# 
# 
# High freq. dielectric constant tensor:
#      x y z
#    x 1.683500 0.000000 0.000000 
#    y 0.000000 1.722470 0.000000 
#    z 0.000000 0.000000 1.703060 
# 
# From -- ./inp_files/34158.got.cif
#   From: 2010.06.25/outbox.cif.g09.slc.cpg/sg48_18_cif.got.tgz:34158.got - 2010.06.26 18:06:46.
