data_PCOD8201574
_publ_section_title
;
Structure prediction by ZEFSAII (Michael W. Deem and Ramdas Pophale) SiO2 
 PCOD8201574
Probable space group: P N N N
;
_chemical_formula_sum "Si O2"
_cell_formula_units_Z 64
_cell_length_a 8.963830
_cell_length_b 20.254473
_cell_length_c 17.767863
_cell_angle_alpha 90.000000
_cell_angle_beta 90.000000
_cell_angle_gamma 90.000000
_cell_volume 3225.891500
_symmetry_space_group_name_H-M "P N N N"
_symmetry_group_IT_number 48
_space_group.IT_coordinate_system_code '2'
_symmetry_cell_setting 'orthorhombic'
loop_
_space_group_symop_operation_xyz
x,y,z
1/2-x,1/2-y,z
x,1/2-y,1/2-z
1/2-x,y,1/2-z
-x,-y,-z
1/2+x,1/2+y,-z
-x,1/2+y,1/2+z
1/2+x,-y,1/2+z
loop_
_atom_site_type_symbol
_atom_site_label
_atom_site_fract_x
_atom_site_fract_y
_atom_site_fract_z
Si Si1 0.112171 0.698161 0.822625
Si Si2 0.188452 0.954166 0.457015
Si Si3 0.806544 0.406298 0.399259
Si Si4 0.069402 0.365245 0.313603
Si Si5 0.860778 0.486665 0.688940
Si Si6 0.671360 0.811363 0.910474
Si Si7 0.374395 0.414995 0.541705
Si Si8 0.821678 0.549971 0.330103
O O1 0.250000 0.750000 0.814270
O O2 0.173686 0.630902 0.856829
O O3 0.028503 0.818316 0.757281
O O4 0.982625 0.720422 0.879501
O O5 0.287541 0.906378 0.510271
O O6 0.045225 0.912376 0.427403
O O7 0.280056 0.988324 0.391126
O O8 0.141925 0.010943 0.514014
O O9 0.800619 0.476419 0.359085
O O10 0.967213 0.372201 0.387901
O O11 0.095519 0.439569 0.281818
O O12 0.230647 0.336140 0.338045
O O13 0.750000 0.454721 0.750000
O O14 0.001630 0.437833 0.679549
O O15 0.750000 0.750000 0.951286
O O16 0.648013 0.866854 0.971894
O O17 0.256603 0.400751 0.609113
O O18 0.750000 0.562535 0.250000
#
# Coordination Sequence:
#
# PCOD8201574 Si02
#       8
#     8   8   8   8   8   8   8   8
#     4  12  25  43  58  84 122 174 214 253 300 363
#     4  10  20  36  61  85 120 160 201 254 316 375
#     4  10  21  36  57  86 122 160 203 249 305 370
#     4  11  24  37  61  84 122 162 215 258 301 359
#     4  11  21  35  60  92 124 156 198 251 314 380
#     4  12  25  40  58  85 118 163 213 260 305 364
#     4  10  21  38  59  85 120 157 203 255 317 373
#     4  10  21  35  59  89 120 153 192 251 314 374
#
# _framework density 19.839478
#
# number of rings (size 3 to 8) (size 9 to 14) (size 15 to 20)
#    0.000    1.250    2.500    4.500    1.750    5.500 
#    0.000    0.000    0.000    0.375    0.000    0.000 
#    0.000    0.500    0.000    0.000    0.000    0.000 
#
# Total GULP energy -793006.513699 kJ/mol
# GULP energy per Si atom -12390.726777 kJ/mol
# Density = 1.979432 g / cm^3
# Si number density = 19.839478 Si / 1000 Ang^3
#
#
#
# Elastic Constant Matrix: (Units=GPa)
#
#
# Indices 1 2 3 4 5 6 
#
# 1 148.1569 31.0387 63.3122 0.0000 0.0000 0.0000
# 2 31.0387 43.5054 23.8856 0.0000 0.0000 0.0000
# 3 63.3122 23.8856 111.2609 0.0000 0.0000 0.0000
# 4 0.0000 0.0000 0.0000 24.4525 0.0000 0.0000
# 5 0.0000 0.0000 0.0000 0.0000 39.0555 0.0000
# 6 0.0000 0.0000 0.0000 0.0000 0.0000 21.8137
#
#
#
# Elastic Compliance Matrix: (Units=1/GPa)
#
#
# Indices 1 2 3 4 5 6 
#
# 1 0.009597 -0.004363 -0.004525 0.000000 0.000000 0.000000
# 2 -0.004363 0.028040 -0.003537 0.000000 0.000000 0.000000
# 3 -0.004525 -0.003537 0.012322 0.000000 0.000000 0.000000
# 4 0.000000 0.000000 0.000000 0.040896 0.000000 0.000000
# 5 0.000000 0.000000 0.000000 0.000000 0.025605 0.000000
# 6 0.000000 0.000000 0.000000 0.000000 0.000000 0.045843
#
#
# Mechanical properties :
#
#
# Convention : Reuss Voigt Hill
#
# Bulk Modulus (GPa) = 39.82430 59.93291 49.87861
# Shear Modulus (GPa) = 25.57267 29.37678 27.47472
#
# Velocity S-wave (km/s) = 3.59413 3.85219 3.72540
# Velocity P-wave (km/s) = 6.11069 7.07533 6.61063
#
# Compressibility (1/GPa) = 0.02511030
#
# Stress axis : x y z
#
# Youngs Moduli (GPa) = 104.19810 35.66302 81.15652
#
# Poissons Ratio (x) = 0.15559 0.36720
# Poissons Ratio (y) = 0.45461 0.28705
# Poissons Ratio (z) = 0.47145 0.12614
#
# Static dielectric constant tensor:
#      x y z
#    x 4.328000 0.000000 0.000000 
#    y 0.000000 3.441380 0.000000 
#    z 0.000000 0.000000 3.583670 
# 
# 
# High freq. dielectric constant tensor:
#      x y z
#    x 1.806420 0.000000 0.000000 
#    y 0.000000 1.727710 0.000000 
#    z 0.000000 0.000000 1.759690 
# 
# From -- ./inp_files/15504.got.cif
#   From: 2010.06.25/outbox.cif.g09.slc.cpg/sg48_8_cif.got.tgz:15504.got - 2010.06.26 18:06:46.
