data_PCOD8201686
_publ_section_title
;
Structure prediction by ZEFSAII (Michael W. Deem and Ramdas Pophale) SiO2 
 PCOD8201686
Probable space group: P N N N
;
_chemical_formula_sum "Si O2"
_cell_formula_units_Z 64
_cell_length_a 9.385715
_cell_length_b 21.683674
_cell_length_c 16.370710
_cell_angle_alpha 90.000000
_cell_angle_beta 90.000000
_cell_angle_gamma 90.000000
_cell_volume 3331.714256
_symmetry_space_group_name_H-M "P N N N"
_symmetry_group_IT_number 48
_space_group.IT_coordinate_system_code '2'
_symmetry_cell_setting 'orthorhombic'
loop_
_space_group_symop_operation_xyz
x,y,z
1/2-x,1/2-y,z
x,1/2-y,1/2-z
1/2-x,y,1/2-z
-x,-y,-z
1/2+x,1/2+y,-z
-x,1/2+y,1/2+z
1/2+x,-y,1/2+z
loop_
_atom_site_type_symbol
_atom_site_label
_atom_site_fract_x
_atom_site_fract_y
_atom_site_fract_z
Si Si1 0.130266 0.007897 0.189484
Si Si2 0.019149 0.883058 0.148173
Si Si3 0.752306 0.183475 0.555958
Si Si4 0.123998 0.511301 0.804575
Si Si5 0.691679 0.549493 0.546490
Si Si6 0.969925 0.311181 0.802288
Si Si7 0.695292 0.610899 0.383945
Si Si8 0.136954 0.571757 0.956151
O O1 0.250000 0.981847 0.250000
O O2 0.202767 0.056411 0.125387
O O3 0.007403 0.035527 0.248923
O O4 0.065694 0.953372 0.134267
O O5 0.093440 0.841414 0.077585
O O6 0.069329 0.864518 0.238536
O O7 0.849278 0.878260 0.154703
O O8 0.750000 0.250000 0.510860
O O9 0.835916 0.138036 0.495145
O O10 0.833158 0.195738 0.640751
O O11 0.250000 0.486612 0.750000
O O12 0.097450 0.448695 0.858176
O O13 0.193149 0.564766 0.862916
O O14 0.730137 0.601997 0.480304
O O15 0.527435 0.559077 0.567836
O O16 0.708651 0.479372 0.513954
O O17 0.005402 0.250000 0.750000
O O18 0.103181 0.328848 0.861167
#
# Coordination Sequence:
#
# PCOD8201686 Si02
#       8
#     8   8   8   8   8   8   8   8
#     4  12  21  34  57  83 116 155 198 237 300 367
#     4  12  24  34  53  85 119 158 200 247 288 348
#     4  12  24  41  58  83 116 160 207 254 288 351
#     4  11  21  37  59  90 119 150 191 250 306 362
#     4  10  21  35  57  85 117 160 194 238 299 369
#     4  12  23  39  57  80 118 162 211 243 281 349
#     4  11  23  39  54  82 126 162 195 239 306 357
#     4  10  21  37  58  83 118 157 195 239 305 358
#
# _framework density 19.209330999999999
#
# number of rings (size 3 to 8) (size 9 to 14) (size 15 to 20)
#    0.000    0.750    7.500    1.500    0.000    2.500 
#    0.000    0.000    0.000    0.375    0.000    0.000 
#    0.000    0.000    0.000    0.000    0.000    0.000 
#
# Total GULP energy -792856.997960 kJ/mol
# GULP energy per Si atom -12388.390593 kJ/mol
# Density = 1.916561 g / cm^3
# Si number density = 19.209331 Si / 1000 Ang^3
#
#
#
# Elastic Constant Matrix: (Units=GPa)
#
#
# Indices 1 2 3 4 5 6 
#
# 1 87.7001 21.0455 30.9835 0.0000 0.0000 0.0000
# 2 21.0455 83.3161 40.7864 0.0000 0.0000 0.0000
# 3 30.9835 40.7864 84.5675 0.0000 0.0000 0.0000
# 4 0.0000 0.0000 0.0000 26.8424 0.0000 0.0000
# 5 0.0000 0.0000 0.0000 0.0000 32.5551 0.0000
# 6 0.0000 0.0000 0.0000 0.0000 0.0000 18.4581
#
#
#
# Elastic Compliance Matrix: (Units=1/GPa)
#
#
# Indices 1 2 3 4 5 6 
#
# 1 0.013199 -0.001266 -0.004225 0.000000 0.000000 0.000000
# 2 -0.001266 0.015833 -0.007173 0.000000 0.000000 0.000000
# 3 -0.004225 -0.007173 0.016832 0.000000 0.000000 0.000000
# 4 0.000000 0.000000 0.000000 0.037254 0.000000 0.000000
# 5 0.000000 0.000000 0.000000 0.000000 0.030717 0.000000
# 6 0.000000 0.000000 0.000000 0.000000 0.000000 0.054177
#
#
# Mechanical properties :
#
#
# Convention : Reuss Voigt Hill
#
# Bulk Modulus (GPa) = 48.69163 49.02383 48.85773
# Shear Modulus (GPa) = 24.97674 26.42235 25.69955
#
# Velocity S-wave (km/s) = 3.60980 3.71279 3.66166
# Velocity P-wave (km/s) = 6.54042 6.62993 6.58533
#
# Compressibility (1/GPa) = 0.02053741
#
# Stress axis : x y z
#
# Youngs Moduli (GPa) = 75.76337 63.15735 59.40941
#
# Poissons Ratio (x) = 0.07993 0.25103
# Poissons Ratio (y) = 0.09588 0.42613
# Poissons Ratio (z) = 0.32013 0.45301
#
# Static dielectric constant tensor:
#      x y z
#    x 3.655010 0.000000 0.000000 
#    y 0.000000 3.380610 0.000000 
#    z 0.000000 0.000000 3.737000 
# 
# 
# High freq. dielectric constant tensor:
#      x y z
#    x 1.756530 0.000000 0.000000 
#    y 0.000000 1.700360 0.000000 
#    z 0.000000 0.000000 1.741010 
# 
# From -- ./inp_files/15419.got.cif
#   From: 2010.06.25/outbox.cif.g09.slc.cpg/sg48_8_cif.got.tgz:15419.got - 2010.06.26 18:06:46.
