data_PCOD8201784
_publ_section_title
;
Structure prediction by ZEFSAII (Michael W. Deem and Ramdas Pophale) SiO2 
 PCOD8201784
Probable space group: P N N N
;
_chemical_formula_sum "Si O2"
_cell_formula_units_Z 56
_cell_length_a 16.337735
_cell_length_b 15.044230
_cell_length_c 10.206270
_cell_angle_alpha 90.000000
_cell_angle_beta 90.000000
_cell_angle_gamma 90.000000
_cell_volume 2508.585254
_symmetry_space_group_name_H-M "P N N N"
_symmetry_group_IT_number 48
_space_group.IT_coordinate_system_code '2'
_symmetry_cell_setting 'orthorhombic'
loop_
_space_group_symop_operation_xyz
x,y,z
1/2-x,1/2-y,z
x,1/2-y,1/2-z
1/2-x,y,1/2-z
-x,-y,-z
1/2+x,1/2+y,-z
-x,1/2+y,1/2+z
1/2+x,-y,1/2+z
loop_
_atom_site_type_symbol
_atom_site_label
_atom_site_fract_x
_atom_site_fract_y
_atom_site_fract_z
Si Si1 0.157194 0.771695 0.928433
Si Si2 0.936876 0.375398 0.928855
Si Si3 0.334195 0.614586 0.186606
Si Si4 0.108532 0.049169 0.061321
Si Si5 0.098660 0.043725 0.576333
Si Si6 0.558923 0.425263 0.170230
Si Si7 0.257742 0.150011 0.593964
O O1 0.250000 0.750000 0.882212
O O2 0.102878 0.684160 0.956457
O O3 0.157591 0.827658 0.058846
O O4 0.112374 0.833396 0.818320
O O5 0.906082 0.352958 0.783740
O O6 0.035875 0.372312 0.929822
O O7 0.913998 0.477999 0.955193
O O8 0.250000 0.642357 0.250000
O O9 0.334835 0.508655 0.159354
O O10 0.038650 0.095893 0.153383
O O11 0.157443 0.118982 0.971396
O O12 0.073960 0.974782 0.965108
O O13 0.187534 0.083015 0.549191
O O14 0.084772 0.989219 0.711063
O O15 0.250000 0.250000 0.542051
O O16 0.250000 0.147484 0.750000
#
# Coordination Sequence:
#
# PCOD8201784 Si02
#       7
#     8   8   8   8   8   8   8
#     4  11  24  38  65 101 130 165 214 278 327 389
#     4  11  24  40  65  95 127 175 214 268 332 392
#     4  11  20  38  67  96 129 164 215 268 328 393
#     4  10  21  41  64  94 124 171 219 261 329 392
#     4  11  24  45  64  92 136 173 219 269 332 402
#     4  10  22  41  66  91 129 176 215 262 330 402
#     4  11  24  40  65  97 131 169 220 280 328 383
#
# _framework density 22.323338
#
# number of rings (size 3 to 8) (size 9 to 14) (size 15 to 20)
#    0.000    1.286    4.286    1.286    4.000    0.571 
#    2.571    0.714    0.000    3.857    0.000    0.000 
#    0.000    0.000    0.000    0.000    0.000    0.000 
#
# Total GULP energy -693948.589980 kJ/mol
# GULP energy per Si atom -12391.939107 kJ/mol
# Density = 2.227253 g / cm^3
# Si number density = 22.323338 Si / 1000 Ang^3
#
#
#
# Elastic Constant Matrix: (Units=GPa)
#
#
# Indices 1 2 3 4 5 6 
#
# 1 125.0427 49.0249 10.9542 0.0000 0.0000 0.0000
# 2 49.0249 93.2119 6.8681 0.0000 0.0000 0.0000
# 3 10.9542 6.8681 60.0976 0.0000 0.0000 0.0000
# 4 0.0000 0.0000 0.0000 8.8667 0.0000 0.0000
# 5 0.0000 0.0000 0.0000 0.0000 17.0484 0.0000
# 6 0.0000 0.0000 0.0000 0.0000 0.0000 48.8321
#
#
#
# Elastic Compliance Matrix: (Units=1/GPa)
#
#
# Indices 1 2 3 4 5 6 
#
# 1 0.010167 -0.005255 -0.001253 0.000000 0.000000 0.000000
# 2 -0.005255 0.013536 -0.000589 0.000000 0.000000 0.000000
# 3 -0.001253 -0.000589 0.016935 0.000000 0.000000 0.000000
# 4 0.000000 0.000000 0.000000 0.112782 0.000000 0.000000
# 5 0.000000 0.000000 0.000000 0.000000 0.058656 0.000000
# 6 0.000000 0.000000 0.000000 0.000000 0.000000 0.020478
#
#
# Mechanical properties :
#
#
# Convention : Reuss Voigt Hill
#
# Bulk Modulus (GPa) = 37.81509 45.78295 41.79902
# Shear Modulus (GPa) = 19.56459 29.04976 24.30717
#
# Velocity S-wave (km/s) = 2.96365 3.61129 3.30338
# Velocity P-wave (km/s) = 5.35607 6.15972 5.77189
#
# Compressibility (1/GPa) = 0.02644447
#
# Stress axis : x y z
#
# Youngs Moduli (GPa) = 98.35350 73.87899 59.04846
#
# Poissons Ratio (x) = 0.38825 0.07397
# Poissons Ratio (y) = 0.51687 0.03478
# Poissons Ratio (z) = 0.12320 0.04351
#
# Static dielectric constant tensor:
#      x y z
#    x 4.318150 0.000000 0.000000 
#    y 0.000000 4.177360 0.000000 
#    z 0.000000 0.000000 3.579460 
# 
# 
# High freq. dielectric constant tensor:
#      x y z
#    x 1.881200 0.000000 0.000000 
#    y 0.000000 1.871030 0.000000 
#    z 0.000000 0.000000 1.883570 
# 
# From -- ./inp_files/21326.got.cif
#   From: 2010.06.25/outbox.cif.g09.slc.cpg/sg48_11_cif.got.tgz:21326.got - 2010.06.26 18:06:46.
