data_PCOD8201628
_publ_section_title
;
Structure prediction by ZEFSAII (Michael W. Deem and Ramdas Pophale) SiO2 
 PCOD8201628
Probable space group: P N N N
;
_chemical_formula_sum "Si O2"
_cell_formula_units_Z 40
_cell_length_a 12.174375
_cell_length_b 16.916792
_cell_length_c 9.442845
_cell_angle_alpha 90.000000
_cell_angle_beta 90.000000
_cell_angle_gamma 90.000000
_cell_volume 1944.766861
_symmetry_space_group_name_H-M "P N N N"
_symmetry_group_IT_number 48
_space_group.IT_coordinate_system_code '2'
_symmetry_cell_setting 'orthorhombic'
loop_
_space_group_symop_operation_xyz
x,y,z
1/2-x,1/2-y,z
x,1/2-y,1/2-z
1/2-x,y,1/2-z
-x,-y,-z
1/2+x,1/2+y,-z
-x,1/2+y,1/2+z
1/2+x,-y,1/2+z
loop_
_atom_site_type_symbol
_atom_site_label
_atom_site_fract_x
_atom_site_fract_y
_atom_site_fract_z
Si Si1 0.565244 0.331996 0.562509
Si Si2 0.729856 0.064084 0.584760
Si Si3 0.978393 0.346632 0.620200
Si Si4 0.182393 0.392702 0.445167
Si Si5 0.392874 0.332707 0.327646
O O1 0.681699 0.373021 0.525577
O O2 0.572298 0.237663 0.575767
O O3 0.516030 0.361601 0.711547
O O4 0.489716 0.357239 0.431903
O O5 0.750000 0.056986 0.750000
O O6 0.606537 0.092533 0.550039
O O7 0.735904 0.977272 0.513334
O O8 0.102015 0.359142 0.565424
O O9 0.280383 0.329657 0.419683
O O10 0.115710 0.399473 0.295549
O O11 0.415791 0.250000 0.250000
#
# Coordination Sequence:
#
# PCOD8201628 Si02
#       5
#     8   8   8   8   8
#     4  10  22  38  63  89 121 158 206 251 299 363
#     4  10  20  39  60  90 122 163 199 245 313 370
#     4  10  21  38  63  90 119 160 204 253 297 364
#     4  11  21  38  64  88 120 160 199 251 307 362
#     4  11  22  39  64  88 117 161 204 246 304 371
#
# _framework density 20.568017999999999
#
# number of rings (size 3 to 8) (size 9 to 14) (size 15 to 20)
#    0.000    1.600    4.000    2.400    0.000    4.000 
#    0.000    3.000    4.400    0.000    0.000    0.000 
#    0.000    0.000    0.000    0.000    0.000    0.000 
#
# Total GULP energy -495750.492006 kJ/mol
# GULP energy per Si atom -12393.762300 kJ/mol
# Density = 2.052120 g / cm^3
# Si number density = 20.568018 Si / 1000 Ang^3
#
#
#
# Elastic Constant Matrix: (Units=GPa)
#
#
# Indices 1 2 3 4 5 6 
#
# 1 96.5096 35.8429 39.6793 0.0000 0.0000 0.0000
# 2 35.8429 99.6928 17.0596 0.0000 0.0000 0.0000
# 3 39.6793 17.0596 59.6464 0.0000 0.0000 0.0000
# 4 0.0000 0.0000 0.0000 19.5472 0.0000 0.0000
# 5 0.0000 0.0000 0.0000 0.0000 35.4783 0.0000
# 6 0.0000 0.0000 0.0000 0.0000 0.0000 34.3851
#
#
#
# Elastic Compliance Matrix: (Units=1/GPa)
#
#
# Indices 1 2 3 4 5 6 
#
# 1 0.015678 -0.004050 -0.009271 0.000000 0.000000 0.000000
# 2 -0.004050 0.011593 -0.000622 0.000000 0.000000 0.000000
# 3 -0.009271 -0.000622 0.023111 0.000000 0.000000 0.000000
# 4 0.000000 0.000000 0.000000 0.051158 0.000000 0.000000
# 5 0.000000 0.000000 0.000000 0.000000 0.028186 0.000000
# 6 0.000000 0.000000 0.000000 0.000000 0.000000 0.029082
#
#
# Mechanical properties :
#
#
# Convention : Reuss Voigt Hill
#
# Bulk Modulus (GPa) = 44.45179 49.00141 46.72660
# Shear Modulus (GPa) = 25.74764 28.76657 27.25711
#
# Velocity S-wave (km/s) = 3.54196 3.74385 3.64430
# Velocity P-wave (km/s) = 6.19567 6.52414 6.36202
#
# Compressibility (1/GPa) = 0.02249628
#
# Stress axis : x y z
#
# Youngs Moduli (GPa) = 63.78545 86.25652 43.27005
#
# Poissons Ratio (x) = 0.34935 0.40116
# Poissons Ratio (y) = 0.25834 0.02689
# Poissons Ratio (z) = 0.59135 0.05361
#
# Static dielectric constant tensor:
#      x y z
#    x 3.735670 0.000000 0.000000 
#    y 0.000000 3.814400 0.000000 
#    z 0.000000 0.000000 3.630630 
# 
# 
# High freq. dielectric constant tensor:
#      x y z
#    x 1.800740 0.000000 0.000000 
#    y 0.000000 1.807850 0.000000 
#    z 0.000000 0.000000 1.778460 
# 
# From -- ./inp_files/19763.got.cif
#   From: 2010.06.25/outbox.cif.g09.slc.cpg/sg48_10_cif.got.tgz:19763.got - 2010.06.26 18:06:46.
