data_PCOD8201956
_publ_section_title
;
Structure prediction by ZEFSAII (Michael W. Deem and Ramdas Pophale) SiO2 
 PCOD8201956
Probable space group: P N N N
;
_chemical_formula_sum "Si O2"
_cell_formula_units_Z 30
_cell_length_a 21.070643
_cell_length_b 5.248881
_cell_length_c 12.463115
_cell_angle_alpha 90.000000
_cell_angle_beta 90.000000
_cell_angle_gamma 90.000000
_cell_volume 1378.386840
_symmetry_space_group_name_H-M "P N N N"
_symmetry_group_IT_number 48
_space_group.IT_coordinate_system_code '2'
_symmetry_cell_setting 'orthorhombic'
loop_
_space_group_symop_operation_xyz
x,y,z
1/2-x,1/2-y,z
x,1/2-y,1/2-z
1/2-x,y,1/2-z
-x,-y,-z
1/2+x,1/2+y,-z
-x,1/2+y,1/2+z
1/2+x,-y,1/2+z
loop_
_atom_site_type_symbol
_atom_site_label
_atom_site_fract_x
_atom_site_fract_y
_atom_site_fract_z
Si Si1 0.577768 0.089818 0.538059
Si Si2 0.974756 0.250000 0.750000
Si Si3 0.566554 0.602231 0.415094
Si Si4 0.750000 0.250000 0.250000
Si Si5 0.687569 0.614920 0.081637
O O1 0.568356 0.089319 0.666783
O O2 0.559842 0.368171 0.494900
O O3 0.460270 0.140695 0.523258
O O4 0.652864 0.042202 0.513564
O O5 0.021558 0.054696 0.687269
O O6 0.639187 0.660549 0.378385
O O7 0.704504 0.428896 0.179391
O O8 0.750000 0.750000 0.034646
#
# Coordination Sequence:
#
# PCOD8201956 Si02
#       5
#     8   4   8   2   8
#     4  10  25  43  65 101 138 178 230 277 342 411
#     4  12  24  44  71  97 146 190 220 278 354 406
#     4  10  25  41  65 104 136 174 229 286 330 418
#     4  12  22  40  72  96 128 182 216 298 358 392
#     4  10  24  40  66 100 134 170 230 292 341 403
#
# _framework density 21.764574
#
# number of rings (size 3 to 8) (size 9 to 14) (size 15 to 20)
#    1.600    0.000    0.000    3.600    7.467    4.267 
#    0.000    0.000    0.000   12.000    0.000    0.000 
#    0.000    0.000    0.000    0.000    0.000    0.000 
#
# Total GULP energy -371787.361729 kJ/mol
# GULP energy per Si atom -12392.912058 kJ/mol
# Density = 2.171504 g / cm^3
# Si number density = 21.764574 Si / 1000 Ang^3
#
#
#
# Elastic Constant Matrix: (Units=GPa)
#
#
# Indices 1 2 3 4 5 6 
#
# 1 132.2147 56.0352 82.8743 0.0000 0.0000 0.0000
# 2 56.0352 142.6628 58.3071 0.0000 0.0000 0.0000
# 3 82.8743 58.3071 163.1348 0.0000 0.0000 0.0000
# 4 0.0000 0.0000 0.0000 20.8147 0.0000 0.0000
# 5 0.0000 0.0000 0.0000 0.0000 37.6611 0.0000
# 6 0.0000 0.0000 0.0000 0.0000 0.0000 47.5075
#
#
#
# Elastic Compliance Matrix: (Units=1/GPa)
#
#
# Indices 1 2 3 4 5 6 
#
# 1 0.011850 -0.002569 -0.005102 0.000000 0.000000 0.000000
# 2 -0.002569 0.008766 -0.001828 0.000000 0.000000 0.000000
# 3 -0.005102 -0.001828 0.009375 0.000000 0.000000 0.000000
# 4 0.000000 0.000000 0.000000 0.048043 0.000000 0.000000
# 5 0.000000 0.000000 0.000000 0.000000 0.026553 0.000000
# 6 0.000000 0.000000 0.000000 0.000000 0.000000 0.021049
#
#
# Mechanical properties :
#
#
# Convention : Reuss Voigt Hill
#
# Bulk Modulus (GPa) = 90.96567 92.49394 91.72980
# Shear Modulus (GPa) = 33.71589 37.24970 35.48279
#
# Velocity S-wave (km/s) = 3.94015 4.14150 4.04208
# Velocity P-wave (km/s) = 7.91112 8.09068 8.00140
#
# Compressibility (1/GPa) = 0.01099316
#
# Stress axis : x y z
#
# Youngs Moduli (GPa) = 84.38629 114.08012 106.66805
#
# Poissons Ratio (x) = 0.29312 0.54419
# Poissons Ratio (y) = 0.21683 0.19496
# Poissons Ratio (z) = 0.43051 0.20851
#
# Static dielectric constant tensor:
#      x y z
#    x 4.133370 0.000000 0.000000 
#    y 0.000000 3.848010 0.000000 
#    z 0.000000 0.000000 3.723110 
# 
# 
# High freq. dielectric constant tensor:
#      x y z
#    x 1.876860 0.000000 0.000000 
#    y 0.000000 1.859050 0.000000 
#    z 0.000000 0.000000 1.827020 
# 
# From -- ./inp_files/22509.got.cif
#   From: 2010.06.25/outbox.cif.g09.slc.cpg/sg48_12_cif.got.tgz:22509.got - 2010.06.26 18:06:46.
