data_PCOD8201841
_publ_section_title
;
Structure prediction by ZEFSAII (Michael W. Deem and Ramdas Pophale) SiO2 
 PCOD8201841
Probable space group: P N N N
;
_chemical_formula_sum "Si O2"
_cell_formula_units_Z 36
_cell_length_a 22.268585
_cell_length_b 5.449487
_cell_length_c 13.584768
_cell_angle_alpha 90.000000
_cell_angle_beta 90.000000
_cell_angle_gamma 90.000000
_cell_volume 1648.543718
_symmetry_space_group_name_H-M "P N N N"
_symmetry_group_IT_number 48
_space_group.IT_coordinate_system_code '2'
_symmetry_cell_setting 'orthorhombic'
loop_
_space_group_symop_operation_xyz
x,y,z
1/2-x,1/2-y,z
x,1/2-y,1/2-z
1/2-x,y,1/2-z
-x,-y,-z
1/2+x,1/2+y,-z
-x,1/2+y,1/2+z
1/2+x,-y,1/2+z
loop_
_atom_site_type_symbol
_atom_site_label
_atom_site_fract_x
_atom_site_fract_y
_atom_site_fract_z
Si Si1 0.819177 0.741173 0.951020
Si Si2 0.936479 0.250000 0.250000
Si Si3 0.627743 0.244684 0.637970
Si Si4 0.623520 0.633194 0.354913
Si Si5 0.004765 0.383098 0.605898
O O1 0.750000 0.750000 0.920887
O O2 0.848095 0.495700 0.907707
O O3 0.849588 0.994525 0.914942
O O4 0.824313 0.705421 0.069214
O O5 0.889655 0.347498 0.166588
O O6 0.980934 0.440471 0.301843
O O7 0.650013 0.250000 0.750000
O O8 0.556047 0.259126 0.631456
O O9 0.639079 0.750000 0.250000
O O10 0.560068 0.701676 0.403220
O O11 0.000000 0.500000 0.500000
#
# Coordination Sequence:
#
# PCOD8201841 Si02
#       5
#     8   4   8   8   8
#     4  12  28  48  71  98 138 187 241 288 342 406
#     4  10  22  38  66 105 143 176 226 282 360 434
#     4  12  27  45  73 103 137 184 231 287 350 415
#     4  10  23  42  69 102 139 178 229 287 354 419
#     4  11  22  39  68 103 139 178 220 283 355 422
#
# _framework density 21.837457000000001
#
# number of rings (size 3 to 8) (size 9 to 14) (size 15 to 20)
#    0.000    0.889    2.222    4.667    9.333    4.889 
#    0.000    0.000    0.000    0.000    0.000    0.000 
#    0.000    0.000    0.000    0.000    0.000    0.000 
#
# Total GULP energy -446052.893531 kJ/mol
# GULP energy per Si atom -12390.358154 kJ/mol
# Density = 2.178775 g / cm^3
# Si number density = 21.837457 Si / 1000 Ang^3
#
#
#
# Elastic Constant Matrix: (Units=GPa)
#
#
# Indices 1 2 3 4 5 6 
#
# 1 65.2092 22.0283 3.2453 0.0000 0.0000 0.0000
# 2 22.0283 126.6825 27.2578 0.0000 0.0000 0.0000
# 3 3.2453 27.2578 125.6212 0.0000 0.0000 0.0000
# 4 0.0000 0.0000 0.0000 34.7431 0.0000 0.0000
# 5 0.0000 0.0000 0.0000 0.0000 12.1830 0.0000
# 6 0.0000 0.0000 0.0000 0.0000 0.0000 23.6127
#
#
#
# Elastic Compliance Matrix: (Units=1/GPa)
#
#
# Indices 1 2 3 4 5 6 
#
# 1 0.016297 -0.002878 0.000203 0.000000 0.000000 0.000000
# 2 -0.002878 0.008788 -0.001833 0.000000 0.000000 0.000000
# 3 0.000203 -0.001833 0.008353 0.000000 0.000000 0.000000
# 4 0.000000 0.000000 0.000000 0.028783 0.000000 0.000000
# 5 0.000000 0.000000 0.000000 0.000000 0.082081 0.000000
# 6 0.000000 0.000000 0.000000 0.000000 0.000000 0.042350
#
#
# Mechanical properties :
#
#
# Convention : Reuss Voigt Hill
#
# Bulk Modulus (GPa) = 40.94198 46.95284 43.94741
# Shear Modulus (GPa) = 24.53290 31.77320 28.15305
#
# Velocity S-wave (km/s) = 3.35540 3.81857 3.59445
# Velocity P-wave (km/s) = 5.81385 6.40232 6.11517
#
# Compressibility (1/GPa) = 0.02442481
#
# Stress axis : x y z
#
# Youngs Moduli (GPa) = 61.36012 113.78575 119.71980
#
# Poissons Ratio (x) = 0.32743 -0.02435
# Poissons Ratio (y) = 0.17657 0.21940
# Poissons Ratio (z) = -0.01248 0.20853
#
# Static dielectric constant tensor:
#      x y z
#    x 3.898700 0.000000 0.000000 
#    y 0.000000 4.191680 0.000000 
#    z 0.000000 0.000000 4.184060 
# 
# 
# High freq. dielectric constant tensor:
#      x y z
#    x 1.842080 0.000000 0.000000 
#    y 0.000000 1.868860 0.000000 
#    z 0.000000 0.000000 1.882720 
# 
# From -- ./inp_files/4968.got.cif
#   From: 2010.06.25/outbox.cif.g09.slc.cpg/sg48_3_cif.got.tgz:4968.got - 2010.06.26 18:06:46.
