data_PCOD8201856
_publ_section_title
;
Structure prediction by ZEFSAII (Michael W. Deem and Ramdas Pophale) SiO2 
 PCOD8201856
Probable space group: P N N N
;
_chemical_formula_sum "Si O2"
_cell_formula_units_Z 44
_cell_length_a 17.595979
_cell_length_b 13.490183
_cell_length_c 8.888208
_cell_angle_alpha 90.000000
_cell_angle_beta 90.000000
_cell_angle_gamma 90.000000
_cell_volume 2109.820391
_symmetry_space_group_name_H-M "P N N N"
_symmetry_group_IT_number 48
_space_group.IT_coordinate_system_code '2'
_symmetry_cell_setting 'orthorhombic'
loop_
_space_group_symop_operation_xyz
x,y,z
1/2-x,1/2-y,z
x,1/2-y,1/2-z
1/2-x,y,1/2-z
-x,-y,-z
1/2+x,1/2+y,-z
-x,1/2+y,1/2+z
1/2+x,-y,1/2+z
loop_
_atom_site_type_symbol
_atom_site_label
_atom_site_fract_x
_atom_site_fract_y
_atom_site_fract_z
Si Si1 0.626900 0.250000 0.250000
Si Si2 0.325549 0.091488 0.664485
Si Si3 0.444987 0.915626 0.168563
Si Si4 0.250000 0.750000 0.506225
Si Si5 0.060795 0.250000 0.750000
Si Si6 0.304877 0.951824 0.373816
Si Si7 0.923803 0.442837 0.160687
O O1 0.676517 0.270471 0.395508
O O2 0.575685 0.152776 0.270031
O O3 0.250000 0.129986 0.750000
O O4 0.383801 0.184513 0.640054
O O5 0.313135 0.031053 0.509305
O O6 0.359807 0.017858 0.786880
O O7 0.504081 0.823796 0.163305
O O8 0.386835 0.918757 0.307681
O O9 0.491544 0.017256 0.177935
O O10 0.401658 0.913909 0.010087
O O11 0.263007 0.849143 0.411952
O O12 0.250000 0.003865 0.250000
#
# Coordination Sequence:
#
# PCOD8201856 Si02
#       7
#     4   8   8   4   4   8   8
#     4  11  20  36  62  92 125 168 212 256 319 394
#     4  11  22  44  67  93 125 175 218 265 314 386
#     4  10  24  42  60  94 127 165 210 268 320 381
#     4  11  23  36  58  98 130 168 208 264 328 390
#     4  10  25  40  67  90 124 172 222 258 315 384
#     4  12  25  39  65  96 134 164 212 276 333 381
#     4  10  22  40  63  88 128 167 210 259 322 379
#
# _framework density 20.854854
#
# number of rings (size 3 to 8) (size 9 to 14) (size 15 to 20)
#    0.000    1.273    1.818    3.818    5.091    4.364 
#    0.000    0.000    0.000   15.273    0.000    0.000 
#    0.000    0.000    0.000    0.000    0.000    0.000 
#
# Total GULP energy -545254.656478 kJ/mol
# GULP energy per Si atom -12392.151284 kJ/mol
# Density = 2.080739 g / cm^3
# Si number density = 20.854854 Si / 1000 Ang^3
#
#
#
# Elastic Constant Matrix: (Units=GPa)
#
#
# Indices 1 2 3 4 5 6 
#
# 1 106.3666 55.3188 63.7253 0.0000 0.0000 0.0000
# 2 55.3188 123.8679 49.7686 0.0000 0.0000 0.0000
# 3 63.7253 49.7686 124.1081 0.0000 0.0000 0.0000
# 4 0.0000 0.0000 0.0000 24.7947 0.0000 0.0000
# 5 0.0000 0.0000 0.0000 0.0000 54.1077 0.0000
# 6 0.0000 0.0000 0.0000 0.0000 0.0000 298.9608
#
#
#
# Elastic Compliance Matrix: (Units=1/GPa)
#
#
# Indices 1 2 3 4 5 6 
#
# 1 0.015356 -0.004399 -0.006121 0.000000 0.000000 0.000000
# 2 -0.004399 0.010884 -0.002106 0.000000 0.000000 0.000000
# 3 -0.006121 -0.002106 0.012045 0.000000 0.000000 0.000000
# 4 0.000000 0.000000 0.000000 0.040331 0.000000 0.000000
# 5 0.000000 0.000000 0.000000 0.000000 0.018482 0.000000
# 6 0.000000 0.000000 0.000000 0.000000 0.000000 0.003345
#
#
# Mechanical properties :
#
#
# Convention : Reuss Voigt Hill
#
# Bulk Modulus (GPa) = 76.72429 76.88533 76.80481
# Shear Modulus (GPa) = 38.45022 87.94131 63.19577
#
# Velocity S-wave (km/s) = 4.29850 6.50075 5.51076
# Velocity P-wave (km/s) = 7.84255 9.65885 8.79770
#
# Compressibility (1/GPa) = 0.01303368
#
# Stress axis : x y z
#
# Youngs Moduli (GPa) = 65.12003 91.88085 83.02265
#
# Poissons Ratio (x) = 0.40415 0.50818
# Poissons Ratio (y) = 0.28644 0.17484
# Poissons Ratio (z) = 0.39860 0.19349
#
# Static dielectric constant tensor:
#      x y z
#    x 3.950010 0.000000 0.000000 
#    y 0.000000 3.958840 0.000000 
#    z 0.000000 0.000000 3.757880 
# 
# 
# High freq. dielectric constant tensor:
#      x y z
#    x 1.830240 0.000000 0.000000 
#    y 0.000000 1.820750 0.000000 
#    z 0.000000 0.000000 1.805990 
# 
# From -- ./inp_files/14087.got.cif
#   From: 2010.06.25/outbox.cif.g09.slc.cpg/sg48_8_cif.got.tgz:14087.got - 2010.06.26 18:06:46.
