data_PCOD8201584
_publ_section_title
;
Structure prediction by ZEFSAII (Michael W. Deem and Ramdas Pophale) SiO2 
 PCOD8201584
Probable space group: P N N N
;
_chemical_formula_sum "Si O2"
_cell_formula_units_Z 48
_cell_length_a 16.450636
_cell_length_b 16.127528
_cell_length_c 9.777541
_cell_angle_alpha 90.000000
_cell_angle_beta 90.000000
_cell_angle_gamma 90.000000
_cell_volume 2594.060754
_symmetry_space_group_name_H-M "P N N N"
_symmetry_group_IT_number 48
_space_group.IT_coordinate_system_code '2'
_symmetry_cell_setting 'orthorhombic'
loop_
_space_group_symop_operation_xyz
x,y,z
1/2-x,1/2-y,z
x,1/2-y,1/2-z
1/2-x,y,1/2-z
-x,-y,-z
1/2+x,1/2+y,-z
-x,1/2+y,1/2+z
1/2+x,-y,1/2+z
loop_
_atom_site_type_symbol
_atom_site_label
_atom_site_fract_x
_atom_site_fract_y
_atom_site_fract_z
Si Si1 0.474263 0.242623 0.095231
Si Si2 0.566716 0.106287 0.480086
Si Si3 0.154085 0.652805 0.255843
Si Si4 0.417120 0.055807 0.656254
Si Si5 0.484814 0.585651 0.425544
Si Si6 0.163302 0.288514 0.610099
O O1 0.444745 0.250000 0.250000
O O2 0.552635 0.302723 0.082559
O O3 0.499060 0.152081 0.044128
O O4 0.396402 0.269000 0.011064
O O5 0.632363 0.112522 0.599391
O O6 0.480309 0.077314 0.537043
O O7 0.599725 0.042772 0.362019
O O8 0.128997 0.750000 0.250000
O O9 0.250000 0.640239 0.250000
O O10 0.105699 0.602767 0.136460
O O11 0.451163 0.085508 0.801900
O O12 0.335593 0.110859 0.629766
O O13 0.500000 0.500000 0.500000
O O14 0.250000 0.250000 0.574510
O O15 0.128445 0.250000 0.750000
#
# Coordination Sequence:
#
# PCOD8201584 Si02
#       6
#     8   8   8   8   8   8
#     4  11  21  35  59  86 117 156 205 260 307 367
#     4   9  18  34  59  85 111 150 200 252 303 361
#     4  10  20  38  64  88 116 162 212 261 316 380
#     4   9  18  34  59  83 112 154 201 247 295 371
#     4  11  21  36  60  89 122 157 207 259 314 378
#     4  10  20  37  59  83 117 167 205 240 304 384
#
# _framework density 18.503806000000001
#
# number of rings (size 3 to 8) (size 9 to 14) (size 15 to 20)
#    0.000    2.000    3.333    1.000    0.000    1.667 
#    3.000    0.000    0.000    4.000    0.000    0.000 
#    0.000    0.000    0.000    0.000    0.000    0.000 
#
# Total GULP energy -594673.599526 kJ/mol
# GULP energy per Si atom -12389.033323 kJ/mol
# Density = 1.846169 g / cm^3
# Si number density = 18.503806 Si / 1000 Ang^3
#
#
#
# Elastic Constant Matrix: (Units=GPa)
#
#
# Indices 1 2 3 4 5 6 
#
# 1 96.8827 55.6844 39.7639 0.0000 0.0000 0.0000
# 2 55.6844 164.8494 50.8270 0.0000 0.0000 0.0000
# 3 39.7639 50.8270 110.3743 0.0000 0.0000 0.0000
# 4 0.0000 0.0000 0.0000 39.5234 0.0000 0.0000
# 5 0.0000 0.0000 0.0000 0.0000 14.9431 0.0000
# 6 0.0000 0.0000 0.0000 0.0000 0.0000 25.7833
#
#
#
# Elastic Compliance Matrix: (Units=1/GPa)
#
#
# Indices 1 2 3 4 5 6 
#
# 1 0.013759 -0.003635 -0.003283 0.000000 0.000000 0.000000
# 2 -0.003635 0.008031 -0.002388 0.000000 0.000000 0.000000
# 3 -0.003283 -0.002388 0.011343 0.000000 0.000000 0.000000
# 4 0.000000 0.000000 0.000000 0.025301 0.000000 0.000000
# 5 0.000000 0.000000 0.000000 0.000000 0.066920 0.000000
# 6 0.000000 0.000000 0.000000 0.000000 0.000000 0.038785
#
#
# Mechanical properties :
#
#
# Convention : Reuss Voigt Hill
#
# Bulk Modulus (GPa) = 68.87576 73.85076 71.36326
# Shear Modulus (GPa) = 26.65379 31.10537 28.87958
#
# Velocity S-wave (km/s) = 3.79944 4.10448 3.95490
# Velocity P-wave (km/s) = 7.52004 7.90317 7.71398
#
# Compressibility (1/GPa) = 0.01451890
#
# Stress axis : x y z
#
# Youngs Moduli (GPa) = 72.68214 124.52504 88.16392
#
# Poissons Ratio (x) = 0.45270 0.28941
# Poissons Ratio (y) = 0.26423 0.21056
# Poissons Ratio (z) = 0.23859 0.29741
#
# Static dielectric constant tensor:
#      x y z
#    x 3.096700 0.000000 0.000000 
#    y 0.000000 3.847420 0.000000 
#    z 0.000000 0.000000 3.558550 
# 
# 
# High freq. dielectric constant tensor:
#      x y z
#    x 1.686620 0.000000 0.000000 
#    y 0.000000 1.732660 0.000000 
#    z 0.000000 0.000000 1.717470 
# 
# From -- ./inp_files/14148.got.cif
#   From: 2010.06.25/outbox.cif.g09.slc.cpg/sg48_8_cif.got.tgz:14148.got - 2010.06.26 18:06:46.
