data_PCOD8201866
_publ_section_title
;
Structure prediction by ZEFSAII (Michael W. Deem and Ramdas Pophale) SiO2 
 PCOD8201866
Probable space group: P N N N
;
_chemical_formula_sum "Si O2"
_cell_formula_units_Z 40
_cell_length_a 11.857740
_cell_length_b 16.351738
_cell_length_c 8.890799
_cell_angle_alpha 90.000000
_cell_angle_beta 90.000000
_cell_angle_gamma 90.000000
_cell_volume 1723.878429
_symmetry_space_group_name_H-M "P N N N"
_symmetry_group_IT_number 48
_space_group.IT_coordinate_system_code '2'
_symmetry_cell_setting 'orthorhombic'
loop_
_space_group_symop_operation_xyz
x,y,z
1/2-x,1/2-y,z
x,1/2-y,1/2-z
1/2-x,y,1/2-z
-x,-y,-z
1/2+x,1/2+y,-z
-x,1/2+y,1/2+z
1/2+x,-y,1/2+z
loop_
_atom_site_type_symbol
_atom_site_label
_atom_site_fract_x
_atom_site_fract_y
_atom_site_fract_z
Si Si1 0.554521 0.750000 0.250000
Si Si2 0.357304 0.083980 0.668618
Si Si3 0.040006 0.750000 0.750000
Si Si4 0.643103 0.879855 0.676510
Si Si5 0.438425 0.528117 0.350578
Si Si6 0.862596 0.298719 0.952519
O O1 0.637177 0.826050 0.260132
O O2 0.473237 0.751594 0.105446
O O3 0.250000 0.040821 0.750000
O O4 0.338437 0.085566 0.490630
O O5 0.472549 0.039388 0.714331
O O6 0.964712 0.678874 0.676120
O O7 0.122683 0.794942 0.631980
O O8 0.750000 0.831550 0.750000
O O9 0.638897 0.955587 0.792724
O O10 0.500000 0.500000 0.500000
O O11 0.363228 0.609025 0.385841
O O12 0.750000 0.250000 0.902033
#
# Coordination Sequence:
#
# PCOD8201866 Si02
#       6
#     4   8   4   8   8   8
#     4  10  22  40  70  96 142 178 248 298 356 434
#     4  11  24  42  69 102 140 191 241 298 366 436
#     4  12  24  46  72 104 148 184 252 304 368 444
#     4  12  26  45  71 106 143 194 237 301 372 446
#     4  11  24  47  70 103 151 185 244 304 372 448
#     4  11  24  45  72 104 139 194 241 306 373 446
#
# _framework density 23.203493000000002
#
# number of rings (size 3 to 8) (size 9 to 14) (size 15 to 20)
#    0.000    0.800    4.000    3.000    2.800    4.800 
#    7.200    0.000    0.000    0.000    0.000    0.000 
#    0.000    0.000    0.000    0.000    0.000    0.000 
#
# Total GULP energy -495911.436445 kJ/mol
# GULP energy per Si atom -12397.785911 kJ/mol
# Density = 2.315068 g / cm^3
# Si number density = 23.203493 Si / 1000 Ang^3
#
#
#
# Elastic Constant Matrix: (Units=GPa)
#
#
# Indices 1 2 3 4 5 6 
#
# 1 77.9368 33.8846 29.7123 0.0000 0.0000 0.0000
# 2 33.8846 93.0971 17.6590 0.0000 0.0000 0.0000
# 3 29.7123 17.6590 151.4157 0.0000 0.0000 0.0000
# 4 0.0000 0.0000 0.0000 28.4227 0.0000 0.0000
# 5 0.0000 0.0000 0.0000 0.0000 57.4785 0.0000
# 6 0.0000 0.0000 0.0000 0.0000 0.0000 23.4390
#
#
#
# Elastic Compliance Matrix: (Units=1/GPa)
#
#
# Indices 1 2 3 4 5 6 
#
# 1 0.016144 -0.005394 -0.002539 0.000000 0.000000 0.000000
# 2 -0.005394 0.012787 -0.000433 0.000000 0.000000 0.000000
# 3 -0.002539 -0.000433 0.007153 0.000000 0.000000 0.000000
# 4 0.000000 0.000000 0.000000 0.035183 0.000000 0.000000
# 5 0.000000 0.000000 0.000000 0.000000 0.017398 0.000000
# 6 0.000000 0.000000 0.000000 0.000000 0.000000 0.042664
#
#
# Mechanical properties :
#
#
# Convention : Reuss Voigt Hill
#
# Bulk Modulus (GPa) = 51.67394 53.88460 52.77927
# Shear Modulus (GPa) = 32.36000 37.94761 35.15380
#
# Velocity S-wave (km/s) = 3.73851 4.04843 3.89655
# Velocity P-wave (km/s) = 6.39949 6.71759 6.56047
#
# Compressibility (1/GPa) = 0.01935211
#
# Stress axis : x y z
#
# Youngs Moduli (GPa) = 61.94207 78.20467 139.80150
#
# Poissons Ratio (x) = 0.42187 0.35493
# Poissons Ratio (y) = 0.33414 0.06050
# Poissons Ratio (z) = 0.15726 0.03384
#
# Static dielectric constant tensor:
#      x y z
#    x 4.144450 0.000000 0.000000 
#    y 0.000000 4.095490 0.000000 
#    z 0.000000 0.000000 4.771060 
# 
# 
# High freq. dielectric constant tensor:
#      x y z
#    x 1.921160 0.000000 0.000000 
#    y 0.000000 1.907190 0.000000 
#    z 0.000000 0.000000 1.931680 
# 
# From -- ./inp_files/10741.got.cif
#   From: 2010.06.25/outbox.cif.g09.slc.cpg/sg48_6_cif.got.tgz:10741.got - 2010.06.26 18:06:46.
