data_PCOD8201369
_publ_section_title
;
Structure prediction by ZEFSAII (Michael W. Deem and Ramdas Pophale) SiO2 
 PCOD8201369
Probable space group: P N N N
;
_chemical_formula_sum "Si O2"
_cell_formula_units_Z 48
_cell_length_a 14.483978
_cell_length_b 16.498105
_cell_length_c 9.617446
_cell_angle_alpha 90.000000
_cell_angle_beta 90.000000
_cell_angle_gamma 90.000000
_cell_volume 2298.167487
_symmetry_space_group_name_H-M "P N N N"
_symmetry_group_IT_number 48
_space_group.IT_coordinate_system_code '2'
_symmetry_cell_setting 'orthorhombic'
loop_
_space_group_symop_operation_xyz
x,y,z
1/2-x,1/2-y,z
x,1/2-y,1/2-z
1/2-x,y,1/2-z
-x,-y,-z
1/2+x,1/2+y,-z
-x,1/2+y,1/2+z
1/2+x,-y,1/2+z
loop_
_atom_site_type_symbol
_atom_site_label
_atom_site_fract_x
_atom_site_fract_y
_atom_site_fract_z
Si Si1 0.562682 0.122914 0.006975
Si Si2 0.405238 0.449123 0.997106
Si Si3 0.751889 0.432342 0.087003
Si Si4 0.459444 0.159730 0.270005
Si Si5 0.513025 0.840618 0.280598
Si Si6 0.117239 0.803559 0.979246
O O1 0.643033 0.056155 0.031300
O O2 0.481889 0.117651 0.122402
O O3 0.617391 0.207300 0.018068
O O4 0.513153 0.111048 0.859281
O O5 0.315250 0.504350 0.988623
O O6 0.407865 0.389397 0.863271
O O7 0.500000 0.500000 0.000000
O O8 0.391999 0.396878 0.138874
O O9 0.750000 0.447724 0.250000
O O10 0.717814 0.341287 0.047696
O O11 0.416152 0.250000 0.250000
O O12 0.555333 0.165290 0.352257
O O13 0.550816 0.750000 0.250000
O O14 0.421223 0.836113 0.374124
#
# Coordination Sequence:
#
# PCOD8201369 Si02
#       6
#     8   8   8   8   8   8
#     4  10  19  31  56  87 116 148 195 229 282 359
#     4  11  20  38  58  81 122 157 191 242 300 346
#     4  12  21  33  54  85 118 156 189 229 293 355
#     4   9  17  33  57  84 115 157 192 230 288 354
#     4   9  19  36  58  86 116 153 190 236 297 354
#     4   9  17  32  53  82 122 153 175 217 291 363
#
# _framework density 20.886205
#
# number of rings (size 3 to 8) (size 9 to 14) (size 15 to 20)
#    0.000    2.000    5.000    1.500    0.000    1.333 
#    0.000    5.833    0.000    0.500    0.000    2.333 
#    0.000    0.000    0.000    0.000    0.000    0.000 
#
# Total GULP energy -595029.887696 kJ/mol
# GULP energy per Si atom -12396.455994 kJ/mol
# Density = 2.083867 g / cm^3
# Si number density = 20.886205 Si / 1000 Ang^3
#
#
#
# Elastic Constant Matrix: (Units=GPa)
#
#
# Indices 1 2 3 4 5 6 
#
# 1 45.9679 31.8616 30.4214 0.0000 0.0000 0.0000
# 2 31.8616 85.3907 35.9628 0.0000 0.0000 0.0000
# 3 30.4214 35.9628 155.7535 0.0000 0.0000 0.0000
# 4 0.0000 0.0000 0.0000 32.9115 0.0000 0.0000
# 5 0.0000 0.0000 0.0000 0.0000 16.2076 0.0000
# 6 0.0000 0.0000 0.0000 0.0000 0.0000 22.4751
#
#
#
# Elastic Compliance Matrix: (Units=1/GPa)
#
#
# Indices 1 2 3 4 5 6 
#
# 1 0.031227 -0.010061 -0.003776 0.000000 0.000000 0.000000
# 2 -0.010061 0.016214 -0.001779 0.000000 0.000000 0.000000
# 3 -0.003776 -0.001779 0.007569 0.000000 0.000000 0.000000
# 4 0.000000 0.000000 0.000000 0.030384 0.000000 0.000000
# 5 0.000000 0.000000 0.000000 0.000000 0.061700 0.000000
# 6 0.000000 0.000000 0.000000 0.000000 0.000000 0.044494
#
#
# Mechanical properties :
#
#
# Convention : Reuss Voigt Hill
#
# Bulk Modulus (GPa) = 42.05614 53.73373 47.89494
# Shear Modulus (GPa) = 21.66886 26.90992 24.28939
#
# Velocity S-wave (km/s) = 3.22448 3.59333 3.41389
# Velocity P-wave (km/s) = 5.83460 6.55735 6.20650
#
# Compressibility (1/GPa) = 0.02377774
#
# Stress axis : x y z
#
# Youngs Moduli (GPa) = 32.02338 61.67456 132.12474
#
# Poissons Ratio (x) = 0.62053 0.49891
# Poissons Ratio (y) = 0.32220 0.23500
# Poissons Ratio (z) = 0.12092 0.10969
#
# Static dielectric constant tensor:
#      x y z
#    x 3.240880 0.000000 0.000000 
#    y 0.000000 3.983700 0.000000 
#    z 0.000000 0.000000 4.159810 
# 
# 
# High freq. dielectric constant tensor:
#      x y z
#    x 1.762660 0.000000 0.000000 
#    y 0.000000 1.815710 0.000000 
#    z 0.000000 0.000000 1.830670 
# 
# From -- ./inp_files/12771.got.cif
#   From: 2010.06.25/outbox.cif.g09.slc.cpg/sg48_7_cif.got.tgz:12771.got - 2010.06.26 18:06:46.
