data_PCOD8201516
_publ_section_title
;
Structure prediction by ZEFSAII (Michael W. Deem and Ramdas Pophale) SiO2 
 PCOD8201516
Probable space group: P N N N
;
_chemical_formula_sum "Si O2"
_cell_formula_units_Z 44
_cell_length_a 17.808875
_cell_length_b 20.951472
_cell_length_c 4.962354
_cell_angle_alpha 90.000000
_cell_angle_beta 90.000000
_cell_angle_gamma 90.000000
_cell_volume 1851.564173
_symmetry_space_group_name_H-M "P N N N"
_symmetry_group_IT_number 48
_space_group.IT_coordinate_system_code '2'
_symmetry_cell_setting 'orthorhombic'
loop_
_space_group_symop_operation_xyz
x,y,z
1/2-x,1/2-y,z
x,1/2-y,1/2-z
1/2-x,y,1/2-z
-x,-y,-z
1/2+x,1/2+y,-z
-x,1/2+y,1/2+z
1/2+x,-y,1/2+z
loop_
_atom_site_type_symbol
_atom_site_label
_atom_site_fract_x
_atom_site_fract_y
_atom_site_fract_z
Si Si1 0.562593 0.052197 0.686075
Si Si2 0.593206 0.370870 0.305284
Si Si3 0.250000 0.601757 0.750000
Si Si4 0.903329 0.903596 0.210907
Si Si5 0.063035 0.178115 0.279896
Si Si6 0.809643 0.515794 0.942428
O O1 0.583794 0.065434 0.376518
O O2 0.471986 0.044352 0.699280
O O3 0.610171 0.990357 0.781389
O O4 0.585286 0.111574 0.880275
O O5 0.678497 0.349962 0.222410
O O6 0.527536 0.321644 0.221204
O O7 0.273021 0.553519 0.507258
O O8 0.920265 0.847740 0.424447
O O9 0.827401 0.942082 0.291087
O O10 0.893048 0.867629 0.928117
O O11 0.092658 0.250000 0.250000
O O12 0.750000 0.551788 0.750000
#
# Coordination Sequence:
#
# PCOD8201516 Si02
#       6
#     8   8   4   8   8   8
#     4   9  18  34  50  80 115 154 189 229 281 358
#     4   9  18  32  54  79 112 151 193 234 288 353
#     4  10  20  34  51  84 125 158 180 220 288 374
#     4  10  22  35  59  85 112 148 199 245 295 352
#     4  10  21  40  60  81 107 147 204 264 299 328
#     4  11  21  33  54  84 125 159 186 224 296 369
#
# _framework density 23.763691000000001
#
# number of rings (size 3 to 8) (size 9 to 14) (size 15 to 20)
#    0.000    2.182    1.818    1.091    2.545    0.000 
#    0.000    7.727    0.000    0.545    0.000    7.636 
#    0.000    0.000    0.000    0.000    0.000    0.000 
#
# Total GULP energy -545122.348650 kJ/mol
# GULP energy per Si atom -12389.144288 kJ/mol
# Density = 2.370960 g / cm^3
# Si number density = 23.763691 Si / 1000 Ang^3
#
#
#
# Elastic Constant Matrix: (Units=GPa)
#
#
# Indices 1 2 3 4 5 6 
#
# 1 71.1533 -4.7415 4.2770 0.0000 0.0000 0.0000
# 2 -4.7415 60.4220 -1.1233 0.0000 0.0000 0.0000
# 3 4.2770 -1.1233 58.0956 0.0000 0.0000 0.0000
# 4 0.0000 0.0000 0.0000 14.7108 0.0000 0.0000
# 5 0.0000 0.0000 0.0000 0.0000 33.0194 0.0000
# 6 0.0000 0.0000 0.0000 0.0000 0.0000 16.1970
#
#
#
# Elastic Compliance Matrix: (Units=1/GPa)
#
#
# Indices 1 2 3 4 5 6 
#
# 1 0.014189 0.001094 -0.001023 0.000000 0.000000 0.000000
# 2 0.001094 0.016641 0.000241 0.000000 0.000000 0.000000
# 3 -0.001023 0.000241 0.017293 0.000000 0.000000 0.000000
# 4 0.000000 0.000000 0.000000 0.067977 0.000000 0.000000
# 5 0.000000 0.000000 0.000000 0.000000 0.030285 0.000000
# 6 0.000000 0.000000 0.000000 0.000000 0.000000 0.061740
#
#
# Mechanical properties :
#
#
# Convention : Reuss Voigt Hill
#
# Bulk Modulus (GPa) = 20.51425 20.72170 20.61798
# Shear Modulus (GPa) = 22.34644 25.53601 23.94122
#
# Velocity S-wave (km/s) = 3.06986 3.28164 3.17751
# Velocity P-wave (km/s) = 4.60616 4.80600 4.70714
#
# Compressibility (1/GPa) = 0.04874660
#
# Stress axis : x y z
#
# Youngs Moduli (GPa) = 70.47911 60.09390 57.82684
#
# Poissons Ratio (x) = -0.06577 0.05918
# Poissons Ratio (y) = -0.07713 -0.01395
# Poissons Ratio (z) = 0.07213 -0.01449
#
# Static dielectric constant tensor:
#      x y z
#    x 4.623240 0.000000 0.000000 
#    y 0.000000 3.456840 0.000000 
#    z 0.000000 0.000000 4.461820 
# 
# 
# High freq. dielectric constant tensor:
#      x y z
#    x 1.948720 0.000000 0.000000 
#    y 0.000000 1.865600 0.000000 
#    z 0.000000 0.000000 1.963870 
# 
# From -- ./inp_files/3486.got.cif
#   From: 2010.06.25/outbox.cif.g09.slc.cpg/sg48_2_cif.got.tgz:3486.got - 2010.06.26 18:06:46.
