data_PCOD8201159
_publ_section_title
;
Structure prediction by ZEFSAII (Michael W. Deem and Ramdas Pophale) SiO2 
 PCOD8201159
Probable space group: P M M M
;
_chemical_formula_sum "Si O2"
_cell_formula_units_Z 44
_cell_length_a 10.115544
_cell_length_b 29.587557
_cell_length_c 8.212414
_cell_angle_alpha 90.000000
_cell_angle_beta 90.000000
_cell_angle_gamma 90.000000
_cell_volume 2457.928163
_symmetry_space_group_name_H-M "P M M M"
_symmetry_group_IT_number 47
_symmetry_cell_setting 'orthorhombic'
loop_
_space_group_symop_operation_xyz
x,y,z
-x,-y,z
x,-y,-z
-x,y,-z
-x,-y,-z
x,y,-z
-x,y,z
x,-y,z
loop_
_atom_site_type_symbol
_atom_site_label
_atom_site_fract_x
_atom_site_fract_y
_atom_site_fract_z
Si Si1 0.649978 0.877365 0.808894
Si Si2 0.843057 0.604030 0.318038
Si Si3 0.842576 0.448520 0.000000
Si Si4 0.147613 0.706418 0.688709
Si Si5 0.854459 0.049744 0.691114
Si Si6 0.644707 0.222500 0.809385
O O1 0.500000 0.889627 0.759288
O O2 0.747069 0.913326 0.733166
O O3 0.685068 0.827028 0.741084
O O4 0.668659 0.879106 0.000000
O O5 0.790638 0.588951 0.500000
O O6 0.786718 0.574149 0.167424
O O7 0.800624 0.655513 0.282516
O O8 0.000000 0.600545 0.322760
O O9 0.793872 0.500000 0.000000
O O10 0.000000 0.444834 0.000000
O O11 0.143502 0.717936 0.500000
O O12 0.246390 0.740380 0.773547
O O13 0.000000 0.712128 0.762941
O O14 0.863887 0.046476 0.500000
O O15 0.000000 0.063271 0.760362
O O16 0.814335 0.000000 0.760320
O O17 0.500000 0.236659 0.737892
O O18 0.629979 0.217391 0.000000
#
# Coordination Sequence:
#
# PCOD8201159 Si02
#       6
#     8   8   4   8   8   8
#     4   9  19  35  51  69  96 126 156 193 237 285
#     4   8  15  27  40  59  91 124 157 203 248 289
#     4   9  16  24  38  62  89 125 169 201 240 299
#     4   9  18  31  47  69  95 125 162 199 239 289
#     4   9  19  35  52  71  96 124 155 194 238 282
#     4   9  19  34  49  68  96 127 158 195 239 286
#
# _framework density 17.901256
#
# number of rings (size 3 to 8) (size 9 to 14) (size 15 to 20)
#    0.000    3.182    0.000    2.727    1.273    4.000 
#    0.000   10.000    0.000    0.000    0.000    0.000 
#    0.000    1.455    0.000    4.000    0.000    4.000 
#
# Total GULP energy -545112.387837 kJ/mol
# GULP energy per Si atom -12388.917905 kJ/mol
# Density = 1.786051 g / cm^3
# Si number density = 17.901256 Si / 1000 Ang^3
#
#
#
# Elastic Constant Matrix: (Units=GPa)
#
#
# Indices 1 2 3 4 5 6 
#
# 1 51.7819 43.5354 24.2792 0.0000 0.0000 0.0000
# 2 43.5354 112.2560 49.4028 0.0000 0.0000 0.0000
# 3 24.2792 49.4028 68.7758 0.0000 0.0000 0.0000
# 4 0.0000 0.0000 0.0000 33.1671 0.0000 0.0000
# 5 0.0000 0.0000 0.0000 0.0000 20.9116 0.0000
# 6 0.0000 0.0000 0.0000 0.0000 0.0000 68.3583
#
#
#
# Elastic Compliance Matrix: (Units=1/GPa)
#
#
# Indices 1 2 3 4 5 6 
#
# 1 0.029120 -0.009898 -0.003170 0.000000 0.000000 0.000000
# 2 -0.009898 0.016391 -0.008279 0.000000 0.000000 0.000000
# 3 -0.003170 -0.008279 0.021606 0.000000 0.000000 0.000000
# 4 0.000000 0.000000 0.000000 0.030150 0.000000 0.000000
# 5 0.000000 0.000000 0.000000 0.000000 0.047820 0.000000
# 6 0.000000 0.000000 0.000000 0.000000 0.000000 0.014629
#
#
# Mechanical properties :
#
#
# Convention : Reuss Voigt Hill
#
# Bulk Modulus (GPa) = 40.94693 51.91651 46.43172
# Shear Modulus (GPa) = 23.74708 32.19383 27.97045
#
# Velocity S-wave (km/s) = 3.64615 4.24537 3.95712
# Velocity P-wave (km/s) = 6.37568 7.28666 6.84634
#
# Compressibility (1/GPa) = 0.02442185
#
# Stress axis : x y z
#
# Youngs Moduli (GPa) = 34.34060 61.01005 46.28300
#
# Poissons Ratio (x) = 0.60390 0.14670
# Poissons Ratio (y) = 0.33992 0.38320
# Poissons Ratio (z) = 0.10885 0.50513
#
# Static dielectric constant tensor:
#      x y z
#    x 3.390990 0.000000 0.000000 
#    y 0.000000 -4.120500 0.000000 
#    z 0.000000 0.000000 3.374220 
# 
# 
# High freq. dielectric constant tensor:
#      x y z
#    x 1.657790 0.000000 0.000000 
#    y 0.000000 1.694950 0.000000 
#    z 0.000000 0.000000 1.689350 
# 
# From -- ./inp_files/1975.got.cif
#   From: 2010.03.12/outbox.cif.g09.slc.cpg/sg47_1_cif.got.tgz:1975.got - 2010.04.14 03:12:58.
