data_PCOD8201372
_publ_section_title
;
Structure prediction by ZEFSAII (Michael W. Deem and Ramdas Pophale) SiO2 
 PCOD8201372
Probable space group: P N N N
;
_chemical_formula_sum "Si O2"
_cell_formula_units_Z 64
_cell_length_a 9.005470
_cell_length_b 22.424954
_cell_length_c 16.759658
_cell_angle_alpha 90.000000
_cell_angle_beta 90.000000
_cell_angle_gamma 90.000000
_cell_volume 3384.566852
_symmetry_space_group_name_H-M "P N N N"
_symmetry_group_IT_number 48
_space_group.IT_coordinate_system_code '2'
_symmetry_cell_setting 'orthorhombic'
loop_
_space_group_symop_operation_xyz
x,y,z
1/2-x,1/2-y,z
x,1/2-y,1/2-z
1/2-x,y,1/2-z
-x,-y,-z
1/2+x,1/2+y,-z
-x,1/2+y,1/2+z
1/2+x,-y,1/2+z
loop_
_atom_site_type_symbol
_atom_site_label
_atom_site_fract_x
_atom_site_fract_y
_atom_site_fract_z
Si Si1 0.925638 0.395750 0.896905
Si Si2 0.425772 0.632586 0.573681
Si Si3 0.074131 0.513559 0.841670
Si Si4 0.925638 0.104251 0.896905
Si Si5 0.425869 0.513559 0.841670
Si Si6 0.426523 0.816861 0.250000
Si Si7 0.427374 0.750000 0.840607
Si Si8 0.574228 0.132586 0.426319
O O1 0.750000 0.404642 0.891083
O O2 0.984340 0.351328 0.828265
O O3 0.000421 0.459736 0.889037
O O4 0.974066 0.367944 0.981332
O O5 0.486755 0.574432 0.619299
O O6 0.491920 0.691714 0.614906
O O7 0.250000 0.633540 0.581534
O O8 0.250000 0.508247 0.850121
O O9 0.023385 0.512090 0.750000
O O10 0.984340 0.148672 0.828265
O O11 0.974066 0.132056 0.981332
O O12 0.000421 0.040264 0.889037
O O13 0.486755 0.574432 0.880701
O O14 0.492762 0.750000 0.250000
O O15 0.250000 0.814049 0.250000
O O16 0.250000 0.750000 0.842963
O O17 0.485171 0.750000 0.750000
O O18 0.491920 0.691714 0.885094
#
# Coordination Sequence:
#
# PCOD8201372 Si02
#       8
#     8   8   8   8   8   8   8   8
#     4  10  19  32  50  73  98 125 163 201 237 284
#     4   9  18  29  46  71  97 127 161 200 242 284
#     4  10  19  32  49  70  99 130 159 195 243 289
#     4  10  19  32  50  73  98 125 163 201 237 284
#     4  10  19  32  49  70  99 130 159 195 243 289
#     4   9  18  30  47  71  99 126 153 196 244 279
#     4   9  16  28  46  71 102 129 158 197 243 291
#     4   9  18  29  46  71  97 127 161 200 242 284
#
# _framework density 18.909362000000002
#
# number of rings (size 3 to 8) (size 9 to 14) (size 15 to 20)
#    0.000    2.500    1.250    1.500    1.750    3.000 
#    0.000    0.000    0.000    1.500    0.000    2.625 
#    0.000    6.000    0.000    0.000    0.000    0.000 
#
# Total GULP energy -793639.855772 kJ/mol
# GULP energy per Si atom -12400.622746 kJ/mol
# Density = 1.886632 g / cm^3
# Si number density = 18.909362 Si / 1000 Ang^3
#
#
#
# Elastic Constant Matrix: (Units=GPa)
#
#
# Indices 1 2 3 4 5 6 
#
# 1 9.7839 16.0950 17.0527 0.0000 0.0000 0.0000
# 2 16.0950 198.1336 98.3708 0.0000 0.0000 0.0000
# 3 17.0527 98.3708 171.3960 0.0000 0.0000 0.0000
# 4 0.0000 0.0000 0.0000 40.1226 0.0000 0.0000
# 5 0.0000 0.0000 0.0000 0.0000 12.1799 0.0000
# 6 0.0000 0.0000 0.0000 0.0000 0.0000 22.9964
#
#
#
# Elastic Compliance Matrix: (Units=1/GPa)
#
#
# Indices 1 2 3 4 5 6 
#
# 1 0.128100 -0.005703 -0.009472 0.000000 0.000000 0.000000
# 2 -0.005703 0.007312 -0.003629 0.000000 0.000000 0.000000
# 3 -0.009472 -0.003629 0.008860 0.000000 0.000000 0.000000
# 4 0.000000 0.000000 0.000000 0.024924 0.000000 0.000000
# 5 0.000000 0.000000 0.000000 0.000000 0.082102 0.000000
# 6 0.000000 0.000000 0.000000 0.000000 0.000000 0.043485
#
#
# Mechanical properties :
#
#
# Convention : Reuss Voigt Hill
#
# Bulk Modulus (GPa) = 9.37529 71.37229 40.37379
# Shear Modulus (GPa) = 13.58893 31.57946 22.58419
#
# Velocity S-wave (km/s) = 2.68365 4.09105 3.45967
# Velocity P-wave (km/s) = 3.81725 7.75512 6.11201
#
# Compressibility (1/GPa) = 0.10666334
#
# Stress axis : x y z
#
# Youngs Moduli (GPa) = 7.80639 136.75485 112.86866
#
# Poissons Ratio (x) = 0.77997 1.06906
# Poissons Ratio (y) = 0.04452 0.40964
# Poissons Ratio (z) = 0.07394 0.49634
#
# Static dielectric constant tensor:
#      x y z
#    x 2.840050 0.000000 0.000000 
#    y 0.000000 3.735560 0.000000 
#    z 0.000000 0.000000 3.714900 
# 
# 
# High freq. dielectric constant tensor:
#      x y z
#    x 1.666710 0.000000 0.000000 
#    y 0.000000 1.750190 0.000000 
#    z 0.000000 0.000000 1.754400 
# 
# From -- ./inp_files/30609.got.cif
#   From: 2010.06.25/outbox.cif.g09.slc.cpg/sg48_16_cif.got.tgz:30609.got - 2010.06.26 18:06:46.
