data_PCOD8201315
_publ_section_title
;
Structure prediction by ZEFSAII (Michael W. Deem and Ramdas Pophale) SiO2 
 PCOD8201315
Probable space group: P N N N
;
_chemical_formula_sum "Si O2"
_cell_formula_units_Z 56
_cell_length_a 5.010588
_cell_length_b 22.187201
_cell_length_c 27.483740
_cell_angle_alpha 90.000000
_cell_angle_beta 90.000000
_cell_angle_gamma 90.000000
_cell_volume 3055.392746
_symmetry_space_group_name_H-M "P N N N"
_symmetry_group_IT_number 48
_space_group.IT_coordinate_system_code '2'
_symmetry_cell_setting 'orthorhombic'
loop_
_space_group_symop_operation_xyz
x,y,z
1/2-x,1/2-y,z
x,1/2-y,1/2-z
1/2-x,y,1/2-z
-x,-y,-z
1/2+x,1/2+y,-z
-x,1/2+y,1/2+z
1/2+x,-y,1/2+z
loop_
_atom_site_type_symbol
_atom_site_label
_atom_site_fract_x
_atom_site_fract_y
_atom_site_fract_z
Si Si1 0.788394 0.028547 0.347454
Si Si2 0.714738 0.679922 0.889226
Si Si3 0.785826 0.586991 0.694582
Si Si4 0.785942 0.378705 0.068808
Si Si5 0.489976 0.712284 0.403046
Si Si6 0.741143 0.386451 0.957773
Si Si7 0.206542 0.408614 0.897855
O O1 0.739023 0.957523 0.356136
O O2 0.571137 0.055687 0.311089
O O3 0.771364 0.060673 0.399667
O O4 0.071898 0.037281 0.321937
O O5 0.750000 0.750000 0.879551
O O6 0.746930 0.647144 0.837321
O O7 0.425054 0.669770 0.911750
O O8 0.926899 0.653019 0.927523
O O9 0.750000 0.606999 0.750000
O O10 0.715464 0.399574 0.014586
O O11 0.750000 0.750000 0.418521
O O12 0.342342 0.683206 0.450545
O O13 0.604868 0.654571 0.372288
O O14 0.250000 0.750000 0.375965
O O15 0.463365 0.396986 0.930896
O O16 0.965252 0.430522 0.933656
#
# Coordination Sequence:
#
# PCOD8201315 Si02
#       7
#     8   8   8   8   8   8   8
#     4  10  21  37  56  75 109 132 169 223 263 328
#     4  10  21  36  52  76 107 141 183 224 264 311
#     4  10  21  38  60  81 103 134 169 219 284 329
#     4  10  21  35  48  75 103 145 183 217 265 295
#     4  10  18  32  46  69 104 137 175 216 245 289
#     4  10  20  31  48  74 100 145 186 214 257 292
#     4  10  20  33  50  75 101 143 176 220 258 302
#
# _framework density 18.328249
#
# number of rings (size 3 to 8) (size 9 to 14) (size 15 to 20)
#    0.857    1.143    1.429    2.571    0.000    3.143 
#    0.000    0.000    0.000    5.143    0.000    0.000 
#    0.000    8.571    0.000    0.000    0.000    0.000 
#
# Total GULP energy -693929.016257 kJ/mol
# GULP energy per Si atom -12391.589576 kJ/mol
# Density = 1.828653 g / cm^3
# Si number density = 18.328249 Si / 1000 Ang^3
#
#
#
# Elastic Constant Matrix: (Units=GPa)
#
#
# Indices 1 2 3 4 5 6 
#
# 1 97.5924 18.8596 2.6815 0.0000 0.0000 0.0000
# 2 18.8596 67.2231 11.6316 0.0000 0.0000 0.0000
# 3 2.6815 11.6316 40.3163 0.0000 0.0000 0.0000
# 4 0.0000 0.0000 0.0000 9.9874 0.0000 0.0000
# 5 0.0000 0.0000 0.0000 0.0000 15.0476 0.0000
# 6 0.0000 0.0000 0.0000 0.0000 0.0000 21.2041
#
#
#
# Elastic Compliance Matrix: (Units=1/GPa)
#
#
# Indices 1 2 3 4 5 6 
#
# 1 0.010835 -0.003068 0.000165 0.000000 0.000000 0.000000
# 2 -0.003068 0.016526 -0.004564 0.000000 0.000000 0.000000
# 3 0.000165 -0.004564 0.026110 0.000000 0.000000 0.000000
# 4 0.000000 0.000000 0.000000 0.100126 0.000000 0.000000
# 5 0.000000 0.000000 0.000000 0.000000 0.066456 0.000000
# 6 0.000000 0.000000 0.000000 0.000000 0.000000 0.047161
#
#
# Mechanical properties :
#
#
# Convention : Reuss Voigt Hill
#
# Bulk Modulus (GPa) = 25.94987 30.16412 28.05700
# Shear Modulus (GPa) = 16.94950 20.71177 18.83063
#
# Velocity S-wave (km/s) = 3.04431 3.36526 3.20880
# Velocity P-wave (km/s) = 5.15230 5.62080 5.39165
#
# Compressibility (1/GPa) = 0.03853584
#
# Stress axis : x y z
#
# Youngs Moduli (GPa) = 92.29248 60.50947 38.30002
#
# Poissons Ratio (x) = 0.18566 -0.00630
# Poissons Ratio (y) = 0.28318 0.17480
# Poissons Ratio (z) = -0.01519 0.27616
#
# Static dielectric constant tensor:
#      x y z
#    x 3.689950 0.000000 0.000000 
#    y 0.000000 3.321900 0.000000 
#    z 0.000000 0.000000 2.910140 
# 
# 
# High freq. dielectric constant tensor:
#      x y z
#    x 1.740370 0.000000 0.000000 
#    y 0.000000 1.705870 0.000000 
#    z 0.000000 0.000000 1.658330 
# 
# From -- ./inp_files/37214.got.cif
#   From: 2010.06.25/outbox.cif.g09.slc.cpg/sg48_19_cif.got.tgz:37214.got - 2010.06.26 18:06:46.
