data_PCOD8201881
_publ_section_title
;
Structure prediction by ZEFSAII (Michael W. Deem and Ramdas Pophale) SiO2 
 PCOD8201881
Probable space group: P N N N
;
_chemical_formula_sum "Si O2"
_cell_formula_units_Z 64
_cell_length_a 30.614485
_cell_length_b 10.825821
_cell_length_c 9.336891
_cell_angle_alpha 90.000000
_cell_angle_beta 90.000000
_cell_angle_gamma 90.000000
_cell_volume 3094.497163
_symmetry_space_group_name_H-M "P N N N"
_symmetry_group_IT_number 48
_space_group.IT_coordinate_system_code '2'
_symmetry_cell_setting 'orthorhombic'
loop_
_space_group_symop_operation_xyz
x,y,z
1/2-x,1/2-y,z
x,1/2-y,1/2-z
1/2-x,y,1/2-z
-x,-y,-z
1/2+x,1/2+y,-z
-x,1/2+y,1/2+z
1/2+x,-y,1/2+z
loop_
_atom_site_type_symbol
_atom_site_label
_atom_site_fract_x
_atom_site_fract_y
_atom_site_fract_z
Si Si1 0.926182 0.324051 0.560176
Si Si2 0.082642 0.209928 0.412961
Si Si3 0.905008 0.059471 0.519635
Si Si4 0.203244 0.367225 0.326281
Si Si5 0.155141 0.614260 0.248008
Si Si6 0.978068 0.656596 0.380204
Si Si7 0.840441 0.685174 0.398044
Si Si8 0.403663 0.524681 0.809330
O O1 0.934300 0.176644 0.568722
O O2 0.891631 0.375257 0.674179
O O3 0.905973 0.352593 0.404756
O O4 0.972671 0.388983 0.589162
O O5 0.091687 0.250000 0.250000
O O6 0.041225 0.283368 0.474456
O O7 0.124512 0.232523 0.515227
O O8 0.072235 0.064108 0.420492
O O9 0.856280 0.076665 0.585376
O O10 0.897259 0.061264 0.352392
O O11 0.178418 0.250000 0.250000
O O12 0.250000 0.373763 0.250000
O O13 0.182644 0.502626 0.312415
O O14 0.201604 0.338330 0.497655
O O15 0.179051 0.750000 0.250000
O O16 0.975859 0.750000 0.250000
O O17 0.949889 0.540898 0.331978
O O18 0.825483 0.750000 0.250000
O O19 0.862738 0.555869 0.360765
#
# Coordination Sequence:
#
# PCOD8201881 Si02
#       8
#     8   8   8   8   8   8   8   8
#     4  11  24  40  59  86 125 175 218 277 326 385
#     4  11  22  36  61  93 122 174 227 273 329 388
#     4  11  21  38  60  88 121 164 222 269 317 387
#     4  11  24  43  71 104 137 162 210 268 317 396
#     4  10  22  42  66  95 130 177 219 260 332 401
#     4  11  22  42  55  82 128 168 227 282 336 373
#     4  11  20  39  69  95 130 169 209 259 329 394
#     4  11  21  39  62  88 121 170 217 268 323 386
#
# _framework density 20.681871999999998
#
# number of rings (size 3 to 8) (size 9 to 14) (size 15 to 20)
#    0.000    1.125    3.750    4.500    1.750    1.750 
#    4.500    1.250    0.000    0.000    0.000    0.000 
#    0.000    0.000    0.000    0.000    0.000    0.000 
#
# Total GULP energy -793132.112366 kJ/mol
# GULP energy per Si atom -12392.689256 kJ/mol
# Density = 2.063480 g / cm^3
# Si number density = 20.681872 Si / 1000 Ang^3
#
#
#
# Elastic Constant Matrix: (Units=GPa)
#
#
# Indices 1 2 3 4 5 6 
#
# 1 87.3318 37.7007 48.9434 0.0000 0.0000 0.0000
# 2 37.7007 109.5290 43.7169 0.0000 0.0000 0.0000
# 3 48.9434 43.7169 159.1269 0.0000 0.0000 0.0000
# 4 0.0000 0.0000 0.0000 33.0350 0.0000 0.0000
# 5 0.0000 0.0000 0.0000 0.0000 24.0205 0.0000
# 6 0.0000 0.0000 0.0000 0.0000 0.0000 81.0411
#
#
#
# Elastic Compliance Matrix: (Units=1/GPa)
#
#
# Indices 1 2 3 4 5 6 
#
# 1 0.015095 -0.003754 -0.003611 0.000000 0.000000 0.000000
# 2 -0.003754 0.011188 -0.001919 0.000000 0.000000 0.000000
# 3 -0.003611 -0.001919 0.007922 0.000000 0.000000 0.000000
# 4 0.000000 0.000000 0.000000 0.030271 0.000000 0.000000
# 5 0.000000 0.000000 0.000000 0.000000 0.041631 0.000000
# 6 0.000000 0.000000 0.000000 0.000000 0.000000 0.012339
#
#
# Mechanical properties :
#
#
# Convention : Reuss Voigt Hill
#
# Bulk Modulus (GPa) = 63.95472 68.52329 66.23900
# Shear Modulus (GPa) = 35.15452 42.66110 38.90781
#
# Velocity S-wave (km/s) = 4.12731 4.54666 4.34205
# Velocity P-wave (km/s) = 7.32824 7.79530 7.56538
#
# Compressibility (1/GPa) = 0.01563606
#
# Stress axis : x y z
#
# Youngs Moduli (GPa) = 66.24560 89.37960 126.22620
#
# Poissons Ratio (x) = 0.33557 0.45586
# Poissons Ratio (y) = 0.24872 0.24222
# Poissons Ratio (z) = 0.23924 0.17152
#
# Static dielectric constant tensor:
#      x y z
#    x 3.405010 0.000000 0.000000 
#    y 0.000000 11.198660 0.000000 
#    z 0.000000 0.000000 4.043790 
# 
# 
# High freq. dielectric constant tensor:
#      x y z
#    x 1.761690 0.000000 0.000000 
#    y 0.000000 1.824250 0.000000 
#    z 0.000000 0.000000 1.829910 
# 
# From -- ./inp_files/16957.got.cif
#   From: 2010.06.25/outbox.cif.g09.slc.cpg/sg48_9_cif.got.tgz:16957.got - 2010.06.26 18:06:46.
