data_PCOD8201604
_publ_section_title
;
Structure prediction by ZEFSAII (Michael W. Deem and Ramdas Pophale) SiO2 
 PCOD8201604
Probable space group: P N N N
;
_chemical_formula_sum "Si O2"
_cell_formula_units_Z 48
_cell_length_a 15.332156
_cell_length_b 15.479821
_cell_length_c 9.759438
_cell_angle_alpha 90.000000
_cell_angle_beta 90.000000
_cell_angle_gamma 90.000000
_cell_volume 2316.295552
_symmetry_space_group_name_H-M "P N N N"
_symmetry_group_IT_number 48
_space_group.IT_coordinate_system_code '2'
_symmetry_cell_setting 'orthorhombic'
loop_
_space_group_symop_operation_xyz
x,y,z
1/2-x,1/2-y,z
x,1/2-y,1/2-z
1/2-x,y,1/2-z
-x,-y,-z
1/2+x,1/2+y,-z
-x,1/2+y,1/2+z
1/2+x,-y,1/2+z
loop_
_atom_site_type_symbol
_atom_site_label
_atom_site_fract_x
_atom_site_fract_y
_atom_site_fract_z
Si Si1 0.321200 0.535904 0.638916
Si Si2 0.530535 0.328561 0.436532
Si Si3 0.530708 0.913432 0.206508
Si Si4 0.294357 0.526980 0.115812
Si Si5 0.438694 0.077112 0.279433
Si Si6 0.453514 0.862647 0.479341
O O1 0.250000 0.566805 0.750000
O O2 0.385844 0.615363 0.607467
O O3 0.372081 0.453054 0.699812
O O4 0.276491 0.504779 0.498679
O O5 0.487553 0.351620 0.580240
O O6 0.454616 0.340780 0.320056
O O7 0.559529 0.229758 0.448613
O O8 0.516651 0.859339 0.346544
O O9 0.460710 0.990889 0.192991
O O10 0.250000 0.568551 0.250000
O O11 0.340869 0.436219 0.162304
O O12 0.359982 0.599110 0.058858
O O13 0.503992 0.075320 0.408034
#
# Coordination Sequence:
#
# PCOD8201604 Si02
#       6
#     8   8   8   8   8   8
#     4  11  21  36  59  87 117 150 189 238 289 338
#     4  11  22  38  60  87 117 151 190 236 287 340
#     4  10  20  38  59  81 112 156 202 228 265 344
#     4  11  21  36  59  87 117 150 189 238 289 338
#     4  10  20  38  59  81 112 156 202 228 265 344
#     4  11  22  38  60  87 117 151 190 236 287 340
#
# _framework density 20.722742
#
# number of rings (size 3 to 8) (size 9 to 14) (size 15 to 20)
#    0.000    1.333    0.000   11.000    0.000    0.667 
#    0.000    5.000    0.000   15.000    0.000    0.000 
#    0.000    0.000    0.000    0.000    0.000    0.000 
#
# Total GULP energy -595076.736235 kJ/mol
# GULP energy per Si atom -12397.432005 kJ/mol
# Density = 2.067558 g / cm^3
# Si number density = 20.722742 Si / 1000 Ang^3
#
#
#
# Elastic Constant Matrix: (Units=GPa)
#
#
# Indices 1 2 3 4 5 6 
#
# 1 87.1859 41.6555 25.2275 0.0000 0.0000 0.0000
# 2 41.6555 59.4447 18.2961 0.0000 0.0000 0.0000
# 3 25.2275 18.2961 105.0779 0.0000 0.0000 0.0000
# 4 0.0000 0.0000 0.0000 37.4041 0.0000 0.0000
# 5 0.0000 0.0000 0.0000 0.0000 46.7081 0.0000
# 6 0.0000 0.0000 0.0000 0.0000 0.0000 14.3822
#
#
#
# Elastic Compliance Matrix: (Units=1/GPa)
#
#
# Indices 1 2 3 4 5 6 
#
# 1 0.017715 -0.011734 -0.002210 0.000000 0.000000 0.000000
# 2 -0.011734 0.025547 -0.001631 0.000000 0.000000 0.000000
# 3 -0.002210 -0.001631 0.010331 0.000000 0.000000 0.000000
# 4 0.000000 0.000000 0.000000 0.026735 0.000000 0.000000
# 5 0.000000 0.000000 0.000000 0.000000 0.021410 0.000000
# 6 0.000000 0.000000 0.000000 0.000000 0.000000 0.069530
#
#
# Mechanical properties :
#
#
# Convention : Reuss Voigt Hill
#
# Bulk Modulus (GPa) = 44.55609 46.89629 45.72619
# Shear Modulus (GPa) = 23.82095 30.80084 27.31089
#
# Velocity S-wave (km/s) = 3.39412 3.85948 3.63425
# Velocity P-wave (km/s) = 6.07518 6.52229 6.30270
#
# Compressibility (1/GPa) = 0.02244362
#
# Stress axis : x y z
#
# Youngs Moduli (GPa) = 56.44833 39.14404 96.79257
#
# Poissons Ratio (x) = 0.45930 0.21392
# Poissons Ratio (y) = 0.66235 0.15788
# Poissons Ratio (z) = 0.12476 0.06385
#
# Static dielectric constant tensor:
#      x y z
#    x 3.823490 0.000000 0.000000 
#    y 0.000000 3.450250 0.000000 
#    z 0.000000 0.000000 4.168270 
# 
# 
# High freq. dielectric constant tensor:
#      x y z
#    x 1.801040 0.000000 0.000000 
#    y 0.000000 1.777200 0.000000 
#    z 0.000000 0.000000 1.844760 
# 
# From -- ./inp_files/12770.got.cif
#   From: 2010.06.25/outbox.cif.g09.slc.cpg/sg48_7_cif.got.tgz:12770.got - 2010.06.26 18:06:46.
