data_PCOD8201923
_publ_section_title
;
Structure prediction by ZEFSAII (Michael W. Deem and Ramdas Pophale) SiO2 
 PCOD8201923
Probable space group: P N N N
;
_chemical_formula_sum "Si O2"
_cell_formula_units_Z 38
_cell_length_a 18.910513
_cell_length_b 16.250254
_cell_length_c 5.816716
_cell_angle_alpha 90.000000
_cell_angle_beta 90.000000
_cell_angle_gamma 90.000000
_cell_volume 1787.480547
_symmetry_space_group_name_H-M "P N N N"
_symmetry_group_IT_number 48
_space_group.IT_coordinate_system_code '2'
_symmetry_cell_setting 'orthorhombic'
loop_
_space_group_symop_operation_xyz
x,y,z
1/2-x,1/2-y,z
x,1/2-y,1/2-z
1/2-x,y,1/2-z
-x,-y,-z
1/2+x,1/2+y,-z
-x,1/2+y,1/2+z
1/2+x,-y,1/2+z
loop_
_atom_site_type_symbol
_atom_site_label
_atom_site_fract_x
_atom_site_fract_y
_atom_site_fract_z
Si Si1 0.566262 0.889606 0.537882
Si Si2 0.250000 0.750000 0.750000
Si Si3 0.366581 0.808481 0.054601
Si Si4 0.959164 0.048015 0.696881
Si Si5 0.484781 0.750000 0.750000
Si Si6 0.775301 0.843544 0.002350
O O1 0.515539 0.890822 0.315396
O O2 0.531566 0.831936 0.731864
O O3 0.640753 0.849901 0.477033
O O4 0.574028 0.982690 0.626028
O O5 0.301011 0.685660 0.619381
O O6 0.335208 0.750000 0.250000
O O7 0.390648 0.900964 0.114323
O O8 0.435279 0.759083 0.970010
O O9 0.000000 0.000000 0.500000
O O10 0.750000 0.750000 0.001360
O O11 0.750000 0.884079 0.250000
O O12 0.750000 0.882264 0.750000
#
# Coordination Sequence:
#
# PCOD8201923 Si02
#       6
#     8   2   8   8   4   8
#     4  11  24  40  69 101 137 182 226 296 352 416
#     4  10  26  40  72  94 130 180 234 284 342 434
#     4  11  22  43  68  98 130 176 229 284 348 415
#     4  11  24  42  68 101 138 174 228 293 358 419
#     4  11  20  37  69 106 127 168 234 278 343 408
#     4  10  23  42  66  99 141 186 236 277 340 430
#
# _framework density 21.258970999999999
#
# number of rings (size 3 to 8) (size 9 to 14) (size 15 to 20)
#    0.000    1.263    4.211    1.579    2.947    3.368 
#    0.000    4.211    2.316    0.000    0.000    0.000 
#    0.000    0.000    0.000    0.000    0.000    0.000 
#
# Total GULP energy -470831.716953 kJ/mol
# GULP energy per Si atom -12390.308341 kJ/mol
# Density = 2.121058 g / cm^3
# Si number density = 21.258971 Si / 1000 Ang^3
#
#
#
# Elastic Constant Matrix: (Units=GPa)
#
#
# Indices 1 2 3 4 5 6 
#
# 1 165.9467 61.0971 54.0868 0.0000 0.0000 0.0000
# 2 61.0971 97.5012 29.8905 0.0000 0.0000 0.0000
# 3 54.0868 29.8905 129.0967 0.0000 0.0000 0.0000
# 4 0.0000 0.0000 0.0000 29.6295 0.0000 0.0000
# 5 0.0000 0.0000 0.0000 0.0000 20.0515 0.0000
# 6 0.0000 0.0000 0.0000 0.0000 0.0000 26.6564
#
#
#
# Elastic Compliance Matrix: (Units=1/GPa)
#
#
# Indices 1 2 3 4 5 6 
#
# 1 0.008530 -0.004574 -0.002515 0.000000 0.000000 0.000000
# 2 -0.004574 0.013493 -0.001208 0.000000 0.000000 0.000000
# 3 -0.002515 -0.001208 0.009079 0.000000 0.000000 0.000000
# 4 0.000000 0.000000 0.000000 0.033750 0.000000 0.000000
# 5 0.000000 0.000000 0.000000 0.000000 0.049872 0.000000
# 6 0.000000 0.000000 0.000000 0.000000 0.000000 0.037514
#
#
# Mechanical properties :
#
#
# Convention : Reuss Voigt Hill
#
# Bulk Modulus (GPa) = 68.92245 75.85483 72.38864
# Shear Modulus (GPa) = 28.79080 31.76551 30.27815
#
# Velocity S-wave (km/s) = 3.68406 3.86970 3.77802
# Velocity P-wave (km/s) = 7.11247 7.46491 7.29082
#
# Compressibility (1/GPa) = 0.01450906
#
# Stress axis : x y z
#
# Youngs Moduli (GPa) = 117.23835 74.11389 110.14112
#
# Poissons Ratio (x) = 0.33900 0.27696
# Poissons Ratio (y) = 0.53625 0.13302
# Poissons Ratio (z) = 0.29480 0.08951
#
# Static dielectric constant tensor:
#      x y z
#    x 3.759640 0.000000 0.000000 
#    y 0.000000 3.567510 0.000000 
#    z 0.000000 0.000000 4.408800 
# 
# 
# High freq. dielectric constant tensor:
#      x y z
#    x 1.835290 0.000000 0.000000 
#    y 0.000000 1.811130 0.000000 
#    z 0.000000 0.000000 1.849320 
# 
# From -- ./inp_files/4214.got.cif
#   From: 2010.06.25/outbox.cif.g09.slc.cpg/sg48_3_cif.got.tgz:4214.got - 2010.06.26 18:06:46.
