data_PCOD8201597
_publ_section_title
;
Structure prediction by ZEFSAII (Michael W. Deem and Ramdas Pophale) SiO2 
 PCOD8201597
Probable space group: P N N N
;
_chemical_formula_sum "Si O2"
_cell_formula_units_Z 58
_cell_length_a 16.698411
_cell_length_b 15.968835
_cell_length_c 10.014217
_cell_angle_alpha 90.000000
_cell_angle_beta 90.000000
_cell_angle_gamma 90.000000
_cell_volume 2670.332723
_symmetry_space_group_name_H-M "P N N N"
_symmetry_group_IT_number 48
_space_group.IT_coordinate_system_code '2'
_symmetry_cell_setting 'orthorhombic'
loop_
_space_group_symop_operation_xyz
x,y,z
1/2-x,1/2-y,z
x,1/2-y,1/2-z
1/2-x,y,1/2-z
-x,-y,-z
1/2+x,1/2+y,-z
-x,1/2+y,1/2+z
1/2+x,-y,1/2+z
loop_
_atom_site_type_symbol
_atom_site_label
_atom_site_fract_x
_atom_site_fract_y
_atom_site_fract_z
Si Si1 0.191845 0.471557 0.015030
Si Si2 0.371014 0.815568 0.639116
Si Si3 0.893863 0.500716 0.256450
Si Si4 0.702029 0.116233 0.621646
Si Si5 0.831201 0.633369 0.445331
Si Si6 0.051477 0.312342 0.361896
Si Si7 0.925321 0.507338 0.752442
Si Si8 0.250000 0.250000 0.750000
O O1 0.164230 0.471247 0.862206
O O2 0.254932 0.395341 0.035755
O O3 0.234552 0.557926 0.048908
O O4 0.116407 0.462016 0.111806
O O5 0.334740 0.750000 0.750000
O O6 0.323989 0.817733 0.495659
O O7 0.460920 0.787196 0.601655
O O8 0.376401 0.903831 0.714094
O O9 0.873776 0.549232 0.392207
O O10 0.984939 0.523328 0.214480
O O11 0.750000 0.157171 0.750000
O O12 0.624785 0.064072 0.674285
O O13 0.890102 0.699690 0.514794
O O14 0.808100 0.689408 0.324508
O O15 0.083928 0.250000 0.250000
O O16 0.064249 0.410928 0.336832
#
# Coordination Sequence:
#
# PCOD8201597 Si02
#       8
#     8   8   8   8   8   8   8   2
#     4  11  21  37  59  91 126 162 219 269 320 389
#     4  10  21  40  66  97 127 164 223 278 334 396
#     4  11  21  39  64  88 127 172 220 265 325 399
#     4  10  20  37  64  95 129 166 219 272 332 395
#     4  12  23  40  61  88 135 172 219 265 330 395
#     4  10  22  37  60  94 129 170 213 269 330 396
#     4  10  21  37  61  92 123 172 217 264 328 392
#     4  12  28  40  54  96 126 176 210 270 332 392
#
# _framework density 21.720137999999999
#
# number of rings (size 3 to 8) (size 9 to 14) (size 15 to 20)
#    0.000    1.379    4.138    1.241    1.931    2.207 
#    0.000    1.379    0.000    5.793    0.000    0.000 
#    0.000    0.000    0.000    0.000    0.000    0.276 
#
# Total GULP energy -718751.533939 kJ/mol
# GULP energy per Si atom -12392.267827 kJ/mol
# Density = 2.167070 g / cm^3
# Si number density = 21.720138 Si / 1000 Ang^3
#
#
#
# Elastic Constant Matrix: (Units=GPa)
#
#
# Indices 1 2 3 4 5 6 
#
# 1 106.1503 24.5106 55.0226 0.0000 0.0000 0.0000
# 2 24.5106 74.5663 34.4134 0.0000 0.0000 0.0000
# 3 55.0226 34.4134 134.1754 0.0000 0.0000 0.0000
# 4 0.0000 0.0000 0.0000 53.1959 0.0000 0.0000
# 5 0.0000 0.0000 0.0000 0.0000 36.2462 0.0000
# 6 0.0000 0.0000 0.0000 0.0000 0.0000 17.6285
#
#
#
# Elastic Compliance Matrix: (Units=1/GPa)
#
#
# Indices 1 2 3 4 5 6 
#
# 1 0.012204 -0.001930 -0.004509 0.000000 0.000000 0.000000
# 2 -0.001930 0.015517 -0.003188 0.000000 0.000000 0.000000
# 3 -0.004509 -0.003188 0.010120 0.000000 0.000000 0.000000
# 4 0.000000 0.000000 0.000000 0.018798 0.000000 0.000000
# 5 0.000000 0.000000 0.000000 0.000000 0.027589 0.000000
# 6 0.000000 0.000000 0.000000 0.000000 0.000000 0.056726
#
#
# Mechanical properties :
#
#
# Convention : Reuss Voigt Hill
#
# Bulk Modulus (GPa) = 53.80806 60.30946 57.05876
# Shear Modulus (GPa) = 30.04721 34.81050 32.42885
#
# Velocity S-wave (km/s) = 3.72342 4.00770 3.86817
# Velocity P-wave (km/s) = 6.58120 7.01729 6.80274
#
# Compressibility (1/GPa) = 0.01858458
#
# Stress axis : x y z
#
# Youngs Moduli (GPa) = 81.94193 64.44633 98.81565
#
# Poissons Ratio (x) = 0.12440 0.44560
# Poissons Ratio (y) = 0.15817 0.31504
# Poissons Ratio (z) = 0.36951 0.20547
#
# Static dielectric constant tensor:
#      x y z
#    x 4.243790 0.000000 0.000000 
#    y 0.000000 3.661490 0.000000 
#    z 0.000000 0.000000 3.909730 
# 
# 
# High freq. dielectric constant tensor:
#      x y z
#    x 1.867920 0.000000 0.000000 
#    y 0.000000 1.832260 0.000000 
#    z 0.000000 0.000000 1.858100 
# 
# From -- ./inp_files/14433.got.cif
#   From: 2010.06.25/outbox.cif.g09.slc.cpg/sg48_8_cif.got.tgz:14433.got - 2010.06.26 18:06:46.
