data_PCOD8201085
_publ_section_title
;
Structure prediction by ZEFSAII (Michael W. Deem and Ramdas Pophale) SiO2 
 PCOD8201085
Probable space group: P M M M
;
_chemical_formula_sum "Si O2"
_cell_formula_units_Z 36
_cell_length_a 9.951637
_cell_length_b 8.006852
_cell_length_c 25.045398
_cell_angle_alpha 90.000000
_cell_angle_beta 90.000000
_cell_angle_gamma 90.000000
_cell_volume 1995.649486
_symmetry_space_group_name_H-M "P M M M"
_symmetry_group_IT_number 47
_symmetry_cell_setting 'orthorhombic'
loop_
_space_group_symop_operation_xyz
x,y,z
-x,-y,z
x,-y,-z
-x,y,-z
-x,-y,-z
x,y,-z
-x,y,z
x,-y,z
loop_
_atom_site_type_symbol
_atom_site_label
_atom_site_fract_x
_atom_site_fract_y
_atom_site_fract_z
Si Si1 0.659939 0.684580 0.627009
Si Si2 0.660323 0.000000 0.560416
Si Si3 0.150167 0.301283 0.059535
Si Si4 0.659587 0.811835 0.738636
Si Si5 0.650084 0.696111 0.852104
O O1 0.500000 0.694727 0.626652
O O2 0.707111 0.500000 0.607179
O O3 0.716485 0.832189 0.589095
O O4 0.713925 0.709986 0.687478
O O5 0.500000 0.000000 0.562173
O O6 0.714043 0.000000 0.500000
O O7 0.150864 0.500000 0.062881
O O8 0.254216 0.224319 0.102435
O O9 0.000000 0.235321 0.072304
O O10 0.193364 0.243838 0.000000
O O11 0.500000 0.803137 0.739172
O O12 0.713631 0.735188 0.794034
O O13 0.711598 0.000000 0.733012
O O14 0.500000 0.773897 0.857724
O O15 0.641569 0.500000 0.859860
#
# Coordination Sequence:
#
# PCOD8201085 Si02
#       5
#     8   4   8   8   8
#     4   9  15  23  35  49  68  98 135 174 216 259
#     4   9  16  24  32  46  70 100 138 179 214 252
#     4   8  14  25  40  57  79 108 138 167 206 260
#     4   9  15  24  37  52  73  99 127 163 212 264
#     4   9  16  24  37  60  82  98 128 176 219 254
#
# _framework density 18.039241000000001
#
# number of rings (size 3 to 8) (size 9 to 14) (size 15 to 20)
#    0.000    3.222    1.111    1.333    0.000    3.556 
#    0.000    4.444    0.000    1.333    0.000    4.667 
#    0.000    0.000    0.000    0.000    0.000    2.222 
#
# Total GULP energy -446068.787906 kJ/mol
# GULP energy per Si atom -12390.799664 kJ/mol
# Density = 1.799818 g / cm^3
# Si number density = 18.039241 Si / 1000 Ang^3
#
#
#
# Elastic Constant Matrix: (Units=GPa)
#
#
# Indices 1 2 3 4 5 6 
#
# 1 32.6356 16.8905 43.3808 0.0000 0.0000 0.0000
# 2 16.8905 86.3852 54.3393 0.0000 0.0000 0.0000
# 3 43.3808 54.3393 169.9912 0.0000 0.0000 0.0000
# 4 0.0000 0.0000 0.0000 21.5959 0.0000 0.0000
# 5 0.0000 0.0000 0.0000 0.0000 2.9780 0.0000
# 6 0.0000 0.0000 0.0000 0.0000 0.0000 2.4148
#
#
#
# Elastic Compliance Matrix: (Units=1/GPa)
#
#
# Indices 1 2 3 4 5 6 
#
# 1 0.046658 -0.002044 -0.011253 0.000000 0.000000 0.000000
# 2 -0.002044 0.014579 -0.004139 0.000000 0.000000 0.000000
# 3 -0.011253 -0.004139 0.010077 0.000000 0.000000 0.000000
# 4 0.000000 0.000000 0.000000 0.046305 0.000000 0.000000
# 5 0.000000 0.000000 0.000000 0.000000 0.335796 0.000000
# 6 0.000000 0.000000 0.000000 0.000000 0.000000 0.414119
#
#
# Mechanical properties :
#
#
# Convention : Reuss Voigt Hill
#
# Bulk Modulus (GPa) = 27.44082 57.58145 42.51113
# Shear Modulus (GPa) = 5.46715 17.02449 11.24582
#
# Velocity S-wave (km/s) = 1.74278 3.07538 2.49952
# Velocity P-wave (km/s) = 4.39255 6.67832 5.65219
#
# Compressibility (1/GPa) = 0.03644206
#
# Stress axis : x y z
#
# Youngs Moduli (GPa) = 21.43265 68.59122 99.23146
#
# Poissons Ratio (x) = 0.14020 1.11669
# Poissons Ratio (y) = 0.04381 0.41069
# Poissons Ratio (z) = 0.24119 0.28388
#
# Static dielectric constant tensor:
#      x y z
#    x 2.911520 0.000000 0.000000 
#    y 0.000000 3.255490 0.000000 
#    z 0.000000 0.000000 3.633810 
# 
# 
# High freq. dielectric constant tensor:
#      x y z
#    x 1.614750 0.000000 0.000000 
#    y 0.000000 1.689280 0.000000 
#    z 0.000000 0.000000 1.708840 
# 
# From -- ./inp_files/3878.got.cif
#   From: 2010.03.12/outbox.cif.g09.slc.cpg/sg47_2_cif.got.tgz:3878.got - 2010.04.14 03:12:58.
