data_PCOD8201327
_publ_section_title
;
Structure prediction by ZEFSAII (Michael W. Deem and Ramdas Pophale) SiO2 
 PCOD8201327
Probable space group: P N N N
;
_chemical_formula_sum "Si O2"
_cell_formula_units_Z 56
_cell_length_a 14.940462
_cell_length_b 12.760575
_cell_length_c 13.645139
_cell_angle_alpha 90.000000
_cell_angle_beta 90.000000
_cell_angle_gamma 90.000000
_cell_volume 2601.430548
_symmetry_space_group_name_H-M "P N N N"
_symmetry_group_IT_number 48
_space_group.IT_coordinate_system_code '2'
_symmetry_cell_setting 'orthorhombic'
loop_
_space_group_symop_operation_xyz
x,y,z
1/2-x,1/2-y,z
x,1/2-y,1/2-z
1/2-x,y,1/2-z
-x,-y,-z
1/2+x,1/2+y,-z
-x,1/2+y,1/2+z
1/2+x,-y,1/2+z
loop_
_atom_site_type_symbol
_atom_site_label
_atom_site_fract_x
_atom_site_fract_y
_atom_site_fract_z
Si Si1 0.029563 0.629675 0.258573
Si Si2 0.579829 0.021781 0.367602
Si Si3 0.857200 0.345051 0.189306
Si Si4 0.052549 0.410871 0.943391
Si Si5 0.190314 0.842756 0.121475
Si Si6 0.542085 0.273822 0.029948
Si Si7 0.738570 0.479758 0.458569
O O1 0.003284 0.750000 0.250000
O O2 0.135523 0.613190 0.283561
O O3 0.982010 0.579823 0.354326
O O4 0.992491 0.573150 0.162767
O O5 0.606539 0.064863 0.260718
O O6 0.522339 0.109811 0.427548
O O7 0.664734 0.976157 0.427345
O O8 0.815214 0.250000 0.250000
O O9 0.935761 0.302950 0.120201
O O10 0.778093 0.387776 0.120335
O O11 0.159082 0.434746 0.950053
O O12 0.000000 0.500000 0.000000
O O13 0.039311 0.290378 0.979291
O O14 0.250000 0.750000 0.163553
O O15 0.123490 0.785072 0.045548
O O16 0.250496 0.932088 0.068238
#
# Coordination Sequence:
#
# PCOD8201327 Si02
#       7
#     8   8   8   8   8   8   8
#     4  12  26  44  67  95 140 179 226 285 352 421
#     4  10  23  39  63  96 131 174 228 286 348 412
#     4  10  18  33  61  97 126 164 216 287 342 398
#     4  12  22  43  63  96 136 184 228 284 356 418
#     4  11  22  41  62 100 129 173 225 290 347 411
#     4  10  20  37  64  92 135 172 221 284 350 416
#     4  11  22  36  67  93 136 173 232 282 350 423
#
# _framework density 21.526619
#
# number of rings (size 3 to 8) (size 9 to 14) (size 15 to 20)
#    0.000    1.143    5.714    0.429    0.000    5.429 
#    0.000    1.429    0.000    0.000    0.000    0.000 
#    0.000    0.000    0.000    0.000    0.000    0.000 
#
# Total GULP energy -693791.084067 kJ/mol
# GULP energy per Si atom -12389.126501 kJ/mol
# Density = 2.147762 g / cm^3
# Si number density = 21.526619 Si / 1000 Ang^3
#
#
#
# Elastic Constant Matrix: (Units=GPa)
#
#
# Indices 1 2 3 4 5 6 
#
# 1 109.2630 54.8223 45.4373 0.0000 0.0000 0.0000
# 2 54.8223 96.0803 37.7717 0.0000 0.0000 0.0000
# 3 45.4373 37.7717 96.0364 0.0000 0.0000 0.0000
# 4 0.0000 0.0000 0.0000 21.7058 0.0000 0.0000
# 5 0.0000 0.0000 0.0000 0.0000 11.1359 0.0000
# 6 0.0000 0.0000 0.0000 0.0000 0.0000 35.2291
#
#
#
# Elastic Compliance Matrix: (Units=1/GPa)
#
#
# Indices 1 2 3 4 5 6 
#
# 1 0.014093 -0.006412 -0.004146 0.000000 0.000000 0.000000
# 2 -0.006412 0.015228 -0.002956 0.000000 0.000000 0.000000
# 3 -0.004146 -0.002956 0.013537 0.000000 0.000000 0.000000
# 4 0.000000 0.000000 0.000000 0.046071 0.000000 0.000000
# 5 0.000000 0.000000 0.000000 0.000000 0.089800 0.000000
# 6 0.000000 0.000000 0.000000 0.000000 0.000000 0.028386
#
#
# Mechanical properties :
#
#
# Convention : Reuss Voigt Hill
#
# Bulk Modulus (GPa) = 63.16597 64.16027 63.66312
# Shear Modulus (GPa) = 20.88382 24.50403 22.69392
#
# Velocity S-wave (km/s) = 3.11808 3.37755 3.25041
# Velocity P-wave (km/s) = 6.50924 6.71418 6.61250
#
# Compressibility (1/GPa) = 0.01583131
#
# Stress axis : x y z
#
# Youngs Moduli (GPa) = 70.95502 65.66683 73.87147
#
# Poissons Ratio (x) = 0.42103 0.30629
# Poissons Ratio (y) = 0.45493 0.21836
# Poissons Ratio (z) = 0.29420 0.19411
#
# Static dielectric constant tensor:
#      x y z
#    x 3.821610 0.000000 0.000000 
#    y 0.000000 4.163710 0.000000 
#    z 0.000000 0.000000 4.888630 
# 
# 
# High freq. dielectric constant tensor:
#      x y z
#    x 1.826060 0.000000 0.000000 
#    y 0.000000 1.827780 0.000000 
#    z 0.000000 0.000000 1.869350 
# 
# From -- ./inp_files/27306.got.cif
#   From: 2010.06.25/outbox.cif.g09.slc.cpg/sg48_14_cif.got.tgz:27306.got - 2010.06.26 18:06:46.
