data_PCOD8201139
_publ_section_title
;
Structure prediction by ZEFSAII (Michael W. Deem and Ramdas Pophale) SiO2 
 PCOD8201139
Probable space group: P M M M
;
_chemical_formula_sum "Si O2"
_cell_formula_units_Z 52
_cell_length_a 15.867310
_cell_length_b 20.050998
_cell_length_c 9.500856
_cell_angle_alpha 90.000000
_cell_angle_beta 90.000000
_cell_angle_gamma 90.000000
_cell_volume 3022.748651
_symmetry_space_group_name_H-M "P M M M"
_symmetry_group_IT_number 47
_symmetry_cell_setting 'orthorhombic'
loop_
_space_group_symop_operation_xyz
x,y,z
-x,-y,z
x,-y,-z
-x,y,-z
-x,-y,-z
x,y,-z
-x,y,z
x,-y,z
loop_
_atom_site_type_symbol
_atom_site_label
_atom_site_fract_x
_atom_site_fract_y
_atom_site_fract_z
Si Si1 0.901659 0.293901 0.154016
Si Si2 0.751968 0.922844 0.663963
Si Si3 0.500000 0.579815 0.158782
Si Si4 0.096643 0.828356 0.335215
Si Si5 0.812601 0.574756 0.161974
Si Si6 0.651737 0.421867 0.657017
Si Si7 0.593550 0.920827 0.840279
O O1 0.868238 0.239320 0.263878
O O2 0.882912 0.370324 0.197060
O O3 0.000000 0.286660 0.147117
O O4 0.862055 0.278774 0.000000
O O5 0.733945 0.912358 0.500000
O O6 0.838881 0.886710 0.709850
O O7 0.669963 0.892746 0.744249
O O8 0.765635 0.000000 0.702240
O O9 0.500000 0.500000 0.152331
O O10 0.579602 0.608707 0.243886
O O11 0.500000 0.608606 0.000000
O O12 0.099605 0.815393 0.500000
O O13 0.000000 0.846673 0.289386
O O14 0.847485 0.500000 0.192975
O O15 0.738493 0.593839 0.266961
O O16 0.781281 0.578546 0.000000
O O17 0.650339 0.389926 0.500000
O O18 0.636312 0.500000 0.643136
O O19 0.500000 0.895588 0.790615
O O20 0.594135 0.000000 0.830799
O O21 0.609758 0.897226 0.000000
#
# Coordination Sequence:
#
# PCOD8201139 Si02
#       7
#     8   8   4   8   8   8   8
#     4   9  18  32  49  68  89 116 152 190 227 272
#     4   9  17  28  44  69  97 124 158 197 234 271
#     4   9  15  23  37  57  83 115 147 177 212 257
#     4   9  18  32  48  66  91 124 159 193 232 279
#     4   9  17  29  45  66  91 116 144 182 230 279
#     4   9  16  25  38  59  87 115 143 176 215 261
#     4   8  14  25  41  63  93 126 156 187 227 275
#
# _framework density 17.202884999999998
#
# number of rings (size 3 to 8) (size 9 to 14) (size 15 to 20)
#    0.000    3.154    0.000    1.154    0.000    4.923 
#    0.000    4.615    0.000    0.000    2.000    8.615 
#    0.000    0.000    0.000    0.000    0.000    0.000 
#
# Total GULP energy -644296.677510 kJ/mol
# GULP energy per Si atom -12390.320721 kJ/mol
# Density = 1.716373 g / cm^3
# Si number density = 17.202885 Si / 1000 Ang^3
#
#
#
# Elastic Constant Matrix: (Units=GPa)
#
#
# Indices 1 2 3 4 5 6 
#
# 1 89.3241 46.1548 45.7173 0.0000 0.0000 0.0000
# 2 46.1548 66.4055 32.9185 0.0000 0.0000 0.0000
# 3 45.7173 32.9185 78.0471 0.0000 0.0000 0.0000
# 4 0.0000 0.0000 0.0000 19.5656 0.0000 0.0000
# 5 0.0000 0.0000 0.0000 0.0000 26.4813 0.0000
# 6 0.0000 0.0000 0.0000 0.0000 0.0000 7.5757
#
#
#
# Elastic Compliance Matrix: (Units=1/GPa)
#
#
# Indices 1 2 3 4 5 6 
#
# 1 0.020494 -0.010486 -0.007582 0.000000 0.000000 0.000000
# 2 -0.010486 0.024405 -0.004151 0.000000 0.000000 0.000000
# 3 -0.007582 -0.004151 0.019005 0.000000 0.000000 0.000000
# 4 0.000000 0.000000 0.000000 0.051110 0.000000 0.000000
# 5 0.000000 0.000000 0.000000 0.000000 0.037763 0.000000
# 6 0.000000 0.000000 0.000000 0.000000 0.000000 0.132002
#
#
# Mechanical properties :
#
#
# Convention : Reuss Voigt Hill
#
# Bulk Modulus (GPa) = 51.37202 53.70643 52.53922
# Shear Modulus (GPa) = 14.89408 17.99025 16.44217
#
# Velocity S-wave (km/s) = 2.94562 3.23734 3.09492
# Velocity P-wave (km/s) = 6.44175 6.72764 6.58625
#
# Compressibility (1/GPa) = 0.01946585
#
# Stress axis : x y z
#
# Youngs Moduli (GPa) = 48.79541 40.97559 52.61782
#
# Poissons Ratio (x) = 0.42965 0.39895
# Poissons Ratio (y) = 0.51164 0.21843
# Poissons Ratio (z) = 0.36997 0.17010
#
# Static dielectric constant tensor:
#      x y z
#    x 3.358290 0.000000 0.000000 
#    y 0.000000 2.895430 0.000000 
#    z 0.000000 0.000000 3.494020 
# 
# 
# High freq. dielectric constant tensor:
#      x y z
#    x 1.663210 0.000000 0.000000 
#    y 0.000000 1.615840 0.000000 
#    z 0.000000 0.000000 1.668320 
# 
# From -- ./inp_files/9536.got.cif
#   From: 2010.03.12/outbox.cif.g09.slc.cpg/sg47_5_cif.got.tgz:9536.got - 2010.04.14 03:12:58.
