data_PCOD8201768
_publ_section_title
;
Structure prediction by ZEFSAII (Michael W. Deem and Ramdas Pophale) SiO2 
 PCOD8201768
Probable space group: P N N N
;
_chemical_formula_sum "Si O2"
_cell_formula_units_Z 60
_cell_length_a 19.032711
_cell_length_b 11.113420
_cell_length_c 15.158920
_cell_angle_alpha 90.000000
_cell_angle_beta 90.000000
_cell_angle_gamma 90.000000
_cell_volume 3206.392188
_symmetry_space_group_name_H-M "P N N N"
_symmetry_group_IT_number 48
_space_group.IT_coordinate_system_code '2'
_symmetry_cell_setting 'orthorhombic'
loop_
_space_group_symop_operation_xyz
x,y,z
1/2-x,1/2-y,z
x,1/2-y,1/2-z
1/2-x,y,1/2-z
-x,-y,-z
1/2+x,1/2+y,-z
-x,1/2+y,1/2+z
1/2+x,-y,1/2+z
loop_
_atom_site_type_symbol
_atom_site_label
_atom_site_fract_x
_atom_site_fract_y
_atom_site_fract_z
Si Si1 0.327167 0.755509 0.067577
Si Si2 0.942872 0.698700 0.847605
Si Si3 0.678204 0.681734 0.952541
Si Si4 0.812892 0.029953 0.817583
Si Si5 0.050934 0.842537 0.955004
Si Si6 0.931096 0.604291 0.408142
Si Si7 0.913917 0.437428 0.828334
Si Si8 0.482835 0.250000 0.750000
O O1 0.250000 0.750000 0.023378
O O2 0.320757 0.665754 0.149955
O O3 0.351489 0.884747 0.108656
O O4 0.378884 0.718495 0.990087
O O5 0.938512 0.750000 0.750000
O O6 0.870078 0.733651 0.893523
O O7 0.951718 0.555851 0.865861
O O8 0.012335 0.752651 0.890170
O O9 0.750000 0.750000 0.975370
O O10 0.693604 0.558827 0.900163
O O11 0.638579 0.651765 0.043363
O O12 0.750000 0.010224 0.750000
O O13 0.884350 0.008979 0.763592
O O14 0.072517 0.960338 0.899272
O O15 0.002284 0.869719 0.038747
O O16 0.934507 0.666208 0.312109
O O17 0.970022 0.332023 0.814006
#
# Coordination Sequence:
#
# PCOD8201768 Si02
#       8
#     8   8   8   8   8   8   8   4
#     4  12  23  37  58  92 126 166 204 253 317 387
#     4  11  23  37  58  89 120 162 208 252 314 374
#     4  11  24  39  59  90 127 162 205 250 316 377
#     4  12  21  35  57  89 131 164 197 246 315 390
#     4  10  21  41  61  86 125 165 202 254 319 371
#     4  10  21  40  64  86 121 165 206 257 303 372
#     4  12  22  34  55  90 125 154 209 258 298 378
#     4  12  22  38  64  90 114 160 214 254 308 364
#
# _framework density 18.712620000000001
#
# number of rings (size 3 to 8) (size 9 to 14) (size 15 to 20)
#    0.000    0.800    6.667    1.600    1.867    0.533 
#    0.000    0.333    0.000    0.400    3.467    0.000 
#    0.000    0.000    0.000    0.000    0.000    0.000 
#
# Total GULP energy -743933.769503 kJ/mol
# GULP energy per Si atom -12398.896158 kJ/mol
# Density = 1.867003 g / cm^3
# Si number density = 18.712620 Si / 1000 Ang^3
#
#
#
# Elastic Constant Matrix: (Units=GPa)
#
#
# Indices 1 2 3 4 5 6 
#
# 1 124.4115 46.3736 55.3300 0.0000 0.0000 0.0000
# 2 46.3736 127.2289 46.7168 0.0000 0.0000 0.0000
# 3 55.3300 46.7168 68.5421 0.0000 0.0000 0.0000
# 4 0.0000 0.0000 0.0000 22.0190 0.0000 0.0000
# 5 0.0000 0.0000 0.0000 0.0000 18.0842 0.0000
# 6 0.0000 0.0000 0.0000 0.0000 0.0000 12.8655
#
#
#
# Elastic Compliance Matrix: (Units=1/GPa)
#
#
# Indices 1 2 3 4 5 6 
#
# 1 0.012665 -0.001150 -0.009440 0.000000 0.000000 0.000000
# 2 -0.001150 0.010588 -0.006288 0.000000 0.000000 0.000000
# 3 -0.009440 -0.006288 0.026495 0.000000 0.000000 0.000000
# 4 0.000000 0.000000 0.000000 0.045415 0.000000 0.000000
# 5 0.000000 0.000000 0.000000 0.000000 0.055297 0.000000
# 6 0.000000 0.000000 0.000000 0.000000 0.000000 0.077727
#
#
# Mechanical properties :
#
#
# Convention : Reuss Voigt Hill
#
# Bulk Modulus (GPa) = 62.52932 68.55814 65.54373
# Shear Modulus (GPa) = 18.70743 22.04456 20.37599
#
# Velocity S-wave (km/s) = 3.16527 3.43601 3.30341
# Velocity P-wave (km/s) = 6.84447 7.24282 7.04646
#
# Compressibility (1/GPa) = 0.01599250
#
# Stress axis : x y z
#
# Youngs Moduli (GPa) = 78.96028 94.44689 37.74235
#
# Poissons Ratio (x) = 0.10862 0.35627
# Poissons Ratio (y) = 0.09081 0.23733
# Poissons Ratio (z) = 0.74535 0.59390
#
# Static dielectric constant tensor:
#      x y z
#    x 3.158370 0.000000 0.000000 
#    y 0.000000 3.618130 0.000000 
#    z 0.000000 0.000000 3.230690 
# 
# 
# High freq. dielectric constant tensor:
#      x y z
#    x 1.718040 0.000000 0.000000 
#    y 0.000000 1.742620 0.000000 
#    z 0.000000 0.000000 1.698730 
# 
# From -- ./inp_files/22934.got.cif
#   From: 2010.06.25/outbox.cif.g09.slc.cpg/sg48_12_cif.got.tgz:22934.got - 2010.06.26 18:06:46.
