data_PCOD8201000
_publ_section_title
;
Structure prediction by ZEFSAII (Michael W. Deem and Ramdas Pophale) SiO2 
 PCOD8201000
Probable space group: P M M M
;
_chemical_formula_sum "Si O2"
_cell_formula_units_Z 40
_cell_length_a 26.034577
_cell_length_b 9.246987
_cell_length_c 9.730646
_cell_angle_alpha 90.000000
_cell_angle_beta 90.000000
_cell_angle_gamma 90.000000
_cell_volume 2342.569293
_symmetry_space_group_name_H-M "P M M M"
_symmetry_group_IT_number 47
_symmetry_cell_setting 'orthorhombic'
loop_
_space_group_symop_operation_xyz
x,y,z
-x,-y,z
x,-y,-z
-x,y,-z
-x,-y,-z
x,y,-z
-x,y,z
x,-y,z
loop_
_atom_site_type_symbol
_atom_site_label
_atom_site_fract_x
_atom_site_fract_y
_atom_site_fract_z
Si Si1 0.901483 0.837140 0.836027
Si Si2 0.804988 0.338794 0.163455
Si Si3 0.692224 0.327887 0.846894
Si Si4 0.000000 0.663517 0.163782
Si Si5 0.599927 0.669315 0.659429
Si Si6 0.500000 0.163344 0.663326
O O1 0.849113 0.766104 0.778087
O O2 0.949743 0.745849 0.780259
O O3 0.905491 0.000000 0.779179
O O4 0.901303 0.837136 0.000000
O O5 0.813748 0.500000 0.223873
O O6 0.748673 0.277129 0.205236
O O7 0.807911 0.346873 0.000000
O O8 0.692564 0.500000 0.851347
O O9 0.649011 0.271026 0.742549
O O10 0.680682 0.267225 0.000000
O O11 0.000000 0.500000 0.220775
O O12 0.000000 0.662621 0.000000
O O13 0.609989 0.702581 0.500000
O O14 0.590442 0.500000 0.684709
O O15 0.550396 0.753687 0.716886
O O16 0.500000 0.165452 0.500000
O O17 0.500000 0.000000 0.720620
#
# Coordination Sequence:
#
# PCOD8201000 Si02
#       6
#     8   8   8   4   8   4
#     4   9  15  21  29  43  64  89 119 157 197 231
#     4   8  13  22  35  48  64  91 125 154 182 225
#     4   8  14  25  41  60  81 105 133 164 198 237
#     4   9  15  21  29  41  59  87 124 161 194 231
#     4   9  16  27  45  66  83 101 131 169 201 230
#     4   9  17  29  44  61  82 108 134 159 194 242
#
# _framework density 17.075268999999999
#
# number of rings (size 3 to 8) (size 9 to 14) (size 15 to 20)
#    0.000    3.400    0.000    2.400    0.000    4.800 
#    0.000    1.500    0.000    4.800    0.000    0.000 
#    0.000    0.000    0.000    0.900    0.000   22.200 
#
# Total GULP energy -495769.023846 kJ/mol
# GULP energy per Si atom -12394.225596 kJ/mol
# Density = 1.703641 g / cm^3
# Si number density = 17.075269 Si / 1000 Ang^3
#
#
#
# Elastic Constant Matrix: (Units=GPa)
#
#
# Indices 1 2 3 4 5 6 
#
# 1 196.8162 79.7697 38.7391 0.0000 0.0000 0.0000
# 2 79.7697 101.4424 18.7358 0.0000 0.0000 0.0000
# 3 38.7391 18.7358 25.0113 0.0000 0.0000 0.0000
# 4 0.0000 0.0000 0.0000 6.0171 0.0000 0.0000
# 5 0.0000 0.0000 0.0000 0.0000 3.4507 0.0000
# 6 0.0000 0.0000 0.0000 0.0000 0.0000 12.2663
#
#
#
# Elastic Compliance Matrix: (Units=1/GPa)
#
#
# Indices 1 2 3 4 5 6 
#
# 1 0.009315 -0.005409 -0.010377 0.000000 0.000000 0.000000
# 2 -0.005409 0.014581 -0.002545 0.000000 0.000000 0.000000
# 3 -0.010377 -0.002545 0.057961 0.000000 0.000000 0.000000
# 4 0.000000 0.000000 0.000000 0.166194 0.000000 0.000000
# 5 0.000000 0.000000 0.000000 0.000000 0.289800 0.000000
# 6 0.000000 0.000000 0.000000 0.000000 0.000000 0.081524
#
#
# Mechanical properties :
#
#
# Convention : Reuss Voigt Hill
#
# Bulk Modulus (GPa) = 22.12592 66.41769 44.27180
# Shear Modulus (GPa) = 7.45043 16.74849 12.09946
#
# Velocity S-wave (km/s) = 2.09111 3.13527 2.66483
# Velocity P-wave (km/s) = 4.33778 7.21720 5.95417
#
# Compressibility (1/GPa) = 0.04519586
#
# Stress axis : x y z
#
# Youngs Moduli (GPa) = 107.34807 68.58197 17.25307
#
# Poissons Ratio (x) = 0.37094 0.17903
# Poissons Ratio (y) = 0.58062 0.04391
# Poissons Ratio (z) = 1.11392 0.17456
#
# Static dielectric constant tensor:
#      x y z
#    x 3.611820 0.000000 0.000000 
#    y 0.000000 3.160080 0.000000 
#    z 0.000000 0.000000 2.621700 
# 
# 
# High freq. dielectric constant tensor:
#      x y z
#    x 1.679570 0.000000 0.000000 
#    y 0.000000 1.642530 0.000000 
#    z 0.000000 0.000000 1.580140 
# 
# From -- ./inp_files/15375.got.cif
#   From: 2010.03.12/outbox.cif.g09.slc.cpg/sg47_8_cif.got.tgz:15375.got - 2010.04.14 03:12:58.
