data_PCOD8201851
_publ_section_title
;
Structure prediction by ZEFSAII (Michael W. Deem and Ramdas Pophale) SiO2 
 PCOD8201851
Probable space group: P N N N
;
_chemical_formula_sum "Si O2"
_cell_formula_units_Z 38
_cell_length_a 27.303992
_cell_length_b 11.078265
_cell_length_c 5.904661
_cell_angle_alpha 90.000000
_cell_angle_beta 90.000000
_cell_angle_gamma 90.000000
_cell_volume 1786.046931
_symmetry_space_group_name_H-M "P N N N"
_symmetry_group_IT_number 48
_space_group.IT_coordinate_system_code '2'
_symmetry_cell_setting 'orthorhombic'
loop_
_space_group_symop_operation_xyz
x,y,z
1/2-x,1/2-y,z
x,1/2-y,1/2-z
1/2-x,y,1/2-z
-x,-y,-z
1/2+x,1/2+y,-z
-x,1/2+y,1/2+z
1/2+x,-y,1/2+z
loop_
_atom_site_type_symbol
_atom_site_label
_atom_site_fract_x
_atom_site_fract_y
_atom_site_fract_z
Si Si1 0.750000 0.750000 0.250000
Si Si2 0.409109 0.250000 0.750000
Si Si3 0.858620 0.391852 0.215662
Si Si4 0.123931 0.434371 0.406079
Si Si5 0.444182 0.033634 0.022323
Si Si6 0.207096 0.447644 0.073176
O O1 0.781265 0.836994 0.409497
O O2 0.374559 0.172073 0.587856
O O3 0.442313 0.162087 0.898268
O O4 0.856632 0.250000 0.250000
O O5 0.857982 0.444495 0.469854
O O6 0.908793 0.433825 0.092912
O O7 0.810567 0.436719 0.075412
O O8 0.160933 0.397726 0.209579
O O9 0.070794 0.452787 0.287417
O O10 0.500000 0.000000 0.000000
O O11 0.250000 0.483726 0.250000
#
# Coordination Sequence:
#
# PCOD8201851 Si02
#       6
#     2   4   8   8   8   8
#     4  12  26  42  66  98 124 156 210 266 322 382
#     4  10  22  39  64  93 126 160 205 256 309 374
#     4  10  24  44  64  91 129 172 216 262 319 387
#     4  10  23  42  63  91 125 164 204 257 317 372
#     4  10  23  39  63  96 128 167 211 261 318 378
#     4  11  25  42  64  93 125 162 207 263 320 377
#
# _framework density 21.276036000000001
#
# number of rings (size 3 to 8) (size 9 to 14) (size 15 to 20)
#    0.000    1.684    0.000    2.211    0.000   30.316 
#    0.000    7.895    0.000    0.000    0.000    0.000 
#    0.000    0.000    0.000    0.000    0.000    0.000 
#
# Total GULP energy -471125.590198 kJ/mol
# GULP energy per Si atom -12398.041847 kJ/mol
# Density = 2.122761 g / cm^3
# Si number density = 21.276036 Si / 1000 Ang^3
#
#
#
# Elastic Constant Matrix: (Units=GPa)
#
#
# Indices 1 2 3 4 5 6 
#
# 1 124.8154 59.1382 59.4574 0.0000 0.0000 0.0000
# 2 59.1382 190.7106 78.7089 0.0000 0.0000 0.0000
# 3 59.4574 78.7089 155.4170 0.0000 0.0000 0.0000
# 4 0.0000 0.0000 0.0000 22.8190 0.0000 0.0000
# 5 0.0000 0.0000 0.0000 0.0000 31.0102 0.0000
# 6 0.0000 0.0000 0.0000 0.0000 0.0000 22.2870
#
#
#
# Elastic Compliance Matrix: (Units=1/GPa)
#
#
# Indices 1 2 3 4 5 6 
#
# 1 0.010364 -0.001994 -0.002955 0.000000 0.000000 0.000000
# 2 -0.001994 0.007013 -0.002789 0.000000 0.000000 0.000000
# 3 -0.002955 -0.002789 0.008977 0.000000 0.000000 0.000000
# 4 0.000000 0.000000 0.000000 0.043823 0.000000 0.000000
# 5 0.000000 0.000000 0.000000 0.000000 0.032248 0.000000
# 6 0.000000 0.000000 0.000000 0.000000 0.000000 0.044869
#
#
# Mechanical properties :
#
#
# Convention : Reuss Voigt Hill
#
# Bulk Modulus (GPa) = 91.92594 96.17244 94.04919
# Shear Modulus (GPa) = 30.04870 33.46580 31.75725
#
# Velocity S-wave (km/s) = 3.76217 3.97033 3.86765
# Velocity P-wave (km/s) = 7.88492 8.14361 8.01531
#
# Compressibility (1/GPa) = 0.01087832
#
# Stress axis : x y z
#
# Youngs Moduli (GPa) = 96.48361 142.59481 111.39495
#
# Poissons Ratio (x) = 0.28438 0.32918
# Poissons Ratio (y) = 0.19242 0.31064
# Poissons Ratio (z) = 0.28512 0.39764
#
# Static dielectric constant tensor:
#      x y z
#    x 3.799010 0.000000 0.000000 
#    y 0.000000 3.838640 0.000000 
#    z 0.000000 0.000000 4.890170 
# 
# 
# High freq. dielectric constant tensor:
#      x y z
#    x 1.826100 0.000000 0.000000 
#    y 0.000000 1.825660 0.000000 
#    z 0.000000 0.000000 1.861980 
# 
# From -- ./inp_files/2594.got.cif
#   From: 2010.06.25/outbox.cif.g09.slc.cpg/sg48_2_cif.got.tgz:2594.got - 2010.06.26 18:06:46.
