data_PCOD8201278
_publ_section_title
;
Structure prediction by ZEFSAII (Michael W. Deem and Ramdas Pophale) SiO2 
 PCOD8201278
Probable space group: P N N N
;
_chemical_formula_sum "Si O2"
_cell_formula_units_Z 36
_cell_length_a 5.013629
_cell_length_b 22.706702
_cell_length_c 15.684755
_cell_angle_alpha 90.000000
_cell_angle_beta 90.000000
_cell_angle_gamma 90.000000
_cell_volume 1785.599244
_symmetry_space_group_name_H-M "P N N N"
_symmetry_group_IT_number 48
_space_group.IT_coordinate_system_code '2'
_symmetry_cell_setting 'orthorhombic'
loop_
_space_group_symop_operation_xyz
x,y,z
1/2-x,1/2-y,z
x,1/2-y,1/2-z
1/2-x,y,1/2-z
-x,-y,-z
1/2+x,1/2+y,-z
-x,1/2+y,1/2+z
1/2+x,-y,1/2+z
loop_
_atom_site_type_symbol
_atom_site_label
_atom_site_fract_x
_atom_site_fract_y
_atom_site_fract_z
Si Si1 0.265405 0.129076 0.514916
Si Si2 0.750000 0.103017 0.750000
Si Si3 0.272440 0.682887 0.417216
Si Si4 0.107544 0.474121 0.087548
Si Si5 0.136893 0.034192 0.847426
O O1 0.548827 0.161838 0.515134
O O2 0.198790 0.093972 0.426867
O O3 0.243044 0.084744 0.594009
O O4 0.045289 0.178671 0.530882
O O5 0.767259 0.142700 0.666664
O O6 0.477910 0.062013 0.743155
O O7 0.250000 0.750000 0.387040
O O8 0.366432 0.510735 0.110931
O O9 0.865005 0.482234 0.157278
O O10 0.000000 0.500000 0.000000
#
# Coordination Sequence:
#
# PCOD8201278 Si02
#       5
#     8   4   8   8   8
#     4  10  19  33  49  66  90 121 168 219 254 286
#     4  10  21  34  46  68 102 136 169 202 240 300
#     4  11  22  34  48  67  95 137 177 210 242 282
#     4  10  17  30  48  69  87 115 161 210 257 299
#     4  10  19  29  48  69  92 124 160 201 251 303
#
# _framework density 20.161297999999999
#
# number of rings (size 3 to 8) (size 9 to 14) (size 15 to 20)
#    0.000    1.778    0.000   10.333    0.000    8.000 
#    0.000    4.444    0.000    0.000    0.000    0.000 
#    0.000    0.000    0.000   28.000    0.000   22.222 
#
# Total GULP energy -445994.962398 kJ/mol
# GULP energy per Si atom -12388.748955 kJ/mol
# Density = 2.011541 g / cm^3
# Si number density = 20.161298 Si / 1000 Ang^3
#
#
#
# Elastic Constant Matrix: (Units=GPa)
#
#
# Indices 1 2 3 4 5 6 
#
# 1 154.1537 53.5424 32.9538 0.0000 0.0000 0.0000
# 2 53.5424 96.4537 49.8491 0.0000 0.0000 0.0000
# 3 32.9538 49.8491 45.4176 0.0000 0.0000 0.0000
# 4 0.0000 0.0000 0.0000 22.1182 0.0000 0.0000
# 5 0.0000 0.0000 0.0000 0.0000 25.3647 0.0000
# 6 0.0000 0.0000 0.0000 0.0000 0.0000 31.8483
#
#
#
# Elastic Compliance Matrix: (Units=1/GPa)
#
#
# Indices 1 2 3 4 5 6 
#
# 1 0.008129 -0.003384 -0.002185 0.000000 0.000000 0.000000
# 2 -0.003384 0.025366 -0.025386 0.000000 0.000000 0.000000
# 3 -0.002185 -0.025386 0.051466 0.000000 0.000000 0.000000
# 4 0.000000 0.000000 0.000000 0.045212 0.000000 0.000000
# 5 0.000000 0.000000 0.000000 0.000000 0.039425 0.000000
# 6 0.000000 0.000000 0.000000 0.000000 0.000000 0.031399
#
#
# Mechanical properties :
#
#
# Convention : Reuss Voigt Hill
#
# Bulk Modulus (GPa) = 43.37868 63.19061 53.28464
# Shear Modulus (GPa) = 18.47827 26.51155 22.49491
#
# Velocity S-wave (km/s) = 3.03070 3.63019 3.34390
# Velocity P-wave (km/s) = 5.81458 6.99869 6.43393
#
# Compressibility (1/GPa) = 0.02305280
#
# Stress axis : x y z
#
# Youngs Moduli (GPa) = 123.01227 39.42332 19.43043
#
# Poissons Ratio (x) = 0.13339 0.04245
# Poissons Ratio (y) = 0.41622 0.49325
# Poissons Ratio (z) = 0.26875 1.00079
#
# Static dielectric constant tensor:
#      x y z
#    x 4.495200 0.000000 0.000000 
#    y 0.000000 3.766800 0.000000 
#    z 0.000000 0.000000 3.778190 
# 
# 
# High freq. dielectric constant tensor:
#      x y z
#    x 1.833360 0.000000 0.000000 
#    y 0.000000 1.757800 0.000000 
#    z 0.000000 0.000000 1.745420 
# 
# From -- ./inp_files/24221.got.cif
#   From: 2010.06.25/outbox.cif.g09.slc.cpg/sg48_13_cif.got.tgz:24221.got - 2010.06.26 18:06:46.
