data_PCOD8201735
_publ_section_title
;
Structure prediction by ZEFSAII (Michael W. Deem and Ramdas Pophale) SiO2 
 PCOD8201735
Probable space group: P N N N
;
_chemical_formula_sum "Si O2"
_cell_formula_units_Z 64
_cell_length_a 31.822765
_cell_length_b 11.452959
_cell_length_c 8.705928
_cell_angle_alpha 90.000000
_cell_angle_beta 90.000000
_cell_angle_gamma 90.000000
_cell_volume 3173.004506
_symmetry_space_group_name_H-M "P N N N"
_symmetry_group_IT_number 48
_space_group.IT_coordinate_system_code '2'
_symmetry_cell_setting 'orthorhombic'
loop_
_space_group_symop_operation_xyz
x,y,z
1/2-x,1/2-y,z
x,1/2-y,1/2-z
1/2-x,y,1/2-z
-x,-y,-z
1/2+x,1/2+y,-z
-x,1/2+y,1/2+z
1/2+x,-y,1/2+z
loop_
_atom_site_type_symbol
_atom_site_label
_atom_site_fract_x
_atom_site_fract_y
_atom_site_fract_z
Si Si1 0.830941 0.989119 0.952190
Si Si2 0.752877 0.379805 0.429393
Si Si3 0.824234 0.491427 0.901014
Si Si4 0.574975 0.473208 0.949156
Si Si5 0.359253 0.235531 0.071876
Si Si6 0.468712 0.751233 0.930382
Si Si7 0.907243 0.366998 0.851573
Si Si8 0.055205 0.226434 0.929423
O O1 0.834372 0.850244 0.986796
O O2 0.815417 0.010048 0.779398
O O3 0.875982 0.047359 0.991953
O O4 0.796905 0.054039 0.053268
O O5 0.750000 0.250000 0.503040
O O6 0.750000 0.368949 0.250000
O O7 0.715761 0.452120 0.504759
O O8 0.830912 0.623479 0.958296
O O9 0.864120 0.407844 0.932241
O O10 0.574621 0.469051 0.761407
O O11 0.544220 0.375536 0.011277
O O12 0.557994 0.591434 0.022050
O O13 0.371683 0.250000 0.250000
O O14 0.401883 0.211346 0.978198
O O15 0.462788 0.750000 0.750000
O O16 0.439368 0.848457 0.009000
O O17 0.516235 0.781008 0.978214
O O18 0.900304 0.250000 0.750000
O O19 0.047278 0.250000 0.750000
#
# Coordination Sequence:
#
# PCOD8201735 Si02
#       8
#     8   8   8   8   8   8   8   8
#     4   9  20  40  64  87 114 156 198 240 294 359
#     4  11  26  40  56  88 123 155 193 247 294 347
#     4  10  21  38  64  88 117 154 194 242 295 358
#     4   9  20  40  61  81 116 156 198 247 297 356
#     4   9  20  40  63  90 118 150 197 249 297 349
#     4  11  23  36  56  87 120 154 197 252 304 353
#     4   9  20  38  60  87 115 158 199 243 303 365
#     4  11  22  38  60  85 117 160 205 243 292 359
#
# _framework density 20.170158000000001
#
# number of rings (size 3 to 8) (size 9 to 14) (size 15 to 20)
#    0.000    2.125    0.000    3.000    5.250    5.000 
#    0.000    4.375    0.000    0.000    0.000    0.000 
#    0.000    0.000    0.000    0.000    0.000    0.000 
#
# Total GULP energy -793417.031672 kJ/mol
# GULP energy per Si atom -12397.141120 kJ/mol
# Density = 2.012425 g / cm^3
# Si number density = 20.170158 Si / 1000 Ang^3
#
#
#
# Elastic Constant Matrix: (Units=GPa)
#
#
# Indices 1 2 3 4 5 6 
#
# 1 119.4679 42.6527 46.3513 0.0000 0.0000 0.0000
# 2 42.6527 83.6496 25.1411 0.0000 0.0000 0.0000
# 3 46.3513 25.1411 83.1340 0.0000 0.0000 0.0000
# 4 0.0000 0.0000 0.0000 24.8510 0.0000 0.0000
# 5 0.0000 0.0000 0.0000 0.0000 34.2552 0.0000
# 6 0.0000 0.0000 0.0000 0.0000 0.0000 18.5556
#
#
#
# Elastic Compliance Matrix: (Units=1/GPa)
#
#
# Indices 1 2 3 4 5 6 
#
# 1 0.012071 -0.004545 -0.005356 0.000000 0.000000 0.000000
# 2 -0.004545 0.014861 -0.001960 0.000000 0.000000 0.000000
# 3 -0.005356 -0.001960 0.015608 0.000000 0.000000 0.000000
# 4 0.000000 0.000000 0.000000 0.040240 0.000000 0.000000
# 5 0.000000 0.000000 0.000000 0.000000 0.029193 0.000000
# 6 0.000000 0.000000 0.000000 0.000000 0.000000 0.053892
#
#
# Mechanical properties :
#
#
# Convention : Reuss Voigt Hill
#
# Bulk Modulus (GPa) = 53.14087 57.17132 55.15610
# Shear Modulus (GPa) = 25.52849 27.00612 26.26731
#
# Velocity S-wave (km/s) = 3.56147 3.66309 3.61263
# Velocity P-wave (km/s) = 6.58145 6.80419 6.69375
#
# Compressibility (1/GPa) = 0.01881791
#
# Stress axis : x y z
#
# Youngs Moduli (GPa) = 82.84224 67.28838 64.07152
#
# Poissons Ratio (x) = 0.30585 0.34314
# Poissons Ratio (y) = 0.37655 0.12558
# Poissons Ratio (z) = 0.44367 0.13189
#
# Static dielectric constant tensor:
#      x y z
#    x 3.700250 0.000000 0.000000 
#    y 0.000000 3.993120 0.000000 
#    z 0.000000 0.000000 3.626030 
# 
# 
# High freq. dielectric constant tensor:
#      x y z
#    x 1.792200 0.000000 0.000000 
#    y 0.000000 1.792070 0.000000 
#    z 0.000000 0.000000 1.777340 
# 
# From -- ./inp_files/16959.got.cif
#   From: 2010.06.25/outbox.cif.g09.slc.cpg/sg48_9_cif.got.tgz:16959.got - 2010.06.26 18:06:46.
