data_PCOD8201161
_publ_section_title
;
Structure prediction by ZEFSAII (Michael W. Deem and Ramdas Pophale) SiO2 
 PCOD8201161
Probable space group: P M M M
;
_chemical_formula_sum "Si O2"
_cell_formula_units_Z 56
_cell_length_a 9.478066
_cell_length_b 18.482407
_cell_length_c 21.355859
_cell_angle_alpha 90.000000
_cell_angle_beta 90.000000
_cell_angle_gamma 90.000000
_cell_volume 3741.065422
_symmetry_space_group_name_H-M "P M M M"
_symmetry_group_IT_number 47
_symmetry_cell_setting 'orthorhombic'
loop_
_space_group_symop_operation_xyz
x,y,z
-x,-y,z
x,-y,-z
-x,y,-z
-x,-y,-z
x,y,-z
-x,y,z
x,-y,z
loop_
_atom_site_type_symbol
_atom_site_label
_atom_site_fract_x
_atom_site_fract_y
_atom_site_fract_z
Si Si1 0.162297 0.419330 0.174465
Si Si2 0.158963 0.160855 0.328226
Si Si3 0.337036 0.799452 0.854748
Si Si4 0.159726 0.717021 0.243742
Si Si5 0.336822 0.663744 0.929038
Si Si6 0.835940 0.917777 0.198110
Si Si7 0.665426 0.918299 0.571414
O O1 0.217233 0.500000 0.190336
O O2 0.180065 0.369890 0.237624
O O3 0.246309 0.386915 0.116059
O O4 0.000000 0.421214 0.153702
O O5 0.176901 0.247372 0.312953
O O6 0.197756 0.115543 0.266108
O O7 0.259817 0.139821 0.384703
O O8 0.000000 0.143113 0.349309
O O9 0.500000 0.818568 0.843837
O O10 0.280644 0.751465 0.797993
O O11 0.314190 0.749837 0.916278
O O12 0.249227 0.874374 0.855975
O O13 0.000000 0.737753 0.220068
O O14 0.500000 0.643797 0.918045
O O15 0.289951 0.648189 0.000000
O O16 0.000000 0.912189 0.181956
O O17 0.782793 0.000000 0.197670
O O18 0.706301 0.900685 0.500000
O O19 0.500000 0.910578 0.581609
O O20 0.713796 0.000000 0.588304
#
# Coordination Sequence:
#
# PCOD8201161 Si02
#       7
#     8   8   8   8   8   8   8
#     4   9  17  29  45  64  85 108 133 161 194 235
#     4   9  16  26  41  59  78 103 135 165 193 231
#     4   9  16  26  41  59  76  97 131 169 199 234
#     4   8  15  28  42  57  81 108 130 158 200 242
#     4   9  18  31  44  58  79 108 137 163 196 238
#     4   9  17  28  41  58  81 105 127 159 207 252
#     4   9  18  30  40  53  79 113 142 168 200 232
#
# _framework density 14.968997999999999
#
# number of rings (size 3 to 8) (size 9 to 14) (size 15 to 20)
#    0.000    3.143    0.000    2.143    0.000    5.143 
#    0.000    2.143    0.000    0.429    0.000    3.000 
#    0.000    0.571    0.000    7.143    0.000    1.143 
#
# Total GULP energy -693772.603532 kJ/mol
# GULP energy per Si atom -12388.796492 kJ/mol
# Density = 1.493493 g / cm^3
# Si number density = 14.968998 Si / 1000 Ang^3
#
#
#
# Elastic Constant Matrix: (Units=GPa)
#
#
# Indices 1 2 3 4 5 6 
#
# 1 51.3616 43.4050 31.9067 0.0000 0.0000 0.0000
# 2 43.4050 127.8128 53.4979 0.0000 0.0000 0.0000
# 3 31.9067 53.4979 61.7688 0.0000 0.0000 0.0000
# 4 0.0000 0.0000 0.0000 19.8573 0.0000 0.0000
# 5 0.0000 0.0000 0.0000 0.0000 21.7310 0.0000
# 6 0.0000 0.0000 0.0000 0.0000 0.0000 20.7838
#
#
#
# Elastic Compliance Matrix: (Units=1/GPa)
#
#
# Indices 1 2 3 4 5 6 
#
# 1 0.031419 -0.006081 -0.010963 0.000000 0.000000 0.000000
# 2 -0.006081 0.013450 -0.008508 0.000000 0.000000 0.000000
# 3 -0.010963 -0.008508 0.029221 0.000000 0.000000 0.000000
# 4 0.000000 0.000000 0.000000 0.050359 0.000000 0.000000
# 5 0.000000 0.000000 0.000000 0.000000 0.046017 0.000000
# 6 0.000000 0.000000 0.000000 0.000000 0.000000 0.048114
#
#
# Mechanical properties :
#
#
# Convention : Reuss Voigt Hill
#
# Bulk Modulus (GPa) = 43.50360 55.39581 49.44970
# Shear Modulus (GPa) = 18.02796 19.95000 18.98898
#
# Velocity S-wave (km/s) = 3.47414 3.65465 3.56554
# Velocity P-wave (km/s) = 6.72447 7.40918 7.07511
#
# Compressibility (1/GPa) = 0.02298661
#
# Stress axis : x y z
#
# Youngs Moduli (GPa) = 31.82770 74.34797 34.22219
#
# Poissons Ratio (x) = 0.45214 0.37516
# Poissons Ratio (y) = 0.19356 0.29116
# Poissons Ratio (z) = 0.34891 0.63255
#
# Static dielectric constant tensor:
#      x y z
#    x 2.907910 0.000000 0.000000 
#    y 0.000000 3.161330 0.000000 
#    z 0.000000 0.000000 2.672710 
# 
# 
# High freq. dielectric constant tensor:
#      x y z
#    x 1.579240 0.000000 0.000000 
#    y 0.000000 1.569110 0.000000 
#    z 0.000000 0.000000 1.532330 
# 
# From -- ./inp_files/9855.got.cif
#   From: 2010.03.12/outbox.cif.g09.slc.cpg/sg47_5_cif.got.tgz:9855.got - 2010.04.14 03:12:58.
