data_PCOD8201069
_publ_section_title
;
Structure prediction by ZEFSAII (Michael W. Deem and Ramdas Pophale) SiO2 
 PCOD8201069
Probable space group: P M M M
;
_chemical_formula_sum "Si O2"
_cell_formula_units_Z 64
_cell_length_a 9.428945
_cell_length_b 9.632661
_cell_length_c 41.134980
_cell_angle_alpha 90.000000
_cell_angle_beta 90.000000
_cell_angle_gamma 90.000000
_cell_volume 3736.118732
_symmetry_space_group_name_H-M "P M M M"
_symmetry_group_IT_number 47
_symmetry_cell_setting 'orthorhombic'
loop_
_space_group_symop_operation_xyz
x,y,z
-x,-y,z
x,-y,-z
-x,y,-z
-x,-y,-z
x,y,-z
-x,y,z
x,-y,z
loop_
_atom_site_type_symbol
_atom_site_label
_atom_site_fract_x
_atom_site_fract_y
_atom_site_fract_z
Si Si1 0.657863 0.665181 0.840942
Si Si2 0.839629 0.334289 0.781166
Si Si3 0.835525 0.661346 0.657806
Si Si4 0.162619 0.160770 0.962958
Si Si5 0.660623 0.664963 0.720212
Si Si6 0.332680 0.343101 0.086847
Si Si7 0.165353 0.159882 0.596241
Si Si8 0.340480 0.835075 0.464325
O O1 0.500000 0.723018 0.833156
O O2 0.651629 0.500000 0.839871
O O3 0.768373 0.722490 0.814330
O O4 0.707249 0.711565 0.876967
O O5 0.841011 0.500000 0.780782
O O6 0.747625 0.276597 0.751030
O O7 0.000000 0.276679 0.778844
O O8 0.808713 0.500000 0.650132
O O9 0.740889 0.714083 0.687777
O O10 0.785705 0.749895 0.626914
O O11 0.000000 0.688320 0.666417
O O12 0.261731 0.247294 0.939642
O O13 0.000000 0.191208 0.954119
O O14 0.198269 0.000000 0.958045
O O15 0.193655 0.205046 0.000000
O O16 0.500000 0.724023 0.720598
O O17 0.657554 0.500000 0.721782
O O18 0.500000 0.336870 0.082034
O O19 0.277432 0.500000 0.082068
O O20 0.240973 0.222617 0.564273
O O21 0.000000 0.175792 0.589856
O O22 0.207801 0.000000 0.602753
O O23 0.289297 0.781713 0.500000
O O24 0.500000 0.783041 0.457759
O O25 0.334758 0.000000 0.464162
#
# Coordination Sequence:
#
# PCOD8201069 Si02
#       8
#     8   8   8   8   8   8   8   8
#     4   8  14  25  39  57  86 119 145 174 216 262
#     4   9  15  22  35  57  84 113 145 179 214 253
#     4   9  17  29  43  59  83 113 141 171 209 251
#     4   9  19  35  51  67  90 121 157 195 232 271
#     4   9  16  25  38  57  81 110 144 179 213 249
#     4   9  18  31  47  70  98 124 151 186 229 276
#     4   9  17  28  43  64  86 107 135 171 208 246
#     4   8  14  25  41  61  84 108 134 167 207 247
#
# _framework density 17.130077
#
# number of rings (size 3 to 8) (size 9 to 14) (size 15 to 20)
#    0.000    3.250    0.000    2.250    0.000    5.250 
#    0.000    4.375    0.000    0.375    0.000    3.500 
#    0.000    5.000    0.000    0.000    0.000    0.000 
#
# Total GULP energy -793318.719705 kJ/mol
# GULP energy per Si atom -12395.604995 kJ/mol
# Density = 1.709109 g / cm^3
# Si number density = 17.130077 Si / 1000 Ang^3
#
#
#
# Elastic Constant Matrix: (Units=GPa)
#
#
# Indices 1 2 3 4 5 6 
#
# 1 94.2678 23.9421 82.0338 0.0000 0.0000 0.0000
# 2 23.9421 26.4490 39.5836 0.0000 0.0000 0.0000
# 3 82.0338 39.5836 161.7588 0.0000 0.0000 0.0000
# 4 0.0000 0.0000 0.0000 -15.9884 0.0000 0.0000
# 5 0.0000 0.0000 0.0000 0.0000 40.0662 0.0000
# 6 0.0000 0.0000 0.0000 0.0000 0.0000 15.7561
#
#
#
# Elastic Compliance Matrix: (Units=1/GPa)
#
#
# Indices 1 2 3 4 5 6 
#
# 1 0.019315 -0.004457 -0.008705 0.000000 0.000000 0.000000
# 2 -0.004457 0.060685 -0.012590 0.000000 0.000000 0.000000
# 3 -0.008705 -0.012590 0.013677 0.000000 0.000000 0.000000
# 4 0.000000 0.000000 0.000000 -0.062545 0.000000 0.000000
# 5 0.000000 0.000000 0.000000 0.000000 0.024959 0.000000
# 6 0.000000 0.000000 0.000000 0.000000 0.000000 0.063467
#
#
# Mechanical properties :
#
#
# Convention : Reuss Voigt Hill
#
# Bulk Modulus (GPa) = 23.71098 63.73273 43.72186
# Shear Modulus (GPa) = 27.00961 17.09452 22.05206
#
# Velocity S-wave (km/s) = 3.97512 3.16242 3.59183
# Velocity P-wave (km/s) = 5.91105 7.11481 6.54068
#
# Compressibility (1/GPa) = 0.04217456
#
# Stress axis : x y z
#
# Youngs Moduli (GPa) = 51.77298 16.47855 73.11346
#
# Poissons Ratio (x) = 0.07344 0.63644
# Poissons Ratio (y) = 0.23074 0.92049
# Poissons Ratio (z) = 0.45067 0.20746
#
# Static dielectric constant tensor:
#      x y z
#    x 3.291760 0.000000 0.000000 
#    y 0.000000 2.685200 0.000000 
#    z 0.000000 0.000000 3.493290 
# 
# 
# High freq. dielectric constant tensor:
#      x y z
#    x 1.663520 0.000000 0.000000 
#    y 0.000000 1.597280 0.000000 
#    z 0.000000 0.000000 1.676470 
# 
# From -- ./inp_files/34369.got.cif
#   From: 2010.03.12/outbox.cif.g09.slc.cpg/sg47_18_cif.got.tgz:34369.got - 2010.04.14 03:12:58.
