data_PCOD8201396
_publ_section_title
;
Structure prediction by ZEFSAII (Michael W. Deem and Ramdas Pophale) SiO2 
 PCOD8201396
Probable space group: P N N N
;
_chemical_formula_sum "Si O2"
_cell_formula_units_Z 40
_cell_length_a 22.576109
_cell_length_b 4.882731
_cell_length_c 19.151169
_cell_angle_alpha 90.000000
_cell_angle_beta 90.000000
_cell_angle_gamma 90.000000
_cell_volume 2111.092101
_symmetry_space_group_name_H-M "P N N N"
_symmetry_group_IT_number 48
_space_group.IT_coordinate_system_code '2'
_symmetry_cell_setting 'orthorhombic'
loop_
_space_group_symop_operation_xyz
x,y,z
1/2-x,1/2-y,z
x,1/2-y,1/2-z
1/2-x,y,1/2-z
-x,-y,-z
1/2+x,1/2+y,-z
-x,1/2+y,1/2+z
1/2+x,-y,1/2+z
loop_
_atom_site_type_symbol
_atom_site_label
_atom_site_fract_x
_atom_site_fract_y
_atom_site_fract_z
Si Si1 0.933966 0.759241 0.551066
Si Si2 0.913133 0.003540 0.205143
Si Si3 0.997421 0.747312 0.091447
Si Si4 0.183271 0.737535 0.894293
Si Si5 0.316561 0.233668 0.511565
O O1 0.950969 0.452747 0.569629
O O2 0.862565 0.792704 0.551611
O O3 0.951664 0.815158 0.470551
O O4 0.967128 0.963486 0.605075
O O5 0.943057 0.250000 0.250000
O O6 0.861403 0.165606 0.165229
O O7 0.886292 0.750000 0.250000
O O8 0.963175 0.863038 0.157831
O O9 0.250000 0.750000 0.864158
O O10 0.171828 0.429452 0.921217
O O11 0.173756 0.925820 0.962006
O O12 0.250000 0.250000 0.481411
#
# Coordination Sequence:
#
# PCOD8201396 Si02
#       5
#     8   8   8   8   8
#     4  10  19  33  56  77 103 131 172 223 262 334
#     4  12  24  37  54  72 106 145 188 231 259 307
#     4  10  21  33  53  78 100 135 179 217 271 309
#     4  10  21  36  51  72 103 143 187 222 251 297
#     4  10  19  33  55  79 108 136 169 217 271 314
#
# _framework density 18.947538000000002
#
# number of rings (size 3 to 8) (size 9 to 14) (size 15 to 20)
#    0.000    1.600    2.000    3.600    5.600    0.400 
#    0.000    1.000    0.000    0.000    0.000    0.000 
#    0.000   12.000    0.000    0.000    0.000    0.000 
#
# Total GULP energy -495786.823357 kJ/mol
# GULP energy per Si atom -12394.670584 kJ/mol
# Density = 1.890441 g / cm^3
# Si number density = 18.947538 Si / 1000 Ang^3
#
#
#
# Elastic Constant Matrix: (Units=GPa)
#
#
# Indices 1 2 3 4 5 6 
#
# 1 132.7143 36.5090 42.6509 0.0000 0.0000 0.0000
# 2 36.5090 87.8590 11.9571 0.0000 0.0000 0.0000
# 3 42.6509 11.9571 41.0322 0.0000 0.0000 0.0000
# 4 0.0000 0.0000 0.0000 21.4182 0.0000 0.0000
# 5 0.0000 0.0000 0.0000 0.0000 9.1369 0.0000
# 6 0.0000 0.0000 0.0000 0.0000 0.0000 23.6220
#
#
#
# Elastic Compliance Matrix: (Units=1/GPa)
#
#
# Indices 1 2 3 4 5 6 
#
# 1 0.012269 -0.003501 -0.011732 0.000000 0.000000 0.000000
# 2 -0.003501 0.012851 -0.000105 0.000000 0.000000 0.000000
# 3 -0.011732 -0.000105 0.036597 0.000000 0.000000 0.000000
# 4 0.000000 0.000000 0.000000 0.046689 0.000000 0.000000
# 5 0.000000 0.000000 0.000000 0.000000 0.109447 0.000000
# 6 0.000000 0.000000 0.000000 0.000000 0.000000 0.042333
#
#
# Mechanical properties :
#
#
# Convention : Reuss Voigt Hill
#
# Bulk Modulus (GPa) = 32.21798 49.31550 40.76674
# Shear Modulus (GPa) = 16.59968 22.20131 19.40050
#
# Velocity S-wave (km/s) = 2.96309 3.42676 3.20332
# Velocity P-wave (km/s) = 5.36164 6.46071 5.93667
#
# Compressibility (1/GPa) = 0.03103857
#
# Stress axis : x y z
#
# Youngs Moduli (GPa) = 81.50857 77.81376 27.32471
#
# Poissons Ratio (x) = 0.27246 0.32058
# Poissons Ratio (y) = 0.28540 0.00288
# Poissons Ratio (z) = 0.95628 0.00820
#
# Static dielectric constant tensor:
#      x y z
#    x 3.524520 0.000000 0.000000 
#    y 0.000000 3.898390 0.000000 
#    z 0.000000 0.000000 3.050990 
# 
# 
# High freq. dielectric constant tensor:
#      x y z
#    x 1.733760 0.000000 0.000000 
#    y 0.000000 1.768940 0.000000 
#    z 0.000000 0.000000 1.671300 
# 
# From -- ./inp_files/34751.got.cif
#   From: 2010.06.25/outbox.cif.g09.slc.cpg/sg48_18_cif.got.tgz:34751.got - 2010.06.26 18:06:46.
