data_PCOD8201111
_publ_section_title
;
Structure prediction by ZEFSAII (Michael W. Deem and Ramdas Pophale) SiO2 
 PCOD8201111
Probable space group: P M M M
;
_chemical_formula_sum "Si O2"
_cell_formula_units_Z 44
_cell_length_a 30.323673
_cell_length_b 9.738797
_cell_length_c 7.972285
_cell_angle_alpha 90.000000
_cell_angle_beta 90.000000
_cell_angle_gamma 90.000000
_cell_volume 2354.344080
_symmetry_space_group_name_H-M "P M M M"
_symmetry_group_IT_number 47
_symmetry_cell_setting 'orthorhombic'
loop_
_space_group_symop_operation_xyz
x,y,z
-x,-y,z
x,-y,-z
-x,y,-z
-x,-y,-z
x,y,-z
-x,y,z
x,-y,z
loop_
_atom_site_type_symbol
_atom_site_label
_atom_site_fract_x
_atom_site_fract_y
_atom_site_fract_z
Si Si1 0.786605 0.348055 0.804918
Si Si2 0.139491 0.152221 0.806350
Si Si3 0.549036 0.162255 0.000000
Si Si4 0.390110 0.161015 0.306458
Si Si5 0.692231 0.654615 0.696541
Si Si6 0.952666 0.162077 0.307444
O O1 0.789964 0.500000 0.722185
O O2 0.823239 0.248457 0.720867
O O3 0.737434 0.289203 0.777506
O O4 0.796793 0.359481 0.000000
O O5 0.090723 0.220193 0.785673
O O6 0.141270 0.000000 0.722151
O O7 0.150527 0.137260 0.000000
O O8 0.572802 0.208938 0.173085
O O9 0.500000 0.227217 0.000000
O O10 0.545921 0.000000 0.000000
O O11 0.404369 0.195289 0.500000
O O12 0.346665 0.243112 0.251591
O O13 0.379911 0.000000 0.288631
O O14 0.698942 0.654490 0.500000
O O15 0.681438 0.500000 0.761277
O O16 0.948332 0.203708 0.500000
O O17 0.000000 0.220066 0.237542
O O18 0.953496 0.000000 0.282841
#
# Coordination Sequence:
#
# PCOD8201111 Si02
#       6
#     8   8   4   8   8   8
#     4   9  18  31  45  62  87 120 152 181 221 275
#     4   9  17  28  42  63  88 111 141 182 224 264
#     4   9  18  32  51  77 105 133 167 203 242 289
#     4   9  18  32  50  74 102 130 163 204 245 284
#     4   9  18  32  49  69  93 123 159 196 235 281
#     4   8  14  25  41  61  84 109 138 174 218 267
#
# _framework density 18.688856999999999
#
# number of rings (size 3 to 8) (size 9 to 14) (size 15 to 20)
#    0.000    3.182    0.000    0.545    1.273    2.182 
#    0.000    3.636    0.000    1.636    0.000    6.364 
#    0.000    0.000    0.000    0.000    0.000    0.000 
#
# Total GULP energy -545128.582793 kJ/mol
# GULP energy per Si atom -12389.285973 kJ/mol
# Density = 1.864632 g / cm^3
# Si number density = 18.688857 Si / 1000 Ang^3
#
#
#
# Elastic Constant Matrix: (Units=GPa)
#
#
# Indices 1 2 3 4 5 6 
#
# 1 187.2660 68.6148 48.6128 0.0000 0.0000 0.0000
# 2 68.6148 54.0933 20.6736 0.0000 0.0000 0.0000
# 3 48.6128 20.6736 47.9888 0.0000 0.0000 0.0000
# 4 0.0000 0.0000 0.0000 11.2862 0.0000 0.0000
# 5 0.0000 0.0000 0.0000 0.0000 22.2890 0.0000
# 6 0.0000 0.0000 0.0000 0.0000 0.0000 8.1002
#
#
#
# Elastic Compliance Matrix: (Units=1/GPa)
#
#
# Indices 1 2 3 4 5 6 
#
# 1 0.011399 -0.012026 -0.006366 0.000000 0.000000 0.000000
# 2 -0.012026 0.034818 -0.002817 0.000000 0.000000 0.000000
# 3 -0.006366 -0.002817 0.028501 0.000000 0.000000 0.000000
# 4 0.000000 0.000000 0.000000 0.088603 0.000000 0.000000
# 5 0.000000 0.000000 0.000000 0.000000 0.044865 0.000000
# 6 0.000000 0.000000 0.000000 0.000000 0.000000 0.123453
#
#
# Mechanical properties :
#
#
# Convention : Reuss Voigt Hill
#
# Bulk Modulus (GPa) = 30.96108 62.79450 46.87779
# Shear Modulus (GPa) = 12.99292 18.43156 15.71224
#
# Velocity S-wave (km/s) = 2.63957 3.14384 2.90268
# Velocity P-wave (km/s) = 5.08845 6.84480 6.03090
#
# Compressibility (1/GPa) = 0.03229861
#
# Stress axis : x y z
#
# Youngs Moduli (GPa) = 87.72679 28.72116 35.08645
#
# Poissons Ratio (x) = 0.34540 0.22338
# Poissons Ratio (y) = 1.05500 0.09884
# Poissons Ratio (z) = 0.55851 0.08091
#
# Static dielectric constant tensor:
#      x y z
#    x 3.673440 0.000000 0.000000 
#    y 0.000000 3.425880 0.000000 
#    z 0.000000 0.000000 3.297810 
# 
# 
# High freq. dielectric constant tensor:
#      x y z
#    x 1.733850 0.000000 0.000000 
#    y 0.000000 1.682940 0.000000 
#    z 0.000000 0.000000 1.713280 
# 
# From -- ./inp_files/2177.got.cif
#   From: 2010.03.12/outbox.cif.g09.slc.cpg/sg47_2_cif.got.tgz:2177.got - 2010.04.14 03:12:58.
