data_PCOD8201867
_publ_section_title
;
Structure prediction by ZEFSAII (Michael W. Deem and Ramdas Pophale) SiO2 
 PCOD8201867
Probable space group: P N N N
;
_chemical_formula_sum "Si O2"
_cell_formula_units_Z 48
_cell_length_a 15.572293
_cell_length_b 4.977775
_cell_length_c 29.401424
_cell_angle_alpha 90.000000
_cell_angle_beta 90.000000
_cell_angle_gamma 90.000000
_cell_volume 2279.062283
_symmetry_space_group_name_H-M "P N N N"
_symmetry_group_IT_number 48
_space_group.IT_coordinate_system_code '2'
_symmetry_cell_setting 'orthorhombic'
loop_
_space_group_symop_operation_xyz
x,y,z
1/2-x,1/2-y,z
x,1/2-y,1/2-z
1/2-x,y,1/2-z
-x,-y,-z
1/2+x,1/2+y,-z
-x,1/2+y,1/2+z
1/2+x,-y,1/2+z
loop_
_atom_site_type_symbol
_atom_site_label
_atom_site_fract_x
_atom_site_fract_y
_atom_site_fract_z
Si Si1 0.565472 0.820734 0.801376
Si Si2 0.568798 0.215943 0.042272
Si Si3 0.503313 0.677952 0.148744
Si Si4 0.149546 0.223837 0.911460
Si Si5 0.579295 0.369373 0.559384
Si Si6 0.250000 0.750000 0.101889
Si Si7 0.250000 0.250000 0.338077
O O1 0.542134 0.750000 0.750000
O O2 0.512062 0.621120 0.833379
O O3 0.668245 0.822219 0.807366
O O4 0.534813 0.118713 0.814161
O O5 0.620563 0.436865 0.069456
O O6 0.620302 0.939787 0.051192
O O7 0.469968 0.159173 0.058795
O O8 0.566495 0.281885 0.988603
O O9 0.603462 0.747885 0.138232
O O10 0.459256 0.687738 0.099267
O O11 0.250000 0.250000 0.902925
O O12 0.679757 0.394249 0.569915
O O13 0.283156 0.505996 0.133092
#
# Coordination Sequence:
#
# PCOD8201867 Si02
#       7
#     8   8   8   8   8   4   4
#     4  12  24  42  65  92 123 160 206 251 311 380
#     4  10  24  39  63  89 128 169 218 261 311 364
#     4  11  23  42  64  88 123 164 202 255 317 376
#     4  11  24  42  65  94 123 163 213 263 319 376
#     4  10  22  41  59  92 126 174 212 263 305 372
#     4  12  24  34  65  88 134 164 216 250 311 372
#     4  12  23  42  58  96 122 168 206 256 306 368
#
# _framework density 21.061292999999999
#
# number of rings (size 3 to 8) (size 9 to 14) (size 15 to 20)
#    0.000    1.000    3.333    3.250    2.333    8.667 
#    0.000    2.500    0.000    3.000    0.000    0.000 
#    0.000    0.000    0.000    0.000    0.000    0.000 
#
# Total GULP energy -594992.460669 kJ/mol
# GULP energy per Si atom -12395.676264 kJ/mol
# Density = 2.101336 g / cm^3
# Si number density = 21.061293 Si / 1000 Ang^3
#
#
#
# Elastic Constant Matrix: (Units=GPa)
#
#
# Indices 1 2 3 4 5 6 
#
# 1 152.8709 19.9112 34.9945 0.0000 0.0000 0.0000
# 2 19.9112 81.5014 8.6786 0.0000 0.0000 0.0000
# 3 34.9945 8.6786 96.3404 0.0000 0.0000 0.0000
# 4 0.0000 0.0000 0.0000 11.1092 0.0000 0.0000
# 5 0.0000 0.0000 0.0000 0.0000 11.8158 0.0000
# 6 0.0000 0.0000 0.0000 0.0000 0.0000 24.3030
#
#
#
# Elastic Compliance Matrix: (Units=1/GPa)
#
#
# Indices 1 2 3 4 5 6 
#
# 1 0.007316 -0.001519 -0.002521 0.000000 0.000000 0.000000
# 2 -0.001519 0.012704 -0.000593 0.000000 0.000000 0.000000
# 3 -0.002521 -0.000593 0.011349 0.000000 0.000000 0.000000
# 4 0.000000 0.000000 0.000000 0.090016 0.000000 0.000000
# 5 0.000000 0.000000 0.000000 0.000000 0.084632 0.000000
# 6 0.000000 0.000000 0.000000 0.000000 0.000000 0.041147
#
#
# Mechanical properties :
#
#
# Convention : Reuss Voigt Hill
#
# Bulk Modulus (GPa) = 45.23990 50.87571 48.05781
# Shear Modulus (GPa) = 18.95396 27.25416 23.10406
#
# Velocity S-wave (km/s) = 3.00316 3.60118 3.31568
# Velocity P-wave (km/s) = 5.79241 6.44203 6.12584
#
# Compressibility (1/GPa) = 0.02210438
#
# Stress axis : x y z
#
# Youngs Moduli (GPa) = 136.68011 78.71574 88.11444
#
# Poissons Ratio (x) = 0.11957 0.22211
# Poissons Ratio (y) = 0.20762 0.05222
# Poissons Ratio (z) = 0.34454 0.04665
#
# Static dielectric constant tensor:
#      x y z
#    x 4.150510 0.000000 0.000000 
#    y 0.000000 3.786330 0.000000 
#    z 0.000000 0.000000 3.769870 
# 
# 
# High freq. dielectric constant tensor:
#      x y z
#    x 1.820610 0.000000 0.000000 
#    y 0.000000 1.836210 0.000000 
#    z 0.000000 0.000000 1.810890 
# 
# From -- ./inp_files/37908.got.cif
#   From: 2010.06.25/outbox.cif.g09.slc.cpg/sg48_19_cif.got.tgz:37908.got - 2010.06.26 18:06:46.
