data_PCOD8201136
_publ_section_title
;
Structure prediction by ZEFSAII (Michael W. Deem and Ramdas Pophale) SiO2 
 PCOD8201136
Probable space group: P M M M
;
_chemical_formula_sum "Si O2"
_cell_formula_units_Z 52
_cell_length_a 9.706859
_cell_length_b 9.406545
_cell_length_c 33.224591
_cell_angle_alpha 90.000000
_cell_angle_beta 90.000000
_cell_angle_gamma 90.000000
_cell_volume 3033.671154
_symmetry_space_group_name_H-M "P M M M"
_symmetry_group_IT_number 47
_symmetry_cell_setting 'orthorhombic'
loop_
_space_group_symop_operation_xyz
x,y,z
-x,-y,z
x,-y,-z
-x,y,-z
-x,-y,-z
x,y,-z
-x,y,z
x,-y,z
loop_
_atom_site_type_symbol
_atom_site_label
_atom_site_fract_x
_atom_site_fract_y
_atom_site_fract_z
Si Si1 0.658240 0.165059 0.347773
Si Si2 0.840953 0.665160 0.805240
Si Si3 0.163602 0.339398 0.500000
Si Si4 0.840839 0.165851 0.116334
Si Si5 0.345328 0.831084 0.955549
Si Si6 0.341452 0.665263 0.269377
Si Si7 0.839860 0.834948 0.576828
O O1 0.500000 0.199696 0.358632
O O2 0.707173 0.250758 0.308742
O O3 0.752992 0.214247 0.384663
O O4 0.679509 0.000000 0.338235
O O5 0.815194 0.500000 0.814239
O O6 0.791298 0.752322 0.843999
O O7 0.750703 0.718186 0.767737
O O8 0.000000 0.696603 0.795176
O O9 0.222131 0.500000 0.500000
O O10 0.216140 0.256874 0.539450
O O11 0.000000 0.339457 0.500000
O O12 0.757142 0.228864 0.078371
O O13 0.000000 0.195682 0.107244
O O14 0.811036 0.000000 0.123189
O O15 0.500000 0.779212 0.945682
O O16 0.339149 0.000000 0.955524
O O17 0.300982 0.775544 0.000000
O O18 0.500000 0.698518 0.258965
O O19 0.317131 0.500000 0.278067
O O20 0.000000 0.804911 0.585767
O O21 0.814828 0.000000 0.566581
#
# Coordination Sequence:
#
# PCOD8201136 Si02
#       7
#     8   8   4   8   8   8   8
#     4   9  18  32  48  67  92 119 146 179 220 263
#     4   9  18  32  47  63  87 118 147 176 215 262
#     4   9  17  29  46  69  94 118 148 187 224 256
#     4   9  17  28  43  65  89 111 140 179 218 254
#     4   8  14  25  41  62  88 115 142 175 216 259
#     4   9  18  32  48  65  86 114 147 180 215 257
#     4   9  17  30  48  68  90 118 150 181 216 260
#
# _framework density 17.140948000000002
#
# number of rings (size 3 to 8) (size 9 to 14) (size 15 to 20)
#    0.000    3.154    0.000    0.692    0.000    3.692 
#    0.000    1.923    0.000    2.769    0.000    3.231 
#    0.000    0.000    0.000    0.000    0.000    0.000 
#
# Total GULP energy -644778.698795 kJ/mol
# GULP energy per Si atom -12399.590361 kJ/mol
# Density = 1.710193 g / cm^3
# Si number density = 17.140948 Si / 1000 Ang^3
#
#
#
# Elastic Constant Matrix: (Units=GPa)
#
#
# Indices 1 2 3 4 5 6 
#
# 1 71.6652 34.9994 88.0443 0.0000 0.0000 0.0000
# 2 34.9994 51.2495 67.4820 0.0000 0.0000 0.0000
# 3 88.0443 67.4820 193.3061 0.0000 0.0000 0.0000
# 4 0.0000 0.0000 0.0000 9.5183 0.0000 0.0000
# 5 0.0000 0.0000 0.0000 0.0000 30.3640 0.0000
# 6 0.0000 0.0000 0.0000 0.0000 0.0000 16.0389
#
#
#
# Elastic Compliance Matrix: (Units=1/GPa)
#
#
# Indices 1 2 3 4 5 6 
#
# 1 0.032355 -0.004982 -0.012997 0.000000 0.000000 0.000000
# 2 -0.004982 0.036879 -0.010605 0.000000 0.000000 0.000000
# 3 -0.012997 -0.010605 0.014795 0.000000 0.000000 0.000000
# 4 0.000000 0.000000 0.000000 0.105061 0.000000 0.000000
# 5 0.000000 0.000000 0.000000 0.000000 0.032934 0.000000
# 6 0.000000 0.000000 0.000000 0.000000 0.000000 0.062348
#
#
# Mechanical properties :
#
#
# Convention : Reuss Voigt Hill
#
# Bulk Modulus (GPa) = 37.22982 77.47468 57.35225
# Shear Modulus (GPa) = 14.26562 19.56390 16.91476
#
# Velocity S-wave (km/s) = 2.88801 3.38206 3.14475
# Velocity P-wave (km/s) = 5.73479 7.78125 6.83504
#
# Compressibility (1/GPa) = 0.02686019
#
# Stress axis : x y z
#
# Youngs Moduli (GPa) = 30.90757 27.11602 67.58946
#
# Poissons Ratio (x) = 0.13508 0.87849
# Poissons Ratio (y) = 0.15397 0.71680
# Poissons Ratio (z) = 0.40172 0.28757
#
# Static dielectric constant tensor:
#      x y z
#    x 3.169850 0.000000 0.000000 
#    y 0.000000 3.039370 0.000000 
#    z 0.000000 0.000000 3.391530 
# 
# 
# High freq. dielectric constant tensor:
#      x y z
#    x 1.651090 0.000000 0.000000 
#    y 0.000000 1.640660 0.000000 
#    z 0.000000 0.000000 1.669210 
# 
# From -- ./inp_files/33224.got.cif
#   From: 2010.03.12/outbox.cif.g09.slc.cpg/sg47_17_cif.got.tgz:33224.got - 2010.04.14 03:12:58.
