data_PCOD8201713
_publ_section_title
;
Structure prediction by ZEFSAII (Michael W. Deem and Ramdas Pophale) SiO2 
 PCOD8201713
Probable space group: P N N N
;
_chemical_formula_sum "Si O2"
_cell_formula_units_Z 44
_cell_length_a 13.083681
_cell_length_b 12.444508
_cell_length_c 12.172952
_cell_angle_alpha 90.000000
_cell_angle_beta 90.000000
_cell_angle_gamma 90.000000
_cell_volume 1981.999714
_symmetry_space_group_name_H-M "P N N N"
_symmetry_group_IT_number 48
_space_group.IT_coordinate_system_code '2'
_symmetry_cell_setting 'orthorhombic'
loop_
_space_group_symop_operation_xyz
x,y,z
1/2-x,1/2-y,z
x,1/2-y,1/2-z
1/2-x,y,1/2-z
-x,-y,-z
1/2+x,1/2+y,-z
-x,1/2+y,1/2+z
1/2+x,-y,1/2+z
loop_
_atom_site_type_symbol
_atom_site_label
_atom_site_fract_x
_atom_site_fract_y
_atom_site_fract_z
Si Si1 0.158572 0.168937 0.627122
Si Si2 0.697564 0.527144 0.576996
Si Si3 0.619311 0.032869 0.281118
Si Si4 0.897317 0.021058 0.799373
Si Si5 0.209690 0.633860 0.908700
Si Si6 0.024190 0.750000 0.250000
O O1 0.250000 0.250000 0.656181
O O2 0.174711 0.128395 0.502045
O O3 0.049329 0.229079 0.643303
O O4 0.153909 0.073117 0.715815
O O5 0.632224 0.539169 0.686630
O O6 0.817563 0.512280 0.606701
O O7 0.658726 0.417942 0.516550
O O8 0.631615 0.133077 0.194835
O O9 0.695312 0.053299 0.382050
O O10 0.507344 0.025405 0.332508
O O11 0.902325 0.149674 0.779920
O O12 0.250000 0.750000 0.937395
#
# Coordination Sequence:
#
# PCOD8201713 Si02
#       6
#     8   8   8   8   8   4
#     4  10  22  39  64  92 120 164 209 266 310 370
#     4  10  24  41  62  86 133 164 207 254 322 369
#     4   9  20  38  60  86 121 156 207 255 312 361
#     4  10  23  43  59  89 127 170 202 261 307 381
#     4  10  21  37  61  92 121 161 199 261 312 377
#     4  10  23  35  70  92 124 160 220 260 318 364
#
# _framework density 22.199801000000001
#
# number of rings (size 3 to 8) (size 9 to 14) (size 15 to 20)
#    0.000    2.182    0.000    1.364   20.364    8.000 
#    0.000    3.636    0.000    0.000    0.000    0.000 
#    0.000    0.000    0.000    0.000    0.000    0.000 
#
# Total GULP energy -545237.278246 kJ/mol
# GULP energy per Si atom -12391.756324 kJ/mol
# Density = 2.214927 g / cm^3
# Si number density = 22.199801 Si / 1000 Ang^3
#
#
#
# Elastic Constant Matrix: (Units=GPa)
#
#
# Indices 1 2 3 4 5 6 
#
# 1 91.1580 15.5068 10.9709 0.0000 0.0000 0.0000
# 2 15.5068 73.8648 26.7230 0.0000 0.0000 0.0000
# 3 10.9709 26.7230 90.8446 0.0000 0.0000 0.0000
# 4 0.0000 0.0000 0.0000 21.9409 0.0000 0.0000
# 5 0.0000 0.0000 0.0000 0.0000 17.2218 0.0000
# 6 0.0000 0.0000 0.0000 0.0000 0.0000 22.2144
#
#
#
# Elastic Compliance Matrix: (Units=1/GPa)
#
#
# Indices 1 2 3 4 5 6 
#
# 1 0.011422 -0.002125 -0.000754 0.000000 0.000000 0.000000
# 2 -0.002125 0.015546 -0.004316 0.000000 0.000000 0.000000
# 3 -0.000754 -0.004316 0.012369 0.000000 0.000000 0.000000
# 4 0.000000 0.000000 0.000000 0.045577 0.000000 0.000000
# 5 0.000000 0.000000 0.000000 0.000000 0.058066 0.000000
# 6 0.000000 0.000000 0.000000 0.000000 0.000000 0.045016
#
#
# Mechanical properties :
#
#
# Convention : Reuss Voigt Hill
#
# Bulk Modulus (GPa) = 40.08766 40.25211 40.16988
# Shear Modulus (GPa) = 23.73017 25.78653 24.75835
#
# Velocity S-wave (km/s) = 3.27301 3.41187 3.34316
# Velocity P-wave (km/s) = 5.69037 5.80450 5.74772
#
# Compressibility (1/GPa) = 0.02494533
#
# Stress axis : x y z
#
# Youngs Moduli (GPa) = 87.54859 64.32538 80.84977
#
# Poissons Ratio (x) = 0.13669 0.06099
# Poissons Ratio (y) = 0.18604 0.34898
# Poissons Ratio (z) = 0.06604 0.27765
#
# Static dielectric constant tensor:
#      x y z
#    x 4.079700 0.000000 0.000000 
#    y 0.000000 4.132550 0.000000 
#    z 0.000000 0.000000 3.877590 
# 
# 
# High freq. dielectric constant tensor:
#      x y z
#    x 1.866710 0.000000 0.000000 
#    y 0.000000 1.863860 0.000000 
#    z 0.000000 0.000000 1.868160 
# 
# From -- ./inp_files/21151.got.cif
#   From: 2010.06.25/outbox.cif.g09.slc.cpg/sg48_11_cif.got.tgz:21151.got - 2010.06.26 18:06:46.
