data_PCOD8201073
_publ_section_title
;
Structure prediction by ZEFSAII (Michael W. Deem and Ramdas Pophale) SiO2 
 PCOD8201073
Probable space group: P M M M
;
_chemical_formula_sum "Si O2"
_cell_formula_units_Z 36
_cell_length_a 15.308059
_cell_length_b 17.653171
_cell_length_c 9.323587
_cell_angle_alpha 90.000000
_cell_angle_beta 90.000000
_cell_angle_gamma 90.000000
_cell_volume 2519.566835
_symmetry_space_group_name_H-M "P M M M"
_symmetry_group_IT_number 47
_symmetry_cell_setting 'orthorhombic'
loop_
_space_group_symop_operation_xyz
x,y,z
-x,-y,z
x,-y,-z
-x,y,-z
-x,-y,-z
x,y,-z
-x,y,z
x,-y,z
loop_
_atom_site_type_symbol
_atom_site_label
_atom_site_fract_x
_atom_site_fract_y
_atom_site_fract_z
Si Si1 0.896153 0.644284 0.662369
Si Si2 0.404362 0.089999 0.338375
Si Si3 0.100484 0.790956 0.166442
Si Si4 0.760089 0.085899 0.832604
Si Si5 0.895765 0.500000 0.163061
O O1 0.859322 0.641382 0.500000
O O2 0.864936 0.721065 0.739195
O O3 0.859556 0.573438 0.753064
O O4 0.000000 0.640836 0.660441
O O5 0.388054 0.118134 0.500000
O O6 0.500000 0.119128 0.285091
O O7 0.326259 0.121699 0.240402
O O8 0.403784 0.000000 0.331386
O O9 0.155923 0.864631 0.209592
O O10 0.000000 0.810213 0.200838
O O11 0.112481 0.769209 0.000000
O O12 0.778547 0.000000 0.780257
O O13 0.741860 0.088036 0.000000
O O14 0.000000 0.500000 0.161216
O O15 0.859946 0.500000 0.000000
#
# Coordination Sequence:
#
# PCOD8201073 Si02
#       5
#     8   8   8   8   4
#     4   9  16  25  37  53  72  94 123 158 192 225
#     4   8  14  25  40  56  73  93 117 148 191 241
#     4   9  17  28  39  51  72 103 135 164 194 227
#     4   9  17  27  39  56  75  97 129 166 199 229
#     4   9  15  23  37  55  73  93 118 149 188 233
#
# _framework density 14.288169
#
# number of rings (size 3 to 8) (size 9 to 14) (size 15 to 20)
#    0.000    3.222    0.000    1.667    0.000    5.778 
#    0.000    4.444    0.000    0.000    0.000    6.222 
#    0.000    0.000    0.000    1.000    0.000   18.778 
#
# Total GULP energy -446215.353312 kJ/mol
# GULP energy per Si atom -12394.870925 kJ/mol
# Density = 1.425565 g / cm^3
# Si number density = 14.288169 Si / 1000 Ang^3
#
#
#
# Elastic Constant Matrix: (Units=GPa)
#
#
# Indices 1 2 3 4 5 6 
#
# 1 68.7168 43.2777 38.2147 0.0000 0.0000 0.0000
# 2 43.2777 85.4570 51.3705 0.0000 0.0000 0.0000
# 3 38.2147 51.3705 80.6483 0.0000 0.0000 0.0000
# 4 0.0000 0.0000 0.0000 18.9135 0.0000 0.0000
# 5 0.0000 0.0000 0.0000 0.0000 18.1889 0.0000
# 6 0.0000 0.0000 0.0000 0.0000 0.0000 1.1999
#
#
#
# Elastic Compliance Matrix: (Units=1/GPa)
#
#
# Indices 1 2 3 4 5 6 
#
# 1 0.022826 -0.008196 -0.005595 0.000000 0.000000 0.000000
# 2 -0.008196 0.021906 -0.010069 0.000000 0.000000 0.000000
# 3 -0.005595 -0.010069 0.021465 0.000000 0.000000 0.000000
# 4 0.000000 0.000000 0.000000 0.052872 0.000000 0.000000
# 5 0.000000 0.000000 0.000000 0.000000 0.054978 0.000000
# 6 0.000000 0.000000 0.000000 0.000000 0.000000 0.833369
#
#
# Mechanical properties :
#
#
# Convention : Reuss Voigt Hill
#
# Bulk Modulus (GPa) = 54.12864 55.61642 54.87253
# Shear Modulus (GPa) = 4.71122 14.45777 9.58449
#
# Velocity S-wave (km/s) = 1.81781 3.18444 2.59279
# Velocity P-wave (km/s) = 6.50936 7.24777 6.88847
#
# Compressibility (1/GPa) = 0.01847451
#
# Stress axis : x y z
#
# Youngs Moduli (GPa) = 43.80950 45.65034 46.58815
#
# Poissons Ratio (x) = 0.37417 0.26067
# Poissons Ratio (y) = 0.35908 0.46912
# Poissons Ratio (z) = 0.24512 0.45967
#
# Static dielectric constant tensor:
#      x y z
#    x 2.705360 0.000000 0.000000 
#    y 0.000000 2.715360 0.000000 
#    z 0.000000 0.000000 2.947090 
# 
# 
# High freq. dielectric constant tensor:
#      x y z
#    x 1.503990 0.000000 0.000000 
#    y 0.000000 1.522970 0.000000 
#    z 0.000000 0.000000 1.554370 
# 
# From -- ./inp_files/5934.got.cif
#   From: 2010.03.12/outbox.cif.g09.slc.cpg/sg47_3_cif.got.tgz:5934.got - 2010.04.14 03:12:58.
