data_PCOD8201077
_publ_section_title
;
Structure prediction by ZEFSAII (Michael W. Deem and Ramdas Pophale) SiO2 
 PCOD8201077
Probable space group: P M M M
;
_chemical_formula_sum "Si O2"
_cell_formula_units_Z 52
_cell_length_a 22.492572
_cell_length_b 9.921902
_cell_length_c 14.807906
_cell_angle_alpha 90.000000
_cell_angle_beta 90.000000
_cell_angle_gamma 90.000000
_cell_volume 3304.666983
_symmetry_space_group_name_H-M "P M M M"
_symmetry_group_IT_number 47
_symmetry_cell_setting 'orthorhombic'
loop_
_space_group_symop_operation_xyz
x,y,z
-x,-y,z
x,-y,-z
-x,y,-z
-x,-y,-z
x,y,-z
-x,y,z
x,-y,z
loop_
_atom_site_type_symbol
_atom_site_label
_atom_site_fract_x
_atom_site_fract_y
_atom_site_fract_z
Si Si1 0.404043 0.349055 0.899847
Si Si2 0.167599 0.845580 0.396154
Si Si3 0.733615 0.154385 0.745330
Si Si4 0.262982 0.349366 0.099884
Si Si5 0.596595 0.842719 0.258118
Si Si6 0.500000 0.158813 0.399782
Si Si7 0.934122 0.348759 0.392750
O O1 0.425190 0.500000 0.873094
O O2 0.333505 0.343458 0.901868
O O3 0.428086 0.241432 0.827451
O O4 0.428438 0.312420 0.000000
O O5 0.180295 0.808867 0.500000
O O6 0.228553 0.815605 0.343973
O O7 0.114610 0.755093 0.354431
O O8 0.147568 0.000000 0.385145
O O9 0.760664 0.243723 0.826435
O O10 0.665473 0.190535 0.721995
O O11 0.739138 0.000000 0.776456
O O12 0.241605 0.500000 0.125982
O O13 0.238622 0.311001 0.000000
O O14 0.559166 0.796820 0.345648
O O15 0.586606 0.000000 0.236206
O O16 0.500000 0.225629 0.500000
O O17 0.500000 0.000000 0.410914
O O18 0.935019 0.339837 0.500000
O O19 0.917214 0.500000 0.361718
O O20 0.000000 0.310794 0.355986
#
# Coordination Sequence:
#
# PCOD8201077 Si02
#       7
#     8   8   8   8   8   4   8
#     4   8  14  26  44  64  85 107 128 154 197 253
#     4   9  17  27  38  56  84 114 141 169 202 241
#     4   9  17  27  40  61  86 109 135 170 210 247
#     4   8  14  25  41  60  81 106 135 165 200 245
#     4   9  17  29  45  63  81 104 137 175 211 246
#     4   9  18  32  48  63  78 102 141 183 216 247
#     4   8  14  25  40  57  78 106 140 174 204 235
#
# _framework density 15.735322
#
# number of rings (size 3 to 8) (size 9 to 14) (size 15 to 20)
#    0.000    3.462    0.000    1.385    0.000    2.154 
#    0.000    8.462    0.000    3.231    0.000    4.308 
#    0.000    0.615    0.000    6.769    0.000    5.538 
#
# Total GULP energy -644443.148892 kJ/mol
# GULP energy per Si atom -12393.137479 kJ/mol
# Density = 1.569951 g / cm^3
# Si number density = 15.735322 Si / 1000 Ang^3
#
#
#
# Elastic Constant Matrix: (Units=GPa)
#
#
# Indices 1 2 3 4 5 6 
#
# 1 72.4222 44.6453 42.8823 0.0000 0.0000 0.0000
# 2 44.6453 78.3732 59.9097 0.0000 0.0000 0.0000
# 3 42.8823 59.9097 103.8889 0.0000 0.0000 0.0000
# 4 0.0000 0.0000 0.0000 20.6718 0.0000 0.0000
# 5 0.0000 0.0000 0.0000 0.0000 1.1549 0.0000
# 6 0.0000 0.0000 0.0000 0.0000 0.0000 12.9311
#
#
#
# Elastic Compliance Matrix: (Units=1/GPa)
#
#
# Indices 1 2 3 4 5 6 
#
# 1 0.021896 -0.009951 -0.003300 0.000000 0.000000 0.000000
# 2 -0.009951 0.027340 -0.011659 0.000000 0.000000 0.000000
# 3 -0.003300 -0.011659 0.017711 0.000000 0.000000 0.000000
# 4 0.000000 0.000000 0.000000 0.048375 0.000000 0.000000
# 5 0.000000 0.000000 0.000000 0.000000 0.865910 0.000000
# 6 0.000000 0.000000 0.000000 0.000000 0.000000 0.077333
#
#
# Mechanical properties :
#
#
# Convention : Reuss Voigt Hill
#
# Bulk Modulus (GPa) = 58.38228 61.06211 59.72219
# Shear Modulus (GPa) = 4.48795 14.10135 9.29465
#
# Velocity S-wave (km/s) = 1.69066 2.99684 2.43304
# Velocity P-wave (km/s) = 6.40268 7.13195 6.77713
#
# Compressibility (1/GPa) = 0.01712848
#
# Stress axis : x y z
#
# Youngs Moduli (GPa) = 45.67067 36.57625 56.46192
#
# Poissons Ratio (x) = 0.36396 0.18631
# Poissons Ratio (y) = 0.45445 0.65829
# Poissons Ratio (z) = 0.15070 0.42644
#
# Static dielectric constant tensor:
#      x y z
#    x 2.894190 0.000000 0.000000 
#    y 0.000000 3.126380 0.000000 
#    z 0.000000 0.000000 3.090980 
# 
# 
# High freq. dielectric constant tensor:
#      x y z
#    x 1.579170 0.000000 0.000000 
#    y 0.000000 1.601090 0.000000 
#    z 0.000000 0.000000 1.583000 
# 
# From -- ./inp_files/25409.got.cif
#   From: 2010.03.12/outbox.cif.g09.slc.cpg/sg47_13_cif.got.tgz:25409.got - 2010.04.14 03:12:58.
