data_PCOD8201150
_publ_section_title
;
Structure prediction by ZEFSAII (Michael W. Deem and Ramdas Pophale) SiO2 
 PCOD8201150
Probable space group: P M M M
;
_chemical_formula_sum "Si O2"
_cell_formula_units_Z 56
_cell_length_a 13.885455
_cell_length_b 9.713995
_cell_length_c 23.852734
_cell_angle_alpha 90.000000
_cell_angle_beta 90.000000
_cell_angle_gamma 90.000000
_cell_volume 3217.334055
_symmetry_space_group_name_H-M "P M M M"
_symmetry_group_IT_number 47
_symmetry_cell_setting 'orthorhombic'
loop_
_space_group_symop_operation_xyz
x,y,z
-x,-y,z
x,-y,-z
-x,y,-z
-x,-y,-z
x,y,-z
-x,y,z
x,-y,z
loop_
_atom_site_type_symbol
_atom_site_label
_atom_site_fract_x
_atom_site_fract_y
_atom_site_fract_z
Si Si1 0.894242 0.662624 0.667639
Si Si2 0.776637 0.338808 0.563661
Si Si3 0.294283 0.159275 0.935940
Si Si4 0.390847 0.340805 0.844673
Si Si5 0.205223 0.660941 0.221445
Si Si6 0.394446 0.152319 0.566448
Si Si7 0.108614 0.842865 0.130990
O O1 0.902175 0.500000 0.669090
O O2 0.861122 0.708475 0.605491
O O3 0.817597 0.709617 0.715032
O O4 0.000000 0.727465 0.678806
O O5 0.804091 0.294952 0.500000
O O6 0.755929 0.500000 0.567139
O O7 0.681171 0.265087 0.586913
O O8 0.366235 0.249964 0.898818
O O9 0.182841 0.186029 0.919567
O O10 0.321866 0.000000 0.927046
O O11 0.307805 0.204432 0.000000
O O12 0.500000 0.308288 0.824709
O O13 0.380268 0.500000 0.862145
O O14 0.316642 0.305106 0.794053
O O15 0.183430 0.500000 0.213217
O O16 0.131950 0.742776 0.182189
O O17 0.399198 0.153542 0.500000
O O18 0.500000 0.190014 0.590765
O O19 0.363584 0.000000 0.587320
O O20 0.000000 0.813845 0.109537
O O21 0.119089 0.000000 0.152087
#
# Coordination Sequence:
#
# PCOD8201150 Si02
#       7
#     8   8   8   8   8   8   8
#     4   9  17  29  46  68  92 118 149 185 226 272
#     4   9  17  28  43  66  94 121 151 187 224 264
#     4   9  18  31  46  67  95 125 156 186 217 261
#     4   9  18  32  49  68  90 117 149 187 230 270
#     4   9  17  31  50  68  87 114 151 191 228 271
#     4   8  14  26  44  63  84 114 148 178 213 259
#     4   9  17  29  46  68  93 120 150 187 230 269
#
# _framework density 17.405715000000001
#
# number of rings (size 3 to 8) (size 9 to 14) (size 15 to 20)
#    0.000    3.143    0.000    0.857    0.000    2.571 
#    0.000    7.143    0.000    3.857    0.000    6.000 
#    0.000    0.000    0.000    0.000    0.000    0.000 
#
# Total GULP energy -694032.498434 kJ/mol
# GULP energy per Si atom -12393.437472 kJ/mol
# Density = 1.736610 g / cm^3
# Si number density = 17.405715 Si / 1000 Ang^3
#
#
#
# Elastic Constant Matrix: (Units=GPa)
#
#
# Indices 1 2 3 4 5 6 
#
# 1 132.3157 36.6565 61.6301 0.0000 0.0000 0.0000
# 2 36.6565 39.9728 32.7202 0.0000 0.0000 0.0000
# 3 61.6301 32.7202 106.9614 0.0000 0.0000 0.0000
# 4 0.0000 0.0000 0.0000 13.9634 0.0000 0.0000
# 5 0.0000 0.0000 0.0000 0.0000 18.2468 0.0000
# 6 0.0000 0.0000 0.0000 0.0000 0.0000 19.6507
#
#
#
# Elastic Compliance Matrix: (Units=1/GPa)
#
#
# Indices 1 2 3 4 5 6 
#
# 1 0.011597 -0.006891 -0.004574 0.000000 0.000000 0.000000
# 2 -0.006891 0.037468 -0.007491 0.000000 0.000000 0.000000
# 3 -0.004574 -0.007491 0.014277 0.000000 0.000000 0.000000
# 4 0.000000 0.000000 0.000000 0.071616 0.000000 0.000000
# 5 0.000000 0.000000 0.000000 0.000000 0.054804 0.000000
# 6 0.000000 0.000000 0.000000 0.000000 0.000000 0.050889
#
#
# Mechanical properties :
#
#
# Convention : Reuss Voigt Hill
#
# Bulk Modulus (GPa) = 39.32499 60.14037 49.73268
# Shear Modulus (GPa) = 17.41913 20.25503 18.83708
#
# Velocity S-wave (km/s) = 3.16693 3.41501 3.29330
# Velocity P-wave (km/s) = 6.00123 7.08356 6.56474
#
# Compressibility (1/GPa) = 0.02542912
#
# Stress axis : x y z
#
# Youngs Moduli (GPa) = 86.22678 26.68919 70.04504
#
# Poissons Ratio (x) = 0.18391 0.32041
# Poissons Ratio (y) = 0.59417 0.52474
# Poissons Ratio (z) = 0.39443 0.19994
#
# Static dielectric constant tensor:
#      x y z
#    x 3.528240 0.000000 0.000000 
#    y 0.000000 3.194240 0.000000 
#    z 0.000000 0.000000 3.157390 
# 
# 
# High freq. dielectric constant tensor:
#      x y z
#    x 1.676510 0.000000 0.000000 
#    y 0.000000 1.656970 0.000000 
#    z 0.000000 0.000000 1.650600 
# 
# From -- ./inp_files/32468.got.cif
#   From: 2010.03.12/outbox.cif.g09.slc.cpg/sg47_17_cif.got.tgz:32468.got - 2010.04.14 03:12:58.
