data_PCOD8201542
_publ_section_title
;
Structure prediction by ZEFSAII (Michael W. Deem and Ramdas Pophale) SiO2 
 PCOD8201542
Probable space group: P N N N
;
_chemical_formula_sum "Si O2"
_cell_formula_units_Z 64
_cell_length_a 23.519241
_cell_length_b 8.977992
_cell_length_c 14.869800
_cell_angle_alpha 90.000000
_cell_angle_beta 90.000000
_cell_angle_gamma 90.000000
_cell_volume 3139.840910
_symmetry_space_group_name_H-M "P N N N"
_symmetry_group_IT_number 48
_space_group.IT_coordinate_system_code '2'
_symmetry_cell_setting 'orthorhombic'
loop_
_space_group_symop_operation_xyz
x,y,z
1/2-x,1/2-y,z
x,1/2-y,1/2-z
1/2-x,y,1/2-z
-x,-y,-z
1/2+x,1/2+y,-z
-x,1/2+y,1/2+z
1/2+x,-y,1/2+z
loop_
_atom_site_type_symbol
_atom_site_label
_atom_site_fract_x
_atom_site_fract_y
_atom_site_fract_z
Si Si1 0.916176 0.966669 0.430893
Si Si2 0.864586 0.264977 0.148125
Si Si3 0.237986 0.922534 0.347328
Si Si4 0.164917 0.591373 0.479488
Si Si5 0.073297 0.147542 0.989369
Si Si6 0.517995 0.405427 0.128466
Si Si7 0.115041 0.873570 0.395368
Si Si8 0.008297 0.904864 0.290105
O O1 0.898552 0.797275 0.450543
O O2 0.975899 0.955782 0.379803
O O3 0.868417 0.057375 0.372825
O O4 0.921298 0.056015 0.523816
O O5 0.841076 0.250000 0.250000
O O6 0.928428 0.202801 0.137290
O O7 0.824499 0.175197 0.076568
O O8 0.250000 0.750000 0.333390
O O9 0.250000 0.001436 0.250000
O O10 0.277579 0.967887 0.431979
O O11 0.173484 0.961526 0.375165
O O12 0.128153 0.445523 0.486664
O O13 0.129793 0.702613 0.415923
O O14 0.034420 0.061914 0.917639
O O15 0.032505 0.178931 0.075217
O O16 0.495747 0.452586 0.225650
O O17 0.074749 0.877164 0.309106
O O18 0.982601 0.750000 0.250000
#
# Coordination Sequence:
#
# PCOD8201542 Si02
#       8
#     8   8   8   8   8   8   8   8
#     4  11  23  37  55  84 121 156 195 239 300 362
#     4  10  20  35  56  86 119 159 194 251 301 358
#     4   9  19  37  64  89 111 148 206 257 299 351
#     4   9  20  38  59  83 116 154 201 254 307 354
#     4  10  21  35  53  82 115 160 194 236 296 362
#     4  10  21  33  51  79 120 157 197 234 286 358
#     4  10  23  36  59  86 117 153 196 251 299 354
#     4  12  22  33  57  88 121 155 200 239 291 365
#
# _framework density 20.383198
#
# number of rings (size 3 to 8) (size 9 to 14) (size 15 to 20)
#    0.000    1.875    2.500    1.125   12.250    0.000 
#    0.000    0.625    0.000   10.125    0.000    0.000 
#    0.000    0.000    0.000    0.000    0.000    0.000 
#
# Total GULP energy -793147.127957 kJ/mol
# GULP energy per Si atom -12392.923874 kJ/mol
# Density = 2.033680 g / cm^3
# Si number density = 20.383198 Si / 1000 Ang^3
#
#
#
# Elastic Constant Matrix: (Units=GPa)
#
#
# Indices 1 2 3 4 5 6 
#
# 1 84.8717 22.2289 61.2743 0.0000 0.0000 0.0000
# 2 22.2289 80.4241 28.2899 0.0000 0.0000 0.0000
# 3 61.2743 28.2899 127.5430 0.0000 0.0000 0.0000
# 4 0.0000 0.0000 0.0000 22.5732 0.0000 0.0000
# 5 0.0000 0.0000 0.0000 0.0000 28.3214 0.0000
# 6 0.0000 0.0000 0.0000 0.0000 0.0000 12.9991
#
#
#
# Elastic Compliance Matrix: (Units=1/GPa)
#
#
# Indices 1 2 3 4 5 6 
#
# 1 0.018373 -0.002140 -0.008352 0.000000 0.000000 0.000000
# 2 -0.002140 0.013736 -0.002018 0.000000 0.000000 0.000000
# 3 -0.008352 -0.002018 0.012301 0.000000 0.000000 0.000000
# 4 0.000000 0.000000 0.000000 0.044300 0.000000 0.000000
# 5 0.000000 0.000000 0.000000 0.000000 0.035309 0.000000
# 6 0.000000 0.000000 0.000000 0.000000 0.000000 0.076928
#
#
# Mechanical properties :
#
#
# Convention : Reuss Voigt Hill
#
# Bulk Modulus (GPa) = 51.57885 57.38055 54.47970
# Shear Modulus (GPa) = 21.51178 24.84845 23.18011
#
# Velocity S-wave (km/s) = 3.25217 3.49530 3.37592
# Velocity P-wave (km/s) = 6.28185 6.67095 6.47932
#
# Compressibility (1/GPa) = 0.01938779
#
# Stress axis : x y z
#
# Youngs Moduli (GPa) = 54.42797 72.80320 81.29644
#
# Poissons Ratio (x) = 0.15582 0.67899
# Poissons Ratio (y) = 0.11649 0.16409
# Poissons Ratio (z) = 0.45458 0.14695
#
# Static dielectric constant tensor:
#      x y z
#    x 3.467260 0.000000 0.000000 
#    y 0.000000 3.557670 0.000000 
#    z 0.000000 0.000000 4.071830 
# 
# 
# High freq. dielectric constant tensor:
#      x y z
#    x 1.763030 0.000000 0.000000 
#    y 0.000000 1.777660 0.000000 
#    z 0.000000 0.000000 1.812010 
# 
# From -- ./inp_files/28626.got.cif
#   From: 2010.06.25/outbox.cif.g09.slc.cpg/sg48_15_cif.got.tgz:28626.got - 2010.06.26 18:06:46.
