data_PCOD8201364
_publ_section_title
;
Structure prediction by ZEFSAII (Michael W. Deem and Ramdas Pophale) SiO2 
 PCOD8201364
Probable space group: P N N N
;
_chemical_formula_sum "Si O2"
_cell_formula_units_Z 56
_cell_length_a 10.690001
_cell_length_b 25.346586
_cell_length_c 11.696367
_cell_angle_alpha 90.000000
_cell_angle_beta 90.000000
_cell_angle_gamma 90.000000
_cell_volume 3169.189468
_symmetry_space_group_name_H-M "P N N N"
_symmetry_group_IT_number 48
_space_group.IT_coordinate_system_code '2'
_symmetry_cell_setting 'orthorhombic'
loop_
_space_group_symop_operation_xyz
x,y,z
1/2-x,1/2-y,z
x,1/2-y,1/2-z
1/2-x,y,1/2-z
-x,-y,-z
1/2+x,1/2+y,-z
-x,1/2+y,1/2+z
1/2+x,-y,1/2+z
loop_
_atom_site_type_symbol
_atom_site_label
_atom_site_fract_x
_atom_site_fract_y
_atom_site_fract_z
Si Si1 0.397043 0.122799 0.751093
Si Si2 0.899065 0.745663 0.878406
Si Si3 0.947959 0.957850 0.913367
Si Si4 0.030009 0.488243 0.808484
Si Si5 0.621126 0.856078 0.002360
Si Si6 0.416008 0.153162 0.507334
Si Si7 0.337531 0.027738 0.027859
O O1 0.250000 0.110638 0.750000
O O2 0.466906 0.066873 0.741805
O O3 0.427320 0.153812 0.867992
O O4 0.444324 0.156497 0.642960
O O5 0.750000 0.750000 0.885964
O O6 0.947801 0.750000 0.750000
O O7 0.944189 0.688722 0.925389
O O8 0.964207 0.792852 0.949788
O O9 0.799465 0.966673 0.920081
O O10 0.981439 0.897912 0.949769
O O11 0.009354 0.966376 0.787416
O O12 0.000000 0.000000 0.000000
O O13 0.910382 0.487130 0.891935
O O14 0.152999 0.492523 0.893893
O O15 0.768901 0.850953 0.990556
O O16 0.589125 0.915731 0.964625
#
# Coordination Sequence:
#
# PCOD8201364 Si02
#       7
#     8   8   8   8   8   8   8
#     4   9  16  29  46  64  91 124 155 193 236 282
#     4   9  17  27  40  60  88 122 154 190 229 286
#     4  11  20  30  49  71  97 137 159 196 247 290
#     4  10  19  31  48  66  96 132 162 202 237 288
#     4   8  16  28  44  60  87 125 157 187 237 279
#     4   9  17  28  40  64  90 119 161 191 226 285
#     4   9  20  33  46  70  98 130 168 196 237 297
#
# _framework density 17.670133
#
# number of rings (size 3 to 8) (size 9 to 14) (size 15 to 20)
#    0.000    2.714    1.429    1.286    2.000    0.571 
#    0.000    2.857    0.000    0.000    0.000    0.000 
#    0.000   10.286   10.857    0.000    0.000    0.000 
#
# Total GULP energy -693736.318928 kJ/mol
# GULP energy per Si atom -12388.148552 kJ/mol
# Density = 1.762992 g / cm^3
# Si number density = 17.670133 Si / 1000 Ang^3
#
#
#
# Elastic Constant Matrix: (Units=GPa)
#
#
# Indices 1 2 3 4 5 6 
#
# 1 15.1878 18.5935 12.3892 0.0000 0.0000 0.0000
# 2 18.5935 108.8274 65.2491 0.0000 0.0000 0.0000
# 3 12.3892 65.2491 139.3655 0.0000 0.0000 0.0000
# 4 0.0000 0.0000 0.0000 37.0968 0.0000 0.0000
# 5 0.0000 0.0000 0.0000 0.0000 19.8906 0.0000
# 6 0.0000 0.0000 0.0000 0.0000 0.0000 16.1703
#
#
#
# Elastic Compliance Matrix: (Units=1/GPa)
#
#
# Indices 1 2 3 4 5 6 
#
# 1 0.083364 -0.013624 -0.001032 0.000000 0.000000 0.000000
# 2 -0.013624 0.015001 -0.005812 0.000000 0.000000 0.000000
# 3 -0.001032 -0.005812 0.009988 0.000000 0.000000 0.000000
# 4 0.000000 0.000000 0.000000 0.026957 0.000000 0.000000
# 5 0.000000 0.000000 0.000000 0.000000 0.050275 0.000000
# 6 0.000000 0.000000 0.000000 0.000000 0.000000 0.061842
#
#
# Mechanical properties :
#
#
# Convention : Reuss Voigt Hill
#
# Bulk Modulus (GPa) = 14.83321 50.64935 32.74128
# Shear Modulus (GPa) = 16.08567 25.77480 20.93024
#
# Velocity S-wave (km/s) = 3.02044 3.82339 3.44539
# Velocity P-wave (km/s) = 4.53617 6.94386 5.86489
#
# Compressibility (1/GPa) = 0.06741627
#
# Stress axis : x y z
#
# Youngs Moduli (GPa) = 11.99565 66.66022 100.11612
#
# Poissons Ratio (x) = 0.90818 0.10334
# Poissons Ratio (y) = 0.16343 0.58191
# Poissons Ratio (z) = 0.01238 0.38745
#
# Static dielectric constant tensor:
#      x y z
#    x 2.867870 0.000000 0.000000 
#    y 0.000000 3.526350 0.000000 
#    z 0.000000 0.000000 3.519570 
# 
# 
# High freq. dielectric constant tensor:
#      x y z
#    x 1.610400 0.000000 0.000000 
#    y 0.000000 1.676060 0.000000 
#    z 0.000000 0.000000 1.705940 
# 
# From -- ./inp_files/20405.got.cif
#   From: 2010.06.25/outbox.cif.g09.slc.cpg/sg48_11_cif.got.tgz:20405.got - 2010.06.26 18:06:46.
