data_PCOD8201935
_publ_section_title
;
Structure prediction by ZEFSAII (Michael W. Deem and Ramdas Pophale) SiO2 
 PCOD8201935
Probable space group: P N N N
;
_chemical_formula_sum "Si O2"
_cell_formula_units_Z 50
_cell_length_a 13.237334
_cell_length_b 18.283753
_cell_length_c 8.274720
_cell_angle_alpha 90.000000
_cell_angle_beta 90.000000
_cell_angle_gamma 90.000000
_cell_volume 2002.715134
_symmetry_space_group_name_H-M "P N N N"
_symmetry_group_IT_number 48
_space_group.IT_coordinate_system_code '2'
_symmetry_cell_setting 'orthorhombic'
loop_
_space_group_symop_operation_xyz
x,y,z
1/2-x,1/2-y,z
x,1/2-y,1/2-z
1/2-x,y,1/2-z
-x,-y,-z
1/2+x,1/2+y,-z
-x,1/2+y,1/2+z
1/2+x,-y,1/2+z
loop_
_atom_site_type_symbol
_atom_site_label
_atom_site_fract_x
_atom_site_fract_y
_atom_site_fract_z
Si Si1 0.389172 0.766498 0.571418
Si Si2 0.210061 0.472320 0.568048
Si Si3 0.250000 0.250000 0.250000
Si Si4 0.409597 0.358708 0.115130
Si Si5 0.580673 0.938172 0.948958
Si Si6 0.168414 0.609899 0.383377
Si Si7 0.005991 0.825482 0.331165
O O1 0.350564 0.750000 0.750000
O O2 0.491785 0.813982 0.569949
O O3 0.303587 0.815145 0.480947
O O4 0.410561 0.693492 0.469367
O O5 0.250000 0.473499 0.750000
O O6 0.129767 0.407411 0.536046
O O7 0.306493 0.468899 0.449706
O O8 0.154566 0.547236 0.517835
O O9 0.320156 0.301277 0.142133
O O10 0.437855 0.409395 0.268373
O O11 0.580632 0.871270 0.078350
O O12 0.500000 0.000000 0.000000
O O13 0.250000 0.590137 0.250000
O O14 0.060297 0.622035 0.297478
O O15 0.964305 0.750000 0.250000
#
# Coordination Sequence:
#
# PCOD8201935 Si02
#       7
#     8   8   2   8   8   8   8
#     4  11  24  44  77 114 142 188 259 305 380 443
#     4  12  29  46  70 113 147 197 254 304 375 447
#     4  12  20  44  78 104 152 194 232 304 384 464
#     4  12  24  46  74 109 151 196 241 308 382 451
#     4  12  24  45  76 103 151 197 249 305 379 455
#     4  11  26  50  73 101 151 200 246 308 375 451
#     4  10  23  43  72 106 144 192 246 305 376 448
#
# _framework density 24.966106
#
# number of rings (size 3 to 8) (size 9 to 14) (size 15 to 20)
#    0.000    0.640    4.000    2.880    6.720    4.800 
#    0.000    1.200    0.000    0.000    0.000    0.000 
#    0.000    0.000    0.000    0.000    0.000    0.000 
#
# Total GULP energy -619924.811367 kJ/mol
# GULP energy per Si atom -12398.496227 kJ/mol
# Density = 2.490928 g / cm^3
# Si number density = 24.966106 Si / 1000 Ang^3
#
#
#
# Elastic Constant Matrix: (Units=GPa)
#
#
# Indices 1 2 3 4 5 6 
#
# 1 72.5459 20.9573 9.7129 0.0000 0.0000 0.0000
# 2 20.9573 121.6200 45.9276 0.0000 0.0000 0.0000
# 3 9.7129 45.9276 160.7586 0.0000 0.0000 0.0000
# 4 0.0000 0.0000 0.0000 43.5356 0.0000 0.0000
# 5 0.0000 0.0000 0.0000 0.0000 30.6919 0.0000
# 6 0.0000 0.0000 0.0000 0.0000 0.0000 30.5579
#
#
#
# Elastic Compliance Matrix: (Units=1/GPa)
#
#
# Indices 1 2 3 4 5 6 
#
# 1 0.014511 -0.002432 -0.000182 0.000000 0.000000 0.000000
# 2 -0.002432 0.009624 -0.002603 0.000000 0.000000 0.000000
# 3 -0.000182 -0.002603 0.006975 0.000000 0.000000 0.000000
# 4 0.000000 0.000000 0.000000 0.022970 0.000000 0.000000
# 5 0.000000 0.000000 0.000000 0.000000 0.032582 0.000000
# 6 0.000000 0.000000 0.000000 0.000000 0.000000 0.032725
#
#
# Mechanical properties :
#
#
# Convention : Reuss Voigt Hill
#
# Bulk Modulus (GPa) = 48.36152 56.45780 52.40966
# Shear Modulus (GPa) = 36.57313 39.51218 38.04266
#
# Velocity S-wave (km/s) = 3.83157 3.98255 3.90779
# Velocity P-wave (km/s) = 6.24400 6.61895 6.43420
#
# Compressibility (1/GPa) = 0.02067760
#
# Stress axis : x y z
#
# Youngs Moduli (GPa) = 68.91205 103.90459 143.36790
#
# Poissons Ratio (x) = 0.25268 0.02609
# Poissons Ratio (y) = 0.16758 0.37314
# Poissons Ratio (z) = 0.01254 0.27043
#
# Static dielectric constant tensor:
#      x y z
#    x 4.552850 0.000000 0.000000 
#    y 0.000000 4.751830 0.000000 
#    z 0.000000 0.000000 4.096520 
# 
# 
# High freq. dielectric constant tensor:
#      x y z
#    x 1.983010 0.000000 0.000000 
#    y 0.000000 2.006810 0.000000 
#    z 0.000000 0.000000 2.012230 
# 
# From -- ./inp_files/12824.got.cif
#   From: 2010.06.25/outbox.cif.g09.slc.cpg/sg48_7_cif.got.tgz:12824.got - 2010.06.26 18:06:46.
