data_PCOD8201281
_publ_section_title
;
Structure prediction by ZEFSAII (Michael W. Deem and Ramdas Pophale) SiO2 
 PCOD8201281
Probable space group: P N N N
;
_chemical_formula_sum "Si O2"
_cell_formula_units_Z 52
_cell_length_a 14.188647
_cell_length_b 20.259772
_cell_length_c 9.340355
_cell_angle_alpha 90.000000
_cell_angle_beta 90.000000
_cell_angle_gamma 90.000000
_cell_volume 2684.966803
_symmetry_space_group_name_H-M "P N N N"
_symmetry_group_IT_number 48
_space_group.IT_coordinate_system_code '2'
_symmetry_cell_setting 'orthorhombic'
loop_
_space_group_symop_operation_xyz
x,y,z
1/2-x,1/2-y,z
x,1/2-y,1/2-z
1/2-x,y,1/2-z
-x,-y,-z
1/2+x,1/2+y,-z
-x,1/2+y,1/2+z
1/2+x,-y,1/2+z
loop_
_atom_site_type_symbol
_atom_site_label
_atom_site_fract_x
_atom_site_fract_y
_atom_site_fract_z
Si Si1 0.724890 0.037919 0.414906
Si Si2 0.750000 0.250000 0.434003
Si Si3 0.377554 0.864173 0.977140
Si Si4 0.596390 0.149096 0.348689
Si Si5 0.753377 0.608798 0.419697
Si Si6 0.073800 0.188430 0.948054
Si Si7 0.438616 0.159461 0.873714
O O1 0.750000 0.034391 0.250000
O O2 0.810479 0.072744 0.498827
O O3 0.630102 0.081808 0.428432
O O4 0.711764 0.963544 0.471607
O O5 0.680634 0.297898 0.523894
O O6 0.682283 0.201728 0.342395
O O7 0.423557 0.861117 0.818597
O O8 0.463105 0.872882 0.083957
O O9 0.504027 0.173093 0.431721
O O10 0.750000 0.620214 0.250000
O O11 0.822898 0.661733 0.496870
O O12 0.643918 0.620498 0.458813
O O13 0.073430 0.265733 0.923456
O O14 0.057536 0.151153 0.797698
#
# Coordination Sequence:
#
# PCOD8201281 Si02
#       7
#     8   4   8   8   8   8   8
#     4   8  17  32  52  76  97 131 173 202 240 301
#     4  10  17  30  51  72  99 132 157 192 245 300
#     4  10  18  31  53  77 100 127 165 207 250 296
#     4  10  18  31  53  77 100 127 165 207 250 296
#     4   9  18  35  53  68  99 139 173 204 237 292
#     4  10  20  33  51  76 101 132 169 205 247 293
#     4  10  20  33  51  76 101 132 169 205 247 293
#
# _framework density 19.367093000000001
#
# number of rings (size 3 to 8) (size 9 to 14) (size 15 to 20)
#    0.000    2.462    1.538    2.769    0.000    3.077 
#    0.000    4.615    0.000    3.692    0.000    0.000 
#    0.000    0.000    0.000    0.000    0.000    0.000 
#
# Total GULP energy -644271.919247 kJ/mol
# GULP energy per Si atom -12389.844601 kJ/mol
# Density = 1.932301 g / cm^3
# Si number density = 19.367093 Si / 1000 Ang^3
#
#
#
# Elastic Constant Matrix: (Units=GPa)
#
#
# Indices 1 2 3 4 5 6 
#
# 1 97.8365 9.0239 20.6218 0.0000 0.0000 0.0000
# 2 9.0239 52.5740 0.1547 0.0000 0.0000 0.0000
# 3 20.6218 0.1547 30.3048 0.0000 0.0000 0.0000
# 4 0.0000 0.0000 0.0000 13.5947 0.0000 0.0000
# 5 0.0000 0.0000 0.0000 0.0000 19.1298 0.0000
# 6 0.0000 0.0000 0.0000 0.0000 0.0000 25.6000
#
#
#
# Elastic Compliance Matrix: (Units=1/GPa)
#
#
# Indices 1 2 3 4 5 6 
#
# 1 0.012152 -0.002061 -0.008259 0.000000 0.000000 0.000000
# 2 -0.002061 0.019371 0.001304 0.000000 0.000000 0.000000
# 3 -0.008259 0.001304 0.038611 0.000000 0.000000 0.000000
# 4 0.000000 0.000000 0.000000 0.073558 0.000000 0.000000
# 5 0.000000 0.000000 0.000000 0.000000 0.052275 0.000000
# 6 0.000000 0.000000 0.000000 0.000000 0.000000 0.039062
#
#
# Mechanical properties :
#
#
# Convention : Reuss Voigt Hill
#
# Bulk Modulus (GPa) = 19.19329 26.70181 22.94755
# Shear Modulus (GPa) = 18.48914 21.72589 20.10752
#
# Velocity S-wave (km/s) = 3.09312 3.35295 3.22565
# Velocity P-wave (km/s) = 4.76323 5.36720 5.07421
#
# Compressibility (1/GPa) = 0.05210153
#
# Stress axis : x y z
#
# Youngs Moduli (GPa) = 82.29085 51.62403 25.89920
#
# Poissons Ratio (x) = 0.10642 0.21389
# Poissons Ratio (y) = 0.16964 -0.03377
# Poissons Ratio (z) = 0.67961 -0.06731
#
# Static dielectric constant tensor:
#      x y z
#    x 3.691560 0.000000 0.000000 
#    y 0.000000 3.866670 0.000000 
#    z 0.000000 0.000000 3.038300 
# 
# 
# High freq. dielectric constant tensor:
#      x y z
#    x 1.760710 0.000000 0.000000 
#    y 0.000000 1.756720 0.000000 
#    z 0.000000 0.000000 1.700010 
# 
# From -- ./inp_files/13041.got.cif
#   From: 2010.06.25/outbox.cif.g09.slc.cpg/sg48_7_cif.got.tgz:13041.got - 2010.06.26 18:06:46.
