data_PCOD8201711
_publ_section_title
;
Structure prediction by ZEFSAII (Michael W. Deem and Ramdas Pophale) SiO2 
 PCOD8201711
Probable space group: P N N N
;
_chemical_formula_sum "Si O2"
_cell_formula_units_Z 58
_cell_length_a 17.541611
_cell_length_b 8.497743
_cell_length_c 19.223103
_cell_angle_alpha 90.000000
_cell_angle_beta 90.000000
_cell_angle_gamma 90.000000
_cell_volume 2865.474588
_symmetry_space_group_name_H-M "P N N N"
_symmetry_group_IT_number 48
_space_group.IT_coordinate_system_code '2'
_symmetry_cell_setting 'orthorhombic'
loop_
_space_group_symop_operation_xyz
x,y,z
1/2-x,1/2-y,z
x,1/2-y,1/2-z
1/2-x,y,1/2-z
-x,-y,-z
1/2+x,1/2+y,-z
-x,1/2+y,1/2+z
1/2+x,-y,1/2+z
loop_
_atom_site_type_symbol
_atom_site_label
_atom_site_fract_x
_atom_site_fract_y
_atom_site_fract_z
Si Si1 0.579426 0.836031 0.930995
Si Si2 0.152147 0.608794 0.864451
Si Si3 0.355543 0.490071 0.065973
Si Si4 0.250000 0.750000 0.750000
Si Si5 0.969990 0.407303 0.663924
Si Si6 0.561055 0.135954 0.437231
Si Si7 0.995733 0.450579 0.822819
Si Si8 0.285096 0.077763 0.984789
O O1 0.633512 0.690429 0.909824
O O2 0.499638 0.770028 0.961689
O O3 0.566849 0.951506 0.865955
O O4 0.627152 0.928482 0.989574
O O5 0.197385 0.637125 0.794645
O O6 0.131955 0.773131 0.902657
O O7 0.078447 0.514415 0.840386
O O8 0.211125 0.511235 0.911963
O O9 0.382807 0.590902 0.133028
O O10 0.412517 0.531761 0.002159
O O11 0.268523 0.515143 0.040933
O O12 0.023205 0.522938 0.619692
O O13 0.971939 0.469551 0.742577
O O14 0.999348 0.231078 0.656225
O O15 0.250000 0.250000 0.971491
#
# Coordination Sequence:
#
# PCOD8201711 Si02
#       8
#     8   8   8   2   8   8   8   8
#     4   9  20  38  59  87 116 152 205 252 302 365
#     4  11  24  40  65  84 124 164 199 254 297 383
#     4  10  21  37  60  88 122 161 195 256 307 373
#     4  12  24  44  54  92 124 160 210 228 312 384
#     4  10  21  39  59  89 125 151 210 255 304 362
#     4  10  21  37  64  88 115 159 206 253 309 354
#     4  10  23  38  62  91 115 163 203 261 302 358
#     4  10  23  40  59  91 124 155 202 253 315 369
#
# _framework density 20.240974999999999
#
# number of rings (size 3 to 8) (size 9 to 14) (size 15 to 20)
#    0.000    1.931    0.000    3.310    7.724    5.517 
#    2.483    0.690    0.000    5.793    0.000    0.000 
#    0.000    0.000    0.000    0.000    0.000    0.000 
#
# Total GULP energy -718979.370339 kJ/mol
# GULP energy per Si atom -12396.196040 kJ/mol
# Density = 2.019491 g / cm^3
# Si number density = 20.240975 Si / 1000 Ang^3
#
#
#
# Elastic Constant Matrix: (Units=GPa)
#
#
# Indices 1 2 3 4 5 6 
#
# 1 102.5786 41.7527 57.9664 0.0000 0.0000 0.0000
# 2 41.7527 92.7718 62.0415 0.0000 0.0000 0.0000
# 3 57.9664 62.0415 110.4529 0.0000 0.0000 0.0000
# 4 0.0000 0.0000 0.0000 38.7192 0.0000 0.0000
# 5 0.0000 0.0000 0.0000 0.0000 38.0678 0.0000
# 6 0.0000 0.0000 0.0000 0.0000 0.0000 23.2854
#
#
#
# Elastic Compliance Matrix: (Units=1/GPa)
#
#
# Indices 1 2 3 4 5 6 
#
# 1 0.014145 -0.002245 -0.006162 0.000000 0.000000 0.000000
# 2 -0.002245 0.017621 -0.008719 0.000000 0.000000 0.000000
# 3 -0.006162 -0.008719 0.017185 0.000000 0.000000 0.000000
# 4 0.000000 0.000000 0.000000 0.025827 0.000000 0.000000
# 5 0.000000 0.000000 0.000000 0.000000 0.026269 0.000000
# 6 0.000000 0.000000 0.000000 0.000000 0.000000 0.042945
#
#
# Mechanical properties :
#
#
# Convention : Reuss Voigt Hill
#
# Bulk Modulus (GPa) = 68.03871 69.92492 68.98182
# Shear Modulus (GPa) = 27.30096 29.61733 28.45914
#
# Velocity S-wave (km/s) = 3.67658 3.82938 3.75376
# Velocity P-wave (km/s) = 7.19099 7.36026 7.27612
#
# Compressibility (1/GPa) = 0.01469752
#
# Stress axis : x y z
#
# Youngs Moduli (GPa) = 70.69844 56.75190 58.18934
#
# Poissons Ratio (x) = 0.12740 0.35858
# Poissons Ratio (y) = 0.15871 0.50737
# Poissons Ratio (z) = 0.43566 0.49484
#
# Static dielectric constant tensor:
#      x y z
#    x 3.802540 0.000000 0.000000 
#    y 0.000000 3.793440 0.000000 
#    z 0.000000 0.000000 3.708120 
# 
# 
# High freq. dielectric constant tensor:
#      x y z
#    x 1.788050 0.000000 0.000000 
#    y 0.000000 1.798980 0.000000 
#    z 0.000000 0.000000 1.784110 
# 
# From -- ./inp_files/14438.got.cif
#   From: 2010.06.25/outbox.cif.g09.slc.cpg/sg48_8_cif.got.tgz:14438.got - 2010.06.26 18:06:46.
