data_PCOD8201610
_publ_section_title
;
Structure prediction by ZEFSAII (Michael W. Deem and Ramdas Pophale) SiO2 
 PCOD8201610
Probable space group: P N N N
;
_chemical_formula_sum "Si O2"
_cell_formula_units_Z 60
_cell_length_a 15.032802
_cell_length_b 24.890982
_cell_length_c 8.273581
_cell_angle_alpha 90.000000
_cell_angle_beta 90.000000
_cell_angle_gamma 90.000000
_cell_volume 3095.818500
_symmetry_space_group_name_H-M "P N N N"
_symmetry_group_IT_number 48
_space_group.IT_coordinate_system_code '2'
_symmetry_cell_setting 'orthorhombic'
loop_
_space_group_symop_operation_xyz
x,y,z
1/2-x,1/2-y,z
x,1/2-y,1/2-z
1/2-x,y,1/2-z
-x,-y,-z
1/2+x,1/2+y,-z
-x,1/2+y,1/2+z
1/2+x,-y,1/2+z
loop_
_atom_site_type_symbol
_atom_site_label
_atom_site_fract_x
_atom_site_fract_y
_atom_site_fract_z
Si Si1 0.569508 0.114908 0.523863
Si Si2 0.519579 0.809802 0.707287
Si Si3 0.146133 0.544318 0.737170
Si Si4 0.050823 0.876755 0.524564
Si Si5 0.713536 0.690354 0.914619
Si Si6 0.750000 0.632331 0.250000
Si Si7 0.432104 0.070509 0.752114
Si Si8 0.353090 0.808945 0.218850
O O1 0.556095 0.163979 0.401562
O O2 0.629973 0.069537 0.440073
O O3 0.476957 0.087734 0.582257
O O4 0.618949 0.141232 0.672026
O O5 0.489802 0.750000 0.750000
O O6 0.524875 0.846973 0.867616
O O7 0.607962 0.809269 0.600127
O O8 0.250000 0.529445 0.750000
O O9 0.116788 0.585246 0.876022
O O10 0.082741 0.492954 0.756172
O O11 0.114754 0.829256 0.456209
O O12 0.997615 0.912151 0.395657
O O13 0.750000 0.750000 0.914209
O O14 0.750000 0.660918 0.750000
O O15 0.743393 0.665988 0.084870
O O16 0.836648 0.596969 0.230083
O O17 0.397936 0.750000 0.250000
O O18 0.250000 0.801751 0.250000
#
# Coordination Sequence:
#
# PCOD8201610 Si02
#       8
#     8   8   8   8   8   4   8   8
#     4  10  22  38  60  85 118 154 193 245 302 366
#     4  11  20  37  57  83 120 158 195 238 302 362
#     4  11  22  40  63  86 113 153 201 249 309 363
#     4  10  23  38  61  87 118 157 196 251 307 368
#     4  11  22  38  58  87 128 171 204 254 298 361
#     4  12  23  40  62  92 126 170 213 254 310 366
#     4  11  22  40  60  85 120 155 204 250 300 361
#     4  10  20  38  61  89 120 151 194 250 305 367
#
# _framework density 19.380981999999999
#
# number of rings (size 3 to 8) (size 9 to 14) (size 15 to 20)
#    0.000    1.333    3.333    3.400    0.000    0.000 
#    0.000    0.000    0.000    6.400    0.000    0.000 
#    0.000    0.000    0.000    0.000    0.000    0.000 
#
# Total GULP energy -743643.909174 kJ/mol
# GULP energy per Si atom -12394.065153 kJ/mol
# Density = 1.933687 g / cm^3
# Si number density = 19.380982 Si / 1000 Ang^3
#
#
#
# Elastic Constant Matrix: (Units=GPa)
#
#
# Indices 1 2 3 4 5 6 
#
# 1 86.1788 33.6913 25.4160 0.0000 0.0000 0.0000
# 2 33.6913 122.1830 48.0951 0.0000 0.0000 0.0000
# 3 25.4160 48.0951 110.5035 0.0000 0.0000 0.0000
# 4 0.0000 0.0000 0.0000 29.6014 0.0000 0.0000
# 5 0.0000 0.0000 0.0000 0.0000 22.6611 0.0000
# 6 0.0000 0.0000 0.0000 0.0000 0.0000 13.2451
#
#
#
# Elastic Compliance Matrix: (Units=1/GPa)
#
#
# Indices 1 2 3 4 5 6 
#
# 1 0.013285 -0.002969 -0.001763 0.000000 0.000000 0.000000
# 2 -0.002969 0.010540 -0.003905 0.000000 0.000000 0.000000
# 3 -0.001763 -0.003905 0.011154 0.000000 0.000000 0.000000
# 4 0.000000 0.000000 0.000000 0.033782 0.000000 0.000000
# 5 0.000000 0.000000 0.000000 0.000000 0.044128 0.000000
# 6 0.000000 0.000000 0.000000 0.000000 0.000000 0.075500
#
#
# Mechanical properties :
#
#
# Convention : Reuss Voigt Hill
#
# Bulk Modulus (GPa) = 56.47992 59.25220 57.86606
# Shear Modulus (GPa) = 23.63340 27.21238 25.42289
#
# Velocity S-wave (km/s) = 3.49580 3.75117 3.62573
# Velocity P-wave (km/s) = 6.74532 7.02854 6.88838
#
# Compressibility (1/GPa) = 0.01770541
#
# Stress axis : x y z
#
# Youngs Moduli (GPa) = 75.27549 94.87577 89.65050
#
# Poissons Ratio (x) = 0.28169 0.15807
# Poissons Ratio (y) = 0.22350 0.35004
# Poissons Ratio (z) = 0.13273 0.37045
#
# Static dielectric constant tensor:
#      x y z
#    x 3.378850 0.000000 0.000000 
#    y 0.000000 3.698520 0.000000 
#    z 0.000000 0.000000 4.203410 
# 
# 
# High freq. dielectric constant tensor:
#      x y z
#    x 1.752240 0.000000 0.000000 
#    y 0.000000 1.760150 0.000000 
#    z 0.000000 0.000000 1.765660 
# 
# From -- ./inp_files/13247.got.cif
#   From: 2010.06.25/outbox.cif.g09.slc.cpg/sg48_7_cif.got.tgz:13247.got - 2010.06.26 18:06:46.
