data_PCOD8201692
_publ_section_title
;
Structure prediction by ZEFSAII (Michael W. Deem and Ramdas Pophale) SiO2 
 PCOD8201692
Probable space group: P N N N
;
_chemical_formula_sum "Si O2"
_cell_formula_units_Z 32
_cell_length_a 4.798937
_cell_length_b 12.595378
_cell_length_c 23.381800
_cell_angle_alpha 90.000000
_cell_angle_beta 90.000000
_cell_angle_gamma 90.000000
_cell_volume 1413.299468
_symmetry_space_group_name_H-M "P N N N"
_symmetry_group_IT_number 48
_space_group.IT_coordinate_system_code '2'
_symmetry_cell_setting 'orthorhombic'
loop_
_space_group_symop_operation_xyz
x,y,z
1/2-x,1/2-y,z
x,1/2-y,1/2-z
1/2-x,y,1/2-z
-x,-y,-z
1/2+x,1/2+y,-z
-x,1/2+y,1/2+z
1/2+x,-y,1/2+z
loop_
_atom_site_type_symbol
_atom_site_label
_atom_site_fract_x
_atom_site_fract_y
_atom_site_fract_z
Si Si1 0.249179 0.491780 0.954970
Si Si2 0.825507 0.503726 0.687455
Si Si3 0.807428 0.372574 0.148315
Si Si4 0.233481 0.872978 0.418025
O O1 0.280293 0.598420 0.917245
O O2 0.564072 0.437720 0.966958
O O3 0.092919 0.403049 0.915412
O O4 0.000000 0.500000 0.000000
O O5 0.750000 0.460054 0.750000
O O6 0.623787 0.594955 0.661666
O O7 0.856270 0.404430 0.643846
O O8 0.121611 0.561034 0.692817
O O9 0.750000 0.250000 0.158233
O O10 0.250000 0.750000 0.432009
#
# Coordination Sequence:
#
# PCOD8201692 Si02
#       4
#     8   8   8   8
#     4  10  21  38  58  82 112 147 190 237 286 343
#     4  10  21  36  56  83 114 149 189 232 282 344
#     4  10  21  36  55  82 114 147 188 236 284 341
#     4  10  21  38  58  83 114 147 188 237 285 340
#
# _framework density 22.642054000000002
#
# number of rings (size 3 to 8) (size 9 to 14) (size 15 to 20)
#    0.000    2.000    0.000    3.000    0.000    4.500 
#    0.000    7.500    0.000    9.000    0.000    0.000 
#    0.000    0.000    0.000    0.000    0.000    0.000 
#
# Total GULP energy -396481.914852 kJ/mol
# GULP energy per Si atom -12390.059839 kJ/mol
# Density = 2.259052 g / cm^3
# Si number density = 22.642054 Si / 1000 Ang^3
#
#
#
# Elastic Constant Matrix: (Units=GPa)
#
#
# Indices 1 2 3 4 5 6 
#
# 1 129.7635 22.1425 27.8727 0.0000 0.0000 0.0000
# 2 22.1425 93.4411 12.0600 0.0000 0.0000 0.0000
# 3 27.8727 12.0600 84.7909 0.0000 0.0000 0.0000
# 4 0.0000 0.0000 0.0000 13.1265 0.0000 0.0000
# 5 0.0000 0.0000 0.0000 0.0000 34.5756 0.0000
# 6 0.0000 0.0000 0.0000 0.0000 0.0000 25.2531
#
#
#
# Elastic Compliance Matrix: (Units=1/GPa)
#
#
# Indices 1 2 3 4 5 6 
#
# 1 0.008547 -0.001694 -0.002569 0.000000 0.000000 0.000000
# 2 -0.001694 0.011238 -0.001042 0.000000 0.000000 0.000000
# 3 -0.002569 -0.001042 0.012786 0.000000 0.000000 0.000000
# 4 0.000000 0.000000 0.000000 0.076182 0.000000 0.000000
# 5 0.000000 0.000000 0.000000 0.000000 0.028922 0.000000
# 6 0.000000 0.000000 0.000000 0.000000 0.000000 0.039599
#
#
# Mechanical properties :
#
#
# Convention : Reuss Voigt Hill
#
# Bulk Modulus (GPa) = 45.53140 48.01620 46.77380
# Shear Modulus (GPa) = 25.61434 30.98573 28.30003
#
# Velocity S-wave (km/s) = 3.36709 3.70334 3.53921
# Velocity P-wave (km/s) = 5.93879 6.28801 6.11589
#
# Compressibility (1/GPa) = 0.02196287
#
# Stress axis : x y z
#
# Youngs Moduli (GPa) = 116.99862 88.98580 78.20899
#
# Poissons Ratio (x) = 0.15073 0.20090
# Poissons Ratio (y) = 0.19818 0.08146
# Poissons Ratio (z) = 0.30054 0.09268
#
# Static dielectric constant tensor:
#      x y z
#    x -6.919400 0.000000 0.000000 
#    y 0.000000 4.605870 0.000000 
#    z 0.000000 0.000000 4.972510 
# 
# 
# High freq. dielectric constant tensor:
#      x y z
#    x 1.932110 0.000000 0.000000 
#    y 0.000000 1.858450 0.000000 
#    z 0.000000 0.000000 1.898680 
# 
# From -- ./inp_files/2102.got.cif
#   From: 2010.06.25/outbox.cif.g09.slc.cpg/sg48_2_cif.got.tgz:2102.got - 2010.06.26 18:06:46.
