data_PCOD8201857
_publ_section_title
;
Structure prediction by ZEFSAII (Michael W. Deem and Ramdas Pophale) SiO2 
 PCOD8201857
Probable space group: P N N N
;
_chemical_formula_sum "Si O2"
_cell_formula_units_Z 48
_cell_length_a 12.931312
_cell_length_b 8.828283
_cell_length_c 19.430556
_cell_angle_alpha 90.000000
_cell_angle_beta 90.000000
_cell_angle_gamma 90.000000
_cell_volume 2218.217181
_symmetry_space_group_name_H-M "P N N N"
_symmetry_group_IT_number 48
_space_group.IT_coordinate_system_code '2'
_symmetry_cell_setting 'orthorhombic'
loop_
_space_group_symop_operation_xyz
x,y,z
1/2-x,1/2-y,z
x,1/2-y,1/2-z
1/2-x,y,1/2-z
-x,-y,-z
1/2+x,1/2+y,-z
-x,1/2+y,1/2+z
1/2+x,-y,1/2+z
loop_
_atom_site_type_symbol
_atom_site_label
_atom_site_fract_x
_atom_site_fract_y
_atom_site_fract_z
Si Si1 0.506390 0.169104 0.896719
Si Si2 0.108650 0.553197 0.426185
Si Si3 0.750000 0.250000 0.476438
Si Si4 0.250000 0.750000 0.750000
Si Si5 0.685471 0.948110 0.866960
Si Si6 0.871478 0.089112 0.367424
Si Si7 0.250000 0.250000 0.250000
Si Si8 0.046433 0.271289 0.047321
O O1 0.520961 0.350096 0.883811
O O2 0.611296 0.092973 0.868594
O O3 0.406987 0.088363 0.860801
O O4 0.491382 0.145465 0.978626
O O5 0.156818 0.675274 0.480190
O O6 0.195804 0.499125 0.373573
O O7 0.054081 0.410197 0.463190
O O8 0.789277 0.111901 0.428869
O O9 0.176403 0.857240 0.704490
O O10 0.675359 0.855635 0.796052
O O11 0.658082 0.837900 0.931071
O O12 0.972045 0.188268 0.388081
#
# Coordination Sequence:
#
# PCOD8201857 Si02
#       8
#     8   8   4   2   8   8   2   8
#     4  11  22  37  64  98 133 152 204 276 334 364
#     4  12  20  36  62  99 133 159 199 264 340 389
#     4  11  20  35  66  89 130 165 206 260 334 387
#     4  10  24  46  72  82 122 186 240 248 298 398
#     4  11  22  40  61  88 125 175 213 253 305 387
#     4  10  22  40  63  93 120 174 220 260 308 380
#     4  12  24  42  62  80 120 178 234 230 294 400
#     4  11  21  37  64 100 128 156 210 270 331 378
#
# _framework density 21.639001
#
# number of rings (size 3 to 8) (size 9 to 14) (size 15 to 20)
#    0.000    1.000    5.000    3.500    0.000    2.667 
#    0.000    1.667    0.000    1.000    0.000    0.000 
#    0.000    0.000    0.000    0.000    0.000    0.000 
#
# Total GULP energy -594764.589252 kJ/mol
# GULP energy per Si atom -12390.928943 kJ/mol
# Density = 2.158975 g / cm^3
# Si number density = 21.639001 Si / 1000 Ang^3
#
#
#
# Elastic Constant Matrix: (Units=GPa)
#
#
# Indices 1 2 3 4 5 6 
#
# 1 74.3470 25.7214 32.3588 0.0000 0.0000 0.0000
# 2 25.7214 93.2660 24.8025 0.0000 0.0000 0.0000
# 3 32.3588 24.8025 99.5527 0.0000 0.0000 0.0000
# 4 0.0000 0.0000 0.0000 16.6176 0.0000 0.0000
# 5 0.0000 0.0000 0.0000 0.0000 14.4655 0.0000
# 6 0.0000 0.0000 0.0000 0.0000 0.0000 48.5143
#
#
#
# Elastic Compliance Matrix: (Units=1/GPa)
#
#
# Indices 1 2 3 4 5 6 
#
# 1 0.016598 -0.003366 -0.004557 0.000000 0.000000 0.000000
# 2 -0.003366 0.012165 -0.001937 0.000000 0.000000 0.000000
# 3 -0.004557 -0.001937 0.012009 0.000000 0.000000 0.000000
# 4 0.000000 0.000000 0.000000 0.060177 0.000000 0.000000
# 5 0.000000 0.000000 0.000000 0.000000 0.069130 0.000000
# 6 0.000000 0.000000 0.000000 0.000000 0.000000 0.020612
#
#
# Mechanical properties :
#
#
# Convention : Reuss Voigt Hill
#
# Bulk Modulus (GPa) = 47.49772 48.10346 47.80059
# Shear Modulus (GPa) = 22.99611 28.20499 25.60055
#
# Velocity S-wave (km/s) = 3.26347 3.61423 3.44332
# Velocity P-wave (km/s) = 6.01648 6.30040 6.16008
#
# Compressibility (1/GPa) = 0.02105364
#
# Stress axis : x y z
#
# Youngs Moduli (GPa) = 60.24797 82.20086 83.27406
#
# Poissons Ratio (x) = 0.27667 0.37944
# Poissons Ratio (y) = 0.20278 0.16129
# Poissons Ratio (z) = 0.27452 0.15921
#
# Static dielectric constant tensor:
#      x y z
#    x 4.120140 0.000000 0.000000 
#    y 0.000000 4.180350 0.000000 
#    z 0.000000 0.000000 3.536210 
# 
# 
# High freq. dielectric constant tensor:
#      x y z
#    x 1.854250 0.000000 0.000000 
#    y 0.000000 1.859330 0.000000 
#    z 0.000000 0.000000 1.809670 
# 
# From -- ./inp_files/31601.got.cif
#   From: 2010.06.25/outbox.cif.g09.slc.cpg/sg48_16_cif.got.tgz:31601.got - 2010.06.26 18:06:46.
