data_PCOD8201459
_publ_section_title
;
Structure prediction by ZEFSAII (Michael W. Deem and Ramdas Pophale) SiO2 
 PCOD8201459
Probable space group: P N N N
;
_chemical_formula_sum "Si O2"
_cell_formula_units_Z 40
_cell_length_a 29.377997
_cell_length_b 12.124739
_cell_length_c 5.094977
_cell_angle_alpha 90.000000
_cell_angle_beta 90.000000
_cell_angle_gamma 90.000000
_cell_volume 1814.833589
_symmetry_space_group_name_H-M "P N N N"
_symmetry_group_IT_number 48
_space_group.IT_coordinate_system_code '2'
_symmetry_cell_setting 'orthorhombic'
loop_
_space_group_symop_operation_xyz
x,y,z
1/2-x,1/2-y,z
x,1/2-y,1/2-z
1/2-x,y,1/2-z
-x,-y,-z
1/2+x,1/2+y,-z
-x,1/2+y,1/2+z
1/2+x,-y,1/2+z
loop_
_atom_site_type_symbol
_atom_site_label
_atom_site_fract_x
_atom_site_fract_y
_atom_site_fract_z
Si Si1 0.559475 0.499466 0.280752
Si Si2 0.800890 0.699158 0.506624
Si Si3 0.699834 0.444574 0.838808
Si Si4 0.649455 0.371551 0.311529
Si Si5 0.469750 0.122764 0.279825
O O1 0.609861 0.455294 0.229141
O O2 0.523493 0.399472 0.257258
O O3 0.558279 0.551758 0.569418
O O4 0.547279 0.591746 0.068582
O O5 0.750000 0.750000 0.503457
O O6 0.825726 0.750000 0.250000
O O7 0.802361 0.569419 0.552017
O O8 0.828480 0.750000 0.750000
O O9 0.750000 0.414876 0.750000
O O10 0.665861 0.405389 0.605341
O O11 0.690383 0.377447 0.102513
O O12 0.629808 0.250000 0.250000
O O13 0.459451 0.250000 0.250000
#
# Coordination Sequence:
#
# PCOD8201459 Si02
#       5
#     8   8   8   8   8
#     4  10  22  41  65  98 131 173 212 255 322 395
#     4  10  19  36  65  89 115 154 204 269 312 395
#     4  12  25  43  68  94 125 169 230 277 316 394
#     4  12  27  45  65  92 134 171 219 280 332 385
#     4  10  20  39  71  97 132 168 210 259 313 392
#
# _framework density 22.040592
#
# number of rings (size 3 to 8) (size 9 to 14) (size 15 to 20)
#    0.000    1.200    2.000    4.800    2.800    2.400 
#    0.000   16.000    0.000    0.000    0.000    0.000 
#    0.000    0.000    0.000    0.000    0.000    0.000 
#
# Total GULP energy -495611.925707 kJ/mol
# GULP energy per Si atom -12390.298143 kJ/mol
# Density = 2.199043 g / cm^3
# Si number density = 22.040592 Si / 1000 Ang^3
#
#
#
# Elastic Constant Matrix: (Units=GPa)
#
#
# Indices 1 2 3 4 5 6 
#
# 1 69.3005 23.8957 13.3672 0.0000 0.0000 0.0000
# 2 23.8957 93.5243 16.6068 0.0000 0.0000 0.0000
# 3 13.3672 16.6068 143.4910 0.0000 0.0000 0.0000
# 4 0.0000 0.0000 0.0000 53.9506 0.0000 0.0000
# 5 0.0000 0.0000 0.0000 0.0000 10.6940 0.0000
# 6 0.0000 0.0000 0.0000 0.0000 0.0000 18.6289
#
#
#
# Elastic Compliance Matrix: (Units=1/GPa)
#
#
# Indices 1 2 3 4 5 6 
#
# 1 0.015974 -0.003897 -0.001037 0.000000 0.000000 0.000000
# 2 -0.003897 0.011868 -0.001010 0.000000 0.000000 0.000000
# 3 -0.001037 -0.001010 0.007183 0.000000 0.000000 0.000000
# 4 0.000000 0.000000 0.000000 0.018535 0.000000 0.000000
# 5 0.000000 0.000000 0.000000 0.000000 0.093510 0.000000
# 6 0.000000 0.000000 0.000000 0.000000 0.000000 0.053680
#
#
# Mechanical properties :
#
#
# Convention : Reuss Voigt Hill
#
# Bulk Modulus (GPa) = 43.22523 46.00613 44.61568
# Shear Modulus (GPa) = 22.69111 33.48444 28.08777
#
# Velocity S-wave (km/s) = 3.21209 3.90194 3.57370
# Velocity P-wave (km/s) = 5.78021 6.42019 6.10859
#
# Compressibility (1/GPa) = 0.02313464
#
# Stress axis : x y z
#
# Youngs Moduli (GPa) = 62.60270 84.26328 139.22483
#
# Poissons Ratio (x) = 0.32839 0.14438
# Poissons Ratio (y) = 0.24397 0.14068
# Poissons Ratio (z) = 0.06492 0.08514
#
# Static dielectric constant tensor:
#      x y z
#    x 3.613520 0.000000 0.000000 
#    y 0.000000 4.085370 0.000000 
#    z 0.000000 0.000000 3.401250 
# 
# 
# High freq. dielectric constant tensor:
#      x y z
#    x 1.845090 0.000000 0.000000 
#    y 0.000000 1.871940 0.000000 
#    z 0.000000 0.000000 1.896030 
# 
# From -- ./inp_files/6298.got.cif
#   From: 2010.06.25/outbox.cif.g09.slc.cpg/sg48_4_cif.got.tgz:6298.got - 2010.06.26 18:06:46.
