data_PCOD8201201
_publ_section_title
;
Structure prediction by ZEFSAII (Michael W. Deem and Ramdas Pophale) SiO2 
 PCOD8201201
Probable space group: P M M M
;
_chemical_formula_sum "Si O2"
_cell_formula_units_Z 40
_cell_length_a 7.744423
_cell_length_b 27.802717
_cell_length_c 9.294489
_cell_angle_alpha 90.000000
_cell_angle_beta 90.000000
_cell_angle_gamma 90.000000
_cell_volume 2001.252203
_symmetry_space_group_name_H-M "P M M M"
_symmetry_group_IT_number 47
_symmetry_cell_setting 'orthorhombic'
loop_
_space_group_symop_operation_xyz
x,y,z
-x,-y,z
x,-y,-z
-x,y,-z
-x,-y,-z
x,y,-z
-x,y,z
x,-y,z
loop_
_atom_site_type_symbol
_atom_site_label
_atom_site_fract_x
_atom_site_fract_y
_atom_site_fract_z
Si Si1 0.500000 0.053638 0.670719
Si Si2 0.294444 0.500000 0.162890
Si Si3 0.706089 0.591948 0.337968
Si Si4 0.197652 0.877393 0.330542
Si Si5 0.700508 0.680970 0.839874
Si Si6 0.796488 0.784557 0.160841
O O1 0.500000 0.050970 0.500000
O O2 0.325274 0.080360 0.722786
O O3 0.500000 0.000000 0.737167
O O4 0.500000 0.500000 0.160256
O O5 0.224828 0.453172 0.246277
O O6 0.221942 0.500000 0.000000
O O7 0.779347 0.588725 0.500000
O O8 0.500000 0.592163 0.341686
O O9 0.780982 0.640475 0.264211
O O10 0.210079 0.869953 0.500000
O O11 0.267121 0.828311 0.259493
O O12 0.000000 0.889883 0.284561
O O13 0.500000 0.670256 0.853454
O O14 0.731700 0.733956 0.773275
O O15 0.785049 0.678109 0.000000
O O16 0.000000 0.784024 0.156946
O O17 0.720139 0.791331 0.000000
#
# Coordination Sequence:
#
# PCOD8201201 Si02
#       6
#     4   4   8   8   8   8
#     4   9  18  32  51  77 105 133 169 210 251 296
#     4   9  15  23  37  55  80 117 154 189 232 284
#     4   9  16  25  37  57  85 115 149 190 236 283
#     4   9  18  32  50  73 100 130 166 208 251 296
#     4   9  17  28  42  62  88 117 150 188 231 282
#     4   9  18  32  49  69  94 126 161 196 238 289
#
# _framework density 19.987485
#
# number of rings (size 3 to 8) (size 9 to 14) (size 15 to 20)
#    0.000    3.000    0.000    0.900    1.400    4.800 
#    0.000    2.000    0.000    1.200    0.000    3.500 
#    0.000    5.600    0.000    0.000    0.000    0.000 
#
# Total GULP energy -495834.555788 kJ/mol
# GULP energy per Si atom -12395.863895 kJ/mol
# Density = 1.994199 g / cm^3
# Si number density = 19.987485 Si / 1000 Ang^3
#
#
#
# Elastic Constant Matrix: (Units=GPa)
#
#
# Indices 1 2 3 4 5 6 
#
# 1 45.6865 44.7286 20.9378 0.0000 0.0000 0.0000
# 2 44.7286 210.0613 81.6747 0.0000 0.0000 0.0000
# 3 20.9378 81.6747 100.0259 0.0000 0.0000 0.0000
# 4 0.0000 0.0000 0.0000 21.7263 0.0000 0.0000
# 5 0.0000 0.0000 0.0000 0.0000 8.5178 0.0000
# 6 0.0000 0.0000 0.0000 0.0000 0.0000 -6.1191
#
#
#
# Elastic Compliance Matrix: (Units=1/GPa)
#
#
# Indices 1 2 3 4 5 6 
#
# 1 0.027795 -0.005357 -0.001444 0.000000 0.000000 0.000000
# 2 -0.005357 0.008007 -0.005417 0.000000 0.000000 0.000000
# 3 -0.001444 -0.005417 0.014723 0.000000 0.000000 0.000000
# 4 0.000000 0.000000 0.000000 0.046027 0.000000 0.000000
# 5 0.000000 0.000000 0.000000 0.000000 0.117401 0.000000
# 6 0.000000 0.000000 0.000000 0.000000 0.000000 -0.163422
#
#
# Mechanical properties :
#
#
# Convention : Reuss Voigt Hill
#
# Bulk Modulus (GPa) = 38.33014 72.27287 55.30151
# Shear Modulus (GPa) = 59.76385 18.72051 39.24218
#
# Velocity S-wave (km/s) = 5.47408 3.06373 4.43576
# Velocity P-wave (km/s) = 7.69238 6.98232 7.34594
#
# Compressibility (1/GPa) = 0.02608913
#
# Stress axis : x y z
#
# Youngs Moduli (GPa) = 35.97812 124.88509 67.92179
#
# Poissons Ratio (x) = 0.66900 0.09808
# Poissons Ratio (y) = 0.19273 0.36793
# Poissons Ratio (z) = 0.05195 0.67650
#
# Static dielectric constant tensor:
#      x y z
#    x 3.318370 0.000000 0.000000 
#    y 0.000000 3.896590 0.000000 
#    z 0.000000 0.000000 3.726610 
# 
# 
# High freq. dielectric constant tensor:
#      x y z
#    x 1.753710 0.000000 0.000000 
#    y 0.000000 1.784440 0.000000 
#    z 0.000000 0.000000 1.760960 
# 
# From -- ./inp_files/1744.got.cif
#   From: 2010.03.12/outbox.cif.g09.slc.cpg/sg47_1_cif.got.tgz:1744.got - 2010.04.14 03:12:58.
