data_PCOD8201607
_publ_section_title
;
Structure prediction by ZEFSAII (Michael W. Deem and Ramdas Pophale) SiO2 
 PCOD8201607
Probable space group: P N N N
;
_chemical_formula_sum "Si O2"
_cell_formula_units_Z 64
_cell_length_a 22.964531
_cell_length_b 8.803291
_cell_length_c 15.535663
_cell_angle_alpha 90.000000
_cell_angle_beta 90.000000
_cell_angle_gamma 90.000000
_cell_volume 3140.743216
_symmetry_space_group_name_H-M "P N N N"
_symmetry_group_IT_number 48
_space_group.IT_coordinate_system_code '2'
_symmetry_cell_setting 'orthorhombic'
loop_
_space_group_symop_operation_xyz
x,y,z
1/2-x,1/2-y,z
x,1/2-y,1/2-z
1/2-x,y,1/2-z
-x,-y,-z
1/2+x,1/2+y,-z
-x,1/2+y,1/2+z
1/2+x,-y,1/2+z
loop_
_atom_site_type_symbol
_atom_site_label
_atom_site_fract_x
_atom_site_fract_y
_atom_site_fract_z
Si Si1 0.971836 0.370491 0.056637
Si Si2 0.429254 0.065619 0.667097
Si Si3 0.726546 0.091543 0.580644
Si Si4 0.197650 0.355301 0.995704
Si Si5 0.457076 0.404247 0.126900
Si Si6 0.895349 0.110728 0.008143
Si Si7 0.099301 0.108568 0.645871
Si Si8 0.333796 0.330394 0.165417
O O1 0.924452 0.276180 0.001761
O O2 0.938470 0.459196 0.130783
O O3 0.019413 0.259678 0.098059
O O4 0.000000 0.500000 0.000000
O O5 0.436198 0.235383 0.627484
O O6 0.389230 0.086502 0.752132
O O7 0.494459 0.997944 0.680797
O O8 0.394044 0.951981 0.605423
O O9 0.750000 0.250000 0.619531
O O10 0.670258 0.121394 0.522463
O O11 0.778025 0.018821 0.523975
O O12 0.707983 0.976663 0.656149
O O13 0.250000 0.250000 0.961767
O O14 0.155713 0.384599 0.915182
O O15 0.167928 0.271813 0.078354
O O16 0.400104 0.380301 0.185616
O O17 0.437026 0.496206 0.043127
O O18 0.308964 0.250000 0.250000
#
# Coordination Sequence:
#
# PCOD8201607 Si02
#       8
#     8   8   8   8   8   8   8   8
#     4  11  20  32  58  85 117 154 199 238 297 368
#     4  10  21  37  56  84 126 159 199 245 302 358
#     4  10  21  39  64  89 119 155 198 257 311 354
#     4  10  21  40  62  85 116 161 213 252 308 366
#     4  10  21  36  60  84 121 158 193 241 307 368
#     4  10  20  38  60  87 119 161 201 247 304 367
#     4  11  22  36  56  87 119 161 204 253 292 359
#     4  10  22  39  64  88 118 154 206 252 305 384
#
# _framework density 20.377341999999999
#
# number of rings (size 3 to 8) (size 9 to 14) (size 15 to 20)
#    0.000    1.750    0.000    6.750    1.750    3.750 
#    0.000    5.625    0.000    0.750    0.000    0.000 
#    0.000    0.000    0.000    0.000    0.000    0.000 
#
# Total GULP energy -793201.755670 kJ/mol
# GULP energy per Si atom -12393.777432 kJ/mol
# Density = 2.033096 g / cm^3
# Si number density = 20.377342 Si / 1000 Ang^3
#
#
#
# Elastic Constant Matrix: (Units=GPa)
#
#
# Indices 1 2 3 4 5 6 
#
# 1 115.1134 60.8099 55.8984 0.0000 0.0000 0.0000
# 2 60.8099 162.6782 52.7846 0.0000 0.0000 0.0000
# 3 55.8984 52.7846 105.5113 0.0000 0.0000 0.0000
# 4 0.0000 0.0000 0.0000 29.6484 0.0000 0.0000
# 5 0.0000 0.0000 0.0000 0.0000 13.2704 0.0000
# 6 0.0000 0.0000 0.0000 0.0000 0.0000 33.8183
#
#
#
# Elastic Compliance Matrix: (Units=1/GPa)
#
#
# Indices 1 2 3 4 5 6 
#
# 1 0.012889 -0.003107 -0.005274 0.000000 0.000000 0.000000
# 2 -0.003107 0.008087 -0.002400 0.000000 0.000000 0.000000
# 3 -0.005274 -0.002400 0.013473 0.000000 0.000000 0.000000
# 4 0.000000 0.000000 0.000000 0.033729 0.000000 0.000000
# 5 0.000000 0.000000 0.000000 0.000000 0.075356 0.000000
# 6 0.000000 0.000000 0.000000 0.000000 0.000000 0.029570
#
#
# Mechanical properties :
#
#
# Convention : Reuss Voigt Hill
#
# Bulk Modulus (GPa) = 77.59717 80.25430 78.92573
# Shear Modulus (GPa) = 25.13055 29.60143 27.36599
#
# Velocity S-wave (km/s) = 3.51559 3.81552 3.66862
# Velocity P-wave (km/s) = 7.39202 7.67336 7.53400
#
# Compressibility (1/GPa) = 0.01288707
#
# Stress axis : x y z
#
# Youngs Moduli (GPa) = 77.58257 123.65365 74.22486
#
# Poissons Ratio (x) = 0.38416 0.39150
# Poissons Ratio (y) = 0.24103 0.17813
# Poissons Ratio (z) = 0.40921 0.29675
#
# Static dielectric constant tensor:
#      x y z
#    x 3.848000 0.000000 0.000000 
#    y 0.000000 4.221490 0.000000 
#    z 0.000000 0.000000 3.504180 
# 
# 
# High freq. dielectric constant tensor:
#      x y z
#    x 1.796130 0.000000 0.000000 
#    y 0.000000 1.814830 0.000000 
#    z 0.000000 0.000000 1.776110 
# 
# From -- ./inp_files/28662.got.cif
#   From: 2010.06.25/outbox.cif.g09.slc.cpg/sg48_15_cif.got.tgz:28662.got - 2010.06.26 18:06:46.
