data_PCOD8201121
_publ_section_title
;
Structure prediction by ZEFSAII (Michael W. Deem and Ramdas Pophale) SiO2 
 PCOD8201121
Probable space group: P M M M
;
_chemical_formula_sum "Si O2"
_cell_formula_units_Z 64
_cell_length_a 25.029256
_cell_length_b 9.777860
_cell_length_c 14.954505
_cell_angle_alpha 90.000000
_cell_angle_beta 90.000000
_cell_angle_gamma 90.000000
_cell_volume 3659.854308
_symmetry_space_group_name_H-M "P M M M"
_symmetry_group_IT_number 47
_symmetry_cell_setting 'orthorhombic'
loop_
_space_group_symop_operation_xyz
x,y,z
-x,-y,z
x,-y,-z
-x,y,-z
-x,-y,-z
x,y,-z
-x,y,z
x,-y,z
loop_
_atom_site_type_symbol
_atom_site_label
_atom_site_fract_x
_atom_site_fract_y
_atom_site_fract_z
Si Si1 0.559124 0.837700 0.900901
Si Si2 0.851388 0.838691 0.900357
Si Si3 0.235069 0.159669 0.240631
Si Si4 0.063314 0.346610 0.599042
Si Si5 0.358585 0.840066 0.756083
Si Si6 0.232875 0.653109 0.598832
Si Si7 0.061853 0.159571 0.240140
Si Si8 0.359571 0.652022 0.401444
O O1 0.500000 0.791802 0.867791
O O2 0.605408 0.781792 0.836551
O O3 0.561965 0.000000 0.903931
O O4 0.569823 0.778615 0.000000
O O5 0.798288 0.793441 0.846404
O O6 0.904380 0.792962 0.846345
O O7 0.851504 0.000000 0.910938
O O8 0.851332 0.771857 0.000000
O O9 0.297012 0.193951 0.221657
O O10 0.212194 0.241256 0.326428
O O11 0.226594 0.000000 0.261272
O O12 0.084624 0.304743 0.500000
O O13 0.083151 0.500000 0.622505
O O14 0.084288 0.241375 0.673777
O O15 0.000000 0.342622 0.597832
O O16 0.380404 0.763773 0.668237
O O17 0.367083 0.000000 0.739533
O O18 0.211138 0.694878 0.500000
O O19 0.212858 0.500000 0.622767
O O20 0.296185 0.656210 0.596357
O O21 0.000000 0.192913 0.219973
O O22 0.070613 0.000000 0.260831
O O23 0.381983 0.688643 0.500000
O O24 0.378823 0.500000 0.373386
#
# Coordination Sequence:
#
# PCOD8201121 Si02
#       8
#     8   8   8   8   8   8   8   8
#     4   8  14  25  41  62  88 114 139 173 217 257
#     4   9  18  32  47  63  87 116 142 175 221 262
#     4   9  17  28  43  65  90 114 141 174 213 254
#     4   8  14  26  45  68  93 119 142 166 206 259
#     4   9  16  25  42  68  89 108 142 181 210 245
#     4   8  14  26  44  64  87 116 146 174 207 250
#     4   9  17  29  47  69  87 108 145 185 213 244
#     4   8  14  25  41  61  86 117 148 174 207 253
#
# _framework density 17.487034000000001
#
# number of rings (size 3 to 8) (size 9 to 14) (size 15 to 20)
#    0.000    3.500    0.000    1.500    0.000    1.500 
#    0.000    8.750    0.000    6.375    0.000    8.750 
#    0.000    0.000    0.000    0.000    0.000    0.000 
#
# Total GULP energy -793055.735027 kJ/mol
# GULP energy per Si atom -12391.495860 kJ/mol
# Density = 1.744723 g / cm^3
# Si number density = 17.487034 Si / 1000 Ang^3
#
#
#
# Elastic Constant Matrix: (Units=GPa)
#
#
# Indices 1 2 3 4 5 6 
#
# 1 72.8438 27.9282 62.4725 0.0000 0.0000 0.0000
# 2 27.9282 53.8044 62.7901 0.0000 0.0000 0.0000
# 3 62.4725 62.7901 172.1317 0.0000 0.0000 0.0000
# 4 0.0000 0.0000 0.0000 8.0315 0.0000 0.0000
# 5 0.0000 0.0000 0.0000 0.0000 -5.5177 0.0000
# 6 0.0000 0.0000 0.0000 0.0000 0.0000 5.3531
#
#
#
# Elastic Compliance Matrix: (Units=1/GPa)
#
#
# Indices 1 2 3 4 5 6 
#
# 1 0.020278 -0.003373 -0.006129 0.000000 0.000000 0.000000
# 2 -0.003373 0.032924 -0.010786 0.000000 0.000000 0.000000
# 3 -0.006129 -0.010786 0.011968 0.000000 0.000000 0.000000
# 4 0.000000 0.000000 0.000000 0.124509 0.000000 0.000000
# 5 0.000000 0.000000 0.000000 0.000000 -0.181236 0.000000
# 6 0.000000 0.000000 0.000000 0.000000 0.000000 0.186809
#
#
# Mechanical properties :
#
#
# Convention : Reuss Voigt Hill
#
# Bulk Modulus (GPa) = 40.65980 67.24019 53.94999
# Shear Modulus (GPa) = 20.48968 11.27933 15.88451
#
# Velocity S-wave (km/s) = 3.42673 2.54246 3.01717
# Velocity P-wave (km/s) = 6.24168 6.86686 6.56172
#
# Compressibility (1/GPa) = 0.02459432
#
# Stress axis : x y z
#
# Youngs Moduli (GPa) = 49.31558 30.37336 83.55333
#
# Poissons Ratio (x) = 0.10244 0.51211
# Poissons Ratio (y) = 0.16633 0.90119
# Poissons Ratio (z) = 0.30226 0.32760
#
# Static dielectric constant tensor:
#      x y z
#    x 3.111010 0.000000 0.000000 
#    y 0.000000 3.118130 0.000000 
#    z 0.000000 0.000000 3.724870 
# 
# 
# High freq. dielectric constant tensor:
#      x y z
#    x 1.657660 0.000000 0.000000 
#    y 0.000000 1.643420 0.000000 
#    z 0.000000 0.000000 1.677600 
# 
# From -- ./inp_files/19661.got.cif
#   From: 2010.03.12/outbox.cif.g09.slc.cpg/sg47_10_cif.got.tgz:19661.got - 2010.04.14 03:12:58.
