data_PCOD8201513
_publ_section_title
;
Structure prediction by ZEFSAII (Michael W. Deem and Ramdas Pophale) SiO2 
 PCOD8201513
Probable space group: P N N N
;
_chemical_formula_sum "Si O2"
_cell_formula_units_Z 34
_cell_length_a 13.902020
_cell_length_b 8.547541
_cell_length_c 15.256955
_cell_angle_alpha 90.000000
_cell_angle_beta 90.000000
_cell_angle_gamma 90.000000
_cell_volume 1812.954760
_symmetry_space_group_name_H-M "P N N N"
_symmetry_group_IT_number 48
_space_group.IT_coordinate_system_code '2'
_symmetry_cell_setting 'orthorhombic'
loop_
_space_group_symop_operation_xyz
x,y,z
1/2-x,1/2-y,z
x,1/2-y,1/2-z
1/2-x,y,1/2-z
-x,-y,-z
1/2+x,1/2+y,-z
-x,1/2+y,1/2+z
1/2+x,-y,1/2+z
loop_
_atom_site_type_symbol
_atom_site_label
_atom_site_fract_x
_atom_site_fract_y
_atom_site_fract_z
Si Si1 0.041547 0.218562 0.649068
Si Si2 0.312639 0.109798 0.522095
Si Si3 0.856246 0.081758 0.396247
Si Si4 0.855813 0.302229 0.557649
Si Si5 0.750000 0.250000 0.250000
O O1 0.068727 0.250000 0.750000
O O2 0.107172 0.326327 0.587698
O O3 0.929908 0.257363 0.633785
O O4 0.056461 0.037618 0.621518
O O5 0.250000 0.250000 0.477049
O O6 0.239701 0.005477 0.576030
O O7 0.361192 0.991787 0.452319
O O8 0.885988 0.213210 0.467472
O O9 0.827035 0.154258 0.304952
O O10 0.750000 0.250000 0.588616
#
# Coordination Sequence:
#
# PCOD8201513 Si02
#       5
#     8   8   8   8   2
#     4  11  22  33  53  83 111 143 186 228 273 336
#     4   9  18  35  55  80 107 140 177 229 286 335
#     4  10  20  33  56  80 110 139 177 229 289 335
#     4  10  20  38  55  75 109 151 187 222 276 331
#     4  12  16  32  58  80 114 134 178 236 296 332
#
# _framework density 18.753914000000002
#
# number of rings (size 3 to 8) (size 9 to 14) (size 15 to 20)
#    0.000    1.882    3.529    2.824    0.000    3.765 
#    0.000    0.000    0.000    0.000    0.000   13.176 
#    0.000    0.000    0.000    0.000    0.000    0.000 
#
# Total GULP energy -421423.273539 kJ/mol
# GULP energy per Si atom -12394.802163 kJ/mol
# Density = 1.871123 g / cm^3
# Si number density = 18.753914 Si / 1000 Ang^3
#
#
#
# Elastic Constant Matrix: (Units=GPa)
#
#
# Indices 1 2 3 4 5 6 
#
# 1 76.2275 33.1149 23.2680 0.0000 0.0000 0.0000
# 2 33.1149 118.2383 21.4972 0.0000 0.0000 0.0000
# 3 23.2680 21.4972 31.2970 0.0000 0.0000 0.0000
# 4 0.0000 0.0000 0.0000 10.6268 0.0000 0.0000
# 5 0.0000 0.0000 0.0000 0.0000 16.6788 0.0000
# 6 0.0000 0.0000 0.0000 0.0000 0.0000 11.7532
#
#
#
# Elastic Compliance Matrix: (Units=1/GPa)
#
#
# Indices 1 2 3 4 5 6 
#
# 1 0.017828 -0.002952 -0.011227 0.000000 0.000000 0.000000
# 2 -0.002952 0.010153 -0.004779 0.000000 0.000000 0.000000
# 3 -0.011227 -0.004779 0.043581 0.000000 0.000000 0.000000
# 4 0.000000 0.000000 0.000000 0.094102 0.000000 0.000000
# 5 0.000000 0.000000 0.000000 0.000000 0.059956 0.000000
# 6 0.000000 0.000000 0.000000 0.000000 0.000000 0.085083
#
#
# Mechanical properties :
#
#
# Convention : Reuss Voigt Hill
#
# Bulk Modulus (GPa) = 29.72075 42.39144 36.05610
# Shear Modulus (GPa) = 13.89523 17.67059 15.78291
#
# Velocity S-wave (km/s) = 2.72495 3.07291 2.90415
# Velocity P-wave (km/s) = 5.07766 5.93663 5.52386
#
# Compressibility (1/GPa) = 0.03364653
#
# Stress axis : x y z
#
# Youngs Moduli (GPa) = 56.09194 98.49130 22.94553
#
# Poissons Ratio (x) = 0.29073 0.25760
# Poissons Ratio (y) = 0.16558 0.10967
# Poissons Ratio (z) = 0.62973 0.47073
#
# Static dielectric constant tensor:
#      x y z
#    x 3.459900 0.000000 0.000000 
#    y 0.000000 4.216330 0.000000 
#    z 0.000000 0.000000 3.158690 
# 
# 
# High freq. dielectric constant tensor:
#      x y z
#    x 1.725680 0.000000 0.000000 
#    y 0.000000 1.748140 0.000000 
#    z 0.000000 0.000000 1.692380 
# 
# From -- ./inp_files/10320.got.cif
#   From: 2010.06.25/outbox.cif.g09.slc.cpg/sg48_6_cif.got.tgz:10320.got - 2010.06.26 18:06:46.
