data_PCOD8201767
_publ_section_title
;
Structure prediction by ZEFSAII (Michael W. Deem and Ramdas Pophale) SiO2 
 PCOD8201767
Probable space group: P N N N
;
_chemical_formula_sum "Si O2"
_cell_formula_units_Z 34
_cell_length_a 11.683790
_cell_length_b 16.180259
_cell_length_c 8.083993
_cell_angle_alpha 90.000000
_cell_angle_beta 90.000000
_cell_angle_gamma 90.000000
_cell_volume 1528.252590
_symmetry_space_group_name_H-M "P N N N"
_symmetry_group_IT_number 48
_space_group.IT_coordinate_system_code '2'
_symmetry_cell_setting 'orthorhombic'
loop_
_space_group_symop_operation_xyz
x,y,z
1/2-x,1/2-y,z
x,1/2-y,1/2-z
1/2-x,y,1/2-z
-x,-y,-z
1/2+x,1/2+y,-z
-x,1/2+y,1/2+z
1/2+x,-y,1/2+z
loop_
_atom_site_type_symbol
_atom_site_label
_atom_site_fract_x
_atom_site_fract_y
_atom_site_fract_z
Si Si1 0.548006 0.846034 0.589172
Si Si2 0.432667 0.705661 0.407278
Si Si3 0.250000 0.250000 0.250000
Si Si4 0.877482 0.601550 0.247756
Si Si5 0.630788 0.417187 0.334149
O O1 0.459192 0.773064 0.546257
O O2 0.670413 0.809999 0.641683
O O3 0.570714 0.907320 0.433731
O O4 0.484478 0.893563 0.736219
O O5 0.369137 0.750000 0.250000
O O6 0.553739 0.670977 0.348035
O O7 0.362096 0.629890 0.488418
O O8 0.750000 0.636324 0.250000
O O9 0.878766 0.515697 0.145752
O O10 0.750000 0.392700 0.250000
#
# Coordination Sequence:
#
# PCOD8201767 Si02
#       5
#     8   8   2   8   8
#     4  11  22  38  63  93 123 168 215 267 325 383
#     4  10  21  40  63  91 124 164 216 270 321 385
#     4  12  20  36  64  92 128 160 224 278 332 356
#     4  10  22  39  64  93 131 166 213 272 330 383
#     4  11  23  42  63  90 131 175 213 262 329 389
#
# _framework density 22.247631999999999
#
# number of rings (size 3 to 8) (size 9 to 14) (size 15 to 20)
#    0.000    1.412    2.353    2.824    0.000    5.176 
#    0.000    8.235    0.000    0.000    0.000    0.000 
#    0.000    0.000    0.000    0.000    0.000    0.000 
#
# Total GULP energy -421475.283682 kJ/mol
# GULP energy per Si atom -12396.331873 kJ/mol
# Density = 2.219700 g / cm^3
# Si number density = 22.247632 Si / 1000 Ang^3
#
#
#
# Elastic Constant Matrix: (Units=GPa)
#
#
# Indices 1 2 3 4 5 6 
#
# 1 78.1818 12.9434 7.6613 0.0000 0.0000 0.0000
# 2 12.9434 82.6654 29.8754 0.0000 0.0000 0.0000
# 3 7.6613 29.8754 75.0330 0.0000 0.0000 0.0000
# 4 0.0000 0.0000 0.0000 43.5288 0.0000 0.0000
# 5 0.0000 0.0000 0.0000 0.0000 10.2098 0.0000
# 6 0.0000 0.0000 0.0000 0.0000 0.0000 21.7678
#
#
#
# Elastic Compliance Matrix: (Units=1/GPa)
#
#
# Indices 1 2 3 4 5 6 
#
# 1 0.013155 -0.001839 -0.000611 0.000000 0.000000 0.000000
# 2 -0.001839 0.014387 -0.005541 0.000000 0.000000 0.000000
# 3 -0.000611 -0.005541 0.015596 0.000000 0.000000 0.000000
# 4 0.000000 0.000000 0.000000 0.022973 0.000000 0.000000
# 5 0.000000 0.000000 0.000000 0.000000 0.097945 0.000000
# 6 0.000000 0.000000 0.000000 0.000000 0.000000 0.045939
#
#
# Mechanical properties :
#
#
# Convention : Reuss Voigt Hill
#
# Bulk Modulus (GPa) = 36.82298 37.42671 37.12485
# Shear Modulus (GPa) = 21.27392 27.46130 24.36761
#
# Velocity S-wave (km/s) = 3.09566 3.51714 3.31311
# Velocity P-wave (km/s) = 5.41893 5.77521 5.59990
#
# Compressibility (1/GPa) = 0.02715695
#
# Stress axis : x y z
#
# Youngs Moduli (GPa) = 76.01663 69.50559 64.11905
#
# Poissons Ratio (x) = 0.12782 0.03918
# Poissons Ratio (y) = 0.13979 0.35527
# Poissons Ratio (z) = 0.04645 0.38511
#
# Static dielectric constant tensor:
#      x y z
#    x 3.840360 0.000000 0.000000 
#    y 0.000000 4.008710 0.000000 
#    z 0.000000 0.000000 4.131280 
# 
# 
# High freq. dielectric constant tensor:
#      x y z
#    x 1.869690 0.000000 0.000000 
#    y 0.000000 1.878930 0.000000 
#    z 0.000000 0.000000 1.874550 
# 
# From -- ./inp_files/10288.got.cif
#   From: 2010.06.25/outbox.cif.g09.slc.cpg/sg48_6_cif.got.tgz:10288.got - 2010.06.26 18:06:46.
