data_PCOD8201339
_publ_section_title
;
Structure prediction by ZEFSAII (Michael W. Deem and Ramdas Pophale) SiO2 
 PCOD8201339
Probable space group: P N N N
;
_chemical_formula_sum "Si O2"
_cell_formula_units_Z 64
_cell_length_a 18.652377
_cell_length_b 10.593835
_cell_length_c 18.489390
_cell_angle_alpha 90.000000
_cell_angle_beta 90.000000
_cell_angle_gamma 90.000000
_cell_volume 3653.507241
_symmetry_space_group_name_H-M "P N N N"
_symmetry_group_IT_number 48
_space_group.IT_coordinate_system_code '2'
_symmetry_cell_setting 'orthorhombic'
loop_
_space_group_symop_operation_xyz
x,y,z
1/2-x,1/2-y,z
x,1/2-y,1/2-z
1/2-x,y,1/2-z
-x,-y,-z
1/2+x,1/2+y,-z
-x,1/2+y,1/2+z
1/2+x,-y,1/2+z
loop_
_atom_site_type_symbol
_atom_site_label
_atom_site_fract_x
_atom_site_fract_y
_atom_site_fract_z
Si Si1 0.509071 0.591962 0.604860
Si Si2 0.756779 0.392832 0.059339
Si Si3 0.612126 0.514397 0.018323
Si Si4 0.051816 0.601875 0.747269
Si Si5 0.314021 0.451575 0.697015
Si Si6 0.112518 0.997737 0.503241
Si Si7 0.014645 0.384868 0.404145
Si Si8 0.165846 0.265546 0.919755
O O1 0.502597 0.563289 0.689381
O O2 0.433858 0.559925 0.568208
O O3 0.570082 0.500082 0.572375
O O4 0.528261 0.736745 0.592585
O O5 0.750000 0.250000 0.084975
O O6 0.685848 0.438879 0.018945
O O7 0.779960 0.470288 0.130302
O O8 0.817867 0.408786 0.997799
O O9 0.552187 0.419004 0.045926
O O10 0.622025 0.635394 0.071317
O O11 0.587652 0.552966 0.936580
O O12 0.072155 0.750000 0.750000
O O13 0.126238 0.525802 0.756443
O O14 0.007165 0.566854 0.675623
O O15 0.250000 0.414435 0.750000
O O16 0.345639 0.322534 0.661457
O O17 0.134039 0.140702 0.520740
O O18 0.250000 0.250000 0.936344
#
# Coordination Sequence:
#
# PCOD8201339 Si02
#       8
#     8   8   8   8   8   8   8   8
#     4  10  18  35  56  79 109 135 190 227 273 331
#     4  11  22  36  55  82 109 143 187 230 271 325
#     4  11  21  37  55  77 108 144 193 225 273 325
#     4  10  21  35  52  81 112 143 179 224 280 326
#     4  11  23  34  51  80 116 154 177 217 276 339
#     4  10  19  32  56  82 101 147 179 229 274 317
#     4  10  22  35  55  77 106 149 178 234 273 321
#     4  11  20  37  51  77 111 143 184 223 271 330
#
# _framework density 17.517415
#
# number of rings (size 3 to 8) (size 9 to 14) (size 15 to 20)
#    0.000    1.500    6.250    1.500    3.500    0.250 
#    0.000    0.000    0.000    0.750    0.000    4.375 
#    0.000    0.000    0.000    0.000    0.000    0.000 
#
# Total GULP energy -793209.169057 kJ/mol
# GULP energy per Si atom -12393.893267 kJ/mol
# Density = 1.747754 g / cm^3
# Si number density = 17.517415 Si / 1000 Ang^3
#
#
#
# Elastic Constant Matrix: (Units=GPa)
#
#
# Indices 1 2 3 4 5 6 
#
# 1 89.1779 13.3411 52.5074 0.0000 0.0000 0.0000
# 2 13.3411 33.0679 28.3598 0.0000 0.0000 0.0000
# 3 52.5074 28.3598 103.4980 0.0000 0.0000 0.0000
# 4 0.0000 0.0000 0.0000 52.7798 0.0000 0.0000
# 5 0.0000 0.0000 0.0000 0.0000 30.7849 0.0000
# 6 0.0000 0.0000 0.0000 0.0000 0.0000 27.7709
#
#
#
# Elastic Compliance Matrix: (Units=1/GPa)
#
#
# Indices 1 2 3 4 5 6 
#
# 1 0.016001 0.000662 -0.008299 0.000000 0.000000 0.000000
# 2 0.000662 0.039558 -0.011175 0.000000 0.000000 0.000000
# 3 -0.008299 -0.011175 0.016935 0.000000 0.000000 0.000000
# 4 0.000000 0.000000 0.000000 0.018947 0.000000 0.000000
# 5 0.000000 0.000000 0.000000 0.000000 0.032483 0.000000
# 6 0.000000 0.000000 0.000000 0.000000 0.000000 0.036009
#
#
# Mechanical properties :
#
#
# Convention : Reuss Voigt Hill
#
# Bulk Modulus (GPa) = 28.67903 46.01782 37.34843
# Shear Modulus (GPa) = 23.90287 31.03617 27.46952
#
# Velocity S-wave (km/s) = 3.69795 4.21376 3.96425
# Velocity P-wave (km/s) = 5.88561 7.07115 6.50544
#
# Compressibility (1/GPa) = 0.03486868
#
# Stress axis : x y z
#
# Youngs Moduli (GPa) = 62.49606 25.27947 59.05080
#
# Poissons Ratio (x) = -0.01674 0.49007
# Poissons Ratio (y) = -0.04137 0.65990
# Poissons Ratio (z) = 0.51867 0.28250
#
# Static dielectric constant tensor:
#      x y z
#    x 3.384490 0.000000 0.000000 
#    y 0.000000 3.458360 0.000000 
#    z 0.000000 0.000000 3.313120 
# 
# 
# High freq. dielectric constant tensor:
#      x y z
#    x 1.673640 0.000000 0.000000 
#    y 0.000000 1.683500 0.000000 
#    z 0.000000 0.000000 1.656540 
# 
# From -- ./inp_files/31252.got.cif
#   From: 2010.06.25/outbox.cif.g09.slc.cpg/sg48_16_cif.got.tgz:31252.got - 2010.06.26 18:06:46.
