data_PCOD8201911
_publ_section_title
;
Structure prediction by ZEFSAII (Michael W. Deem and Ramdas Pophale) SiO2 
 PCOD8201911
Probable space group: P N N N
;
_chemical_formula_sum "Si O2"
_cell_formula_units_Z 48
_cell_length_a 14.444326
_cell_length_b 15.504040
_cell_length_c 9.964800
_cell_angle_alpha 90.000000
_cell_angle_beta 90.000000
_cell_angle_gamma 90.000000
_cell_volume 2231.571202
_symmetry_space_group_name_H-M "P N N N"
_symmetry_group_IT_number 48
_space_group.IT_coordinate_system_code '2'
_symmetry_cell_setting 'orthorhombic'
loop_
_space_group_symop_operation_xyz
x,y,z
1/2-x,1/2-y,z
x,1/2-y,1/2-z
1/2-x,y,1/2-z
-x,-y,-z
1/2+x,1/2+y,-z
-x,1/2+y,1/2+z
1/2+x,-y,1/2+z
loop_
_atom_site_type_symbol
_atom_site_label
_atom_site_fract_x
_atom_site_fract_y
_atom_site_fract_z
Si Si1 0.047335 0.569981 0.808418
Si Si2 0.582799 0.914992 0.046385
Si Si3 0.499695 0.747488 0.096251
Si Si4 0.245059 0.509176 0.091506
Si Si5 0.676776 0.321129 0.444354
Si Si6 0.938396 0.576624 0.547838
O O1 0.135561 0.634849 0.807144
O O2 0.012370 0.577444 0.962226
O O3 0.970844 0.597233 0.700385
O O4 0.078823 0.468811 0.811076
O O5 0.664765 0.943579 0.949252
O O6 0.586073 0.813934 0.080563
O O7 0.469521 0.750000 0.250000
O O8 0.405265 0.771348 0.020895
O O9 0.543161 0.658097 0.045829
O O10 0.250000 0.520627 0.250000
O O11 0.335335 0.459639 0.037985
O O12 0.228720 0.604162 0.030576
O O13 0.750000 0.250000 0.399923
O O14 0.000000 0.500000 0.500000
#
# Coordination Sequence:
#
# PCOD8201911 Si02
#       6
#     8   8   8   8   8   8
#     4   9  19  40  63  90 136 175 210 273 347 404
#     4   9  19  40  64  91 126 175 220 272 337 393
#     4  11  25  42  65  96 136 181 223 279 343 407
#     4  11  23  41  69  98 129 174 232 282 329 407
#     4  10  23  40  69 103 133 174 225 282 340 400
#     4  12  25  41  65 100 135 178 224 276 343 413
#
# _framework density 21.509509000000001
#
# number of rings (size 3 to 8) (size 9 to 14) (size 15 to 20)
#    0.000    1.667    1.667    3.000    4.667    3.333 
#    0.000   15.833    0.000    0.000    0.000    0.000 
#    0.000    0.000    0.000    0.000    0.000    0.000 
#
# Total GULP energy -594642.851312 kJ/mol
# GULP energy per Si atom -12388.392736 kJ/mol
# Density = 2.146055 g / cm^3
# Si number density = 21.509509 Si / 1000 Ang^3
#
#
#
# Elastic Constant Matrix: (Units=GPa)
#
#
# Indices 1 2 3 4 5 6 
#
# 1 113.2361 60.8151 9.4537 0.0000 0.0000 0.0000
# 2 60.8151 160.7352 14.9748 0.0000 0.0000 0.0000
# 3 9.4537 14.9748 37.2954 0.0000 0.0000 0.0000
# 4 0.0000 0.0000 0.0000 24.1287 0.0000 0.0000
# 5 0.0000 0.0000 0.0000 0.0000 31.3557 0.0000
# 6 0.0000 0.0000 0.0000 0.0000 0.0000 42.7615
#
#
#
# Elastic Compliance Matrix: (Units=1/GPa)
#
#
# Indices 1 2 3 4 5 6 
#
# 1 0.011133 -0.004103 -0.001175 0.000000 0.000000 0.000000
# 2 -0.004103 0.007975 -0.002162 0.000000 0.000000 0.000000
# 3 -0.001175 -0.002162 0.027979 0.000000 0.000000 0.000000
# 4 0.000000 0.000000 0.000000 0.041444 0.000000 0.000000
# 5 0.000000 0.000000 0.000000 0.000000 0.031892 0.000000
# 6 0.000000 0.000000 0.000000 0.000000 0.000000 0.023386
#
#
# Mechanical properties :
#
#
# Convention : Reuss Voigt Hill
#
# Bulk Modulus (GPa) = 31.04858 53.52821 42.28839
# Shear Modulus (GPa) = 29.51187 34.71739 32.11463
#
# Velocity S-wave (km/s) = 3.70812 4.02188 3.86818
# Velocity P-wave (km/s) = 5.72710 6.81962 6.29710
#
# Compressibility (1/GPa) = 0.03220760
#
# Stress axis : x y z
#
# Youngs Moduli (GPa) = 89.82671 125.39015 35.74131
#
# Poissons Ratio (x) = 0.51443 0.04198
# Poissons Ratio (y) = 0.36853 0.07728
# Poissons Ratio (z) = 0.10551 0.27112
#
# Static dielectric constant tensor:
#      x y z
#    x 3.611530 0.000000 0.000000 
#    y 0.000000 4.283550 0.000000 
#    z 0.000000 0.000000 5.588480 
# 
# 
# High freq. dielectric constant tensor:
#      x y z
#    x 1.840890 0.000000 0.000000 
#    y 0.000000 1.862230 0.000000 
#    z 0.000000 0.000000 1.837180 
# 
# From -- ./inp_files/21238.got.cif
#   From: 2010.06.25/outbox.cif.g09.slc.cpg/sg48_11_cif.got.tgz:21238.got - 2010.06.26 18:06:46.
