data_PCOD8201164
_publ_section_title
;
Structure prediction by ZEFSAII (Michael W. Deem and Ramdas Pophale) SiO2 
 PCOD8201164
Probable space group: P M M M
;
_chemical_formula_sum "Si O2"
_cell_formula_units_Z 44
_cell_length_a 9.877663
_cell_length_b 28.129163
_cell_length_c 9.221664
_cell_angle_alpha 90.000000
_cell_angle_beta 90.000000
_cell_angle_gamma 90.000000
_cell_volume 2562.242963
_symmetry_space_group_name_H-M "P M M M"
_symmetry_group_IT_number 47
_symmetry_cell_setting 'orthorhombic'
loop_
_space_group_symop_operation_xyz
x,y,z
-x,-y,z
x,-y,-z
-x,y,-z
-x,-y,-z
x,y,-z
-x,y,z
x,-y,z
loop_
_atom_site_type_symbol
_atom_site_label
_atom_site_fract_x
_atom_site_fract_y
_atom_site_fract_z
Si Si1 0.843327 0.815047 0.330111
Si Si2 0.160967 0.908555 0.163923
Si Si3 0.650054 0.267954 0.327651
Si Si4 0.838426 0.000000 0.664492
Si Si5 0.847248 0.446234 0.170621
Si Si6 0.657613 0.626064 0.333045
O O1 0.819251 0.824319 0.500000
O O2 0.789963 0.860978 0.244261
O O3 0.758730 0.770156 0.270659
O O4 0.000000 0.804524 0.297124
O O5 0.217917 0.953740 0.251990
O O6 0.000000 0.910533 0.162350
O O7 0.218047 0.909491 0.000000
O O8 0.647743 0.268573 0.500000
O O9 0.500000 0.254345 0.269949
O O10 0.690116 0.320778 0.274170
O O11 0.782973 0.000000 0.500000
O O12 0.000000 0.000000 0.663467
O O13 0.815104 0.500000 0.220626
O O14 0.742706 0.411239 0.243751
O O15 0.000000 0.432588 0.216681
O O16 0.830148 0.441720 0.000000
O O17 0.699729 0.621603 0.500000
O O18 0.500000 0.614614 0.311843
#
# Coordination Sequence:
#
# PCOD8201164 Si02
#       6
#     8   8   8   4   8   8
#     4   9  16  26  42  64  87 112 146 184 217 255
#     4   9  16  25  37  56  85 117 145 177 221 267
#     4   8  15  29  47  66  90 119 149 183 224 268
#     4   9  15  23  37  57  82 113 148 183 218 260
#     4   9  19  35  51  68  94 127 160 193 231 278
#     4   9  18  32  50  73  98 122 153 195 238 279
#
# _framework density 17.172456
#
# number of rings (size 3 to 8) (size 9 to 14) (size 15 to 20)
#    0.000    3.182    0.000    2.455    0.000    5.455 
#    0.000    5.455    0.000    3.818    0.000    0.636 
#    0.000    5.091    0.000    0.000    0.000    0.000 
#
# Total GULP energy -545444.413271 kJ/mol
# GULP energy per Si atom -12396.463938 kJ/mol
# Density = 1.713337 g / cm^3
# Si number density = 17.172456 Si / 1000 Ang^3
#
#
#
# Elastic Constant Matrix: (Units=GPa)
#
#
# Indices 1 2 3 4 5 6 
#
# 1 55.0316 66.2268 30.1505 0.0000 0.0000 0.0000
# 2 66.2268 156.6291 57.6272 0.0000 0.0000 0.0000
# 3 30.1505 57.6272 68.3013 0.0000 0.0000 0.0000
# 4 0.0000 0.0000 0.0000 -3.1231 0.0000 0.0000
# 5 0.0000 0.0000 0.0000 0.0000 18.2358 0.0000
# 6 0.0000 0.0000 0.0000 0.0000 0.0000 -0.7105
#
#
#
# Elastic Compliance Matrix: (Units=1/GPa)
#
#
# Indices 1 2 3 4 5 6 
#
# 1 0.037996 -0.014349 -0.004666 0.000000 0.000000 0.000000
# 2 -0.014349 0.014677 -0.006049 0.000000 0.000000 0.000000
# 3 -0.004666 -0.006049 0.021805 0.000000 0.000000 0.000000
# 4 0.000000 0.000000 0.000000 -0.320191 0.000000 0.000000
# 5 0.000000 0.000000 0.000000 0.000000 0.054837 0.000000
# 6 0.000000 0.000000 0.000000 0.000000 0.000000 -1.407422
#
#
# Mechanical properties :
#
#
# Convention : Reuss Voigt Hill
#
# Bulk Modulus (GPa) = 41.06962 65.33011 53.19986
# Shear Modulus (GPa) = -3.24664 11.27759 4.01548
#
# Velocity S-wave (km/s) = -1.37649 2.56545 1.53082
# Velocity P-wave (km/s) = 4.63051 6.84847 5.84564
#
# Compressibility (1/GPa) = 0.02434890
#
# Stress axis : x y z
#
# Youngs Moduli (GPa) = 26.31883 68.13266 45.86119
#
# Poissons Ratio (x) = 0.97762 0.21400
# Poissons Ratio (y) = 0.37764 0.27744
# Poissons Ratio (z) = 0.12281 0.41217
#
# Static dielectric constant tensor:
#      x y z
#    x 2.999870 0.000000 0.000000 
#    y 0.000000 3.443190 0.000000 
#    z 0.000000 0.000000 3.062530 
# 
# 
# High freq. dielectric constant tensor:
#      x y z
#    x 1.628490 0.000000 0.000000 
#    y 0.000000 1.675730 0.000000 
#    z 0.000000 0.000000 1.645900 
# 
# From -- ./inp_files/2199.got.cif
#   From: 2010.03.12/outbox.cif.g09.slc.cpg/sg47_2_cif.got.tgz:2199.got - 2010.04.14 03:12:58.
