data_PCOD8201992
_publ_section_title
;
Structure prediction by ZEFSAII (Michael W. Deem and Ramdas Pophale) SiO2 
 PCOD8201992
Probable space group: P N N N
;
_chemical_formula_sum "Si O2"
_cell_formula_units_Z 52
_cell_length_a 5.208973
_cell_length_b 20.833870
_cell_length_c 22.670754
_cell_angle_alpha 90.000000
_cell_angle_beta 90.000000
_cell_angle_gamma 90.000000
_cell_volume 2460.299740
_symmetry_space_group_name_H-M "P N N N"
_symmetry_group_IT_number 48
_space_group.IT_coordinate_system_code '2'
_symmetry_cell_setting 'orthorhombic'
loop_
_space_group_symop_operation_xyz
x,y,z
1/2-x,1/2-y,z
x,1/2-y,1/2-z
1/2-x,y,1/2-z
-x,-y,-z
1/2+x,1/2+y,-z
-x,1/2+y,1/2+z
1/2+x,-y,1/2+z
loop_
_atom_site_type_symbol
_atom_site_label
_atom_site_fract_x
_atom_site_fract_y
_atom_site_fract_z
Si Si1 0.250000 0.250000 0.461152
Si Si2 0.446837 0.632447 0.998767
Si Si3 0.834914 0.570072 0.185663
Si Si4 0.818796 0.414149 0.615939
Si Si5 0.234386 0.027618 0.463538
Si Si6 0.973750 0.143828 0.406887
Si Si7 0.485456 0.573904 0.712418
O O1 0.366952 0.194100 0.502656
O O2 0.459433 0.281616 0.417629
O O3 0.285775 0.634786 0.060031
O O4 0.532254 0.554650 0.005266
O O5 0.303060 0.633273 0.936234
O O6 0.750000 0.594812 0.250000
O O7 0.603119 0.589177 0.142689
O O8 0.096381 0.604473 0.162990
O O9 0.897834 0.494543 0.186508
O O10 0.778823 0.487845 0.595756
O O11 0.175709 0.100387 0.442138
O O12 0.000000 0.000000 0.500000
O O13 0.000301 0.126595 0.338725
O O14 0.750000 0.568246 0.750000
O O15 0.250000 0.600930 0.750000
#
# Coordination Sequence:
#
# PCOD8201992 Si02
#       7
#     4   8   8   8   8   8   8
#     4  10  26  44  65  86 131 168 228 274 350 368
#     4  11  24  39  65  93 131 170 217 277 337 403
#     4  11  23  38  59  93 141 176 206 253 319 398
#     4  12  22  37  62  98 133 167 212 258 328 403
#     4  11  21  35  57  98 133 164 202 261 334 404
#     4  11  23  41  66  87 129 171 219 274 332 382
#     4  11  24  40  63  92 128 179 224 261 319 384
#
# _framework density 21.135634
#
# number of rings (size 3 to 8) (size 9 to 14) (size 15 to 20)
#    0.000    0.923    3.077    5.077    6.462    0.000 
#    0.000    0.385    0.000    0.000    0.000    0.538 
#    0.000    0.000    0.000    0.000    0.000    0.000 
#
# Total GULP energy -644229.156022 kJ/mol
# GULP energy per Si atom -12389.022231 kJ/mol
# Density = 2.108753 g / cm^3
# Si number density = 21.135634 Si / 1000 Ang^3
#
#
#
# Elastic Constant Matrix: (Units=GPa)
#
#
# Indices 1 2 3 4 5 6 
#
# 1 121.8879 13.4597 46.9150 0.0000 0.0000 0.0000
# 2 13.4597 68.2718 29.1045 0.0000 0.0000 0.0000
# 3 46.9150 29.1045 121.1165 0.0000 0.0000 0.0000
# 4 0.0000 0.0000 0.0000 22.0479 0.0000 0.0000
# 5 0.0000 0.0000 0.0000 0.0000 41.1832 0.0000
# 6 0.0000 0.0000 0.0000 0.0000 0.0000 28.6132
#
#
#
# Elastic Compliance Matrix: (Units=1/GPa)
#
#
# Indices 1 2 3 4 5 6 
#
# 1 0.009649 -0.000344 -0.003655 0.000000 0.000000 0.000000
# 2 -0.000344 0.016331 -0.003791 0.000000 0.000000 0.000000
# 3 -0.003655 -0.003791 0.010583 0.000000 0.000000 0.000000
# 4 0.000000 0.000000 0.000000 0.045356 0.000000 0.000000
# 5 0.000000 0.000000 0.000000 0.000000 0.024282 0.000000
# 6 0.000000 0.000000 0.000000 0.000000 0.000000 0.034949
#
#
# Mechanical properties :
#
#
# Convention : Reuss Voigt Hill
#
# Bulk Modulus (GPa) = 47.65708 54.47052 51.06380
# Shear Modulus (GPa) = 30.53903 33.15534 31.84719
#
# Velocity S-wave (km/s) = 3.80532 3.96497 3.88596
# Velocity P-wave (km/s) = 6.47336 6.84026 6.65934
#
# Compressibility (1/GPa) = 0.02098324
#
# Stress axis : x y z
#
# Youngs Moduli (GPa) = 103.63724 61.23186 94.48885
#
# Poissons Ratio (x) = 0.02108 0.34535
# Poissons Ratio (y) = 0.03567 0.35822
# Poissons Ratio (z) = 0.37878 0.23214
#
# Static dielectric constant tensor:
#      x y z
#    x 4.188740 0.000000 0.000000 
#    y 0.000000 3.647420 0.000000 
#    z 0.000000 0.000000 3.995500 
# 
# 
# High freq. dielectric constant tensor:
#      x y z
#    x 1.849080 0.000000 0.000000 
#    y 0.000000 1.799270 0.000000 
#    z 0.000000 0.000000 1.830030 
# 
# From -- ./inp_files/32929.got.cif
#   From: 2010.06.25/outbox.cif.g09.slc.cpg/sg48_17_cif.got.tgz:32929.got - 2010.06.26 18:06:46.
