data_PCOD8201094
_publ_section_title
;
Structure prediction by ZEFSAII (Michael W. Deem and Ramdas Pophale) SiO2 
 PCOD8201094
Probable space group: P M M M
;
_chemical_formula_sum "Si O2"
_cell_formula_units_Z 52
_cell_length_a 22.726646
_cell_length_b 15.169390
_cell_length_c 9.645214
_cell_angle_alpha 90.000000
_cell_angle_beta 90.000000
_cell_angle_gamma 90.000000
_cell_volume 3325.181320
_symmetry_space_group_name_H-M "P M M M"
_symmetry_group_IT_number 47
_symmetry_cell_setting 'orthorhombic'
loop_
_space_group_symop_operation_xyz
x,y,z
-x,-y,z
x,-y,-z
-x,y,-z
-x,-y,-z
x,y,-z
-x,y,z
x,-y,z
loop_
_atom_site_type_symbol
_atom_site_label
_atom_site_fract_x
_atom_site_fract_y
_atom_site_fract_z
Si Si1 0.101373 0.815564 0.158119
Si Si2 0.564824 0.104419 0.345251
Si Si3 0.767218 0.753233 0.157041
Si Si4 0.809084 0.400901 0.661097
Si Si5 0.064285 0.662677 0.341207
Si Si6 0.672936 0.101642 0.162998
Si Si7 0.930917 0.000000 0.156034
O O1 0.169454 0.795608 0.165251
O O2 0.062821 0.748607 0.246334
O O3 0.092989 0.911551 0.228095
O O4 0.077659 0.813066 0.000000
O O5 0.580652 0.138384 0.500000
O O6 0.500000 0.140488 0.301629
O O7 0.613847 0.136516 0.237188
O O8 0.562852 0.000000 0.345103
O O9 0.767634 0.665869 0.252768
O O10 0.723261 0.829663 0.210211
O O11 0.751465 0.724511 0.000000
O O12 0.799993 0.378666 0.500000
O O13 0.788374 0.500000 0.695769
O O14 0.879002 0.396213 0.700266
O O15 0.071112 0.692462 0.500000
O O16 0.000000 0.614714 0.320474
O O17 0.689037 0.000000 0.205471
O O18 0.662033 0.106461 0.000000
O O19 0.000000 0.000000 0.159808
O O20 0.905802 0.000000 0.000000
#
# Coordination Sequence:
#
# PCOD8201094 Si02
#       7
#     8   8   8   8   8   8   4
#     4   9  17  28  42  57  77 106 138 173 209 247
#     4   8  14  25  40  59  86 120 155 186 214 243
#     4   9  18  30  44  63  86 113 142 176 216 253
#     4   9  18  32  48  64  82 106 137 174 217 265
#     4   9  17  29  44  61  81 102 126 163 213 265
#     4   9  17  27  41  63  91 121 152 182 211 247
#     4   9  16  24  37  57  75  97 136 177 206 240
#
# _framework density 15.638246000000001
#
# number of rings (size 3 to 8) (size 9 to 14) (size 15 to 20)
#    0.000    3.154    0.000    0.923    1.077    2.462 
#    0.000    3.462    0.000    1.385    0.000    4.308 
#    0.000    0.615    0.000    6.769    0.000    5.231 
#
# Total GULP energy -644267.108374 kJ/mol
# GULP energy per Si atom -12389.752084 kJ/mol
# Density = 1.560265 g / cm^3
# Si number density = 15.638246 Si / 1000 Ang^3
#
#
#
# Elastic Constant Matrix: (Units=GPa)
#
#
# Indices 1 2 3 4 5 6 
#
# 1 71.9139 30.6559 30.7790 0.0000 0.0000 0.0000
# 2 30.6559 89.9846 37.0504 0.0000 0.0000 0.0000
# 3 30.7790 37.0504 47.1422 0.0000 0.0000 0.0000
# 4 0.0000 0.0000 0.0000 1.8350 0.0000 0.0000
# 5 0.0000 0.0000 0.0000 0.0000 22.6457 0.0000
# 6 0.0000 0.0000 0.0000 0.0000 0.0000 11.1196
#
#
#
# Elastic Compliance Matrix: (Units=1/GPa)
#
#
# Indices 1 2 3 4 5 6 
#
# 1 0.019557 -0.002078 -0.011136 0.000000 0.000000 0.000000
# 2 -0.002078 0.016650 -0.011729 0.000000 0.000000 0.000000
# 3 -0.011136 -0.011729 0.037702 0.000000 0.000000 0.000000
# 4 0.000000 0.000000 0.000000 0.544965 0.000000 0.000000
# 5 0.000000 0.000000 0.000000 0.000000 0.044158 0.000000
# 6 0.000000 0.000000 0.000000 0.000000 0.000000 0.089932
#
#
# Mechanical properties :
#
#
# Convention : Reuss Voigt Hill
#
# Bulk Modulus (GPa) = 41.62681 45.11235 43.36958
# Shear Modulus (GPa) = 6.16630 14.49042 10.32836
#
# Velocity S-wave (km/s) = 1.98788 3.04731 2.57272
# Velocity P-wave (km/s) = 5.65201 6.42585 6.05131
#
# Compressibility (1/GPa) = 0.02402298
#
# Stress axis : x y z
#
# Youngs Moduli (GPa) = 51.13159 60.05889 26.52405
#
# Poissons Ratio (x) = 0.12478 0.29537
# Poissons Ratio (y) = 0.10623 0.31111
# Poissons Ratio (z) = 0.56941 0.70446
#
# Static dielectric constant tensor:
#      x y z
#    x 3.050920 0.000000 0.000000 
#    y 0.000000 2.888820 0.000000 
#    z 0.000000 0.000000 3.041150 
# 
# 
# High freq. dielectric constant tensor:
#      x y z
#    x 1.586630 0.000000 0.000000 
#    y 0.000000 1.575240 0.000000 
#    z 0.000000 0.000000 1.591140 
# 
# From -- ./inp_files/12480.got.cif
#   From: 2010.03.12/outbox.cif.g09.slc.cpg/sg47_7_cif.got.tgz:12480.got - 2010.04.14 03:12:58.
