data_PCOD8201263
_publ_section_title
;
Structure prediction by ZEFSAII (Michael W. Deem and Ramdas Pophale) SiO2 
 PCOD8201263
Probable space group: P N N N
;
_chemical_formula_sum "Si O2"
_cell_formula_units_Z 56
_cell_length_a 9.379975
_cell_length_b 13.170495
_cell_length_c 28.730395
_cell_angle_alpha 90.000000
_cell_angle_beta 90.000000
_cell_angle_gamma 90.000000
_cell_volume 3549.321792
_symmetry_space_group_name_H-M "P N N N"
_symmetry_group_IT_number 48
_space_group.IT_coordinate_system_code '2'
_symmetry_cell_setting 'orthorhombic'
loop_
_space_group_symop_operation_xyz
x,y,z
1/2-x,1/2-y,z
x,1/2-y,1/2-z
1/2-x,y,1/2-z
-x,-y,-z
1/2+x,1/2+y,-z
-x,1/2+y,1/2+z
1/2+x,-y,1/2+z
loop_
_atom_site_type_symbol
_atom_site_label
_atom_site_fract_x
_atom_site_fract_y
_atom_site_fract_z
Si Si1 0.739741 0.445643 0.053079
Si Si2 0.777992 0.550162 0.588184
Si Si3 0.839699 0.650350 0.488768
Si Si4 0.668908 0.150199 0.538802
Si Si5 0.465705 0.856670 0.624431
Si Si6 0.239611 0.629686 0.801492
Si Si7 0.023661 0.615848 0.877362
O O1 0.711907 0.564918 0.047175
O O2 0.604088 0.393311 0.076502
O O3 0.881080 0.428556 0.081827
O O4 0.762760 0.392848 0.003517
O O5 0.803223 0.616313 0.541448
O O6 0.818987 0.432826 0.579838
O O7 0.625655 0.562583 0.612812
O O8 0.879801 0.593631 0.628475
O O9 0.750000 0.750000 0.477040
O O10 0.007231 0.669446 0.478741
O O11 0.750000 0.250000 0.557112
O O12 0.375584 0.900705 0.667566
O O13 0.481648 0.736560 0.620667
O O14 0.250000 0.750000 0.797606
O O15 0.250000 0.580417 0.750000
O O16 0.094574 0.590269 0.826870
#
# Coordination Sequence:
#
# PCOD8201263 Si02
#       7
#     8   8   8   8   8   8   8
#     4  10  19  33  47  65  94 130 170 200 235 280
#     4  11  21  33  46  70 100 126 168 208 235 280
#     4  11  22  33  47  66  97 130 171 209 242 268
#     4  11  22  34  48  64  97 132 169 205 247 275
#     4  10  16  32  49  69  96 133 156 194 242 284
#     4   8  16  31  50  72  98 126 156 190 235 294
#     4  10  20  28  51  74  94 129 165 192 233 291
#
# _framework density 15.777661999999999
#
# number of rings (size 3 to 8) (size 9 to 14) (size 15 to 20)
#    0.000    1.857    2.857    4.286    4.000    1.143 
#    0.000    0.714    0.000    3.429    0.000    0.000 
#    0.000   21.714    0.000    0.000    0.000    0.000 
#
# Total GULP energy -693998.354045 kJ/mol
# GULP energy per Si atom -12392.827751 kJ/mol
# Density = 1.574175 g / cm^3
# Si number density = 15.777662 Si / 1000 Ang^3
#
#
#
# Elastic Constant Matrix: (Units=GPa)
#
#
# Indices 1 2 3 4 5 6 
#
# 1 128.8085 37.7634 45.0787 0.0000 0.0000 0.0000
# 2 37.7634 84.6021 27.2008 0.0000 0.0000 0.0000
# 3 45.0787 27.2008 77.0811 0.0000 0.0000 0.0000
# 4 0.0000 0.0000 0.0000 12.7308 0.0000 0.0000
# 5 0.0000 0.0000 0.0000 0.0000 17.5151 0.0000
# 6 0.0000 0.0000 0.0000 0.0000 0.0000 27.3102
#
#
#
# Elastic Compliance Matrix: (Units=1/GPa)
#
#
# Indices 1 2 3 4 5 6 
#
# 1 0.010408 -0.003033 -0.005017 0.000000 0.000000 0.000000
# 2 -0.003033 0.014217 -0.003243 0.000000 0.000000 0.000000
# 3 -0.005017 -0.003243 0.017052 0.000000 0.000000 0.000000
# 4 0.000000 0.000000 0.000000 0.078550 0.000000 0.000000
# 5 0.000000 0.000000 0.000000 0.000000 0.057094 0.000000
# 6 0.000000 0.000000 0.000000 0.000000 0.000000 0.036616
#
#
# Mechanical properties :
#
#
# Convention : Reuss Voigt Hill
#
# Bulk Modulus (GPa) = 52.38062 56.73083 54.55573
# Shear Modulus (GPa) = 20.58583 23.54113 22.06348
#
# Velocity S-wave (km/s) = 3.61604 3.86690 3.74358
# Velocity P-wave (km/s) = 7.12079 7.48143 7.30334
#
# Compressibility (1/GPa) = 0.01909103
#
# Stress axis : x y z
#
# Youngs Moduli (GPa) = 96.07670 70.34059 58.64523
#
# Poissons Ratio (x) = 0.21334 0.29421
# Poissons Ratio (y) = 0.29140 0.19019
# Poissons Ratio (z) = 0.48199 0.22812
#
# Static dielectric constant tensor:
#      x y z
#    x 3.069500 0.000000 0.000000 
#    y 0.000000 2.925790 0.000000 
#    z 0.000000 0.000000 3.032670 
# 
# 
# High freq. dielectric constant tensor:
#      x y z
#    x 1.618620 0.000000 0.000000 
#    y 0.000000 1.589080 0.000000 
#    z 0.000000 0.000000 1.574030 
# 
# From -- ./inp_files/38852.got.cif
#   From: 2010.06.25/outbox.cif.g09.slc.cpg/sg48_20_cif.got.tgz:38852.got - 2010.06.26 18:06:46.
