data_PCOD8201448
_publ_section_title
;
Structure prediction by ZEFSAII (Michael W. Deem and Ramdas Pophale) SiO2 
 PCOD8201448
Probable space group: P N N N
;
_chemical_formula_sum "Si O2"
_cell_formula_units_Z 48
_cell_length_a 11.649419
_cell_length_b 15.979072
_cell_length_c 12.420733
_cell_angle_alpha 90.000000
_cell_angle_beta 90.000000
_cell_angle_gamma 90.000000
_cell_volume 2312.081005
_symmetry_space_group_name_H-M "P N N N"
_symmetry_group_IT_number 48
_space_group.IT_coordinate_system_code '2'
_symmetry_cell_setting 'orthorhombic'
loop_
_space_group_symop_operation_xyz
x,y,z
1/2-x,1/2-y,z
x,1/2-y,1/2-z
1/2-x,y,1/2-z
-x,-y,-z
1/2+x,1/2+y,-z
-x,1/2+y,1/2+z
1/2+x,-y,1/2+z
loop_
_atom_site_type_symbol
_atom_site_label
_atom_site_fract_x
_atom_site_fract_y
_atom_site_fract_z
Si Si1 0.354668 0.084427 0.688361
Si Si2 0.224570 0.025618 0.372871
Si Si3 0.846447 0.680904 0.519543
Si Si4 0.475850 0.541709 0.681939
Si Si5 0.254848 0.924384 0.571444
Si Si6 0.444454 0.682876 0.839318
O O1 0.250000 0.130767 0.750000
O O2 0.397071 0.145640 0.593703
O O3 0.451196 0.053443 0.773838
O O4 0.306309 0.998894 0.640490
O O5 0.250000 0.002961 0.250000
O O6 0.289773 0.108508 0.409508
O O7 0.088865 0.038948 0.391339
O O8 0.262880 0.946512 0.445129
O O9 0.750000 0.750000 0.498019
O O10 0.956298 0.718993 0.581922
O O11 0.376318 0.584941 0.610395
O O12 0.498881 0.600507 0.784867
O O13 0.328588 0.840682 0.594671
O O14 0.410193 0.750000 0.750000
#
# Coordination Sequence:
#
# PCOD8201448 Si02
#       6
#     8   8   8   8   8   8
#     4   8  18  36  57  80 112 153 196 238 287 352
#     4  11  21  34  58  87 120 152 195 253 302 346
#     4  11  23  35  54  86 121 155 192 244 306 356
#     4  10  19  36  59  85 117 152 196 251 295 351
#     4   9  21  36  56  85 115 154 198 239 293 359
#     4  11  22  36  57  85 119 154 196 243 302 361
#
# _framework density 20.760518999999999
#
# number of rings (size 3 to 8) (size 9 to 14) (size 15 to 20)
#    0.000    2.000    1.667    3.000    2.333    3.667 
#    0.000    0.000    0.000    0.000    0.000    1.167 
#    0.000    0.000    0.000    0.000    0.000    0.000 
#
# Total GULP energy -594993.113476 kJ/mol
# GULP energy per Si atom -12395.689864 kJ/mol
# Density = 2.071327 g / cm^3
# Si number density = 20.760519 Si / 1000 Ang^3
#
#
#
# Elastic Constant Matrix: (Units=GPa)
#
#
# Indices 1 2 3 4 5 6 
#
# 1 121.0832 35.3687 34.6515 0.0000 0.0000 0.0000
# 2 35.3687 62.8039 37.4987 0.0000 0.0000 0.0000
# 3 34.6515 37.4987 105.9269 0.0000 0.0000 0.0000
# 4 0.0000 0.0000 0.0000 29.0888 0.0000 0.0000
# 5 0.0000 0.0000 0.0000 0.0000 21.3772 0.0000
# 6 0.0000 0.0000 0.0000 0.0000 0.0000 25.9006
#
#
#
# Elastic Compliance Matrix: (Units=1/GPa)
#
#
# Indices 1 2 3 4 5 6 
#
# 1 0.010104 -0.004713 -0.001637 0.000000 0.000000 0.000000
# 2 -0.004713 0.022388 -0.006384 0.000000 0.000000 0.000000
# 3 -0.001637 -0.006384 0.012236 0.000000 0.000000 0.000000
# 4 0.000000 0.000000 0.000000 0.034377 0.000000 0.000000
# 5 0.000000 0.000000 0.000000 0.000000 0.046779 0.000000
# 6 0.000000 0.000000 0.000000 0.000000 0.000000 0.038609
#
#
# Mechanical properties :
#
#
# Convention : Reuss Voigt Hill
#
# Bulk Modulus (GPa) = 51.91863 56.09465 54.00664
# Shear Modulus (GPa) = 25.46074 27.42634 26.44354
#
# Velocity S-wave (km/s) = 3.50580 3.63861 3.57282
# Velocity P-wave (km/s) = 6.43818 6.68814 6.56435
#
# Compressibility (1/GPa) = 0.01926091
#
# Stress axis : x y z
#
# Youngs Moduli (GPa) = 98.97239 44.66619 81.72683
#
# Poissons Ratio (x) = 0.21050 0.13378
# Poissons Ratio (y) = 0.46643 0.52174
# Poissons Ratio (z) = 0.16201 0.28515
#
# Static dielectric constant tensor:
#      x y z
#    x 3.878070 0.000000 0.000000 
#    y 0.000000 3.445400 0.000000 
#    z 0.000000 0.000000 3.965690 
# 
# 
# High freq. dielectric constant tensor:
#      x y z
#    x 1.815200 0.000000 0.000000 
#    y 0.000000 1.772970 0.000000 
#    z 0.000000 0.000000 1.813140 
# 
# From -- ./inp_files/20088.got.cif
#   From: 2010.06.25/outbox.cif.g09.slc.cpg/sg48_11_cif.got.tgz:20088.got - 2010.06.26 18:06:46.
