data_PCOD8201514
_publ_section_title
;
Structure prediction by ZEFSAII (Michael W. Deem and Ramdas Pophale) SiO2 
 PCOD8201514
Probable space group: P N N N
;
_chemical_formula_sum "Si O2"
_cell_formula_units_Z 64
_cell_length_a 21.171078
_cell_length_b 16.472063
_cell_length_c 9.686408
_cell_angle_alpha 90.000000
_cell_angle_beta 90.000000
_cell_angle_gamma 90.000000
_cell_volume 3377.953951
_symmetry_space_group_name_H-M "P N N N"
_symmetry_group_IT_number 48
_space_group.IT_coordinate_system_code '2'
_symmetry_cell_setting 'orthorhombic'
loop_
_space_group_symop_operation_xyz
x,y,z
1/2-x,1/2-y,z
x,1/2-y,1/2-z
1/2-x,y,1/2-z
-x,-y,-z
1/2+x,1/2+y,-z
-x,1/2+y,1/2+z
1/2+x,-y,1/2+z
loop_
_atom_site_type_symbol
_atom_site_label
_atom_site_fract_x
_atom_site_fract_y
_atom_site_fract_z
Si Si1 0.134439 0.749414 0.913608
Si Si2 0.016311 0.067176 0.119687
Si Si3 0.999232 0.777037 0.036106
Si Si4 0.107529 0.988982 0.775855
Si Si5 0.682439 0.424326 0.474680
Si Si6 0.600079 0.039064 0.781509
Si Si7 0.523575 0.630698 0.308278
Si Si8 0.325905 0.918307 0.480619
O O1 0.128608 0.750000 0.750000
O O2 0.171370 0.672370 0.976383
O O3 0.066391 0.748965 0.982335
O O4 0.172484 0.829928 0.951331
O O5 0.078414 0.043631 0.205930
O O6 0.954542 0.069531 0.219880
O O7 0.031812 0.158139 0.068391
O O8 0.000000 0.000000 0.000000
O O9 0.006085 0.823427 0.178709
O O10 0.959166 0.694229 0.067583
O O11 0.085952 0.079746 0.732246
O O12 0.161923 0.956947 0.674838
O O13 0.136555 0.986118 0.929787
O O14 0.642454 0.475535 0.585360
O O15 0.753470 0.445481 0.517743
O O16 0.536374 0.076478 0.847303
O O17 0.642083 0.089188 0.670359
#
# Coordination Sequence:
#
# PCOD8201514 Si02
#       8
#     8   8   8   8   8   8   8   8
#     4  12  22  36  53  84 119 161 206 229 283 360
#     4  11  17  35  61  82 112 158 189 238 305 363
#     4  11  18  35  56  88 113 150 188 243 304 355
#     4  11  21  39  57  82 113 157 202 244 292 345
#     4  12  26  36  54  87 121 162 200 249 281 341
#     4  11  21  38  56  85 117 153 204 242 291 351
#     4  10  20  33  62  81 113 149 194 249 298 344
#     4  12  22  39  59  77 121 168 204 230 288 365
#
# _framework density 18.946380999999999
#
# number of rings (size 3 to 8) (size 9 to 14) (size 15 to 20)
#    0.000    0.750    8.750    1.125    0.000    3.000 
#    2.250    1.250    0.000    0.000    0.000   14.875 
#    0.000    6.000    0.000    0.000    0.000    0.000 
#
# Total GULP energy -792945.295191 kJ/mol
# GULP energy per Si atom -12389.770237 kJ/mol
# Density = 1.890326 g / cm^3
# Si number density = 18.946381 Si / 1000 Ang^3
#
#
#
# Elastic Constant Matrix: (Units=GPa)
#
#
# Indices 1 2 3 4 5 6 
#
# 1 73.3141 26.4586 6.1145 0.0000 0.0000 0.0000
# 2 26.4586 86.0011 23.5593 0.0000 0.0000 0.0000
# 3 6.1145 23.5593 46.0363 0.0000 0.0000 0.0000
# 4 0.0000 0.0000 0.0000 35.9750 0.0000 0.0000
# 5 0.0000 0.0000 0.0000 0.0000 23.9455 0.0000
# 6 0.0000 0.0000 0.0000 0.0000 0.0000 19.9223
#
#
#
# Elastic Compliance Matrix: (Units=1/GPa)
#
#
# Indices 1 2 3 4 5 6 
#
# 1 0.015351 -0.004843 0.000440 0.000000 0.000000 0.000000
# 2 -0.004843 0.015052 -0.007059 0.000000 0.000000 0.000000
# 3 0.000440 -0.007059 0.025276 0.000000 0.000000 0.000000
# 4 0.000000 0.000000 0.000000 0.027797 0.000000 0.000000
# 5 0.000000 0.000000 0.000000 0.000000 0.041762 0.000000
# 6 0.000000 0.000000 0.000000 0.000000 0.000000 0.050195
#
#
# Mechanical properties :
#
#
# Convention : Reuss Voigt Hill
#
# Bulk Modulus (GPa) = 30.53160 35.29070 32.91115
# Shear Modulus (GPa) = 23.89180 25.91649 24.90414
#
# Velocity S-wave (km/s) = 3.55494 3.70251 3.62947
# Velocity P-wave (km/s) = 5.74455 6.07825 5.91375
#
# Compressibility (1/GPa) = 0.03275295
#
# Stress axis : x y z
#
# Youngs Moduli (GPa) = 65.14153 66.43766 39.56269
#
# Poissons Ratio (x) = 0.32178 -0.01739
# Poissons Ratio (y) = 0.31550 0.27929
# Poissons Ratio (z) = -0.02864 0.46902
#
# Static dielectric constant tensor:
#      x y z
#    x 3.345680 0.000000 0.000000 
#    y 0.000000 3.679120 0.000000 
#    z 0.000000 0.000000 3.812910 
# 
# 
# High freq. dielectric constant tensor:
#      x y z
#    x 1.712770 0.000000 0.000000 
#    y 0.000000 1.716300 0.000000 
#    z 0.000000 0.000000 1.744940 
# 
# From -- ./inp_files/15432.got.cif
#   From: 2010.06.25/outbox.cif.g09.slc.cpg/sg48_8_cif.got.tgz:15432.got - 2010.06.26 18:06:46.
