data_PCOD8201949
_publ_section_title
;
Structure prediction by ZEFSAII (Michael W. Deem and Ramdas Pophale) SiO2 
 PCOD8201949
Probable space group: P N N N
;
_chemical_formula_sum "Si O2"
_cell_formula_units_Z 54
_cell_length_a 14.600426
_cell_length_b 15.092540
_cell_length_c 10.552293
_cell_angle_alpha 90.000000
_cell_angle_beta 90.000000
_cell_angle_gamma 90.000000
_cell_volume 2325.277046
_symmetry_space_group_name_H-M "P N N N"
_symmetry_group_IT_number 48
_space_group.IT_coordinate_system_code '2'
_symmetry_cell_setting 'orthorhombic'
loop_
_space_group_symop_operation_xyz
x,y,z
1/2-x,1/2-y,z
x,1/2-y,1/2-z
1/2-x,y,1/2-z
-x,-y,-z
1/2+x,1/2+y,-z
-x,1/2+y,1/2+z
1/2+x,-y,1/2+z
loop_
_atom_site_type_symbol
_atom_site_label
_atom_site_fract_x
_atom_site_fract_y
_atom_site_fract_z
Si Si1 0.751515 0.646626 0.896701
Si Si2 0.399389 0.885233 0.560677
Si Si3 0.448177 0.948435 0.113635
Si Si4 0.860198 0.899370 0.378865
Si Si5 0.856350 0.271230 0.892371
Si Si6 0.416395 0.459809 0.136334
Si Si7 0.750000 0.050637 0.250000
Si Si8 0.250000 0.250000 0.750000
O O1 0.750000 0.750000 0.924793
O O2 0.750000 0.623731 0.750000
O O3 0.654702 0.604508 0.936676
O O4 0.837029 0.598533 0.969044
O O5 0.406208 0.787629 0.499718
O O6 0.488069 0.906923 0.644373
O O7 0.307820 0.891592 0.648137
O O8 0.407906 0.951130 0.442854
O O9 0.534908 0.891824 0.166495
O O10 0.373823 0.874636 0.071369
O O11 0.400277 0.011809 0.217252
O O12 0.500000 0.000000 0.000000
O O13 0.811268 0.810423 0.337630
O O14 0.821860 0.989746 0.322752
O O15 0.750000 0.250000 0.901021
O O16 0.891870 0.250000 0.750000
#
# Coordination Sequence:
#
# PCOD8201949 Si02
#       8
#     8   8   8   8   8   8   4   2
#     4  11  24  42  65 101 147 193 242 307 378 447
#     4  11  24  44  74 105 146 194 251 310 378 451
#     4  12  27  47  73 109 146 194 251 318 378 465
#     4  11  23  41  69 105 141 189 244 301 374 442
#     4  11  27  48  75 107 145 198 258 314 377 464
#     4  11  24  44  71 106 147 196 245 308 380 457
#     4  11  22  43  71 103 144 198 246 303 383 447
#     4  10  24  36  70  98 142 178 228 308 348 444
#
# _framework density 23.223037999999999
#
# number of rings (size 3 to 8) (size 9 to 14) (size 15 to 20)
#    0.000    0.889    5.185    0.889    5.185    1.185 
#    0.000    1.852    0.000    0.000    0.000    0.000 
#    0.000    0.000    0.000    0.000    0.000    0.000 
#
# Total GULP energy -669084.337109 kJ/mol
# GULP energy per Si atom -12390.450687 kJ/mol
# Density = 2.317018 g / cm^3
# Si number density = 23.223038 Si / 1000 Ang^3
#
#
#
# Elastic Constant Matrix: (Units=GPa)
#
#
# Indices 1 2 3 4 5 6 
#
# 1 81.2389 21.4522 0.2958 0.0000 0.0000 0.0000
# 2 21.4522 117.7700 36.7976 0.0000 0.0000 0.0000
# 3 0.2958 36.7976 87.5521 0.0000 0.0000 0.0000
# 4 0.0000 0.0000 0.0000 25.2530 0.0000 0.0000
# 5 0.0000 0.0000 0.0000 0.0000 34.0052 0.0000
# 6 0.0000 0.0000 0.0000 0.0000 0.0000 45.1468
#
#
#
# Elastic Compliance Matrix: (Units=1/GPa)
#
#
# Indices 1 2 3 4 5 6 
#
# 1 0.013022 -0.002715 0.001097 0.000000 0.000000 0.000000
# 2 -0.002715 0.010341 -0.004337 0.000000 0.000000 0.000000
# 3 0.001097 -0.004337 0.013241 0.000000 0.000000 0.000000
# 4 0.000000 0.000000 0.000000 0.039599 0.000000 0.000000
# 5 0.000000 0.000000 0.000000 0.000000 0.029407 0.000000
# 6 0.000000 0.000000 0.000000 0.000000 0.000000 0.022150
#
#
# Mechanical properties :
#
#
# Convention : Reuss Voigt Hill
#
# Bulk Modulus (GPa) = 40.49511 44.85023 42.67267
# Shear Modulus (GPa) = 33.80631 36.08202 34.94416
#
# Velocity S-wave (km/s) = 3.81953 3.94600 3.88328
# Velocity P-wave (km/s) = 6.07677 6.33371 6.20657
#
# Compressibility (1/GPa) = 0.02469434
#
# Stress axis : x y z
#
# Youngs Moduli (GPa) = 76.79158 96.70483 75.52376
#
# Poissons Ratio (x) = 0.26254 -0.08285
# Poissons Ratio (y) = 0.20848 0.32754
# Poissons Ratio (z) = -0.08424 0.41941
#
# Static dielectric constant tensor:
#      x y z
#    x -100.485580 0.000000 0.000000 
#    y 0.000000 4.051210 0.000000 
#    z 0.000000 0.000000 4.180640 
# 
# 
# High freq. dielectric constant tensor:
#      x y z
#    x 1.921060 0.000000 0.000000 
#    y 0.000000 1.918370 0.000000 
#    z 0.000000 0.000000 1.927470 
# 
# From -- ./inp_files/21373.got.cif
#   From: 2010.06.25/outbox.cif.g09.slc.cpg/sg48_11_cif.got.tgz:21373.got - 2010.06.26 18:06:46.
