data_PCOD8201373
_publ_section_title
;
Structure prediction by ZEFSAII (Michael W. Deem and Ramdas Pophale) SiO2 
 PCOD8201373
Probable space group: P N N N
;
_chemical_formula_sum "Si O2"
_cell_formula_units_Z 48
_cell_length_a 11.604473
_cell_length_b 23.361630
_cell_length_c 8.761308
_cell_angle_alpha 90.000000
_cell_angle_beta 90.000000
_cell_angle_gamma 90.000000
_cell_volume 2375.185382
_symmetry_space_group_name_H-M "P N N N"
_symmetry_group_IT_number 48
_space_group.IT_coordinate_system_code '2'
_symmetry_cell_setting 'orthorhombic'
loop_
_space_group_symop_operation_xyz
x,y,z
1/2-x,1/2-y,z
x,1/2-y,1/2-z
1/2-x,y,1/2-z
-x,-y,-z
1/2+x,1/2+y,-z
-x,1/2+y,1/2+z
1/2+x,-y,1/2+z
loop_
_atom_site_type_symbol
_atom_site_label
_atom_site_fract_x
_atom_site_fract_y
_atom_site_fract_z
Si Si1 0.017082 0.011380 0.242985
Si Si2 0.743664 0.641015 0.420929
Si Si3 0.986795 0.622487 0.919382
Si Si4 0.632600 0.685873 0.812122
Si Si5 0.333207 0.580841 0.380519
Si Si6 0.319144 0.484670 0.967055
O O1 0.027584 0.054867 0.384920
O O2 0.058850 0.949012 0.296422
O O3 0.096285 0.033032 0.104273
O O4 0.886316 0.006805 0.183148
O O5 0.750000 0.664511 0.250000
O O6 0.615653 0.652867 0.486152
O O7 0.847992 0.676245 0.506496
O O8 0.753711 0.572698 0.424031
O O9 0.982341 0.654243 0.753302
O O10 0.108857 0.629529 0.010261
O O11 0.628761 0.750000 0.750000
O O12 0.750000 0.655079 0.750000
O O13 0.250000 0.608169 0.250000
O O14 0.266942 0.534304 0.481288
#
# Coordination Sequence:
#
# PCOD8201373 Si02
#       6
#     8   8   8   8   8   8
#     4  10  19  32  50  78 118 155 192 220 283 349
#     4  11  21  33  57  87 120 151 185 230 292 348
#     4  11  20  35  56  78 115 158 192 232 291 350
#     4   9  20  39  60  83 113 150 191 246 298 347
#     4  10  21  33  48  77 121 156 192 230 278 342
#     4  10  20  31  49  81 123 155 182 231 272 347
#
# _framework density 20.208950000000002
#
# number of rings (size 3 to 8) (size 9 to 14) (size 15 to 20)
#    0.000    1.833    3.333    1.500    2.333    0.000 
#    0.000    6.667    0.000    0.000    0.000    2.333 
#    5.000    0.000    0.000    0.000    0.000    0.000 
#
# Total GULP energy -594755.664246 kJ/mol
# GULP energy per Si atom -12390.743005 kJ/mol
# Density = 2.016295 g / cm^3
# Si number density = 20.208950 Si / 1000 Ang^3
#
#
#
# Elastic Constant Matrix: (Units=GPa)
#
#
# Indices 1 2 3 4 5 6 
#
# 1 92.3940 30.5659 50.6237 0.0000 0.0000 0.0000
# 2 30.5659 50.4138 31.5244 0.0000 0.0000 0.0000
# 3 50.6237 31.5244 131.4876 0.0000 0.0000 0.0000
# 4 0.0000 0.0000 0.0000 10.1407 0.0000 0.0000
# 5 0.0000 0.0000 0.0000 0.0000 37.3645 0.0000
# 6 0.0000 0.0000 0.0000 0.0000 0.0000 12.3975
#
#
#
# Elastic Compliance Matrix: (Units=1/GPa)
#
#
# Indices 1 2 3 4 5 6 
#
# 1 0.015390 -0.006618 -0.004338 0.000000 0.000000 0.000000
# 2 -0.006618 0.026180 -0.003729 0.000000 0.000000 0.000000
# 3 -0.004338 -0.003729 0.010170 0.000000 0.000000 0.000000
# 4 0.000000 0.000000 0.000000 0.098613 0.000000 0.000000
# 5 0.000000 0.000000 0.000000 0.000000 0.026763 0.000000
# 6 0.000000 0.000000 0.000000 0.000000 0.000000 0.080661
#
#
# Mechanical properties :
#
#
# Convention : Reuss Voigt Hill
#
# Bulk Modulus (GPa) = 44.70480 55.52483 50.11482
# Shear Modulus (GPa) = 16.97199 22.75263 19.86231
#
# Velocity S-wave (km/s) = 2.90112 3.35904 3.13844
# Velocity P-wave (km/s) = 5.77852 6.52527 6.16322
#
# Compressibility (1/GPa) = 0.02236896
#
# Stress axis : x y z
#
# Youngs Moduli (GPa) = 64.97880 38.19726 98.33220
#
# Poissons Ratio (x) = 0.25278 0.42661
# Poissons Ratio (y) = 0.43002 0.36666
# Poissons Ratio (z) = 0.28191 0.14243
#
# Static dielectric constant tensor:
#      x y z
#    x 3.700590 0.000000 0.000000 
#    y 0.000000 3.095820 0.000000 
#    z 0.000000 0.000000 4.080390 
# 
# 
# High freq. dielectric constant tensor:
#      x y z
#    x 1.768100 0.000000 0.000000 
#    y 0.000000 1.729540 0.000000 
#    z 0.000000 0.000000 1.809800 
# 
# From -- ./inp_files/11251.got.cif
#   From: 2010.06.25/outbox.cif.g09.slc.cpg/sg48_6_cif.got.tgz:11251.got - 2010.06.26 18:06:46.
