data_PCOD8201545
_publ_section_title
;
Structure prediction by ZEFSAII (Michael W. Deem and Ramdas Pophale) SiO2 
 PCOD8201545
Probable space group: P N N N
;
_chemical_formula_sum "Si O2"
_cell_formula_units_Z 48
_cell_length_a 29.524035
_cell_length_b 8.625048
_cell_length_c 8.988246
_cell_angle_alpha 90.000000
_cell_angle_beta 90.000000
_cell_angle_gamma 90.000000
_cell_volume 2288.822860
_symmetry_space_group_name_H-M "P N N N"
_symmetry_group_IT_number 48
_space_group.IT_coordinate_system_code '2'
_symmetry_cell_setting 'orthorhombic'
loop_
_space_group_symop_operation_xyz
x,y,z
1/2-x,1/2-y,z
x,1/2-y,1/2-z
1/2-x,y,1/2-z
-x,-y,-z
1/2+x,1/2+y,-z
-x,1/2+y,1/2+z
1/2+x,-y,1/2+z
loop_
_atom_site_type_symbol
_atom_site_label
_atom_site_fract_x
_atom_site_fract_y
_atom_site_fract_z
Si Si1 0.415067 0.859006 0.110606
Si Si2 0.436775 0.570978 0.943901
Si Si3 0.343201 0.422708 0.904778
Si Si4 0.159288 0.074844 0.550012
Si Si5 0.251501 0.574982 0.926998
Si Si6 0.479675 0.424751 0.222012
O O1 0.398098 0.750000 0.250000
O O2 0.457404 0.965797 0.155573
O O3 0.437963 0.752260 0.985851
O O4 0.375370 0.964381 0.039464
O O5 0.384382 0.532229 0.942993
O O6 0.465317 0.550884 0.789843
O O7 0.459477 0.458564 0.061431
O O8 0.343098 0.429400 0.727422
O O9 0.349337 0.255765 0.984683
O O10 0.298063 0.494638 0.977189
O O11 0.209716 0.021213 0.503613
O O12 0.250000 0.750000 0.988725
O O13 0.250000 0.574659 0.750000
O O14 0.465986 0.250000 0.250000
#
# Coordination Sequence:
#
# PCOD8201545 Si02
#       6
#     8   8   8   8   8   8
#     4  10  22  40  60  83 115 158 201 246 293 355
#     4  10  22  39  57  85 113 153 198 244 297 350
#     4  10  20  35  57  90 123 152 194 243 296 357
#     4  10  20  35  58  89 121 158 192 240 300 355
#     4   9  17  31  55  87 122 153 185 232 293 350
#     4  10  22  40  58  80 113 156 195 247 295 350
#
# _framework density 20.971478000000001
#
# number of rings (size 3 to 8) (size 9 to 14) (size 15 to 20)
#    0.000    2.167    0.000    2.500    2.333    4.000 
#   15.000    0.000    0.000   11.500    0.000   15.167 
#    0.000    0.000    0.000    0.000    0.000    0.000 
#
# Total GULP energy -594734.746936 kJ/mol
# GULP energy per Si atom -12390.307228 kJ/mol
# Density = 2.092375 g / cm^3
# Si number density = 20.971478 Si / 1000 Ang^3
#
#
#
# Elastic Constant Matrix: (Units=GPa)
#
#
# Indices 1 2 3 4 5 6 
#
# 1 174.9895 86.1634 48.8503 0.0000 0.0000 0.0000
# 2 86.1634 180.1731 44.4982 0.0000 0.0000 0.0000
# 3 48.8503 44.4982 32.2040 0.0000 0.0000 0.0000
# 4 0.0000 0.0000 0.0000 28.9953 0.0000 0.0000
# 5 0.0000 0.0000 0.0000 0.0000 21.5436 0.0000
# 6 0.0000 0.0000 0.0000 0.0000 0.0000 36.7614
#
#
#
# Elastic Compliance Matrix: (Units=1/GPa)
#
#
# Indices 1 2 3 4 5 6 
#
# 1 0.010209 -0.001605 -0.013268 0.000000 0.000000 0.000000
# 2 -0.001605 0.008678 -0.009556 0.000000 0.000000 0.000000
# 3 -0.013268 -0.009556 0.064381 0.000000 0.000000 0.000000
# 4 0.000000 0.000000 0.000000 0.034488 0.000000 0.000000
# 5 0.000000 0.000000 0.000000 0.000000 0.046418 0.000000
# 6 0.000000 0.000000 0.000000 0.000000 0.000000 0.027202
#
#
# Mechanical properties :
#
#
# Convention : Reuss Voigt Hill
#
# Bulk Modulus (GPa) = 29.06058 82.93225 55.99641
# Shear Modulus (GPa) = 19.86459 31.31705 25.59082
#
# Velocity S-wave (km/s) = 3.08103 3.86854 3.49702
# Velocity P-wave (km/s) = 5.15211 7.71915 6.56237
#
# Compressibility (1/GPa) = 0.03441087
#
# Stress axis : x y z
#
# Youngs Moduli (GPa) = 97.95351 115.23446 15.53245
#
# Poissons Ratio (x) = 0.18500 0.20608
# Poissons Ratio (y) = 0.15725 0.14842
# Poissons Ratio (z) = 1.29961 1.10114
#
# Static dielectric constant tensor:
#      x y z
#    x 4.167070 0.000000 0.000000 
#    y 0.000000 4.013290 0.000000 
#    z 0.000000 0.000000 3.515760 
# 
# 
# High freq. dielectric constant tensor:
#      x y z
#    x 1.832900 0.000000 0.000000 
#    y 0.000000 1.839240 0.000000 
#    z 0.000000 0.000000 1.784980 
# 
# From -- ./inp_files/9444.got.cif
#   From: 2010.06.25/outbox.cif.g09.slc.cpg/sg48_5_cif.got.tgz:9444.got - 2010.06.26 18:06:46.
