data_PCOD8201523
_publ_section_title
;
Structure prediction by ZEFSAII (Michael W. Deem and Ramdas Pophale) SiO2 
 PCOD8201523
Probable space group: P N N N
;
_chemical_formula_sum "Si O2"
_cell_formula_units_Z 40
_cell_length_a 10.883732
_cell_length_b 15.518101
_cell_length_c 11.594213
_cell_angle_alpha 90.000000
_cell_angle_beta 90.000000
_cell_angle_gamma 90.000000
_cell_volume 1958.202894
_symmetry_space_group_name_H-M "P N N N"
_symmetry_group_IT_number 48
_space_group.IT_coordinate_system_code '2'
_symmetry_cell_setting 'orthorhombic'
loop_
_space_group_symop_operation_xyz
x,y,z
1/2-x,1/2-y,z
x,1/2-y,1/2-z
1/2-x,y,1/2-z
-x,-y,-z
1/2+x,1/2+y,-z
-x,1/2+y,1/2+z
1/2+x,-y,1/2+z
loop_
_atom_site_type_symbol
_atom_site_label
_atom_site_fract_x
_atom_site_fract_y
_atom_site_fract_z
Si Si1 0.337672 0.008013 0.085785
Si Si2 0.974637 0.630245 0.075052
Si Si3 0.627102 0.916406 0.307876
Si Si4 0.374445 0.204925 0.481264
Si Si5 0.577691 0.546811 0.835310
O O1 0.191773 0.999420 0.101292
O O2 0.401558 0.049682 0.198427
O O3 0.392121 0.913688 0.056974
O O4 0.367133 0.071478 0.980611
O O5 0.950130 0.635770 0.211694
O O6 0.976051 0.724093 0.016468
O O7 0.750000 0.955320 0.250000
O O8 0.663249 0.849436 0.406568
O O9 0.546283 0.993878 0.362731
O O10 0.250000 0.250000 0.434688
O O11 0.432561 0.144656 0.381925
#
# Coordination Sequence:
#
# PCOD8201523 Si02
#       5
#     8   8   8   8   8
#     4   9  19  38  55  80 118 157 192 247 311 368
#     4  10  20  34  57  84 116 151 197 249 308 351
#     4  11  21  35  57  85 120 156 198 246 303 368
#     4  12  21  34  57  91 117 148 206 260 297 353
#     4  10  21  36  57  84 118 156 202 243 307 369
#
# _framework density 20.426891999999999
#
# number of rings (size 3 to 8) (size 9 to 14) (size 15 to 20)
#    0.000    1.600    4.000    1.200    0.000    0.800 
#    0.000    1.000    0.000    4.800    0.000   12.600 
#    0.000    0.000    0.000    0.000    0.000    0.000 
#
# Total GULP energy -496009.294705 kJ/mol
# GULP energy per Si atom -12400.232368 kJ/mol
# Density = 2.038040 g / cm^3
# Si number density = 20.426892 Si / 1000 Ang^3
#
#
#
# Elastic Constant Matrix: (Units=GPa)
#
#
# Indices 1 2 3 4 5 6 
#
# 1 95.6168 60.2798 16.0736 0.0000 0.0000 0.0000
# 2 60.2798 145.3795 40.7459 0.0000 0.0000 0.0000
# 3 16.0736 40.7459 61.1193 0.0000 0.0000 0.0000
# 4 0.0000 0.0000 0.0000 37.6831 0.0000 0.0000
# 5 0.0000 0.0000 0.0000 0.0000 26.9915 0.0000
# 6 0.0000 0.0000 0.0000 0.0000 0.0000 31.2195
#
#
#
# Elastic Compliance Matrix: (Units=1/GPa)
#
#
# Indices 1 2 3 4 5 6 
#
# 1 0.014162 -0.005938 0.000234 0.000000 0.000000 0.000000
# 2 -0.005938 0.010949 -0.005737 0.000000 0.000000 0.000000
# 3 0.000234 -0.005737 0.020125 0.000000 0.000000 0.000000
# 4 0.000000 0.000000 0.000000 0.026537 0.000000 0.000000
# 5 0.000000 0.000000 0.000000 0.000000 0.037049 0.000000
# 6 0.000000 0.000000 0.000000 0.000000 0.000000 0.032031
#
#
# Mechanical properties :
#
#
# Convention : Reuss Voigt Hill
#
# Bulk Modulus (GPa) = 44.73610 59.59049 52.16330
# Shear Modulus (GPa) = 29.20783 31.51324 30.36054
#
# Velocity S-wave (km/s) = 3.78547 3.93202 3.85944
# Velocity P-wave (km/s) = 6.40738 7.06048 6.74184
#
# Compressibility (1/GPa) = 0.02235331
#
# Stress axis : x y z
#
# Youngs Moduli (GPa) = 70.60901 91.33521 49.68980
#
# Poissons Ratio (x) = 0.54234 -0.01163
# Poissons Ratio (y) = 0.41927 0.28509
# Poissons Ratio (z) = -0.01652 0.52403
#
# Static dielectric constant tensor:
#      x y z
#    x 3.601970 0.000000 0.000000 
#    y 0.000000 3.695260 0.000000 
#    z 0.000000 0.000000 3.881280 
# 
# 
# High freq. dielectric constant tensor:
#      x y z
#    x 1.779840 0.000000 0.000000 
#    y 0.000000 1.778310 0.000000 
#    z 0.000000 0.000000 1.813220 
# 
# From -- ./inp_files/19773.got.cif
#   From: 2010.06.25/outbox.cif.g09.slc.cpg/sg48_10_cif.got.tgz:19773.got - 2010.06.26 18:06:46.
