data_PCOD8201573
_publ_section_title
;
Structure prediction by ZEFSAII (Michael W. Deem and Ramdas Pophale) SiO2 
 PCOD8201573
Probable space group: P N N N
;
_chemical_formula_sum "Si O2"
_cell_formula_units_Z 48
_cell_length_a 28.966723
_cell_length_b 8.380310
_cell_length_c 9.620846
_cell_angle_alpha 90.000000
_cell_angle_beta 90.000000
_cell_angle_gamma 90.000000
_cell_volume 2335.461506
_symmetry_space_group_name_H-M "P N N N"
_symmetry_group_IT_number 48
_space_group.IT_coordinate_system_code '2'
_symmetry_cell_setting 'orthorhombic'
loop_
_space_group_symop_operation_xyz
x,y,z
1/2-x,1/2-y,z
x,1/2-y,1/2-z
1/2-x,y,1/2-z
-x,-y,-z
1/2+x,1/2+y,-z
-x,1/2+y,1/2+z
1/2+x,-y,1/2+z
loop_
_atom_site_type_symbol
_atom_site_label
_atom_site_fract_x
_atom_site_fract_y
_atom_site_fract_z
Si Si1 0.400534 0.369399 0.032313
Si Si2 0.448415 0.443117 0.522392
Si Si3 0.685696 0.841576 0.880079
Si Si4 0.888684 0.062524 0.243716
Si Si5 0.886861 0.069391 0.710491
Si Si6 0.794591 0.915285 0.325480
O O1 0.442908 0.246948 0.005972
O O2 0.390605 0.495839 0.911600
O O3 0.355161 0.264245 0.055252
O O4 0.412645 0.469329 0.169343
O O5 0.500000 0.500000 0.500000
O O6 0.430516 0.474649 0.677845
O O7 0.417641 0.555499 0.425467
O O8 0.710563 0.750000 0.750000
O O9 0.664492 0.003147 0.816703
O O10 0.718628 0.884933 0.010904
O O11 0.897120 0.250000 0.250000
O O12 0.839024 0.028174 0.314532
O O13 0.880610 0.250000 0.750000
O O14 0.806488 0.750000 0.250000
O O15 0.750000 0.994230 0.250000
#
# Coordination Sequence:
#
# PCOD8201573 Si02
#       6
#     8   8   8   8   8   8
#     4  10  20  38  63  86 120 170 207 260 323 381
#     4  11  23  40  61  89 123 167 219 270 321 390
#     4   9  18  36  63  88 122 162 207 259 323 374
#     4  12  23  39  63  91 131 174 209 267 338 381
#     4  10  20  36  60  91 121 164 210 258 318 389
#     4  11  21  39  66  95 124 167 221 269 315 393
#
# _framework density 20.552682000000001
#
# number of rings (size 3 to 8) (size 9 to 14) (size 15 to 20)
#    0.000    1.500    5.000    3.000    0.000    3.000 
#    0.000    4.167    0.000    0.000    0.000    1.167 
#    0.000    0.000    0.000    0.000    0.000    0.000 
#
# Total GULP energy -595078.357781 kJ/mol
# GULP energy per Si atom -12397.465787 kJ/mol
# Density = 2.050590 g / cm^3
# Si number density = 20.552682 Si / 1000 Ang^3
#
#
#
# Elastic Constant Matrix: (Units=GPa)
#
#
# Indices 1 2 3 4 5 6 
#
# 1 83.2427 14.1563 10.5455 0.0000 0.0000 0.0000
# 2 14.1563 129.7083 25.0869 0.0000 0.0000 0.0000
# 3 10.5455 25.0869 115.4223 0.0000 0.0000 0.0000
# 4 0.0000 0.0000 0.0000 32.9273 0.0000 0.0000
# 5 0.0000 0.0000 0.0000 0.0000 23.4649 0.0000
# 6 0.0000 0.0000 0.0000 0.0000 0.0000 11.6056
#
#
#
# Elastic Compliance Matrix: (Units=1/GPa)
#
#
# Indices 1 2 3 4 5 6 
#
# 1 0.012323 -0.001177 -0.000870 0.000000 0.000000 0.000000
# 2 -0.001177 0.008160 -0.001666 0.000000 0.000000 0.000000
# 3 -0.000870 -0.001666 0.009105 0.000000 0.000000 0.000000
# 4 0.000000 0.000000 0.000000 0.030370 0.000000 0.000000
# 5 0.000000 0.000000 0.000000 0.000000 0.042617 0.000000
# 6 0.000000 0.000000 0.000000 0.000000 0.000000 0.086165
#
#
# Mechanical properties :
#
#
# Convention : Reuss Voigt Hill
#
# Bulk Modulus (GPa) = 45.11981 47.55009 46.33495
# Shear Modulus (GPa) = 24.56337 32.17185 28.36761
#
# Velocity S-wave (km/s) = 3.46083 3.96072 3.71919
# Velocity P-wave (km/s) = 6.16204 6.64096 6.40598
#
# Compressibility (1/GPa) = 0.02216321
#
# Stress axis : x y z
#
# Youngs Moduli (GPa) = 81.14641 122.54491 109.82406
#
# Poissons Ratio (x) = 0.14420 0.09557
# Poissons Ratio (y) = 0.09548 0.18298
# Poissons Ratio (z) = 0.07061 0.20417
#
# Static dielectric constant tensor:
#      x y z
#    x 3.452510 0.000000 0.000000 
#    y 0.000000 3.669120 0.000000 
#    z 0.000000 0.000000 4.173270 
# 
# 
# High freq. dielectric constant tensor:
#      x y z
#    x 1.772050 0.000000 0.000000 
#    y 0.000000 1.795530 0.000000 
#    z 0.000000 0.000000 1.829410 
# 
# From -- ./inp_files/16788.got.cif
#   From: 2010.06.25/outbox.cif.g09.slc.cpg/sg48_9_cif.got.tgz:16788.got - 2010.06.26 18:06:46.
