data_PCOD8201336
_publ_section_title
;
Structure prediction by ZEFSAII (Michael W. Deem and Ramdas Pophale) SiO2 
 PCOD8201336
Probable space group: P N N N
;
_chemical_formula_sum "Si O2"
_cell_formula_units_Z 48
_cell_length_a 9.207434
_cell_length_b 14.191277
_cell_length_c 16.226031
_cell_angle_alpha 90.000000
_cell_angle_beta 90.000000
_cell_angle_gamma 90.000000
_cell_volume 2120.178338
_symmetry_space_group_name_H-M "P N N N"
_symmetry_group_IT_number 48
_space_group.IT_coordinate_system_code '2'
_symmetry_cell_setting 'orthorhombic'
loop_
_space_group_symop_operation_xyz
x,y,z
1/2-x,1/2-y,z
x,1/2-y,1/2-z
1/2-x,y,1/2-z
-x,-y,-z
1/2+x,1/2+y,-z
-x,1/2+y,1/2+z
1/2+x,-y,1/2+z
loop_
_atom_site_type_symbol
_atom_site_label
_atom_site_fract_x
_atom_site_fract_y
_atom_site_fract_z
Si Si1 0.122143 0.828366 0.527372
Si Si2 0.785316 0.507817 0.478112
Si Si3 0.007028 0.790898 0.355393
Si Si4 0.336727 0.156413 0.102834
Si Si5 0.750000 0.528455 0.750000
Si Si6 0.750000 0.250000 0.750000
Si Si7 0.038306 0.929928 0.126424
Si Si8 0.750000 0.750000 0.250000
O O1 0.250000 0.750000 0.524795
O O2 0.027178 0.837188 0.443344
O O3 0.000857 0.803856 0.594508
O O4 0.163980 0.934620 0.551724
O O5 0.723470 0.602567 0.520848
O O6 0.879767 0.528148 0.396109
O O7 0.869430 0.443797 0.544180
O O8 0.015884 0.678944 0.358081
O O9 0.854464 0.815522 0.308736
O O10 0.149615 0.821747 0.303233
O O11 0.250000 0.250000 0.120018
O O12 0.330328 0.089986 0.181522
O O13 0.617404 0.472635 0.793610
#
# Coordination Sequence:
#
# PCOD8201336 Si02
#       8
#     8   8   8   8   4   2   8   2
#     4  12  24  41  72 101 133 172 229 285 340 399
#     4  10  22  41  65 104 127 172 230 285 332 399
#     4  11  21  41  60  98 132 178 209 276 332 417
#     4  11  25  44  71  96 134 183 235 276 339 404
#     4  10  24  44  68  94 138 186 225 277 345 401
#     4  10  18  34  60  84 136 166 220 244 344 400
#     4  10  20  39  68  92 135 173 226 275 339 405
#     4  10  28  34  60  98 136 168 218 258 344 406
#
# _framework density 22.639603999999999
#
# number of rings (size 3 to 8) (size 9 to 14) (size 15 to 20)
#    0.000    1.333    2.500    2.250    8.167    4.000 
#    3.000    0.000    0.000    0.000    0.000    0.000 
#    0.000    0.000    0.000    0.000    0.000    0.000 
#
# Total GULP energy -594682.125368 kJ/mol
# GULP energy per Si atom -12389.210945 kJ/mol
# Density = 2.258808 g / cm^3
# Si number density = 22.639604 Si / 1000 Ang^3
#
#
#
# Elastic Constant Matrix: (Units=GPa)
#
#
# Indices 1 2 3 4 5 6 
#
# 1 141.7363 25.2850 62.6080 0.0000 0.0000 0.0000
# 2 25.2850 88.8397 30.6455 0.0000 0.0000 0.0000
# 3 62.6080 30.6455 95.6177 0.0000 0.0000 0.0000
# 4 0.0000 0.0000 0.0000 35.8890 0.0000 0.0000
# 5 0.0000 0.0000 0.0000 0.0000 123.5916 0.0000
# 6 0.0000 0.0000 0.0000 0.0000 0.0000 4.2582
#
#
#
# Elastic Compliance Matrix: (Units=1/GPa)
#
#
# Indices 1 2 3 4 5 6 
#
# 1 0.009960 -0.000658 -0.006311 0.000000 0.000000 0.000000
# 2 -0.000658 0.012699 -0.003639 0.000000 0.000000 0.000000
# 3 -0.006311 -0.003639 0.015757 0.000000 0.000000 0.000000
# 4 0.000000 0.000000 0.000000 0.027864 0.000000 0.000000
# 5 0.000000 0.000000 0.000000 0.000000 0.008091 0.000000
# 6 0.000000 0.000000 0.000000 0.000000 0.000000 0.234840
#
#
# Mechanical properties :
#
#
# Convention : Reuss Voigt Hill
#
# Bulk Modulus (GPa) = 58.13936 62.58563 60.36250
# Shear Modulus (GPa) = 14.87383 46.59143 30.73263
#
# Velocity S-wave (km/s) = 2.56595 4.54140 3.68839
# Velocity P-wave (km/s) = 5.87494 7.42990 6.69770
#
# Compressibility (1/GPa) = 0.01720005
#
# Stress axis : x y z
#
# Youngs Moduli (GPa) = 100.39741 78.74748 63.46414
#
# Poissons Ratio (x) = 0.05181 0.40052
# Poissons Ratio (y) = 0.06605 0.23096
# Poissons Ratio (z) = 0.63360 0.28658
#
# Static dielectric constant tensor:
#      x y z
#    x 4.609880 0.000000 0.000000 
#    y 0.000000 3.879330 0.000000 
#    z 0.000000 0.000000 4.272380 
# 
# 
# High freq. dielectric constant tensor:
#      x y z
#    x 1.909670 0.000000 0.000000 
#    y 0.000000 1.883410 0.000000 
#    z 0.000000 0.000000 1.884450 
# 
# From -- ./inp_files/27954.got.cif
#   From: 2010.06.25/outbox.cif.g09.slc.cpg/sg48_14_cif.got.tgz:27954.got - 2010.06.26 18:06:46.
