data_PCOD8201600
_publ_section_title
;
Structure prediction by ZEFSAII (Michael W. Deem and Ramdas Pophale) SiO2 
 PCOD8201600
Probable space group: P N N N
;
_chemical_formula_sum "Si O2"
_cell_formula_units_Z 40
_cell_length_a 22.224507
_cell_length_b 14.426256
_cell_length_c 6.424316
_cell_angle_alpha 90.000000
_cell_angle_beta 90.000000
_cell_angle_gamma 90.000000
_cell_volume 2059.741245
_symmetry_space_group_name_H-M "P N N N"
_symmetry_group_IT_number 48
_space_group.IT_coordinate_system_code '2'
_symmetry_cell_setting 'orthorhombic'
loop_
_space_group_symop_operation_xyz
x,y,z
1/2-x,1/2-y,z
x,1/2-y,1/2-z
1/2-x,y,1/2-z
-x,-y,-z
1/2+x,1/2+y,-z
-x,1/2+y,1/2+z
1/2+x,-y,1/2+z
loop_
_atom_site_type_symbol
_atom_site_label
_atom_site_fract_x
_atom_site_fract_y
_atom_site_fract_z
Si Si1 0.250000 0.250000 0.750000
Si Si2 0.552362 0.250000 0.750000
Si Si3 0.101748 0.006758 0.508975
Si Si4 0.309115 0.340304 0.372140
Si Si5 0.152577 0.814899 0.552415
Si Si6 0.001180 0.061621 0.796917
Si Si7 0.750000 0.250000 0.750000
O O1 0.292164 0.314562 0.608232
O O2 0.592430 0.277511 0.553535
O O3 0.509843 0.330395 0.841517
O O4 0.142161 0.078752 0.380126
O O5 0.067481 0.055201 0.698794
O O6 0.141671 0.923001 0.606759
O O7 0.052315 0.970404 0.350643
O O8 0.335094 0.250000 0.250000
O O9 0.250000 0.376318 0.250000
O O10 0.167309 0.750000 0.750000
O O11 0.208672 0.814574 0.394501
O O12 0.000000 0.000000 0.000000
#
# Coordination Sequence:
#
# PCOD8201600 Si02
#       7
#     2   4   8   8   8   8   2
#     4   8  18  38  52  80 110 150 190 224 302 342
#     4   9  20  36  56  78 114 152 186 241 288 350
#     4  10  22  36  57  86 112 149 197 236 295 357
#     4   9  20  38  58  83 119 151 192 248 289 351
#     4  10  20  38  55  79 114 148 190 241 292 347
#     4  10  21  37  56  84 114 150 193 239 293 351
#     4  10  22  36  56  80 106 144 194 234 292 352
#
# _framework density 19.419916000000001
#
# number of rings (size 3 to 8) (size 9 to 14) (size 15 to 20)
#    0.000    2.600    0.000    1.500    1.400    5.600 
#    3.600    2.000    0.000    0.000    0.000    0.000 
#    0.000    0.000    0.000    0.000    0.000    0.000 
#
# Total GULP energy -495904.523904 kJ/mol
# GULP energy per Si atom -12397.613098 kJ/mol
# Density = 1.937572 g / cm^3
# Si number density = 19.419916 Si / 1000 Ang^3
#
#
#
# Elastic Constant Matrix: (Units=GPa)
#
#
# Indices 1 2 3 4 5 6 
#
# 1 105.9701 69.6820 34.5748 0.0000 0.0000 0.0000
# 2 69.6820 145.8849 41.3891 0.0000 0.0000 0.0000
# 3 34.5748 41.3891 98.0385 0.0000 0.0000 0.0000
# 4 0.0000 0.0000 0.0000 29.6228 0.0000 0.0000
# 5 0.0000 0.0000 0.0000 0.0000 20.0231 0.0000
# 6 0.0000 0.0000 0.0000 0.0000 0.0000 24.7591
#
#
#
# Elastic Compliance Matrix: (Units=1/GPa)
#
#
# Indices 1 2 3 4 5 6 
#
# 1 0.014256 -0.006115 -0.002446 0.000000 0.000000 0.000000
# 2 -0.006115 0.010411 -0.002238 0.000000 0.000000 0.000000
# 3 -0.002446 -0.002238 0.012008 0.000000 0.000000 0.000000
# 4 0.000000 0.000000 0.000000 0.033758 0.000000 0.000000
# 5 0.000000 0.000000 0.000000 0.000000 0.049942 0.000000
# 6 0.000000 0.000000 0.000000 0.000000 0.000000 0.040389
#
#
# Mechanical properties :
#
#
# Convention : Reuss Voigt Hill
#
# Bulk Modulus (GPa) = 66.33505 71.24281 68.78893
# Shear Modulus (GPa) = 26.68260 28.49751 27.59005
#
# Velocity S-wave (km/s) = 3.71075 3.83487 3.77332
# Velocity P-wave (km/s) = 7.25203 7.50822 7.38124
#
# Compressibility (1/GPa) = 0.01507499
#
# Stress axis : x y z
#
# Youngs Moduli (GPa) = 70.14643 96.05376 83.28029
#
# Poissons Ratio (x) = 0.58741 0.20369
# Poissons Ratio (y) = 0.42898 0.18642
# Poissons Ratio (z) = 0.17156 0.21501
#
# Static dielectric constant tensor:
#      x y z
#    x 3.585850 0.000000 0.000000 
#    y 0.000000 3.696560 0.000000 
#    z 0.000000 0.000000 3.472030 
# 
# 
# High freq. dielectric constant tensor:
#      x y z
#    x 1.755660 0.000000 0.000000 
#    y 0.000000 1.756930 0.000000 
#    z 0.000000 0.000000 1.754360 
# 
# From -- ./inp_files/3394.got.cif
#   From: 2010.06.25/outbox.cif.g09.slc.cpg/sg48_2_cif.got.tgz:3394.got - 2010.06.26 18:06:46.
