data_PCOD8201937
_publ_section_title
;
Structure prediction by ZEFSAII (Michael W. Deem and Ramdas Pophale) SiO2 
 PCOD8201937
Probable space group: P N N N
;
_chemical_formula_sum "Si O2"
_cell_formula_units_Z 64
_cell_length_a 15.058176
_cell_length_b 8.749084
_cell_length_c 22.870430
_cell_angle_alpha 90.000000
_cell_angle_beta 90.000000
_cell_angle_gamma 90.000000
_cell_volume 3013.070443
_symmetry_space_group_name_H-M "P N N N"
_symmetry_group_IT_number 48
_space_group.IT_coordinate_system_code '2'
_symmetry_cell_setting 'orthorhombic'
loop_
_space_group_symop_operation_xyz
x,y,z
1/2-x,1/2-y,z
x,1/2-y,1/2-z
1/2-x,y,1/2-z
-x,-y,-z
1/2+x,1/2+y,-z
-x,1/2+y,1/2+z
1/2+x,-y,1/2+z
loop_
_atom_site_type_symbol
_atom_site_label
_atom_site_fract_x
_atom_site_fract_y
_atom_site_fract_z
Si Si1 0.418032 0.024828 0.042958
Si Si2 0.491235 0.761674 0.608615
Si Si3 0.435362 0.594398 0.722019
Si Si4 0.854876 0.238392 0.898008
Si Si5 0.156703 0.179583 0.666910
Si Si6 0.224592 0.089902 0.544184
Si Si7 0.159206 0.837099 0.973966
Si Si8 0.502550 0.073340 0.670681
O O1 0.425158 0.193054 0.072669
O O2 0.405655 0.900153 0.094286
O O3 0.330107 0.001063 0.004907
O O4 0.500000 0.000000 0.000000
O O5 0.484289 0.648302 0.663697
O O6 0.407450 0.741833 0.565978
O O7 0.496799 0.940371 0.622098
O O8 0.392449 0.750000 0.750000
O O9 0.361966 0.465421 0.708603
O O10 0.505117 0.513219 0.766620
O O11 0.750000 0.250000 0.882853
O O12 0.904584 0.157950 0.843149
O O13 0.872687 0.145944 0.958686
O O14 0.250000 0.250000 0.688200
O O15 0.165879 0.114494 0.601850
O O16 0.079641 0.307880 0.668884
O O17 0.250000 0.250000 0.516270
O O18 0.317971 0.001990 0.554964
O O19 0.250000 0.750000 0.971578
#
# Coordination Sequence:
#
# PCOD8201937 Si02
#       8
#     8   8   8   8   8   8   8   8
#     4  12  21  36  59  92 127 171 214 265 334 404
#     4  11  23  37  66  94 129 174 217 275 349 399
#     4  10  23  44  66  95 129 174 230 283 336 398
#     4  11  23  41  63  94 131 176 223 274 341 408
#     4  11  23  43  67  97 138 175 220 272 348 413
#     4  11  23  37  58  93 135 170 207 263 333 402
#     4  11  20  38  59  91 134 171 217 266 326 421
#     4  11  25  42  64  96 131 175 228 284 329 409
#
# _framework density 21.240791000000002
#
# number of rings (size 3 to 8) (size 9 to 14) (size 15 to 20)
#    0.000    1.000    3.750    4.875    1.750    1.500 
#    0.000    6.250    0.000    6.000    0.000    8.750 
#    0.000    0.000    0.000    0.000    0.000    0.000 
#
# Total GULP energy -792917.920898 kJ/mol
# GULP energy per Si atom -12389.342514 kJ/mol
# Density = 2.119245 g / cm^3
# Si number density = 21.240791 Si / 1000 Ang^3
#
#
#
# Elastic Constant Matrix: (Units=GPa)
#
#
# Indices 1 2 3 4 5 6 
#
# 1 109.5042 58.1992 51.2257 0.0000 0.0000 0.0000
# 2 58.1992 145.2516 45.8399 0.0000 0.0000 0.0000
# 3 51.2257 45.8399 87.0215 0.0000 0.0000 0.0000
# 4 0.0000 0.0000 0.0000 30.5217 0.0000 0.0000
# 5 0.0000 0.0000 0.0000 0.0000 20.0773 0.0000
# 6 0.0000 0.0000 0.0000 0.0000 0.0000 37.2897
#
#
#
# Elastic Compliance Matrix: (Units=1/GPa)
#
#
# Indices 1 2 3 4 5 6 
#
# 1 0.014024 -0.003615 -0.006351 0.000000 0.000000 0.000000
# 2 -0.003615 0.009189 -0.002713 0.000000 0.000000 0.000000
# 3 -0.006351 -0.002713 0.016659 0.000000 0.000000 0.000000
# 4 0.000000 0.000000 0.000000 0.032764 0.000000 0.000000
# 5 0.000000 0.000000 0.000000 0.000000 0.049807 0.000000
# 6 0.000000 0.000000 0.000000 0.000000 0.000000 0.026817
#
#
# Mechanical properties :
#
#
# Convention : Reuss Voigt Hill
#
# Bulk Modulus (GPa) = 68.89445 72.47854 70.68650
# Shear Modulus (GPa) = 27.86187 30.01190 28.93689
#
# Velocity S-wave (km/s) = 3.62569 3.76298 3.69497
# Velocity P-wave (km/s) = 7.07339 7.28536 7.18016
#
# Compressibility (1/GPa) = 0.01451496
#
# Stress axis : x y z
#
# Youngs Moduli (GPa) = 71.30409 108.82495 60.02730
#
# Poissons Ratio (x) = 0.39339 0.38126
# Poissons Ratio (y) = 0.25775 0.16283
# Poissons Ratio (z) = 0.45288 0.29520
#
# Static dielectric constant tensor:
#      x y z
#    x 4.036740 0.000000 0.000000 
#    y 0.000000 4.666150 0.000000 
#    z 0.000000 0.000000 3.995620 
# 
# 
# High freq. dielectric constant tensor:
#      x y z
#    x 1.806030 0.000000 0.000000 
#    y 0.000000 1.859880 0.000000 
#    z 0.000000 0.000000 1.829390 
# 
# From -- ./inp_files/36581.got.cif
#   From: 2010.06.25/outbox.cif.g09.slc.cpg/sg48_19_cif.got.tgz:36581.got - 2010.06.26 18:06:46.
