data_PCOD8201964
_publ_section_title
;
Structure prediction by ZEFSAII (Michael W. Deem and Ramdas Pophale) SiO2 
 PCOD8201964
Probable space group: P N N N
;
_chemical_formula_sum "Si O2"
_cell_formula_units_Z 40
_cell_length_a 9.250497
_cell_length_b 15.849375
_cell_length_c 12.695519
_cell_angle_alpha 90.000000
_cell_angle_beta 90.000000
_cell_angle_gamma 90.000000
_cell_volume 1861.348388
_symmetry_space_group_name_H-M "P N N N"
_symmetry_group_IT_number 48
_space_group.IT_coordinate_system_code '2'
_symmetry_cell_setting 'orthorhombic'
loop_
_space_group_symop_operation_xyz
x,y,z
1/2-x,1/2-y,z
x,1/2-y,1/2-z
1/2-x,y,1/2-z
-x,-y,-z
1/2+x,1/2+y,-z
-x,1/2+y,1/2+z
1/2+x,-y,1/2+z
loop_
_atom_site_type_symbol
_atom_site_label
_atom_site_fract_x
_atom_site_fract_y
_atom_site_fract_z
Si Si1 0.892539 0.509908 0.295909
Si Si2 0.662370 0.665698 0.059108
Si Si3 0.917360 0.238264 0.630928
Si Si4 0.427490 0.551234 0.406860
Si Si5 0.321636 0.063582 0.359576
O O1 0.750000 0.460648 0.250000
O O2 0.820126 0.586971 0.361093
O O3 0.996243 0.538902 0.203690
O O4 0.003543 0.451412 0.362661
O O5 0.750000 0.750000 0.095418
O O6 0.493634 0.691195 0.059370
O O7 0.711252 0.637443 0.943099
O O8 0.750000 0.250000 0.632568
O O9 0.978469 0.250000 0.750000
O O10 0.946526 0.149805 0.572535
O O11 0.500000 0.500000 0.500000
O O12 0.260161 0.522616 0.395214
O O13 0.250000 0.094923 0.250000
#
# Coordination Sequence:
#
# PCOD8201964 Si02
#       5
#     8   8   8   8   8
#     4  11  22  37  62  93 125 163 220 275 322 397
#     4  12  24  40  64  97 130 168 217 279 336 388
#     4  11  23  38  64  96 135 170 210 276 343 397
#     4  11  22  41  61  92 131 178 218 265 341 406
#     4  10  24  43  65  89 129 177 223 268 331 409
#
# _framework density 21.489799000000001
#
# number of rings (size 3 to 8) (size 9 to 14) (size 15 to 20)
#    0.000    1.000    2.000    5.400    5.600    2.000 
#    0.000    0.000    0.000    0.000    0.000    4.200 
#    0.000    0.000    0.000    0.000    0.000    0.000 
#
# Total GULP energy -495655.674181 kJ/mol
# GULP energy per Si atom -12391.391855 kJ/mol
# Density = 2.144089 g / cm^3
# Si number density = 21.489799 Si / 1000 Ang^3
#
#
#
# Elastic Constant Matrix: (Units=GPa)
#
#
# Indices 1 2 3 4 5 6 
#
# 1 123.4431 21.1763 23.7639 0.0000 0.0000 0.0000
# 2 21.1763 76.8484 46.6731 0.0000 0.0000 0.0000
# 3 23.7639 46.6731 107.8469 0.0000 0.0000 0.0000
# 4 0.0000 0.0000 0.0000 58.4643 0.0000 0.0000
# 5 0.0000 0.0000 0.0000 0.0000 30.3817 0.0000
# 6 0.0000 0.0000 0.0000 0.0000 0.0000 32.0617
#
#
#
# Elastic Compliance Matrix: (Units=1/GPa)
#
#
# Indices 1 2 3 4 5 6 
#
# 1 0.008612 -0.001656 -0.001181 0.000000 0.000000 0.000000
# 2 -0.001656 0.017971 -0.007412 0.000000 0.000000 0.000000
# 3 -0.001181 -0.007412 0.012741 0.000000 0.000000 0.000000
# 4 0.000000 0.000000 0.000000 0.017104 0.000000 0.000000
# 5 0.000000 0.000000 0.000000 0.000000 0.032915 0.000000
# 6 0.000000 0.000000 0.000000 0.000000 0.000000 0.031190
#
#
# Mechanical properties :
#
#
# Convention : Reuss Voigt Hill
#
# Bulk Modulus (GPa) = 53.12109 54.59612 53.85860
# Shear Modulus (GPa) = 33.94292 38.61654 36.27973
#
# Velocity S-wave (km/s) = 3.97859 4.24367 4.11327
# Velocity P-wave (km/s) = 6.77336 7.03366 6.90474
#
# Compressibility (1/GPa) = 0.01882492
#
# Stress axis : x y z
#
# Youngs Moduli (GPa) = 116.11256 55.64594 78.48976
#
# Poissons Ratio (x) = 0.09214 0.09270
# Poissons Ratio (y) = 0.19227 0.58179
# Poissons Ratio (z) = 0.13714 0.41247
#
# Static dielectric constant tensor:
#      x y z
#    x 4.617730 0.000000 0.000000 
#    y 0.000000 3.231370 0.000000 
#    z 0.000000 0.000000 3.774670 
# 
# 
# High freq. dielectric constant tensor:
#      x y z
#    x 1.866330 0.000000 0.000000 
#    y 0.000000 1.815480 0.000000 
#    z 0.000000 0.000000 1.838810 
# 
# From -- ./inp_files/10669.got.cif
#   From: 2010.06.25/outbox.cif.g09.slc.cpg/sg48_6_cif.got.tgz:10669.got - 2010.06.26 18:06:46.
