data_PCOD8201451
_publ_section_title
;
Structure prediction by ZEFSAII (Michael W. Deem and Ramdas Pophale) SiO2 
 PCOD8201451
Probable space group: P N N N
;
_chemical_formula_sum "Si O2"
_cell_formula_units_Z 48
_cell_length_a 8.720652
_cell_length_b 19.172874
_cell_length_c 14.722007
_cell_angle_alpha 90.000000
_cell_angle_beta 90.000000
_cell_angle_gamma 90.000000
_cell_volume 2461.519011
_symmetry_space_group_name_H-M "P N N N"
_symmetry_group_IT_number 48
_space_group.IT_coordinate_system_code '2'
_symmetry_cell_setting 'orthorhombic'
loop_
_space_group_symop_operation_xyz
x,y,z
1/2-x,1/2-y,z
x,1/2-y,1/2-z
1/2-x,y,1/2-z
-x,-y,-z
1/2+x,1/2+y,-z
-x,1/2+y,1/2+z
1/2+x,-y,1/2+z
loop_
_atom_site_type_symbol
_atom_site_label
_atom_site_fract_x
_atom_site_fract_y
_atom_site_fract_z
Si Si1 0.482643 0.962228 0.631264
Si Si2 0.069644 0.757534 0.145707
Si Si3 0.750000 0.924024 0.750000
Si Si4 0.139672 0.189908 0.521162
Si Si5 0.750000 0.375426 0.250000
Si Si6 0.577061 0.606278 0.051765
Si Si7 0.964791 0.809147 0.677730
O O1 0.648310 0.969666 0.680634
O O2 0.358363 0.923171 0.690625
O O3 0.491668 0.915966 0.540376
O O4 0.422577 0.040206 0.617962
O O5 0.250000 0.750000 0.136435
O O6 0.017095 0.750000 0.250000
O O7 0.000253 0.690246 0.092545
O O8 0.011131 0.829861 0.100285
O O9 0.866328 0.877914 0.692350
O O10 0.250000 0.250000 0.556817
O O11 0.243484 0.120460 0.525988
O O12 0.072816 0.214303 0.423950
O O13 0.645239 0.325962 0.313402
O O14 0.915609 0.750000 0.750000
#
# Coordination Sequence:
#
# PCOD8201451 Si02
#       7
#     8   8   4   8   4   8   8
#     4  10  22  41  61  89 124 170 201 257 299 386
#     4  10  24  41  62  92 119 153 207 266 313 360
#     4  10  19  36  60  84 123 156 208 234 300 372
#     4  10  21  37  62  89 118 159 200 253 303 371
#     4  10  25  36  56  92 125 152 210 244 310 370
#     4  10  22  42  64  86 125 163 210 250 315 360
#     4  11  21  34  56  89 123 160 192 250 310 371
#
# _framework density 19.500153000000001
#
# number of rings (size 3 to 8) (size 9 to 14) (size 15 to 20)
#    0.000    1.833    1.667    1.500    9.333    5.667 
#    0.000    2.500    0.000    0.000    0.000    0.000 
#    0.000    0.000    0.000    0.000    0.000    0.000 
#
# Total GULP energy -594925.839545 kJ/mol
# GULP energy per Si atom -12394.288324 kJ/mol
# Density = 1.945577 g / cm^3
# Si number density = 19.500153 Si / 1000 Ang^3
#
#
#
# Elastic Constant Matrix: (Units=GPa)
#
#
# Indices 1 2 3 4 5 6 
#
# 1 107.6306 40.5488 50.8626 0.0000 0.0000 0.0000
# 2 40.5488 92.3720 39.9534 0.0000 0.0000 0.0000
# 3 50.8626 39.9534 124.3736 0.0000 0.0000 0.0000
# 4 0.0000 0.0000 0.0000 21.9525 0.0000 0.0000
# 5 0.0000 0.0000 0.0000 0.0000 32.9724 0.0000
# 6 0.0000 0.0000 0.0000 0.0000 0.0000 26.5359
#
#
#
# Elastic Compliance Matrix: (Units=1/GPa)
#
#
# Indices 1 2 3 4 5 6 
#
# 1 0.012585 -0.003831 -0.003916 0.000000 0.000000 0.000000
# 2 -0.003831 0.013739 -0.002847 0.000000 0.000000 0.000000
# 3 -0.003916 -0.002847 0.010556 0.000000 0.000000 0.000000
# 4 0.000000 0.000000 0.000000 0.045553 0.000000 0.000000
# 5 0.000000 0.000000 0.000000 0.000000 0.030328 0.000000
# 6 0.000000 0.000000 0.000000 0.000000 0.000000 0.037685
#
#
# Mechanical properties :
#
#
# Convention : Reuss Voigt Hill
#
# Bulk Modulus (GPa) = 63.72355 65.23396 64.47876
# Shear Modulus (GPa) = 28.27039 29.15959 28.71499
#
# Velocity S-wave (km/s) = 3.81169 3.87117 3.84155
# Velocity P-wave (km/s) = 7.21952 7.31485 7.26734
#
# Compressibility (1/GPa) = 0.01569279
#
# Stress axis : x y z
#
# Youngs Moduli (GPa) = 79.46127 72.78735 94.73056
#
# Poissons Ratio (x) = 0.27882 0.37097
# Poissons Ratio (y) = 0.30438 0.26968
# Poissons Ratio (z) = 0.31117 0.20721
#
# Static dielectric constant tensor:
#      x y z
#    x 4.025240 0.000000 0.000000 
#    y 0.000000 3.519060 0.000000 
#    z 0.000000 0.000000 3.680970 
# 
# 
# High freq. dielectric constant tensor:
#      x y z
#    x 1.772420 0.000000 0.000000 
#    y 0.000000 1.742570 0.000000 
#    z 0.000000 0.000000 1.766310 
# 
# From -- ./inp_files/14189.got.cif
#   From: 2010.06.25/outbox.cif.g09.slc.cpg/sg48_8_cif.got.tgz:14189.got - 2010.06.26 18:06:46.
