data_PCOD8201259
_publ_section_title
;
Structure prediction by ZEFSAII (Michael W. Deem and Ramdas Pophale) SiO2 
 PCOD8201259
Probable space group: P N N N
;
_chemical_formula_sum "Si O2"
_cell_formula_units_Z 40
_cell_length_a 5.319615
_cell_length_b 22.383245
_cell_length_c 14.284032
_cell_angle_alpha 90.000000
_cell_angle_beta 90.000000
_cell_angle_gamma 90.000000
_cell_volume 1700.803202
_symmetry_space_group_name_H-M "P N N N"
_symmetry_group_IT_number 48
_space_group.IT_coordinate_system_code '2'
_symmetry_cell_setting 'orthorhombic'
loop_
_space_group_symop_operation_xyz
x,y,z
1/2-x,1/2-y,z
x,1/2-y,1/2-z
1/2-x,y,1/2-z
-x,-y,-z
1/2+x,1/2+y,-z
-x,1/2+y,1/2+z
1/2+x,-y,1/2+z
loop_
_atom_site_type_symbol
_atom_site_label
_atom_site_fract_x
_atom_site_fract_y
_atom_site_fract_z
Si Si1 0.000000 0.665008 0.697725
Si Si2 0.500000 0.640308 0.008606
Si Si3 0.500000 0.460946 0.271551
Si Si4 0.500000 0.683374 0.210033
Si Si5 0.000000 0.069564 0.478365
O O1 0.250000 0.690575 0.750000
O O2 0.000000 0.680607 0.586522
O O3 0.750000 0.690575 0.750000
O O4 0.000000 0.592625 0.695594
O O5 0.749334 0.599729 0.018501
O O6 0.250666 0.599729 0.018501
O O7 0.500000 0.684819 0.097026
O O8 0.250000 0.500424 0.250000
O O9 0.500000 0.424599 0.367124
O O10 0.750000 0.500424 0.250000
O O11 0.500000 0.750000 0.250000
O O12 0.750000 0.650296 0.250000
O O13 0.250000 0.650296 0.250000
O O14 0.000000 0.000000 0.500000
#
# Coordination Sequence:
#
# PCOD8201259 Si02
#       5
#     8   8   8   8   8
#     4  10  16  30  56  84 114 146 200 242 294 378
#     4  12  21  38  64  88 121 164 218 265 319 406
#     4  10  16  32  51  72 114 154 205 243 287 361
#     4  10  23  45  70  93 121 162 223 287 341 400
#     4  12  23  35  53  89 130 172 212 256 316 385
#
# _framework density 23.5183
#
# number of rings (size 3 to 8) (size 9 to 14) (size 15 to 20)
#    0.000    1.200    8.000    1.800    0.000    0.000 
#    0.000    6.000    0.000    0.000    0.000   16.800 
#    0.000    0.000    0.000    0.000    0.000    0.000 
#
# Total GULP energy -495546.374423 kJ/mol
# GULP energy per Si atom -12388.659361 kJ/mol
# Density = 2.346477 g / cm^3
# Si number density = 23.518300 Si / 1000 Ang^3
#
#
#
# Elastic Constant Matrix: (Units=GPa)
#
#
# Indices 1 2 3 4 5 6 
#
# 1 286.6590 26.9995 73.8825 0.0000 0.0000 0.0000
# 2 26.9995 48.0787 34.5287 0.0000 0.0000 0.0000
# 3 73.8825 34.5287 199.0551 0.0000 0.0000 0.0000
# 4 0.0000 0.0000 0.0000 12.4561 0.0000 0.0000
# 5 0.0000 0.0000 0.0000 0.0000 29.3628 0.0000
# 6 0.0000 0.0000 0.0000 0.0000 0.0000 -757.1604
#
#
#
# Elastic Compliance Matrix: (Units=1/GPa)
#
#
# Indices 1 2 3 4 5 6 
#
# 1 0.003930 -0.001324 -0.001229 0.000000 0.000000 0.000000
# 2 -0.001324 0.024205 -0.003707 0.000000 0.000000 0.000000
# 3 -0.001229 -0.003707 0.006123 0.000000 0.000000 0.000000
# 4 0.000000 0.000000 0.000000 0.080282 0.000000 0.000000
# 5 0.000000 0.000000 0.000000 0.000000 0.034057 0.000000
# 6 0.000000 0.000000 0.000000 0.000000 0.000000 -0.001321
#
#
# Mechanical properties :
#
#
# Convention : Reuss Voigt Hill
#
# Bulk Modulus (GPa) = 46.00393 89.40158 67.70275
# Shear Modulus (GPa) = 29.93246 -116.50947 -43.28851
#
# Velocity S-wave (km/s) = 3.57141 -7.04610 -4.29491
# Velocity P-wave (km/s) = 6.05062 5.30099 2.06270
#
# Compressibility (1/GPa) = 0.02173727
#
# Stress axis : x y z
#
# Youngs Moduli (GPa) = 254.45666 41.31323 163.32045
#
# Poissons Ratio (x) = 0.05471 0.20071
# Poissons Ratio (y) = 0.33699 0.60546
# Poissons Ratio (z) = 0.31271 0.15316
#
# Static dielectric constant tensor:
#      x y z
#    x 7.165290 0.000000 0.000000 
#    y 0.000000 3.359910 0.000000 
#    z 0.000000 0.000000 1.818900 
# 
# 
# High freq. dielectric constant tensor:
#      x y z
#    x 1.979170 0.000000 0.000000 
#    y 0.000000 1.855260 0.000000 
#    z 0.000000 0.000000 1.938750 
# 
# From -- ./inp_files/24315.got.cif
#   From: 2010.06.25/outbox.cif.g09.slc.cpg/sg48_13_cif.got.tgz:24315.got - 2010.06.26 18:06:46.
