data_PCOD8201061
_publ_section_title
;
Structure prediction by ZEFSAII (Michael W. Deem and Ramdas Pophale) SiO2 
 PCOD8201061
Probable space group: P M M M
;
_chemical_formula_sum "Si O2"
_cell_formula_units_Z 52
_cell_length_a 15.772561
_cell_length_b 19.827076
_cell_length_c 9.800823
_cell_angle_alpha 90.000000
_cell_angle_beta 90.000000
_cell_angle_gamma 90.000000
_cell_volume 3064.950275
_symmetry_space_group_name_H-M "P M M M"
_symmetry_group_IT_number 47
_symmetry_cell_setting 'orthorhombic'
loop_
_space_group_symop_operation_xyz
x,y,z
-x,-y,z
x,-y,-z
-x,y,-z
-x,-y,-z
x,y,-z
-x,y,z
x,-y,z
loop_
_atom_site_type_symbol
_atom_site_label
_atom_site_fract_x
_atom_site_fract_y
_atom_site_fract_z
Si Si1 0.901837 0.313916 0.148242
Si Si2 0.747794 0.920830 0.841376
Si Si3 0.500000 0.580654 0.152279
Si Si4 0.095025 0.833491 0.161993
Si Si5 0.833111 0.577039 0.342362
Si Si6 0.641803 0.420017 0.649314
Si Si7 0.594605 0.919926 0.654123
O O1 0.871318 0.241220 0.206142
O O2 0.890153 0.374392 0.253297
O O3 0.000000 0.304681 0.122817
O O4 0.859183 0.330404 0.000000
O O5 0.834482 0.886503 0.785751
O O6 0.666841 0.892274 0.756947
O O7 0.759585 0.000000 0.817872
O O8 0.731614 0.903732 0.000000
O O9 0.500000 0.500000 0.147814
O O10 0.581821 0.608951 0.232324
O O11 0.500000 0.610691 0.000000
O O12 0.000000 0.849709 0.221496
O O13 0.089412 0.836633 0.000000
O O14 0.858865 0.583929 0.500000
O O15 0.846375 0.500000 0.294029
O O16 0.737195 0.601304 0.317659
O O17 0.614466 0.391947 0.500000
O O18 0.635169 0.500000 0.644148
O O19 0.615151 0.895463 0.500000
O O20 0.500000 0.894166 0.697152
O O21 0.594758 0.000000 0.659711
#
# Coordination Sequence:
#
# PCOD8201061 Si02
#       7
#     8   8   4   8   8   8   8
#     4   9  18  32  48  64  84 115 151 182 217 266
#     4   9  16  25  42  70  96 118 151 193 230 262
#     4   9  15  21  33  57  85 109 135 167 200 237
#     4   8  15  29  46  64  90 122 153 185 224 271
#     4   9  18  31  46  66  90 113 140 179 226 269
#     4   8  14  25  39  55  79 110 137 161 200 254
#     4   8  14  25  40  59  88 125 156 182 221 272
#
# _framework density 16.966017000000001
#
# number of rings (size 3 to 8) (size 9 to 14) (size 15 to 20)
#    0.000    3.462    0.000    2.538    0.000    3.077 
#    0.000    6.923    0.000    1.385    2.000    2.154 
#    0.000    0.000    0.000    0.000    0.000    0.000 
#
# Total GULP energy -644250.087153 kJ/mol
# GULP energy per Si atom -12389.424753 kJ/mol
# Density = 1.692740 g / cm^3
# Si number density = 16.966017 Si / 1000 Ang^3
#
#
#
# Elastic Constant Matrix: (Units=GPa)
#
#
# Indices 1 2 3 4 5 6 
#
# 1 89.7909 36.7172 44.3576 0.0000 0.0000 0.0000
# 2 36.7172 51.8489 31.2184 0.0000 0.0000 0.0000
# 3 44.3576 31.2184 72.8357 0.0000 0.0000 0.0000
# 4 0.0000 0.0000 0.0000 10.6465 0.0000 0.0000
# 5 0.0000 0.0000 0.0000 0.0000 24.5404 0.0000
# 6 0.0000 0.0000 0.0000 0.0000 0.0000 5.1041
#
#
#
# Elastic Compliance Matrix: (Units=1/GPa)
#
#
# Indices 1 2 3 4 5 6 
#
# 1 0.018306 -0.008425 -0.007537 0.000000 0.000000 0.000000
# 2 -0.008425 0.029873 -0.007673 0.000000 0.000000 0.000000
# 3 -0.007537 -0.007673 0.021609 0.000000 0.000000 0.000000
# 4 0.000000 0.000000 0.000000 0.093927 0.000000 0.000000
# 5 0.000000 0.000000 0.000000 0.000000 0.040749 0.000000
# 6 0.000000 0.000000 0.000000 0.000000 0.000000 0.195922
#
#
# Mechanical properties :
#
#
# Convention : Reuss Voigt Hill
#
# Bulk Modulus (GPa) = 44.41178 48.78466 46.59822
# Shear Modulus (GPa) = 10.98511 14.87035 12.92773
#
# Velocity S-wave (km/s) = 2.54732 2.96375 2.76339
# Velocity P-wave (km/s) = 5.90639 6.36620 6.14060
#
# Compressibility (1/GPa) = 0.02251655
#
# Stress axis : x y z
#
# Youngs Moduli (GPa) = 54.62810 33.47498 46.27808
#
# Poissons Ratio (x) = 0.28203 0.34881
# Poissons Ratio (y) = 0.46025 0.35509
# Poissons Ratio (z) = 0.41174 0.25686
#
# Static dielectric constant tensor:
#      x y z
#    x 3.445760 0.000000 0.000000 
#    y 0.000000 2.864820 0.000000 
#    z 0.000000 0.000000 3.170650 
# 
# 
# High freq. dielectric constant tensor:
#      x y z
#    x 1.657100 0.000000 0.000000 
#    y 0.000000 1.608240 0.000000 
#    z 0.000000 0.000000 1.640200 
# 
# From -- ./inp_files/9534.got.cif
#   From: 2010.03.12/outbox.cif.g09.slc.cpg/sg47_5_cif.got.tgz:9534.got - 2010.04.14 03:12:58.
