data_PCOD8201365
_publ_section_title
;
Structure prediction by ZEFSAII (Michael W. Deem and Ramdas Pophale) SiO2 
 PCOD8201365
Probable space group: P N N N
;
_chemical_formula_sum "Si O2"
_cell_formula_units_Z 38
_cell_length_a 9.457030
_cell_length_b 11.523539
_cell_length_c 17.195314
_cell_angle_alpha 90.000000
_cell_angle_beta 90.000000
_cell_angle_gamma 90.000000
_cell_volume 1873.918736
_symmetry_space_group_name_H-M "P N N N"
_symmetry_group_IT_number 48
_space_group.IT_coordinate_system_code '2'
_symmetry_cell_setting 'orthorhombic'
loop_
_space_group_symop_operation_xyz
x,y,z
1/2-x,1/2-y,z
x,1/2-y,1/2-z
1/2-x,y,1/2-z
-x,-y,-z
1/2+x,1/2+y,-z
-x,1/2+y,1/2+z
1/2+x,-y,1/2+z
loop_
_atom_site_type_symbol
_atom_site_label
_atom_site_fract_x
_atom_site_fract_y
_atom_site_fract_z
Si Si1 0.766927 0.378573 0.897206
Si Si2 0.750000 0.750000 0.750000
Si Si3 0.783720 0.377872 0.418525
Si Si4 0.064162 0.439630 0.925092
Si Si5 0.602622 0.902439 0.625568
Si Si6 0.750000 0.750000 0.498055
O O1 0.750000 0.250000 0.862845
O O2 0.660707 0.468853 0.857352
O O3 0.926656 0.414891 0.873026
O O4 0.730273 0.380288 0.988715
O O5 0.642045 0.824803 0.699058
O O6 0.750000 0.250000 0.386127
O O7 0.672654 0.471658 0.383154
O O8 0.936595 0.413490 0.387937
O O9 0.136607 0.316494 0.944954
O O10 0.000000 0.500000 0.000000
O O11 0.672328 0.847828 0.548544
#
# Coordination Sequence:
#
# PCOD8201365 Si02
#       6
#     8   2   8   8   8   4
#     4  10  20  33  57  89 119 147 185 237 308 363
#     4  10  28  40  60  76 112 164 220 246 274 336
#     4  10  20  32  56  88 121 147 185 238 306 361
#     4  10  19  31  48  89 122 149 181 229 304 362
#     4  11  21  38  56  77 115 160 202 237 286 345
#     4  11  18  29  56  76 124 151 175 238 290 368
#
# _framework density 20.278362999999999
#
# number of rings (size 3 to 8) (size 9 to 14) (size 15 to 20)
#    0.000    1.684    4.211    4.421    5.895    0.000 
#    0.000    1.053    0.000    0.000    0.000    0.000 
#    0.000    0.000    0.000    0.000    0.000    0.000 
#
# Total GULP energy -471068.463538 kJ/mol
# GULP energy per Si atom -12396.538514 kJ/mol
# Density = 2.023221 g / cm^3
# Si number density = 20.278363 Si / 1000 Ang^3
#
#
#
# Elastic Constant Matrix: (Units=GPa)
#
#
# Indices 1 2 3 4 5 6 
#
# 1 194.3191 83.8048 24.9493 0.0000 0.0000 0.0000
# 2 83.8048 177.3646 18.3077 0.0000 0.0000 0.0000
# 3 24.9493 18.3077 27.1205 0.0000 0.0000 0.0000
# 4 0.0000 0.0000 0.0000 7.5755 0.0000 0.0000
# 5 0.0000 0.0000 0.0000 0.0000 9.1002 0.0000
# 6 0.0000 0.0000 0.0000 0.0000 0.0000 50.6543
#
#
#
# Elastic Compliance Matrix: (Units=1/GPa)
#
#
# Indices 1 2 3 4 5 6 
#
# 1 0.006935 -0.002814 -0.004480 0.000000 0.000000 0.000000
# 2 -0.002814 0.007203 -0.002273 0.000000 0.000000 0.000000
# 3 -0.004480 -0.002273 0.042528 0.000000 0.000000 0.000000
# 4 0.000000 0.000000 0.000000 0.132004 0.000000 0.000000
# 5 0.000000 0.000000 0.000000 0.000000 0.109887 0.000000
# 6 0.000000 0.000000 0.000000 0.000000 0.000000 0.019742
#
#
# Mechanical properties :
#
#
# Convention : Reuss Voigt Hill
#
# Bulk Modulus (GPa) = 26.64465 72.54752 49.59608
# Shear Modulus (GPa) = 14.28798 31.58217 22.93508
#
# Velocity S-wave (km/s) = 2.65730 3.95071 3.36670
# Velocity P-wave (km/s) = 4.75215 7.52757 6.29473
#
# Compressibility (1/GPa) = 0.03753098
#
# Stress axis : x y z
#
# Youngs Moduli (GPa) = 144.19235 138.83994 23.51383
#
# Poissons Ratio (x) = 0.39076 0.10534
# Poissons Ratio (y) = 0.40582 0.05345
# Poissons Ratio (z) = 0.64599 0.31558
#
# Static dielectric constant tensor:
#      x y z
#    x 4.186150 0.000000 0.000000 
#    y 0.000000 4.205450 0.000000 
#    z 0.000000 0.000000 2.974030 
# 
# 
# High freq. dielectric constant tensor:
#      x y z
#    x 1.811780 0.000000 0.000000 
#    y 0.000000 1.816200 0.000000 
#    z 0.000000 0.000000 1.709350 
# 
# From -- ./inp_files/10732.got.cif
#   From: 2010.06.25/outbox.cif.g09.slc.cpg/sg48_6_cif.got.tgz:10732.got - 2010.06.26 18:06:46.
