data_PCOD8201376
_publ_section_title
;
Structure prediction by ZEFSAII (Michael W. Deem and Ramdas Pophale) SiO2 
 PCOD8201376
Probable space group: P N N N
;
_chemical_formula_sum "Si O2"
_cell_formula_units_Z 64
_cell_length_a 16.467588
_cell_length_b 14.009677
_cell_length_c 16.526523
_cell_angle_alpha 90.000000
_cell_angle_beta 90.000000
_cell_angle_gamma 90.000000
_cell_volume 3812.761220
_symmetry_space_group_name_H-M "P N N N"
_symmetry_group_IT_number 48
_space_group.IT_coordinate_system_code '2'
_symmetry_cell_setting 'orthorhombic'
loop_
_space_group_symop_operation_xyz
x,y,z
1/2-x,1/2-y,z
x,1/2-y,1/2-z
1/2-x,y,1/2-z
-x,-y,-z
1/2+x,1/2+y,-z
-x,1/2+y,1/2+z
1/2+x,-y,1/2+z
loop_
_atom_site_type_symbol
_atom_site_label
_atom_site_fract_x
_atom_site_fract_y
_atom_site_fract_z
Si Si1 0.403140 0.361370 0.439643
Si Si2 0.154493 0.466202 0.592295
Si Si3 0.568323 0.140609 0.155105
Si Si4 0.653724 0.644310 0.250001
Si Si5 0.596863 0.861368 0.560358
Si Si6 0.250002 0.362988 0.338829
Si Si7 0.068320 0.859391 0.844892
Si Si8 0.654498 0.966203 0.092294
O O1 0.483519 0.380433 0.388545
O O2 0.393771 0.250001 0.463541
O O3 0.329511 0.398099 0.384845
O O4 0.400445 0.425925 0.519738
O O5 0.123394 0.409056 0.670371
O O6 0.099549 0.425921 0.519739
O O7 0.136600 0.577275 0.610578
O O8 0.249997 0.451746 0.574236
O O9 0.594935 0.250001 0.143639
O O10 0.560397 0.115611 0.249999
O O11 0.636607 0.077277 0.110580
O O12 0.616223 0.750000 0.250000
O O13 0.750000 0.647525 0.250000
O O14 0.623396 0.590945 0.329632
O O15 0.670499 0.898101 0.615145
O O16 0.516489 0.880430 0.611465
O O17 0.250000 0.250000 0.331421
O O18 0.250000 0.409771 0.250000
#
# Coordination Sequence:
#
# PCOD8201376 Si02
#       8
#     8   8   8   8   8   8   8   8
#     4  10  19  32  52  77 105 133 165 212 262 309
#     4  11  20  33  51  75 105 137 174 210 255 305
#     4  10  21  36  52  73 104 140 176 213 254 300
#     4   9  18  30  47  71 101 134 164 203 252 305
#     4  10  19  32  52  77 105 133 165 212 262 309
#     4   9  16  28  48  75 104 131 160 199 256 315
#     4  10  21  36  52  73 104 140 176 213 254 300
#     4  11  20  33  51  75 105 137 174 210 255 305
#
# _framework density 16.785734999999999
#
# number of rings (size 3 to 8) (size 9 to 14) (size 15 to 20)
#    0.000    2.000    2.500    2.250    0.000    4.500 
#    0.000    1.250    0.000    0.000    0.000    0.000 
#    0.000    1.000    0.000    0.000    0.000    0.000 
#
# Total GULP energy -793551.646831 kJ/mol
# GULP energy per Si atom -12399.244482 kJ/mol
# Density = 1.674753 g / cm^3
# Si number density = 16.785735 Si / 1000 Ang^3
#
#
#
# Elastic Constant Matrix: (Units=GPa)
#
#
# Indices 1 2 3 4 5 6 
#
# 1 34.0262 19.6867 16.0437 0.0000 0.0000 0.0000
# 2 19.6867 81.9244 42.4256 0.0000 0.0000 0.0000
# 3 16.0437 42.4256 115.5211 0.0000 0.0000 0.0000
# 4 0.0000 0.0000 0.0000 25.5715 0.0000 0.0000
# 5 0.0000 0.0000 0.0000 0.0000 21.1629 0.0000
# 6 0.0000 0.0000 0.0000 0.0000 0.0000 25.0846
#
#
#
# Elastic Compliance Matrix: (Units=1/GPa)
#
#
# Indices 1 2 3 4 5 6 
#
# 1 0.034566 -0.007187 -0.002161 0.000000 0.000000 0.000000
# 2 -0.007187 0.016568 -0.005086 0.000000 0.000000 0.000000
# 3 -0.002161 -0.005086 0.010825 0.000000 0.000000 0.000000
# 4 0.000000 0.000000 0.000000 0.039106 0.000000 0.000000
# 5 0.000000 0.000000 0.000000 0.000000 0.047253 0.000000
# 6 0.000000 0.000000 0.000000 0.000000 0.000000 0.039865
#
#
# Mechanical properties :
#
#
# Convention : Reuss Voigt Hill
#
# Bulk Modulus (GPa) = 30.22138 43.08709 36.65423
# Shear Modulus (GPa) = 21.92201 24.58484 23.25342
#
# Velocity S-wave (km/s) = 3.61777 3.83120 3.72601
# Velocity P-wave (km/s) = 5.95771 6.73018 6.35569
#
# Compressibility (1/GPa) = 0.03308916
#
# Stress axis : x y z
#
# Youngs Moduli (GPa) = 28.92978 60.35907 92.38272
#
# Poissons Ratio (x) = 0.43382 0.19965
# Poissons Ratio (y) = 0.20793 0.46989
# Poissons Ratio (z) = 0.06252 0.30701
#
# Static dielectric constant tensor:
#      x y z
#    x 2.962240 0.000000 0.000000 
#    y 0.000000 3.083990 0.000000 
#    z 0.000000 0.000000 3.313420 
# 
# 
# High freq. dielectric constant tensor:
#      x y z
#    x 1.631100 0.000000 0.000000 
#    y 0.000000 1.631170 0.000000 
#    z 0.000000 0.000000 1.660760 
# 
# From -- ./inp_files/28078.got.cif
#   From: 2010.06.25/outbox.cif.g09.slc.cpg/sg48_15_cif.got.tgz:28078.got - 2010.06.26 18:06:46.
