data_PCOD8201644
_publ_section_title
;
Structure prediction by ZEFSAII (Michael W. Deem and Ramdas Pophale) SiO2 
 PCOD8201644
Probable space group: P N N N
;
_chemical_formula_sum "Si O2"
_cell_formula_units_Z 28
_cell_length_a 12.271796
_cell_length_b 10.980808
_cell_length_c 9.642029
_cell_angle_alpha 90.000000
_cell_angle_beta 90.000000
_cell_angle_gamma 90.000000
_cell_volume 1299.304248
_symmetry_space_group_name_H-M "P N N N"
_symmetry_group_IT_number 48
_space_group.IT_coordinate_system_code '2'
_symmetry_cell_setting 'orthorhombic'
loop_
_space_group_symop_operation_xyz
x,y,z
1/2-x,1/2-y,z
x,1/2-y,1/2-z
1/2-x,y,1/2-z
-x,-y,-z
1/2+x,1/2+y,-z
-x,1/2+y,1/2+z
1/2+x,-y,1/2+z
loop_
_atom_site_type_symbol
_atom_site_label
_atom_site_fract_x
_atom_site_fract_y
_atom_site_fract_z
Si Si1 0.496213 0.886760 0.197405
Si Si2 0.668208 0.518652 0.863761
Si Si3 0.250000 0.250000 0.250000
Si Si4 0.250000 0.750000 0.750000
Si Si5 0.159197 0.942228 0.558341
O O1 0.515924 0.750000 0.250000
O O2 0.451036 0.963293 0.331278
O O3 0.608521 0.944278 0.142710
O O4 0.412220 0.897345 0.070723
O O5 0.750000 0.460289 0.750000
O O6 0.670874 0.666254 0.845609
O O7 0.718105 0.482470 0.012794
O O8 0.167963 0.828601 0.658636
#
# Coordination Sequence:
#
# PCOD8201644 Si02
#       5
#     8   8   2   2   8
#     4  10  20  40  63  91 117 157 208 258 305 372
#     4   8  17  36  62  86 116 160 197 252 311 356
#     4   8  16  34  58  94 108 150 216 242 304 376
#     4  12  24  42  56  84 126 168 192 252 310 368
#     4  10  22  40  59  90 124 158 207 252 301 373
#
# _framework density 21.549996
#
# number of rings (size 3 to 8) (size 9 to 14) (size 15 to 20)
#    0.857    1.714    0.000    1.714    0.000    5.143 
#    5.143    2.857    0.000    0.000    0.000    0.000 
#    0.000    0.000    0.000    0.000    0.000    0.000 
#
# Total GULP energy -346870.540029 kJ/mol
# GULP energy per Si atom -12388.233572 kJ/mol
# Density = 2.150095 g / cm^3
# Si number density = 21.549996 Si / 1000 Ang^3
#
#
#
# Elastic Constant Matrix: (Units=GPa)
#
#
# Indices 1 2 3 4 5 6 
#
# 1 71.6743 46.5771 52.9462 0.0000 0.0000 0.0000
# 2 46.5771 182.4229 71.6794 0.0000 0.0000 0.0000
# 3 52.9462 71.6794 98.5428 0.0000 0.0000 0.0000
# 4 0.0000 0.0000 0.0000 58.1938 0.0000 0.0000
# 5 0.0000 0.0000 0.0000 0.0000 12.8521 0.0000
# 6 0.0000 0.0000 0.0000 0.0000 0.0000 3.0678
#
#
#
# Elastic Compliance Matrix: (Units=1/GPa)
#
#
# Indices 1 2 3 4 5 6 
#
# 1 0.023404 -0.001449 -0.011521 0.000000 0.000000 0.000000
# 2 -0.001449 0.007765 -0.004870 0.000000 0.000000 0.000000
# 3 -0.011521 -0.004870 0.019880 0.000000 0.000000 0.000000
# 4 0.000000 0.000000 0.000000 0.017184 0.000000 0.000000
# 5 0.000000 0.000000 0.000000 0.000000 0.077808 0.000000
# 6 0.000000 0.000000 0.000000 0.000000 0.000000 0.325963
#
#
# Mechanical properties :
#
#
# Convention : Reuss Voigt Hill
#
# Bulk Modulus (GPa) = 65.06064 77.22728 71.14396
# Shear Modulus (GPa) = 9.75025 26.91858 18.33441
#
# Velocity S-wave (km/s) = 2.12939 3.53813 2.91999
# Velocity P-wave (km/s) = 6.02510 7.25295 6.66735
#
# Compressibility (1/GPa) = 0.01537028
#
# Stress axis : x y z
#
# Youngs Moduli (GPa) = 42.72758 128.77919 50.30069
#
# Poissons Ratio (x) = 0.18656 0.57952
# Poissons Ratio (y) = 0.06190 0.24497
# Poissons Ratio (z) = 0.49227 0.62716
#
# Static dielectric constant tensor:
#      x y z
#    x 3.713000 0.000000 0.000000 
#    y 0.000000 3.722350 0.000000 
#    z 0.000000 0.000000 3.941160 
# 
# 
# High freq. dielectric constant tensor:
#      x y z
#    x 1.819620 0.000000 0.000000 
#    y 0.000000 1.843410 0.000000 
#    z 0.000000 0.000000 1.842250 
# 
# From -- ./inp_files/11829.got.cif
#   From: 2010.06.25/outbox.cif.g09.slc.cpg/sg48_6_cif.got.tgz:11829.got - 2010.06.26 18:06:46.
