data_PCOD8201791
_publ_section_title
;
Structure prediction by ZEFSAII (Michael W. Deem and Ramdas Pophale) SiO2 
 PCOD8201791
Probable space group: P N N N
;
_chemical_formula_sum "Si O2"
_cell_formula_units_Z 56
_cell_length_a 27.495631
_cell_length_b 5.493397
_cell_length_c 16.211790
_cell_angle_alpha 90.000000
_cell_angle_beta 90.000000
_cell_angle_gamma 90.000000
_cell_volume 2448.700367
_symmetry_space_group_name_H-M "P N N N"
_symmetry_group_IT_number 48
_space_group.IT_coordinate_system_code '2'
_symmetry_cell_setting 'orthorhombic'
loop_
_space_group_symop_operation_xyz
x,y,z
1/2-x,1/2-y,z
x,1/2-y,1/2-z
1/2-x,y,1/2-z
-x,-y,-z
1/2+x,1/2+y,-z
-x,1/2+y,1/2+z
1/2+x,-y,1/2+z
loop_
_atom_site_type_symbol
_atom_site_label
_atom_site_fract_x
_atom_site_fract_y
_atom_site_fract_z
Si Si1 0.124580 0.870488 0.835528
Si Si2 0.722432 0.498184 0.122205
Si Si3 0.362213 0.501587 0.200684
Si Si4 0.558637 0.123437 0.586836
Si Si5 0.877251 0.039521 0.482404
Si Si6 0.300665 0.348594 0.051755
Si Si7 0.548745 0.819766 0.425202
O O1 0.110735 0.750000 0.750000
O O2 0.172457 0.037646 0.825238
O O3 0.145568 0.705024 0.910932
O O4 0.075000 0.001663 0.861388
O O5 0.750000 0.250000 0.150881
O O6 0.750000 0.750000 0.141023
O O7 0.711827 0.475809 0.024206
O O8 0.350469 0.750000 0.250000
O O9 0.418282 0.503470 0.169017
O O10 0.326531 0.505363 0.122035
O O11 0.353550 0.250000 0.250000
O O12 0.598316 0.321674 0.558901
O O13 0.505780 0.238044 0.606566
O O14 0.549906 0.920970 0.518001
O O15 0.836972 0.860542 0.518528
O O16 0.921448 0.926559 0.429455
O O17 0.250000 0.250000 0.088924
#
# Coordination Sequence:
#
# PCOD8201791 Si02
#       7
#     8   8   8   8   8   8   8
#     4  11  24  41  62 102 146 184 227 301 366 434
#     4  11  24  45  72 101 132 186 243 289 348 419
#     4  12  27  47  69 102 148 185 225 292 368 427
#     4  10  22  42  70  97 133 182 243 295 350 424
#     4  11  20  44  70  98 136 182 245 295 353 420
#     4  11  23  46  75 101 133 186 246 295 350 426
#     4  10  21  41  71 100 126 186 242 290 350 429
#
# _framework density 22.869275999999999
#
# number of rings (size 3 to 8) (size 9 to 14) (size 15 to 20)
#    0.000    1.143    2.857    3.857    0.000    4.000 
#    2.571    5.000    0.000    0.000    0.000    0.000 
#    0.000    0.000    0.000    0.000    0.000    0.000 
#
# Total GULP energy -694103.427387 kJ/mol
# GULP energy per Si atom -12394.704060 kJ/mol
# Density = 2.281722 g / cm^3
# Si number density = 22.869276 Si / 1000 Ang^3
#
#
#
# Elastic Constant Matrix: (Units=GPa)
#
#
# Indices 1 2 3 4 5 6 
#
# 1 139.0058 28.5288 32.8428 0.0000 0.0000 0.0000
# 2 28.5288 103.7397 25.3300 0.0000 0.0000 0.0000
# 3 32.8428 25.3300 63.7931 0.0000 0.0000 0.0000
# 4 0.0000 0.0000 0.0000 21.7400 0.0000 0.0000
# 5 0.0000 0.0000 0.0000 0.0000 20.6689 0.0000
# 6 0.0000 0.0000 0.0000 0.0000 0.0000 8.8479
#
#
#
# Elastic Compliance Matrix: (Units=1/GPa)
#
#
# Indices 1 2 3 4 5 6 
#
# 1 0.008366 -0.001383 -0.003758 0.000000 0.000000 0.000000
# 2 -0.001383 0.010903 -0.003617 0.000000 0.000000 0.000000
# 3 -0.003758 -0.003617 0.019047 0.000000 0.000000 0.000000
# 4 0.000000 0.000000 0.000000 0.045998 0.000000 0.000000
# 5 0.000000 0.000000 0.000000 0.000000 0.048382 0.000000
# 6 0.000000 0.000000 0.000000 0.000000 0.000000 0.113021
#
#
# Mechanical properties :
#
#
# Convention : Reuss Voigt Hill
#
# Bulk Modulus (GPa) = 48.07859 53.32687 50.70273
# Shear Modulus (GPa) = 18.50718 24.90715 21.70716
#
# Velocity S-wave (km/s) = 2.84783 3.30375 3.08423
# Velocity P-wave (km/s) = 5.64645 6.15806 5.90780
#
# Compressibility (1/GPa) = 0.02079928
#
# Stress axis : x y z
#
# Youngs Moduli (GPa) = 119.53671 91.71733 52.50299
#
# Poissons Ratio (x) = 0.12685 0.19729
# Poissons Ratio (y) = 0.16533 0.18991
# Poissons Ratio (z) = 0.44919 0.33176
#
# Static dielectric constant tensor:
#      x y z
#    x 4.590150 0.000000 0.000000 
#    y 0.000000 4.106930 0.000000 
#    z 0.000000 0.000000 4.054760 
# 
# 
# High freq. dielectric constant tensor:
#      x y z
#    x 1.922360 0.000000 0.000000 
#    y 0.000000 1.898670 0.000000 
#    z 0.000000 0.000000 1.888030 
# 
# From -- ./inp_files/28903.got.cif
#   From: 2010.06.25/outbox.cif.g09.slc.cpg/sg48_15_cif.got.tgz:28903.got - 2010.06.26 18:06:46.
