data_PCOD8201447
_publ_section_title
;
Structure prediction by ZEFSAII (Michael W. Deem and Ramdas Pophale) SiO2 
 PCOD8201447
Probable space group: P N N N
;
_chemical_formula_sum "Si O2"
_cell_formula_units_Z 64
_cell_length_a 11.839289
_cell_length_b 14.235700
_cell_length_c 18.753714
_cell_angle_alpha 90.000000
_cell_angle_beta 90.000000
_cell_angle_gamma 90.000000
_cell_volume 3160.761580
_symmetry_space_group_name_H-M "P N N N"
_symmetry_group_IT_number 48
_space_group.IT_coordinate_system_code '2'
_symmetry_cell_setting 'orthorhombic'
loop_
_space_group_symop_operation_xyz
x,y,z
1/2-x,1/2-y,z
x,1/2-y,1/2-z
1/2-x,y,1/2-z
-x,-y,-z
1/2+x,1/2+y,-z
-x,1/2+y,1/2+z
1/2+x,-y,1/2+z
loop_
_atom_site_type_symbol
_atom_site_label
_atom_site_fract_x
_atom_site_fract_y
_atom_site_fract_z
Si Si1 0.660917 0.037761 0.937878
Si Si2 0.977918 0.450360 0.157475
Si Si3 0.391496 0.042055 0.411909
Si Si4 0.486922 0.786888 0.040866
Si Si5 0.119561 0.739116 0.893806
Si Si6 0.829982 0.925551 0.421847
Si Si7 0.032657 0.157597 0.208778
Si Si8 0.580542 0.600641 0.070835
O O1 0.611723 0.143762 0.929811
O O2 0.586597 0.963118 0.893458
O O3 0.788132 0.032070 0.907829
O O4 0.663427 0.011874 0.021653
O O5 0.901545 0.364091 0.134147
O O6 0.899571 0.542914 0.148813
O O7 0.013260 0.430906 0.238759
O O8 0.377776 0.119823 0.349548
O O9 0.392509 0.095324 0.486753
O O10 0.509589 0.987547 0.400891
O O11 0.607511 0.839510 0.038884
O O12 0.509664 0.694918 0.089751
O O13 0.453754 0.744339 0.964468
O O14 0.250000 0.750000 0.912236
O O15 0.082104 0.813685 0.833112
O O16 0.705096 0.899347 0.394177
O O17 0.081016 0.250000 0.250000
#
# Coordination Sequence:
#
# PCOD8201447 Si02
#       8
#     8   8   8   8   8   8   8   8
#     4  10  20  35  60  80 117 165 205 252 298 369
#     4  10  20  38  56  81 118 163 203 239 302 371
#     4  10  22  38  54  89 124 161 204 241 313 362
#     4  11  19  35  59  88 116 156 203 257 312 357
#     4  11  22  33  56  89 127 156 197 242 300 379
#     4  10  19  36  58  84 113 160 204 253 307 358
#     4  10  23  40  57  88 127 166 201 244 307 385
#     4  10  22  34  59  85 123 154 198 266 301 357
#
# _framework density 20.248286
#
# number of rings (size 3 to 8) (size 9 to 14) (size 15 to 20)
#    0.000    1.750    3.750    1.125    3.500    2.750 
#    0.000    4.375    0.000    3.000    0.000    7.000 
#    0.000    0.000    0.000    0.000    0.000    0.000 
#
# Total GULP energy -793208.857635 kJ/mol
# GULP energy per Si atom -12393.888401 kJ/mol
# Density = 2.020220 g / cm^3
# Si number density = 20.248286 Si / 1000 Ang^3
#
#
#
# Elastic Constant Matrix: (Units=GPa)
#
#
# Indices 1 2 3 4 5 6 
#
# 1 100.4928 31.0268 9.3814 0.0000 0.0000 0.0000
# 2 31.0268 74.8077 29.3948 0.0000 0.0000 0.0000
# 3 9.3814 29.3948 65.5226 0.0000 0.0000 0.0000
# 4 0.0000 0.0000 0.0000 32.8818 0.0000 0.0000
# 5 0.0000 0.0000 0.0000 0.0000 12.2348 0.0000
# 6 0.0000 0.0000 0.0000 0.0000 0.0000 30.4225
#
#
#
# Elastic Compliance Matrix: (Units=1/GPa)
#
#
# Indices 1 2 3 4 5 6 
#
# 1 0.011431 -0.004975 0.000595 0.000000 0.000000 0.000000
# 2 -0.004975 0.018394 -0.007539 0.000000 0.000000 0.000000
# 3 0.000595 -0.007539 0.018559 0.000000 0.000000 0.000000
# 4 0.000000 0.000000 0.000000 0.030412 0.000000 0.000000
# 5 0.000000 0.000000 0.000000 0.000000 0.081734 0.000000
# 6 0.000000 0.000000 0.000000 0.000000 0.000000 0.032870
#
#
# Mechanical properties :
#
#
# Convention : Reuss Voigt Hill
#
# Bulk Modulus (GPa) = 40.74082 42.26990 41.50536
# Shear Modulus (GPa) = 22.18075 26.50917 24.34496
#
# Velocity S-wave (km/s) = 3.31333 3.62222 3.47121
# Velocity P-wave (km/s) = 5.89931 6.19799 6.05049
#
# Compressibility (1/GPa) = 0.02454540
#
# Stress axis : x y z
#
# Youngs Moduli (GPa) = 87.47797 54.36683 53.88219
#
# Poissons Ratio (x) = 0.27048 -0.03207
# Poissons Ratio (y) = 0.43521 0.40624
# Poissons Ratio (z) = -0.05207 0.40989
#
# Static dielectric constant tensor:
#      x y z
#    x 3.687750 0.000000 0.000000 
#    y 0.000000 3.682800 0.000000 
#    z 0.000000 0.000000 3.520450 
# 
# 
# High freq. dielectric constant tensor:
#      x y z
#    x 1.791320 0.000000 0.000000 
#    y 0.000000 1.787750 0.000000 
#    z 0.000000 0.000000 1.751220 
# 
# From -- ./inp_files/22333.got.cif
#   From: 2010.06.25/outbox.cif.g09.slc.cpg/sg48_12_cif.got.tgz:22333.got - 2010.06.26 18:06:46.
