data_PCOD8201620
_publ_section_title
;
Structure prediction by ZEFSAII (Michael W. Deem and Ramdas Pophale) SiO2 
 PCOD8201620
Probable space group: P N N N
;
_chemical_formula_sum "Si O2"
_cell_formula_units_Z 56
_cell_length_a 8.235402
_cell_length_b 16.573880
_cell_length_c 19.966349
_cell_angle_alpha 90.000000
_cell_angle_beta 90.000000
_cell_angle_gamma 90.000000
_cell_volume 2725.258179
_symmetry_space_group_name_H-M "P N N N"
_symmetry_group_IT_number 48
_space_group.IT_coordinate_system_code '2'
_symmetry_cell_setting 'orthorhombic'
loop_
_space_group_symop_operation_xyz
x,y,z
1/2-x,1/2-y,z
x,1/2-y,1/2-z
1/2-x,y,1/2-z
-x,-y,-z
1/2+x,1/2+y,-z
-x,1/2+y,1/2+z
1/2+x,-y,1/2+z
loop_
_atom_site_type_symbol
_atom_site_label
_atom_site_fract_x
_atom_site_fract_y
_atom_site_fract_z
Si Si1 0.372413 0.977711 0.194360
Si Si2 0.187339 0.924546 0.679741
Si Si3 0.812948 0.160698 0.457980
Si Si4 0.062430 0.162256 0.766008
Si Si5 0.322823 0.966762 0.437965
Si Si6 0.849125 0.930222 0.116054
Si Si7 0.888387 0.919974 0.497035
O O1 0.250000 0.012707 0.250000
O O2 0.461950 0.899362 0.222002
O O3 0.271450 0.946038 0.130580
O O4 0.498186 0.049656 0.178269
O O5 0.250000 0.885857 0.750000
O O6 0.214845 0.861157 0.619837
O O7 0.299584 0.003193 0.670592
O O8 0.750000 0.250000 0.472165
O O9 0.719067 0.098138 0.504896
O O10 0.006237 0.155629 0.476740
O O11 0.989516 0.250000 0.750000
O O12 0.250000 0.156855 0.750000
O O13 0.058271 0.142700 0.845762
O O14 0.517390 0.969471 0.432858
O O15 0.266442 0.057987 0.457060
O O16 0.684904 0.902751 0.077072
O O17 0.000000 0.000000 0.500000
#
# Coordination Sequence:
#
# PCOD8201620 Si02
#       7
#     8   8   8   8   8   8   8
#     4  12  21  39  64  98 128 168 219 266 318 383
#     4  12  21  40  69  91 122 162 215 274 324 384
#     4  11  25  43  61  94 129 166 217 269 333 390
#     4  11  24  38  55  89 134 171 210 259 320 393
#     4  11  22  37  66  96 126 170 218 266 319 389
#     4  12  20  40  66  94 127 169 221 262 319 391
#     4  10  20  38  65  90 121 163 214 271 311 382
#
# _framework density 20.548513
#
# number of rings (size 3 to 8) (size 9 to 14) (size 15 to 20)
#    0.000    0.714    8.571    1.286    0.000    1.714 
#    2.571    0.000    0.000    0.000    0.000    1.000 
#    0.000    0.000    0.000    0.000    0.000    0.000 
#
# Total GULP energy -694123.057295 kJ/mol
# GULP energy per Si atom -12395.054595 kJ/mol
# Density = 2.050174 g / cm^3
# Si number density = 20.548513 Si / 1000 Ang^3
#
#
#
# Elastic Constant Matrix: (Units=GPa)
#
#
# Indices 1 2 3 4 5 6 
#
# 1 97.4723 28.3213 28.0039 0.0000 0.0000 0.0000
# 2 28.3213 78.0859 24.6966 0.0000 0.0000 0.0000
# 3 28.0039 24.6966 124.9019 0.0000 0.0000 0.0000
# 4 0.0000 0.0000 0.0000 25.8577 0.0000 0.0000
# 5 0.0000 0.0000 0.0000 0.0000 49.5178 0.0000
# 6 0.0000 0.0000 0.0000 0.0000 0.0000 33.6578
#
#
#
# Elastic Compliance Matrix: (Units=1/GPa)
#
#
# Indices 1 2 3 4 5 6 
#
# 1 0.011890 -0.003701 -0.001934 0.000000 0.000000 0.000000
# 2 -0.003701 0.014813 -0.002099 0.000000 0.000000 0.000000
# 3 -0.001934 -0.002099 0.008855 0.000000 0.000000 0.000000
# 4 0.000000 0.000000 0.000000 0.038673 0.000000 0.000000
# 5 0.000000 0.000000 0.000000 0.000000 0.020195 0.000000
# 6 0.000000 0.000000 0.000000 0.000000 0.000000 0.029711
#
#
# Mechanical properties :
#
#
# Convention : Reuss Voigt Hill
#
# Bulk Modulus (GPa) = 49.77669 51.38929 50.58299
# Shear Modulus (GPa) = 34.17605 36.43589 35.30597
#
# Velocity S-wave (km/s) = 4.08265 4.21546 4.14959
# Velocity P-wave (km/s) = 6.81913 6.98259 6.90135
#
# Compressibility (1/GPa) = 0.02008973
#
# Stress axis : x y z
#
# Youngs Moduli (GPa) = 84.10217 67.51022 112.93076
#
# Poissons Ratio (x) = 0.24984 0.21842
# Poissons Ratio (y) = 0.31125 0.23705
# Poissons Ratio (z) = 0.16266 0.14171
#
# Static dielectric constant tensor:
#      x y z
#    x 4.049000 0.000000 0.000000 
#    y 0.000000 3.451770 0.000000 
#    z 0.000000 0.000000 13.486710 
# 
# 
# High freq. dielectric constant tensor:
#      x y z
#    x 1.821320 0.000000 0.000000 
#    y 0.000000 1.745940 0.000000 
#    z 0.000000 0.000000 1.825490 
# 
# From -- ./inp_files/33655.got.cif
#   From: 2010.06.25/outbox.cif.g09.slc.cpg/sg48_17_cif.got.tgz:33655.got - 2010.06.26 18:06:46.
