data_PCOD8201253
_publ_section_title
;
Structure prediction by ZEFSAII (Michael W. Deem and Ramdas Pophale) SiO2 
 PCOD8201253
Probable space group: P N N N
;
_chemical_formula_sum "Si O2"
_cell_formula_units_Z 56
_cell_length_a 7.490282
_cell_length_b 21.250259
_cell_length_c 22.064753
_cell_angle_alpha 90.000000
_cell_angle_beta 90.000000
_cell_angle_gamma 90.000000
_cell_volume 3512.056278
_symmetry_space_group_name_H-M "P N N N"
_symmetry_group_IT_number 48
_space_group.IT_coordinate_system_code '2'
_symmetry_cell_setting 'orthorhombic'
loop_
_space_group_symop_operation_xyz
x,y,z
1/2-x,1/2-y,z
x,1/2-y,1/2-z
1/2-x,y,1/2-z
-x,-y,-z
1/2+x,1/2+y,-z
-x,1/2+y,1/2+z
1/2+x,-y,1/2+z
loop_
_atom_site_type_symbol
_atom_site_label
_atom_site_fract_x
_atom_site_fract_y
_atom_site_fract_z
Si Si1 0.502348 0.369490 0.874254
Si Si2 0.410814 0.890582 0.133116
Si Si3 0.874411 0.917382 0.002136
Si Si4 0.958964 0.242014 0.683143
Si Si5 0.270481 0.465140 0.680425
Si Si6 0.510717 0.425020 0.498686
Si Si7 0.322045 0.546300 0.926962
O O1 0.699141 0.392603 0.851730
O O2 0.466084 0.296316 0.860560
O O3 0.358301 0.407710 0.835852
O O4 0.474507 0.376958 0.946281
O O5 0.503157 0.825955 0.155229
O O6 0.523428 0.946998 0.164804
O O7 0.425029 0.896322 0.061615
O O8 0.678902 0.891780 0.983069
O O9 0.991844 0.917640 0.940436
O O10 0.833066 0.985637 0.029791
O O11 0.750000 0.250000 0.688583
O O12 0.045356 0.250000 0.750000
O O13 0.250000 0.483648 0.750000
O O14 0.206725 0.526396 0.642505
O O15 0.500000 0.500000 0.500000
O O16 0.657999 0.408719 0.447546
#
# Coordination Sequence:
#
# PCOD8201253 Si02
#       7
#     8   8   8   8   8   8   8
#     4  10  19  32  46  61  84 116 155 191 219 246
#     4  11  19  31  48  62  84 118 155 191 222 250
#     4   9  16  27  46  65  79 102 142 186 225 261
#     4   9  19  32  43  58  86 125 158 183 212 250
#     4  11  22  31  43  66  88 115 152 182 215 268
#     4  10  16  28  46  67  81 101 144 190 227 264
#     4   9  17  28  45  63  84 105 136 183 227 264
#
# _framework density 15.945074999999999
#
# number of rings (size 3 to 8) (size 9 to 14) (size 15 to 20)
#    0.000    2.143    5.714    0.857    2.000    2.286 
#    0.000    1.429    0.000    0.000    0.000    0.000 
#    0.000    0.000    0.000    2.571    0.000    3.429 
#
# Total GULP energy -693847.167626 kJ/mol
# GULP energy per Si atom -12390.127993 kJ/mol
# Density = 1.590878 g / cm^3
# Si number density = 15.945075 Si / 1000 Ang^3
#
#
#
# Elastic Constant Matrix: (Units=GPa)
#
#
# Indices 1 2 3 4 5 6 
#
# 1 88.7221 8.2997 30.9572 0.0000 0.0000 0.0000
# 2 8.2997 34.2505 36.2634 0.0000 0.0000 0.0000
# 3 30.9572 36.2634 104.1758 0.0000 0.0000 0.0000
# 4 0.0000 0.0000 0.0000 21.5097 0.0000 0.0000
# 5 0.0000 0.0000 0.0000 0.0000 16.2144 0.0000
# 6 0.0000 0.0000 0.0000 0.0000 0.0000 12.3270
#
#
#
# Elastic Compliance Matrix: (Units=1/GPa)
#
#
# Indices 1 2 3 4 5 6 
#
# 1 0.012620 0.001445 -0.004253 0.000000 0.000000 0.000000
# 2 0.001445 0.046403 -0.016582 0.000000 0.000000 0.000000
# 3 -0.004253 -0.016582 0.016635 0.000000 0.000000 0.000000
# 4 0.000000 0.000000 0.000000 0.046491 0.000000 0.000000
# 5 0.000000 0.000000 0.000000 0.000000 0.061674 0.000000
# 6 0.000000 0.000000 0.000000 0.000000 0.000000 0.081123
#
#
# Mechanical properties :
#
#
# Convention : Reuss Voigt Hill
#
# Bulk Modulus (GPa) = 27.11666 42.02099 34.56882
# Shear Modulus (GPa) = 15.82181 20.11875 17.97028
#
# Velocity S-wave (km/s) = 3.15345 3.55597 3.36074
# Velocity P-wave (km/s) = 5.50474 6.57805 6.06518
#
# Compressibility (1/GPa) = 0.03687770
#
# Stress axis : x y z
#
# Youngs Moduli (GPa) = 79.23919 21.55018 60.11312
#
# Poissons Ratio (x) = -0.03114 0.25567
# Poissons Ratio (y) = -0.11450 0.99681
# Poissons Ratio (z) = 0.33702 0.35735
#
# Static dielectric constant tensor:
#      x y z
#    x 2.337120 0.000000 0.000000 
#    y 0.000000 2.742400 0.000000 
#    z 0.000000 0.000000 2.960150 
# 
# 
# High freq. dielectric constant tensor:
#      x y z
#    x 1.640310 0.000000 0.000000 
#    y 0.000000 1.553830 0.000000 
#    z 0.000000 0.000000 1.589010 
# 
# From -- ./inp_files/30552.got.cif
#   From: 2010.06.25/outbox.cif.g09.slc.cpg/sg48_16_cif.got.tgz:30552.got - 2010.06.26 18:06:46.
