data_PCOD8201991
_publ_section_title
;
Structure prediction by ZEFSAII (Michael W. Deem and Ramdas Pophale) SiO2 
 PCOD8201991
Probable space group: P N N N
;
_chemical_formula_sum "Si O2"
_cell_formula_units_Z 48
_cell_length_a 12.127760
_cell_length_b 6.200582
_cell_length_c 29.213191
_cell_angle_alpha 90.000000
_cell_angle_beta 90.000000
_cell_angle_gamma 90.000000
_cell_volume 2196.807727
_symmetry_space_group_name_H-M "P N N N"
_symmetry_group_IT_number 48
_space_group.IT_coordinate_system_code '2'
_symmetry_cell_setting 'orthorhombic'
loop_
_space_group_symop_operation_xyz
x,y,z
1/2-x,1/2-y,z
x,1/2-y,1/2-z
1/2-x,y,1/2-z
-x,-y,-z
1/2+x,1/2+y,-z
-x,1/2+y,1/2+z
1/2+x,-y,1/2+z
loop_
_atom_site_type_symbol
_atom_site_label
_atom_site_fract_x
_atom_site_fract_y
_atom_site_fract_z
Si Si1 0.991579 0.004887 0.164116
Si Si2 0.463775 0.250000 0.250000
Si Si3 0.459058 0.875600 0.042577
Si Si4 0.138612 0.321276 0.112160
Si Si5 0.652768 0.907790 0.418262
Si Si6 0.642273 0.121405 0.805831
Si Si7 0.750000 0.250000 0.010845
O O1 0.963314 0.163289 0.207164
O O2 0.087147 0.107920 0.133492
O O3 0.036679 0.773059 0.181504
O O4 0.883815 0.998953 0.131417
O O5 0.390702 0.456799 0.265081
O O6 0.544407 0.694498 0.058565
O O7 0.449797 0.058043 0.081198
O O8 0.343194 0.784280 0.026991
O O9 0.500000 0.000000 0.000000
O O10 0.250000 0.250000 0.084984
O O11 0.179282 0.485100 0.150802
O O12 0.750000 0.750000 0.405001
O O13 0.707784 0.066155 0.455051
O O14 0.750000 0.250000 0.789161
#
# Coordination Sequence:
#
# PCOD8201991 Si02
#       7
#     8   4   8   8   8   8   4
#     4  11  24  44  70  96 143 183 238 290 364 427
#     4  10  26  41  68 103 138 186 234 299 355 446
#     4  12  26  45  69 105 145 185 244 293 352 423
#     4  11  24  40  66 104 144 189 231 287 354 432
#     4  12  27  49  72 104 139 194 238 302 363 430
#     4  11  22  43  64 103 144 186 231 288 365 436
#     4  12  28  46  76 103 146 191 242 304 356 426
#
# _framework density 21.849886999999999
#
# number of rings (size 3 to 8) (size 9 to 14) (size 15 to 20)
#    0.000    0.667    5.000    2.000    5.833    2.000 
#    0.000    0.000    0.000    7.500    0.000    0.000 
#    0.000    0.000    0.000    0.000    0.000    0.000 
#
# Total GULP energy -594763.851902 kJ/mol
# GULP energy per Si atom -12390.913581 kJ/mol
# Density = 2.180016 g / cm^3
# Si number density = 21.849887 Si / 1000 Ang^3
#
#
#
# Elastic Constant Matrix: (Units=GPa)
#
#
# Indices 1 2 3 4 5 6 
#
# 1 118.1563 46.9707 55.0818 0.0000 0.0000 0.0000
# 2 46.9707 107.3682 44.1879 0.0000 0.0000 0.0000
# 3 55.0818 44.1879 124.3947 0.0000 0.0000 0.0000
# 4 0.0000 0.0000 0.0000 60.3066 0.0000 0.0000
# 5 0.0000 0.0000 0.0000 0.0000 46.0208 0.0000
# 6 0.0000 0.0000 0.0000 0.0000 0.0000 29.4918
#
#
#
# Elastic Compliance Matrix: (Units=1/GPa)
#
#
# Indices 1 2 3 4 5 6 
#
# 1 0.011686 -0.003493 -0.003934 0.000000 0.000000 0.000000
# 2 -0.003493 0.011953 -0.002699 0.000000 0.000000 0.000000
# 3 -0.003934 -0.002699 0.010739 0.000000 0.000000 0.000000
# 4 0.000000 0.000000 0.000000 0.016582 0.000000 0.000000
# 5 0.000000 0.000000 0.000000 0.000000 0.021729 0.000000
# 6 0.000000 0.000000 0.000000 0.000000 0.000000 0.033908
#
#
# Mechanical properties :
#
#
# Convention : Reuss Voigt Hill
#
# Bulk Modulus (GPa) = 70.79065 71.37779 71.08422
# Shear Modulus (GPa) = 38.00615 40.74243 39.37429
#
# Velocity S-wave (km/s) = 4.17516 4.32285 4.24965
# Velocity P-wave (km/s) = 7.46402 7.59304 7.52881
#
# Compressibility (1/GPa) = 0.01412616
#
# Stress axis : x y z
#
# Youngs Moduli (GPa) = 85.57392 83.66230 93.11454
#
# Poissons Ratio (x) = 0.29226 0.36627
# Poissons Ratio (y) = 0.29894 0.25132
# Poissons Ratio (z) = 0.33661 0.22581
#
# Static dielectric constant tensor:
#      x y z
#    x 3.761110 0.000000 0.000000 
#    y 0.000000 4.413510 0.000000 
#    z 0.000000 0.000000 4.059470 
# 
# 
# High freq. dielectric constant tensor:
#      x y z
#    x 1.839110 0.000000 0.000000 
#    y 0.000000 1.874190 0.000000 
#    z 0.000000 0.000000 1.879060 
# 
# From -- ./inp_files/37896.got.cif
#   From: 2010.06.25/outbox.cif.g09.slc.cpg/sg48_19_cif.got.tgz:37896.got - 2010.06.26 18:06:46.
