data_PCOD8201878
_publ_section_title
;
Structure prediction by ZEFSAII (Michael W. Deem and Ramdas Pophale) SiO2 
 PCOD8201878
Probable space group: P N N N
;
_chemical_formula_sum "Si O2"
_cell_formula_units_Z 34
_cell_length_a 8.549707
_cell_length_b 30.583765
_cell_length_c 5.535882
_cell_angle_alpha 90.000000
_cell_angle_beta 90.000000
_cell_angle_gamma 90.000000
_cell_volume 1447.534769
_symmetry_space_group_name_H-M "P N N N"
_symmetry_group_IT_number 48
_space_group.IT_coordinate_system_code '2'
_symmetry_cell_setting 'orthorhombic'
loop_
_space_group_symop_operation_xyz
x,y,z
1/2-x,1/2-y,z
x,1/2-y,1/2-z
1/2-x,y,1/2-z
-x,-y,-z
1/2+x,1/2+y,-z
-x,1/2+y,1/2+z
1/2+x,-y,1/2+z
loop_
_atom_site_type_symbol
_atom_site_label
_atom_site_fract_x
_atom_site_fract_y
_atom_site_fract_z
Si Si1 0.531692 0.320991 0.460865
Si Si2 0.750000 0.653651 0.250000
Si Si3 0.572322 0.982733 0.750844
Si Si4 0.750000 0.381708 0.750000
Si Si5 0.990371 0.891753 0.922452
Si Si6 0.750000 0.250000 0.250000
O O1 0.357569 0.314702 0.578070
O O2 0.616049 0.351201 0.649865
O O3 0.526025 0.345882 0.207110
O O4 0.631770 0.277062 0.421627
O O5 0.847772 0.618586 0.402447
O O6 0.750000 0.997876 0.750000
O O7 0.557523 0.929989 0.761332
O O8 0.500000 0.000000 0.500000
O O9 0.500000 0.000000 0.000000
O O10 0.848251 0.409288 0.552846
#
# Coordination Sequence:
#
# PCOD8201878 Si02
#       6
#     8   4   8   4   8   2
#     4  11  23  45  72 106 144 192 247 317 372 467
#     4  10  24  44  79 105 140 204 249 308 390 457
#     4  12  30  49  76 114 158 204 260 328 394 469
#     4  10  22  41  78 106 134 202 244 308 382 459
#     4  11  24  47  76 106 149 195 258 308 395 463
#     4  12  24  46  74 106 158 190 258 310 392 454
#
# _framework density 23.488209000000001
#
# number of rings (size 3 to 8) (size 9 to 14) (size 15 to 20)
#    0.000    0.941    2.353    2.824   11.529    2.353 
#    0.000    3.529    0.000    0.000    0.000    0.000 
#    0.000    0.000    0.000    0.000    0.000    0.000 
#
# Total GULP energy -421353.198744 kJ/mol
# GULP energy per Si atom -12392.741140 kJ/mol
# Density = 2.343475 g / cm^3
# Si number density = 23.488209 Si / 1000 Ang^3
#
#
#
# Elastic Constant Matrix: (Units=GPa)
#
#
# Indices 1 2 3 4 5 6 
#
# 1 186.9028 50.1283 78.6148 0.0000 0.0000 0.0000
# 2 50.1283 104.0473 45.4458 0.0000 0.0000 0.0000
# 3 78.6148 45.4458 147.8453 0.0000 0.0000 0.0000
# 4 0.0000 0.0000 0.0000 42.8624 0.0000 0.0000
# 5 0.0000 0.0000 0.0000 0.0000 54.0153 0.0000
# 6 0.0000 0.0000 0.0000 0.0000 0.0000 35.1748
#
#
#
# Elastic Compliance Matrix: (Units=1/GPa)
#
#
# Indices 1 2 3 4 5 6 
#
# 1 0.007267 -0.002094 -0.003220 0.000000 0.000000 0.000000
# 2 -0.002094 0.011705 -0.002484 0.000000 0.000000 0.000000
# 3 -0.003220 -0.002484 0.009240 0.000000 0.000000 0.000000
# 4 0.000000 0.000000 0.000000 0.023330 0.000000 0.000000
# 5 0.000000 0.000000 0.000000 0.000000 0.018513 0.000000
# 6 0.000000 0.000000 0.000000 0.000000 0.000000 0.028429
#
#
# Mechanical properties :
#
#
# Convention : Reuss Voigt Hill
#
# Bulk Modulus (GPa) = 79.27869 87.46370 83.37119
# Shear Modulus (GPa) = 42.27010 44.05094 43.16052
#
# Velocity S-wave (km/s) = 4.24681 4.33534 4.29130
# Velocity P-wave (km/s) = 7.60743 7.89800 7.75408
#
# Compressibility (1/GPa) = 0.01261373
#
# Stress axis : x y z
#
# Youngs Moduli (GPa) = 137.61710 85.43217 108.22842
#
# Poissons Ratio (x) = 0.17893 0.34850
# Poissons Ratio (y) = 0.28823 0.26888
# Poissons Ratio (z) = 0.44314 0.21224
#
# Static dielectric constant tensor:
#      x y z
#    x 4.595230 0.000000 0.000000 
#    y 0.000000 3.968220 0.000000 
#    z 0.000000 0.000000 4.112630 
# 
# 
# High freq. dielectric constant tensor:
#      x y z
#    x 1.959390 0.000000 0.000000 
#    y 0.000000 1.902630 0.000000 
#    z 0.000000 0.000000 1.943360 
# 
# From -- ./inp_files/1202.got.cif
#   From: 2010.06.25/outbox.cif.g09.slc.cpg/sg48_1_cif.got.tgz:1202.got - 2010.06.26 18:06:46.
