data_PCOD8201749
_publ_section_title
;
Structure prediction by ZEFSAII (Michael W. Deem and Ramdas Pophale) SiO2 
 PCOD8201749
Probable space group: P N N N
;
_chemical_formula_sum "Si O2"
_cell_formula_units_Z 40
_cell_length_a 8.301940
_cell_length_b 10.515780
_cell_length_c 21.693950
_cell_angle_alpha 90.000000
_cell_angle_beta 90.000000
_cell_angle_gamma 90.000000
_cell_volume 1893.911656
_symmetry_space_group_name_H-M "P N N N"
_symmetry_group_IT_number 48
_space_group.IT_coordinate_system_code '2'
_symmetry_cell_setting 'orthorhombic'
loop_
_space_group_symop_operation_xyz
x,y,z
1/2-x,1/2-y,z
x,1/2-y,1/2-z
1/2-x,y,1/2-z
-x,-y,-z
1/2+x,1/2+y,-z
-x,1/2+y,1/2+z
1/2+x,-y,1/2+z
loop_
_atom_site_type_symbol
_atom_site_label
_atom_site_fract_x
_atom_site_fract_y
_atom_site_fract_z
Si Si1 0.076569 0.371742 0.219417
Si Si2 0.100853 0.048806 0.413534
Si Si3 0.912699 0.817071 0.459022
Si Si4 0.433517 0.380249 0.770747
Si Si5 0.370733 0.854078 0.388445
O O1 0.985215 0.250000 0.250000
O O2 0.250000 0.378183 0.250000
O O3 0.079949 0.360409 0.145622
O O4 0.991584 0.502664 0.231526
O O5 0.273471 0.978492 0.409799
O O6 0.956320 0.944846 0.419989
O O7 0.100305 0.147059 0.469686
O O8 0.750000 0.750000 0.434696
O O9 0.052861 0.712583 0.449001
O O10 0.520587 0.250000 0.750000
O O11 0.250000 0.369075 0.750000
O O12 0.483779 0.396234 0.842479
O O13 0.250000 0.750000 0.357320
#
# Coordination Sequence:
#
# PCOD8201749 Si02
#       5
#     8   8   8   8   8
#     4  11  24  42  69  98 132 182 225 276 348 420
#     4  10  22  43  64  95 131 174 232 276 343 418
#     4  10  23  38  67  93 129 172 225 294 334 396
#     4  11  24  38  67 102 133 171 221 283 345 410
#     4  10  21  39  64  94 130 172 224 279 341 403
#
# _framework density 21.120307
#
# number of rings (size 3 to 8) (size 9 to 14) (size 15 to 20)
#    0.000    1.600    2.000    2.400    8.400    1.200 
#    0.000    0.000   13.200    0.000    0.000    0.000 
#    0.000    0.000    0.000    0.000    0.000    0.000 
#
# Total GULP energy -495610.644911 kJ/mol
# GULP energy per Si atom -12390.266123 kJ/mol
# Density = 2.107224 g / cm^3
# Si number density = 21.120307 Si / 1000 Ang^3
#
#
#
# Elastic Constant Matrix: (Units=GPa)
#
#
# Indices 1 2 3 4 5 6 
#
# 1 98.8892 39.7235 50.8193 0.0000 0.0000 0.0000
# 2 39.7235 107.3144 49.2501 0.0000 0.0000 0.0000
# 3 50.8193 49.2501 156.2033 0.0000 0.0000 0.0000
# 4 0.0000 0.0000 0.0000 37.7058 0.0000 0.0000
# 5 0.0000 0.0000 0.0000 0.0000 33.5786 0.0000
# 6 0.0000 0.0000 0.0000 0.0000 0.0000 15.7198
#
#
#
# Elastic Compliance Matrix: (Units=1/GPa)
#
#
# Indices 1 2 3 4 5 6 
#
# 1 0.013117 -0.003387 -0.003200 0.000000 0.000000 0.000000
# 2 -0.003387 0.011769 -0.002609 0.000000 0.000000 0.000000
# 3 -0.003200 -0.002609 0.008265 0.000000 0.000000 0.000000
# 4 0.000000 0.000000 0.000000 0.026521 0.000000 0.000000
# 5 0.000000 0.000000 0.000000 0.000000 0.029781 0.000000
# 6 0.000000 0.000000 0.000000 0.000000 0.000000 0.063614
#
#
# Mechanical properties :
#
#
# Convention : Reuss Voigt Hill
#
# Bulk Modulus (GPa) = 67.74633 71.33252 69.53942
# Shear Modulus (GPa) = 28.34793 32.24176 30.29485
#
# Velocity S-wave (km/s) = 3.66760 3.91138 3.79145
# Velocity P-wave (km/s) = 7.07680 7.36520 7.22244
#
# Compressibility (1/GPa) = 0.01476095
#
# Stress axis : x y z
#
# Youngs Moduli (GPa) = 76.23585 84.96555 120.98535
#
# Poissons Ratio (x) = 0.28778 0.38711
# Poissons Ratio (y) = 0.25821 0.31564
# Poissons Ratio (z) = 0.24393 0.22167
#
# Static dielectric constant tensor:
#      x y z
#    x 3.754850 0.000000 0.000000 
#    y 0.000000 0.283810 0.000000 
#    z 0.000000 0.000000 3.702130 
# 
# 
# High freq. dielectric constant tensor:
#      x y z
#    x 1.816270 0.000000 0.000000 
#    y 0.000000 1.836190 0.000000 
#    z 0.000000 0.000000 1.822790 
# 
# From -- ./inp_files/30025.got.cif
#   From: 2010.06.25/outbox.cif.g09.slc.cpg/sg48_16_cif.got.tgz:30025.got - 2010.06.26 18:06:46.
