data_PCOD8201002
_publ_section_title
;
Structure prediction by ZEFSAII (Michael W. Deem and Ramdas Pophale) SiO2 
 PCOD8201002
Probable space group: P M M M
;
_chemical_formula_sum "Si O2"
_cell_formula_units_Z 32
_cell_length_a 9.258351
_cell_length_b 22.708486
_cell_length_c 7.711424
_cell_angle_alpha 90.000000
_cell_angle_beta 90.000000
_cell_angle_gamma 90.000000
_cell_volume 1621.273950
_symmetry_space_group_name_H-M "P M M M"
_symmetry_group_IT_number 47
_symmetry_cell_setting 'orthorhombic'
loop_
_space_group_symop_operation_xyz
x,y,z
-x,-y,z
x,-y,-z
-x,y,-z
-x,-y,-z
x,y,-z
-x,y,z
x,-y,z
loop_
_atom_site_type_symbol
_atom_site_label
_atom_site_fract_x
_atom_site_fract_y
_atom_site_fract_z
Si Si1 0.336749 0.000000 0.706586
Si Si2 0.672468 0.566333 0.000000
Si Si3 0.327832 0.647241 0.692805
Si Si4 0.837490 0.112682 0.293104
Si Si5 0.660397 0.777355 0.294471
O O1 0.254189 0.057510 0.777261
O O2 0.500000 0.000000 0.778944
O O3 0.338068 0.000000 0.500000
O O4 0.731811 0.599277 0.171422
O O5 0.733086 0.500000 0.000000
O O6 0.500000 0.566599 0.000000
O O7 0.267676 0.632300 0.500000
O O8 0.500000 0.646707 0.687442
O O9 0.278314 0.712541 0.753881
O O10 0.838302 0.112879 0.500000
O O11 0.766343 0.172665 0.219571
O O12 0.000000 0.108079 0.220705
O O13 0.650173 0.782545 0.500000
O O14 0.500000 0.786667 0.215448
#
# Coordination Sequence:
#
# PCOD8201002 Si02
#       5
#     4   4   8   8   8
#     4   9  15  21  29  43  69 108 147 178 216 269
#     4   9  16  24  36  58  87 116 145 178 219 267
#     4   8  14  24  37  54  79 112 147 182 221 266
#     4   9  15  21  30  47  72 101 137 183 228 264
#     4   8  13  22  35  49  69 102 141 177 217 266
#
# _framework density 19.737563000000002
#
# number of rings (size 3 to 8) (size 9 to 14) (size 15 to 20)
#    0.000    3.500    0.000    2.625    0.000    5.000 
#    0.000    2.500    0.000    0.000    0.000    0.875 
#    0.000    3.000    0.000   21.625    0.000   44.750 
#
# Total GULP energy -396584.738895 kJ/mol
# GULP energy per Si atom -12393.273090 kJ/mol
# Density = 1.969264 g / cm^3
# Si number density = 19.737563 Si / 1000 Ang^3
#
#
#
# Elastic Constant Matrix: (Units=GPa)
#
#
# Indices 1 2 3 4 5 6 
#
# 1 97.2592 68.3810 17.8420 0.0000 0.0000 0.0000
# 2 68.3810 209.7492 56.6885 0.0000 0.0000 0.0000
# 3 17.8420 56.6885 60.2368 0.0000 0.0000 0.0000
# 4 0.0000 0.0000 0.0000 -4.0078 0.0000 0.0000
# 5 0.0000 0.0000 0.0000 0.0000 0.0405 0.0000
# 6 0.0000 0.0000 0.0000 0.0000 0.0000 7.3412
#
#
#
# Elastic Compliance Matrix: (Units=1/GPa)
#
#
# Indices 1 2 3 4 5 6 
#
# 1 0.013341 -0.004401 0.000190 0.000000 0.000000 0.000000
# 2 -0.004401 0.007845 -0.006080 0.000000 0.000000 0.000000
# 3 0.000190 -0.006080 0.022267 0.000000 0.000000 0.000000
# 4 0.000000 0.000000 0.000000 -0.249513 0.000000 0.000000
# 5 0.000000 0.000000 0.000000 0.000000 24.699979 0.000000
# 6 0.000000 0.000000 0.000000 0.000000 0.000000 0.136217
#
#
# Mechanical properties :
#
#
# Convention : Reuss Voigt Hill
#
# Bulk Modulus (GPa) = 43.72197 72.56312 58.14254
# Shear Modulus (GPa) = 0.20277 15.63037 7.91657
#
# Velocity S-wave (km/s) = 0.32087 2.81714 2.00490
# Velocity P-wave (km/s) = 4.72621 6.88662 5.90604
#
# Compressibility (1/GPa) = 0.02287180
#
# Stress axis : x y z
#
# Youngs Moduli (GPa) = 74.95703 127.46220 44.91022
#
# Poissons Ratio (x) = 0.56092 -0.00853
# Poissons Ratio (y) = 0.32986 0.27305
# Poissons Ratio (z) = -0.01423 0.77495
#
# Static dielectric constant tensor:
#      x y z
#    x 3.327210 0.000000 0.000000 
#    y 0.000000 3.903990 0.000000 
#    z 0.000000 0.000000 3.255270 
# 
# 
# High freq. dielectric constant tensor:
#      x y z
#    x 1.717260 0.000000 0.000000 
#    y 0.000000 1.777270 0.000000 
#    z 0.000000 0.000000 1.733560 
# 
# From -- ./inp_files/1295.got.cif
#   From: 2010.03.12/outbox.cif.g09.slc.cpg/sg47_1_cif.got.tgz:1295.got - 2010.04.14 03:12:58.
