data_PCOD8201739
_publ_section_title
;
Structure prediction by ZEFSAII (Michael W. Deem and Ramdas Pophale) SiO2 
 PCOD8201739
Probable space group: P N N N
;
_chemical_formula_sum "Si O2"
_cell_formula_units_Z 48
_cell_length_a 9.079936
_cell_length_b 7.673110
_cell_length_c 30.065246
_cell_angle_alpha 90.000000
_cell_angle_beta 90.000000
_cell_angle_gamma 90.000000
_cell_volume 2094.686208
_symmetry_space_group_name_H-M "P N N N"
_symmetry_group_IT_number 48
_space_group.IT_coordinate_system_code '2'
_symmetry_cell_setting 'orthorhombic'
loop_
_space_group_symop_operation_xyz
x,y,z
1/2-x,1/2-y,z
x,1/2-y,1/2-z
1/2-x,y,1/2-z
-x,-y,-z
1/2+x,1/2+y,-z
-x,1/2+y,1/2+z
1/2+x,-y,1/2+z
loop_
_atom_site_type_symbol
_atom_site_label
_atom_site_fract_x
_atom_site_fract_y
_atom_site_fract_z
Si Si1 0.086647 0.564475 0.369090
Si Si2 0.086040 0.415364 0.718825
Si Si3 0.087235 0.456773 0.956451
Si Si4 0.084956 0.047365 0.955015
Si Si5 0.143365 0.908812 0.698939
Si Si6 0.085263 0.978312 0.372843
O O1 0.088104 0.770822 0.373602
O O2 0.244089 0.466686 0.371195
O O3 0.025770 0.532876 0.319839
O O4 0.994219 0.479059 0.409861
O O5 0.040889 0.250000 0.750000
O O6 0.253165 0.412565 0.697966
O O7 0.083587 0.590918 0.750057
O O8 0.097676 0.252344 0.950300
O O9 0.252020 0.536777 0.957647
O O10 0.995210 0.546759 0.917028
O O11 0.000000 0.500000 0.000000
O O12 0.000000 0.000000 0.000000
O O13 0.250000 0.750000 0.684653
O O14 0.004390 0.935396 0.667244
#
# Coordination Sequence:
#
# PCOD8201739 Si02
#       6
#     8   8   8   8   8   8
#     4  10  21  38  65  97 127 163 223 274 323 388
#     4  11  21  38  65  94 121 166 219 270 325 391
#     4  10  21  39  63  92 131 168 216 260 320 391
#     4  10  21  39  65  94 129 169 208 269 325 382
#     4  11  23  40  61  91 130 170 215 268 333 395
#     4  10  21  39  62  95 130 168 214 276 327 386
#
# _framework density 22.915126000000001
#
# number of rings (size 3 to 8) (size 9 to 14) (size 15 to 20)
#    0.000    1.667    1.667    4.000    0.000    4.000 
#    6.000    0.833    0.000    4.000    0.000    0.000 
#    0.000    0.000    0.000    0.000    0.000    0.000 
#
# Total GULP energy -594627.447776 kJ/mol
# GULP energy per Si atom -12388.071829 kJ/mol
# Density = 2.286297 g / cm^3
# Si number density = 22.915126 Si / 1000 Ang^3
#
#
#
# Elastic Constant Matrix: (Units=GPa)
#
#
# Indices 1 2 3 4 5 6 
#
# 1 232.8660 16.2015 131.3429 0.0000 0.0000 0.0000
# 2 16.2015 39.6377 10.8806 0.0000 0.0000 0.0000
# 3 131.3429 10.8806 192.8997 0.0000 0.0000 0.0000
# 4 0.0000 0.0000 0.0000 26.5908 0.0000 0.0000
# 5 0.0000 0.0000 0.0000 0.0000 54.8042 0.0000
# 6 0.0000 0.0000 0.0000 0.0000 0.0000 26.9235
#
#
#
# Elastic Compliance Matrix: (Units=1/GPa)
#
#
# Indices 1 2 3 4 5 6 
#
# 1 0.007069 -0.001593 -0.004724 0.000000 0.000000 0.000000
# 2 -0.001593 0.025984 -0.000381 0.000000 0.000000 0.000000
# 3 -0.004724 -0.000381 0.008422 0.000000 0.000000 0.000000
# 4 0.000000 0.000000 0.000000 0.037607 0.000000 0.000000
# 5 0.000000 0.000000 0.000000 0.000000 0.018247 0.000000
# 6 0.000000 0.000000 0.000000 0.000000 0.000000 0.037142
#
#
# Mechanical properties :
#
#
# Convention : Reuss Voigt Hill
#
# Bulk Modulus (GPa) = 35.61224 86.91706 61.26465
# Shear Modulus (GPa) = 31.80121 42.12891 36.96506
#
# Velocity S-wave (km/s) = 3.72934 4.29240 4.02074
# Velocity P-wave (km/s) = 5.84111 7.91066 6.95331
#
# Compressibility (1/GPa) = 0.02808023
#
# Stress axis : x y z
#
# Youngs Moduli (GPa) = 141.45497 38.48490 118.73974
#
# Poissons Ratio (x) = 0.06130 0.56088
# Poissons Ratio (y) = 0.22533 0.04525
# Poissons Ratio (z) = 0.66818 0.01466
#
# Static dielectric constant tensor:
#      x y z
#    x 4.511360 0.000000 0.000000 
#    y 0.000000 4.036180 0.000000 
#    z 0.000000 0.000000 4.308100 
# 
# 
# High freq. dielectric constant tensor:
#      x y z
#    x 1.905750 0.000000 0.000000 
#    y 0.000000 1.887670 0.000000 
#    z 0.000000 0.000000 1.915810 
# 
# From -- ./inp_files/38700.got.cif
#   From: 2010.06.25/outbox.cif.g09.slc.cpg/sg48_20_cif.got.tgz:38700.got - 2010.06.26 18:06:46.
