data_PCOD8201197
_publ_section_title
;
Structure prediction by ZEFSAII (Michael W. Deem and Ramdas Pophale) SiO2 
 PCOD8201197
Probable space group: P M M M
;
_chemical_formula_sum "Si O2"
_cell_formula_units_Z 40
_cell_length_a 8.013385
_cell_length_b 9.187300
_cell_length_c 27.818285
_cell_angle_alpha 90.000000
_cell_angle_beta 90.000000
_cell_angle_gamma 90.000000
_cell_volume 2048.020309
_symmetry_space_group_name_H-M "P M M M"
_symmetry_group_IT_number 47
_symmetry_cell_setting 'orthorhombic'
loop_
_space_group_symop_operation_xyz
x,y,z
-x,-y,z
x,-y,-z
-x,y,-z
-x,-y,-z
x,y,-z
-x,y,z
x,-y,z
loop_
_atom_site_type_symbol
_atom_site_label
_atom_site_fract_x
_atom_site_fract_y
_atom_site_fract_z
Si Si1 0.199133 0.836003 0.592770
Si Si2 0.184447 0.673258 0.114111
Si Si3 0.689706 0.328072 0.214337
Si Si4 0.803304 0.663202 0.684141
Si Si5 0.801094 0.335550 0.500000
Si Si6 0.500000 0.673695 0.054398
O O1 0.269884 0.761113 0.641137
O O2 0.267174 0.747000 0.547029
O O3 0.000000 0.836231 0.592935
O O4 0.268436 0.000000 0.590093
O O5 0.197179 0.500000 0.114290
O O6 0.207750 0.732443 0.168606
O O7 0.332116 0.734769 0.080100
O O8 0.000000 0.722700 0.095789
O O9 0.500000 0.282382 0.205984
O O10 0.713187 0.500000 0.217118
O O11 0.754614 0.262984 0.264840
O O12 0.727893 0.500000 0.679654
O O13 0.000000 0.655332 0.679958
O O14 0.731832 0.500000 0.500000
O O15 0.000000 0.336230 0.500000
O O16 0.500000 0.500000 0.055984
O O17 0.500000 0.731786 0.000000
#
# Coordination Sequence:
#
# PCOD8201197 Si02
#       6
#     8   8   8   8   4   4
#     4   9  16  25  37  55  82 114 145 178 222 277
#     4   9  15  23  35  50  71 102 141 186 235 282
#     4   9  15  24  38  55  75  99 131 176 227 275
#     4   9  16  25  38  58  81 104 136 179 223 269
#     4   9  15  23  37  57  82 113 148 187 228 268
#     4   9  16  24  32  46  72 106 147 192 233 278
#
# _framework density 19.531054999999999
#
# number of rings (size 3 to 8) (size 9 to 14) (size 15 to 20)
#    0.000    3.000    1.000    1.500    0.000    6.400 
#    0.000    2.000    0.000    0.600    0.000    0.700 
#    0.000    5.600    0.000    0.000    0.000    2.000 
#
# Total GULP energy -495743.192424 kJ/mol
# GULP energy per Si atom -12393.579811 kJ/mol
# Density = 1.948660 g / cm^3
# Si number density = 19.531055 Si / 1000 Ang^3
#
#
#
# Elastic Constant Matrix: (Units=GPa)
#
#
# Indices 1 2 3 4 5 6 
#
# 1 76.5145 12.7544 60.6486 0.0000 0.0000 0.0000
# 2 12.7544 65.3722 48.0794 0.0000 0.0000 0.0000
# 3 60.6486 48.0794 189.7626 0.0000 0.0000 0.0000
# 4 0.0000 0.0000 0.0000 3.6253 0.0000 0.0000
# 5 0.0000 0.0000 0.0000 0.0000 18.2015 0.0000
# 6 0.0000 0.0000 0.0000 0.0000 0.0000 2.0387
#
#
#
# Elastic Compliance Matrix: (Units=1/GPa)
#
#
# Indices 1 2 3 4 5 6 
#
# 1 0.017543 0.000861 -0.005825 0.000000 0.000000 0.000000
# 2 0.000861 0.018843 -0.005049 0.000000 0.000000 0.000000
# 3 -0.005825 -0.005049 0.008411 0.000000 0.000000 0.000000
# 4 0.000000 0.000000 0.000000 0.275841 0.000000 0.000000
# 5 0.000000 0.000000 0.000000 0.000000 0.054940 0.000000
# 6 0.000000 0.000000 0.000000 0.000000 0.000000 0.490507
#
#
# Mechanical properties :
#
#
# Convention : Reuss Voigt Hill
#
# Bulk Modulus (GPa) = 40.37076 63.84601 52.10839
# Shear Modulus (GPa) = 5.59054 18.78422 12.18738
#
# Velocity S-wave (km/s) = 1.69369 3.10459 2.50071
# Velocity P-wave (km/s) = 4.95376 6.75365 5.92248
#
# Compressibility (1/GPa) = 0.02477041
#
# Stress axis : x y z
#
# Youngs Moduli (GPa) = 57.00277 53.07111 118.89491
#
# Poissons Ratio (x) = -0.04572 0.69257
# Poissons Ratio (y) = -0.04910 0.60035
# Poissons Ratio (z) = 0.33204 0.26798
#
# Static dielectric constant tensor:
#      x y z
#    x 3.317440 0.000000 0.000000 
#    y 0.000000 3.092500 0.000000 
#    z 0.000000 0.000000 3.862890 
# 
# 
# High freq. dielectric constant tensor:
#      x y z
#    x 1.739290 0.000000 0.000000 
#    y 0.000000 1.688590 0.000000 
#    z 0.000000 0.000000 1.774850 
# 
# From -- ./inp_files/1769.got.cif
#   From: 2010.03.12/outbox.cif.g09.slc.cpg/sg47_1_cif.got.tgz:1769.got - 2010.04.14 03:12:58.
