data_PCOD8201146
_publ_section_title
;
Structure prediction by ZEFSAII (Michael W. Deem and Ramdas Pophale) SiO2 
 PCOD8201146
Probable space group: P M M M
;
_chemical_formula_sum "Si O2"
_cell_formula_units_Z 40
_cell_length_a 18.860858
_cell_length_b 10.297479
_cell_length_c 14.899516
_cell_angle_alpha 90.000000
_cell_angle_beta 90.000000
_cell_angle_gamma 90.000000
_cell_volume 2893.773407
_symmetry_space_group_name_H-M "P M M M"
_symmetry_group_IT_number 47
_symmetry_cell_setting 'orthorhombic'
loop_
_space_group_symop_operation_xyz
x,y,z
-x,-y,z
x,-y,-z
-x,y,-z
-x,-y,-z
x,y,-z
-x,y,z
x,-y,z
loop_
_atom_site_type_symbol
_atom_site_label
_atom_site_fract_x
_atom_site_fract_y
_atom_site_fract_z
Si Si1 0.689993 0.150176 0.898222
Si Si2 0.417509 0.148707 0.743958
Si Si3 0.839105 0.752266 0.893442
Si Si4 0.920385 0.000000 0.892773
Si Si5 0.415871 0.354909 0.600125
Si Si6 0.081020 0.500000 0.107164
O O1 0.622906 0.180165 0.836042
O O2 0.756443 0.237748 0.865808
O O3 0.713659 0.000000 0.892318
O O4 0.667847 0.185246 0.000000
O O5 0.500000 0.174698 0.762974
O O6 0.386805 0.244888 0.667612
O O7 0.404679 0.000000 0.712856
O O8 0.876106 0.623460 0.854733
O O9 0.881666 0.873795 0.853232
O O10 0.844746 0.754381 0.000000
O O11 0.000000 0.000000 0.856297
O O12 0.918533 0.000000 0.000000
O O13 0.386374 0.326345 0.500000
O O14 0.500000 0.347310 0.597985
O O15 0.392123 0.500000 0.630973
O O16 0.000000 0.500000 0.142968
O O17 0.080325 0.500000 0.000000
#
# Coordination Sequence:
#
# PCOD8201146 Si02
#       6
#     8   8   8   4   8   4
#     4   9  16  27  40  52  72 104 139 171 197 223
#     4   9  17  27  40  59  78  98 131 170 201 228
#     4   9  15  24  35  48  67  93 123 156 192 228
#     4   9  14  20  34  52  65  83 118 157 189 223
#     4   8  14  26  43  60  78  98 118 147 193 246
#     4   9  16  24  34  50  71  89 112 155 201 233
#
# _framework density 13.822782
#
# number of rings (size 3 to 8) (size 9 to 14) (size 15 to 20)
#    0.000    3.200    1.000    1.200    0.000    3.200 
#    1.800    4.000    0.000    0.000    0.000    2.800 
#    0.000    0.000    0.000    0.000    0.000    6.000 
#
# Total GULP energy -495747.824984 kJ/mol
# GULP energy per Si atom -12393.695625 kJ/mol
# Density = 1.379132 g / cm^3
# Si number density = 13.822782 Si / 1000 Ang^3
#
#
#
# Elastic Constant Matrix: (Units=GPa)
#
#
# Indices 1 2 3 4 5 6 
#
# 1 67.7859 47.9422 33.9707 0.0000 0.0000 0.0000
# 2 47.9422 106.1099 41.7185 0.0000 0.0000 0.0000
# 3 33.9707 41.7185 56.9983 0.0000 0.0000 0.0000
# 4 0.0000 0.0000 0.0000 14.5923 0.0000 0.0000
# 5 0.0000 0.0000 0.0000 0.0000 1.1704 0.0000
# 6 0.0000 0.0000 0.0000 0.0000 0.0000 20.6431
#
#
#
# Elastic Compliance Matrix: (Units=1/GPa)
#
#
# Indices 1 2 3 4 5 6 
#
# 1 0.024696 -0.007541 -0.009199 0.000000 0.000000 0.000000
# 2 -0.007541 0.015535 -0.006876 0.000000 0.000000 0.000000
# 3 -0.009199 -0.006876 0.028059 0.000000 0.000000 0.000000
# 4 0.000000 0.000000 0.000000 0.068529 0.000000 0.000000
# 5 0.000000 0.000000 0.000000 0.000000 0.854438 0.000000
# 6 0.000000 0.000000 0.000000 0.000000 0.000000 0.048442
#
#
# Mechanical properties :
#
#
# Convention : Reuss Voigt Hill
#
# Bulk Modulus (GPa) = 47.48756 53.12855 50.30805
# Shear Modulus (GPa) = 4.57059 14.43200 9.50129
#
# Velocity S-wave (km/s) = 1.82037 3.23472 2.62461
# Velocity P-wave (km/s) = 6.23277 7.24363 6.75713
#
# Compressibility (1/GPa) = 0.02105815
#
# Stress axis : x y z
#
# Youngs Moduli (GPa) = 40.49214 64.37177 35.63865
#
# Poissons Ratio (x) = 0.48545 0.32784
# Poissons Ratio (y) = 0.30537 0.24504
# Poissons Ratio (z) = 0.37249 0.44260
#
# Static dielectric constant tensor:
#      x y z
#    x 2.626900 0.000000 0.000000 
#    y 0.000000 2.973830 0.000000 
#    z 0.000000 0.000000 2.433620 
# 
# 
# High freq. dielectric constant tensor:
#      x y z
#    x 1.512330 0.000000 0.000000 
#    y 0.000000 1.535420 0.000000 
#    z 0.000000 0.000000 1.469780 
# 
# From -- ./inp_files/9383.got.cif
#   From: 2010.03.12/outbox.cif.g09.slc.cpg/sg47_5_cif.got.tgz:9383.got - 2010.04.14 03:12:58.
