data_PCOD8201141
_publ_section_title
;
Structure prediction by ZEFSAII (Michael W. Deem and Ramdas Pophale) SiO2 
 PCOD8201141
Probable space group: P M M M
;
_chemical_formula_sum "Si O2"
_cell_formula_units_Z 52
_cell_length_a 27.609879
_cell_length_b 12.737049
_cell_length_c 9.192501
_cell_angle_alpha 90.000000
_cell_angle_beta 90.000000
_cell_angle_gamma 90.000000
_cell_volume 3232.711951
_symmetry_space_group_name_H-M "P M M M"
_symmetry_group_IT_number 47
_symmetry_cell_setting 'orthorhombic'
loop_
_space_group_symop_operation_xyz
x,y,z
-x,-y,z
x,-y,-z
-x,y,-z
-x,-y,-z
x,y,-z
-x,y,z
x,-y,z
loop_
_atom_site_type_symbol
_atom_site_label
_atom_site_fract_x
_atom_site_fract_y
_atom_site_fract_z
Si Si1 0.624944 0.294862 0.328631
Si Si2 0.624042 0.500000 0.835649
Si Si3 0.736237 0.295703 0.668968
Si Si4 0.554029 0.883553 0.672775
Si Si5 0.000000 0.125320 0.335354
Si Si6 0.188164 0.879977 0.669142
Si Si7 0.260830 0.500000 0.836145
Si Si8 0.906884 0.875195 0.163990
O O1 0.618037 0.311904 0.500000
O O2 0.604844 0.397745 0.248016
O O3 0.680735 0.272140 0.288844
O O4 0.593497 0.198057 0.267086
O O5 0.681634 0.500000 0.832067
O O6 0.604129 0.500000 0.000000
O O7 0.740873 0.323778 0.500000
O O8 0.766074 0.191679 0.710260
O O9 0.757821 0.395122 0.755889
O O10 0.556053 0.884826 0.500000
O O11 0.500000 0.850962 0.724371
O O12 0.566697 0.000000 0.732063
O O13 0.047280 0.169452 0.252737
O O14 0.000000 0.168314 0.500000
O O15 0.000000 0.000000 0.335260
O O16 0.174677 0.871253 0.500000
O O17 0.142305 0.837757 0.759012
O O18 0.201308 0.000000 0.710433
O O19 0.240613 0.500000 0.000000
O O20 0.909142 0.000000 0.163245
O O21 0.908406 0.830739 0.000000
#
# Coordination Sequence:
#
# PCOD8201141 Si02
#       8
#     8   4   8   8   4   8   4   8
#     4   9  16  27  45  66  85 108 140 175 211 254
#     4   9  17  29  44  62  85 110 135 169 214 257
#     4   9  17  28  43  63  86 111 140 176 214 253
#     4   8  14  25  42  65  90 112 137 174 216 253
#     4   9  15  23  37  55  75 104 143 182 217 253
#     4   9  17  28  40  57  85 117 143 169 208 256
#     4   9  17  29  45  62  80 106 141 178 214 253
#     4   9  16  25  37  54  78 109 144 179 212 248
#
# _framework density 16.085566
#
# number of rings (size 3 to 8) (size 9 to 14) (size 15 to 20)
#    0.000    3.154    0.000    1.615    0.000    5.846 
#    0.000    3.462    0.000    3.231    0.000    5.385 
#    0.000    0.615    0.000    6.462    0.000    4.923 
#
# Total GULP energy -644649.564683 kJ/mol
# GULP energy per Si atom -12397.107013 kJ/mol
# Density = 1.604895 g / cm^3
# Si number density = 16.085566 Si / 1000 Ang^3
#
#
#
# Elastic Constant Matrix: (Units=GPa)
#
#
# Indices 1 2 3 4 5 6 
#
# 1 96.5294 64.6892 45.7948 0.0000 0.0000 0.0000
# 2 64.6892 102.6257 44.8894 0.0000 0.0000 0.0000
# 3 45.7948 44.8894 74.9223 0.0000 0.0000 0.0000
# 4 0.0000 0.0000 0.0000 10.0121 0.0000 0.0000
# 5 0.0000 0.0000 0.0000 0.0000 13.1610 0.0000
# 6 0.0000 0.0000 0.0000 0.0000 0.0000 4.0693
#
#
#
# Elastic Compliance Matrix: (Units=1/GPa)
#
#
# Indices 1 2 3 4 5 6 
#
# 1 0.019915 -0.009796 -0.006303 0.000000 0.000000 0.000000
# 2 -0.009796 0.018023 -0.004811 0.000000 0.000000 0.000000
# 3 -0.006303 -0.004811 0.020082 0.000000 0.000000 0.000000
# 4 0.000000 0.000000 0.000000 0.099879 0.000000 0.000000
# 5 0.000000 0.000000 0.000000 0.000000 0.075982 0.000000
# 6 0.000000 0.000000 0.000000 0.000000 0.000000 0.245740
#
#
# Mechanical properties :
#
#
# Convention : Reuss Voigt Hill
#
# Bulk Modulus (GPa) = 61.72853 64.98044 63.35449
# Shear Modulus (GPa) = 9.49052 13.36209 11.42631
#
# Velocity S-wave (km/s) = 2.43163 2.88529 2.66812
# Velocity P-wave (km/s) = 6.80751 7.18222 6.99738
#
# Compressibility (1/GPa) = 0.01619996
#
# Stress axis : x y z
#
# Youngs Moduli (GPa) = 50.21447 55.48377 49.79483
#
# Poissons Ratio (x) = 0.54351 0.31387
# Poissons Ratio (y) = 0.49190 0.23956
# Poissons Ratio (z) = 0.31651 0.26693
#
# Static dielectric constant tensor:
#      x y z
#    x 3.024390 0.000000 0.000000 
#    y 0.000000 2.976360 0.000000 
#    z 0.000000 0.000000 3.019300 
# 
# 
# High freq. dielectric constant tensor:
#      x y z
#    x 1.604940 0.000000 0.000000 
#    y 0.000000 1.590400 0.000000 
#    z 0.000000 0.000000 1.608610 
# 
# From -- ./inp_files/14149.got.cif
#   From: 2010.03.12/outbox.cif.g09.slc.cpg/sg47_8_cif.got.tgz:14149.got - 2010.04.14 03:12:58.
