data_PCOD8201050
_publ_section_title
;
Structure prediction by ZEFSAII (Michael W. Deem and Ramdas Pophale) SiO2 
 PCOD8201050
Probable space group: P M M M
;
_chemical_formula_sum "Si O2"
_cell_formula_units_Z 48
_cell_length_a 9.406483
_cell_length_b 17.788276
_cell_length_c 22.884357
_cell_angle_alpha 90.000000
_cell_angle_beta 90.000000
_cell_angle_gamma 90.000000
_cell_volume 3829.127685
_symmetry_space_group_name_H-M "P M M M"
_symmetry_group_IT_number 47
_symmetry_cell_setting 'orthorhombic'
loop_
_space_group_symop_operation_xyz
x,y,z
-x,-y,z
x,-y,-z
-x,y,-z
-x,-y,-z
x,y,-z
-x,y,z
x,-y,z
loop_
_atom_site_type_symbol
_atom_site_label
_atom_site_fract_x
_atom_site_fract_y
_atom_site_fract_z
Si Si1 0.340680 0.500000 0.930187
Si Si2 0.333366 0.086292 0.848516
Si Si3 0.342042 0.910655 0.717938
Si Si4 0.160595 0.089660 0.610585
Si Si5 0.167366 0.805185 0.933089
Si Si6 0.338452 0.910461 0.500000
Si Si7 0.842244 0.362282 0.930569
O O1 0.500000 0.500000 0.905600
O O2 0.263469 0.574511 0.905472
O O3 0.339140 0.500000 0.000000
O O4 0.500000 0.096233 0.859687
O O5 0.293992 0.113611 0.782935
O O6 0.248261 0.135385 0.894121
O O7 0.287859 0.000000 0.857503
O O8 0.500000 0.879121 0.703874
O O9 0.230570 0.879301 0.670445
O O10 0.348531 0.000000 0.715116
O O11 0.254721 0.119734 0.556713
O O12 0.000000 0.121010 0.605530
O O13 0.158400 0.000000 0.610347
O O14 0.210371 0.720952 0.912488
O O15 0.000000 0.816845 0.925834
O O16 0.213321 0.818236 0.000000
O O17 0.500000 0.879189 0.500000
O O18 0.341578 0.000000 0.500000
O O19 0.000000 0.377846 0.905417
O O20 0.848914 0.366652 0.000000
#
# Coordination Sequence:
#
# PCOD8201050 Si02
#       7
#     4   8   8   8   8   4   8
#     4   9  15  21  33  55  75  87 103 125 147 178
#     4   9  18  30  41  52  65  83 109 141 177 215
#     4   8  14  25  37  46  58  77 101 128 160 200
#     4   9  15  21  30  45  62  77  96 124 155 186
#     4   9  18  30  41  53  68  86 109 137 170 208
#     4   9  15  21  29  41  59  83 103 117 143 186
#     4   8  14  25  38  50  67  90 109 124 150 191
#
# _framework density 12.535492
#
# number of rings (size 3 to 8) (size 9 to 14) (size 15 to 20)
#    0.000    3.333    0.000    3.000    0.000    6.333 
#    0.000    5.000    0.000    0.000    0.000    0.000 
#    0.000    0.000    0.000    0.000    0.000    0.000 
#
# Total GULP energy -594894.141130 kJ/mol
# GULP energy per Si atom -12393.627940 kJ/mol
# Density = 1.250696 g / cm^3
# Si number density = 12.535492 Si / 1000 Ang^3
#
#
#
# Elastic Constant Matrix: (Units=GPa)
#
#
# Indices 1 2 3 4 5 6 
#
# 1 91.5475 38.6180 52.1036 0.0000 0.0000 0.0000
# 2 38.6180 51.6442 33.4025 0.0000 0.0000 0.0000
# 3 52.1036 33.4025 76.0855 0.0000 0.0000 0.0000
# 4 0.0000 0.0000 0.0000 -0.4381 0.0000 0.0000
# 5 0.0000 0.0000 0.0000 0.0000 20.1616 0.0000
# 6 0.0000 0.0000 0.0000 0.0000 0.0000 12.6708
#
#
#
# Elastic Compliance Matrix: (Units=1/GPa)
#
#
# Indices 1 2 3 4 5 6 
#
# 1 0.020340 -0.008660 -0.010127 0.000000 0.000000 0.000000
# 2 -0.008660 0.030728 -0.007560 0.000000 0.000000 0.000000
# 3 -0.010127 -0.007560 0.023397 0.000000 0.000000 0.000000
# 4 0.000000 0.000000 0.000000 -2.282804 0.000000 0.000000
# 5 0.000000 0.000000 0.000000 0.000000 0.049599 0.000000
# 6 0.000000 0.000000 0.000000 0.000000 0.000000 0.078922
#
#
# Mechanical properties :
#
#
# Convention : Reuss Voigt Hill
#
# Bulk Modulus (GPa) = 45.93079 51.94727 48.93903
# Shear Modulus (GPa) = -2.47541 12.82241 5.17350
#
# Velocity S-wave (km/s) = -1.40677 3.20173 2.03373
# Velocity P-wave (km/s) = 5.83793 7.42955 6.68131
#
# Compressibility (1/GPa) = 0.02177189
#
# Stress axis : x y z
#
# Youngs Moduli (GPa) = 49.16407 32.54332 42.74016
#
# Poissons Ratio (x) = 0.28181 0.43284
# Poissons Ratio (y) = 0.42574 0.32311
# Poissons Ratio (z) = 0.49790 0.24603
#
# Static dielectric constant tensor:
#      x y z
#    x 2.723200 0.000000 0.000000 
#    y 0.000000 2.293040 0.000000 
#    z 0.000000 0.000000 2.495450 
# 
# 
# High freq. dielectric constant tensor:
#      x y z
#    x 1.487780 0.000000 0.000000 
#    y 0.000000 1.423380 0.000000 
#    z 0.000000 0.000000 1.452990 
# 
# From -- ./inp_files/29839.got.cif
#   From: 2010.03.12/outbox.cif.g09.slc.cpg/sg47_15_cif.got.tgz:29839.got - 2010.04.14 03:12:58.
