data_PCOD8201585
_publ_section_title
;
Structure prediction by ZEFSAII (Michael W. Deem and Ramdas Pophale) SiO2 
 PCOD8201585
Probable space group: P N N N
;
_chemical_formula_sum "Si O2"
_cell_formula_units_Z 58
_cell_length_a 26.450449
_cell_length_b 11.861713
_cell_length_c 9.342685
_cell_angle_alpha 90.000000
_cell_angle_beta 90.000000
_cell_angle_gamma 90.000000
_cell_volume 2931.245321
_symmetry_space_group_name_H-M "P N N N"
_symmetry_group_IT_number 48
_space_group.IT_coordinate_system_code '2'
_symmetry_cell_setting 'orthorhombic'
loop_
_space_group_symop_operation_xyz
x,y,z
1/2-x,1/2-y,z
x,1/2-y,1/2-z
1/2-x,y,1/2-z
-x,-y,-z
1/2+x,1/2+y,-z
-x,1/2+y,1/2+z
1/2+x,-y,1/2+z
loop_
_atom_site_type_symbol
_atom_site_label
_atom_site_fract_x
_atom_site_fract_y
_atom_site_fract_z
Si Si1 0.250000 0.250000 0.750000
Si Si2 0.575362 0.170143 0.931521
Si Si3 0.539840 0.705527 0.401761
Si Si4 0.764070 0.126717 0.913084
Si Si5 0.786516 0.969575 0.367828
Si Si6 0.402840 0.002059 0.838458
Si Si7 0.880468 0.398307 0.638356
Si Si8 0.053734 0.446296 0.526516
O O1 0.218165 0.167907 0.642675
O O2 0.517035 0.158909 0.887283
O O3 0.612441 0.115930 0.810030
O O4 0.589188 0.300921 0.945512
O O5 0.582222 0.114862 0.086439
O O6 0.558650 0.750000 0.250000
O O7 0.576786 0.602056 0.443319
O O8 0.547497 0.812508 0.504872
O O9 0.750000 0.250000 0.980099
O O10 0.750000 0.126886 0.750000
O O11 0.823608 0.103578 0.919312
O O12 0.731732 0.025019 0.983693
O O13 0.750000 0.026805 0.250000
O O14 0.843021 0.999281 0.326820
O O15 0.428324 0.015983 0.684289
O O16 0.905376 0.515429 0.590552
O O17 0.000000 0.500000 0.500000
#
# Coordination Sequence:
#
# PCOD8201585 Si02
#       8
#     2   8   8   8   8   8   8   8
#     4   8  24  40  64  80 120 160 202 262 320 352
#     4  11  20  40  58  91 121 162 200 247 309 384
#     4  10  20  37  59  84 121 154 198 248 299 368
#     4  11  22  39  62  95 128 166 210 263 322 382
#     4  10  22  41  62  90 122 160 215 261 307 376
#     4  11  23  36  64  87 115 159 207 249 307 365
#     4  11  21  37  65  82 128 165 197 250 320 366
#     4  11  22  39  57  88 119 160 201 252 311 370
#
# _framework density 19.786812999999999
#
# number of rings (size 3 to 8) (size 9 to 14) (size 15 to 20)
#    0.414    0.966    2.759    5.379    2.897    0.828 
#    0.000    5.172    0.000    3.310    0.000    0.000 
#    0.000    0.000    0.000    0.000    0.000    0.000 
#
# Total GULP energy -718812.600937 kJ/mol
# GULP energy per Si atom -12393.320706 kJ/mol
# Density = 1.974178 g / cm^3
# Si number density = 19.786813 Si / 1000 Ang^3
#
#
#
# Elastic Constant Matrix: (Units=GPa)
#
#
# Indices 1 2 3 4 5 6 
#
# 1 147.0467 32.8241 22.4158 0.0000 0.0000 0.0000
# 2 32.8241 82.7532 29.5969 0.0000 0.0000 0.0000
# 3 22.4158 29.5969 56.6645 0.0000 0.0000 0.0000
# 4 0.0000 0.0000 0.0000 33.5021 0.0000 0.0000
# 5 0.0000 0.0000 0.0000 0.0000 26.4689 0.0000
# 6 0.0000 0.0000 0.0000 0.0000 0.0000 31.8132
#
#
#
# Elastic Compliance Matrix: (Units=1/GPa)
#
#
# Indices 1 2 3 4 5 6 
#
# 1 0.007601 -0.002385 -0.001761 0.000000 0.000000 0.000000
# 2 -0.002385 0.015609 -0.007209 0.000000 0.000000 0.000000
# 3 -0.001761 -0.007209 0.022110 0.000000 0.000000 0.000000
# 4 0.000000 0.000000 0.000000 0.029849 0.000000 0.000000
# 5 0.000000 0.000000 0.000000 0.000000 0.037780 0.000000
# 6 0.000000 0.000000 0.000000 0.000000 0.000000 0.031434
#
#
# Mechanical properties :
#
#
# Convention : Reuss Voigt Hill
#
# Bulk Modulus (GPa) = 44.23037 50.68201 47.45619
# Shear Modulus (GPa) = 28.63199 31.79867 30.21533
#
# Velocity S-wave (km/s) = 3.80810 4.01317 3.91198
# Velocity P-wave (km/s) = 6.46046 6.86613 6.66638
#
# Compressibility (1/GPa) = 0.02260890
#
# Stress axis : x y z
#
# Youngs Moduli (GPa) = 131.55345 64.06739 45.22865
#
# Poissons Ratio (x) = 0.15281 0.07966
# Poissons Ratio (y) = 0.31378 0.32606
# Poissons Ratio (z) = 0.23169 0.46187
#
# Static dielectric constant tensor:
#      x y z
#    x 4.056720 0.000000 0.000000 
#    y 0.000000 3.888100 0.000000 
#    z 0.000000 0.000000 3.393820 
# 
# 
# High freq. dielectric constant tensor:
#      x y z
#    x 1.785150 0.000000 0.000000 
#    y 0.000000 1.773140 0.000000 
#    z 0.000000 0.000000 1.746330 
# 
# From -- ./inp_files/16471.got.cif
#   From: 2010.06.25/outbox.cif.g09.slc.cpg/sg48_9_cif.got.tgz:16471.got - 2010.06.26 18:06:46.
