data_PCOD8201897
_publ_section_title
;
Structure prediction by ZEFSAII (Michael W. Deem and Ramdas Pophale) SiO2 
 PCOD8201897
Probable space group: P N N N
;
_chemical_formula_sum "Si O2"
_cell_formula_units_Z 36
_cell_length_a 11.822597
_cell_length_b 5.956230
_cell_length_c 21.449095
_cell_angle_alpha 90.000000
_cell_angle_beta 90.000000
_cell_angle_gamma 90.000000
_cell_volume 1510.404665
_symmetry_space_group_name_H-M "P N N N"
_symmetry_group_IT_number 48
_space_group.IT_coordinate_system_code '2'
_symmetry_cell_setting 'orthorhombic'
loop_
_space_group_symop_operation_xyz
x,y,z
1/2-x,1/2-y,z
x,1/2-y,1/2-z
1/2-x,y,1/2-z
-x,-y,-z
1/2+x,1/2+y,-z
-x,1/2+y,1/2+z
1/2+x,-y,1/2+z
loop_
_atom_site_type_symbol
_atom_site_label
_atom_site_fract_x
_atom_site_fract_y
_atom_site_fract_z
Si Si1 0.750000 0.250000 0.250000
Si Si2 0.564356 0.067108 0.838562
Si Si3 0.250000 0.750000 0.250000
Si Si4 0.138709 0.110143 0.837058
Si Si5 0.503827 0.824178 0.582472
Si Si6 0.625293 0.276236 0.966218
O O1 0.666519 0.413178 0.211820
O O2 0.670606 0.088023 0.791764
O O3 0.460724 0.220003 0.813136
O O4 0.605738 0.116615 0.908047
O O5 0.526698 0.809662 0.852332
O O6 0.250000 0.250000 0.852012
O O7 0.095301 0.002768 0.900942
O O8 0.455975 0.692759 0.522538
O O9 0.610409 0.967477 0.558247
O O10 0.750000 0.250000 0.992525
#
# Coordination Sequence:
#
# PCOD8201897 Si02
#       6
#     2   8   2   8   8   8
#     4  12  26  44  70 104 144 192 226 306 374 426
#     4  11  25  48  70 104 147 196 248 296 371 448
#     4  12  28  48  74 104 154 196 252 306 352 468
#     4  11  26  44  72 106 138 185 244 303 366 441
#     4  10  24  45  74 106 142 192 246 308 375 438
#     4  10  22  45  70 106 145 189 246 306 373 446
#
# _framework density 23.834671
#
# number of rings (size 3 to 8) (size 9 to 14) (size 15 to 20)
#    0.000    1.333    1.111    2.333   10.889    0.889 
#    0.000    4.444    0.000    0.000    0.000    0.000 
#    0.000    0.000    0.000    0.000    0.000    0.000 
#
# Total GULP energy -446046.782820 kJ/mol
# GULP energy per Si atom -12390.188412 kJ/mol
# Density = 2.378042 g / cm^3
# Si number density = 23.834671 Si / 1000 Ang^3
#
#
#
# Elastic Constant Matrix: (Units=GPa)
#
#
# Indices 1 2 3 4 5 6 
#
# 1 154.5022 58.3881 54.1891 0.0000 0.0000 0.0000
# 2 58.3881 108.3573 42.8271 0.0000 0.0000 0.0000
# 3 54.1891 42.8271 117.6127 0.0000 0.0000 0.0000
# 4 0.0000 0.0000 0.0000 29.4767 0.0000 0.0000
# 5 0.0000 0.0000 0.0000 0.0000 6.7679 0.0000
# 6 0.0000 0.0000 0.0000 0.0000 0.0000 27.4372
#
#
#
# Elastic Compliance Matrix: (Units=1/GPa)
#
#
# Indices 1 2 3 4 5 6 
#
# 1 0.008816 -0.003674 -0.002724 0.000000 0.000000 0.000000
# 2 -0.003674 0.012311 -0.002790 0.000000 0.000000 0.000000
# 3 -0.002724 -0.002790 0.010774 0.000000 0.000000 0.000000
# 4 0.000000 0.000000 0.000000 0.033925 0.000000 0.000000
# 5 0.000000 0.000000 0.000000 0.000000 0.147756 0.000000
# 6 0.000000 0.000000 0.000000 0.000000 0.000000 0.036447
#
#
# Mechanical properties :
#
#
# Convention : Reuss Voigt Hill
#
# Bulk Modulus (GPa) = 73.94029 76.80897 75.37463
# Shear Modulus (GPa) = 18.32080 27.74090 23.03085
#
# Velocity S-wave (km/s) = 2.77548 3.41528 3.11187
# Velocity P-wave (km/s) = 6.43122 6.91722 6.67864
#
# Compressibility (1/GPa) = 0.01352443
#
# Stress axis : x y z
#
# Youngs Moduli (GPa) = 113.42636 81.22667 92.81876
#
# Poissons Ratio (x) = 0.29842 0.25286
# Poissons Ratio (y) = 0.41672 0.25899
# Poissons Ratio (z) = 0.30900 0.22664
#
# Static dielectric constant tensor:
#      x y z
#    x 4.398100 0.000000 0.000000 
#    y 0.000000 4.463380 0.000000 
#    z 0.000000 0.000000 4.206480 
# 
# 
# High freq. dielectric constant tensor:
#      x y z
#    x 1.946650 0.000000 0.000000 
#    y 0.000000 1.940560 0.000000 
#    z 0.000000 0.000000 1.950910 
# 
# From -- ./inp_files/5690.got.cif
#   From: 2010.06.25/outbox.cif.g09.slc.cpg/sg48_3_cif.got.tgz:5690.got - 2010.06.26 18:06:46.
