data_PCOD8201825
_publ_section_title
;
Structure prediction by ZEFSAII (Michael W. Deem and Ramdas Pophale) SiO2 
 PCOD8201825
Probable space group: P N N N
;
_chemical_formula_sum "Si O2"
_cell_formula_units_Z 48
_cell_length_a 26.176161
_cell_length_b 5.217446
_cell_length_c 17.862946
_cell_angle_alpha 90.000000
_cell_angle_beta 90.000000
_cell_angle_gamma 90.000000
_cell_volume 2439.590881
_symmetry_space_group_name_H-M "P N N N"
_symmetry_group_IT_number 48
_space_group.IT_coordinate_system_code '2'
_symmetry_cell_setting 'orthorhombic'
loop_
_space_group_symop_operation_xyz
x,y,z
1/2-x,1/2-y,z
x,1/2-y,1/2-z
1/2-x,y,1/2-z
-x,-y,-z
1/2+x,1/2+y,-z
-x,1/2+y,1/2+z
1/2+x,-y,1/2+z
loop_
_atom_site_type_symbol
_atom_site_label
_atom_site_fract_x
_atom_site_fract_y
_atom_site_fract_z
Si Si1 0.846159 0.001656 0.300207
Si Si2 0.113528 0.506443 0.031359
Si Si3 0.783421 0.999153 0.449606
Si Si4 0.561278 0.194750 0.836377
Si Si5 0.056874 0.501787 0.471548
Si Si6 0.459354 0.502269 0.700668
O O1 0.835138 0.250000 0.250000
O O2 0.805907 0.991835 0.366438
O O3 0.839510 0.750000 0.250000
O O4 0.903175 0.018880 0.337186
O O5 0.172951 0.501462 0.012449
O O6 0.086023 0.751624 0.992242
O O7 0.086754 0.249064 0.001544
O O8 0.106170 0.531671 0.122270
O O9 0.750000 0.250000 0.460879
O O10 0.750000 0.750000 0.463967
O O11 0.574135 0.250000 0.750000
O O12 0.508553 0.033828 0.852695
O O13 0.556086 0.465843 0.880667
O O14 0.000000 0.500000 0.500000
O O15 0.459864 0.250000 0.750000
O O16 0.469462 0.750000 0.750000
#
# Coordination Sequence:
#
# PCOD8201825 Si02
#       6
#     8   8   8   8   8   8
#     4  10  22  40  60  91 125 163 205 258 315 370
#     4  10  24  41  61  91 125 165 209 261 315 379
#     4  12  26  44  66  89 118 165 221 278 323 368
#     4   9  22  37  63  94 128 166 209 246 307 374
#     4  10  22  37  61  95 129 168 198 251 304 394
#     4   9  19  33  53  87 128 159 189 238 299 369
#
# _framework density 19.675431
#
# number of rings (size 3 to 8) (size 9 to 14) (size 15 to 20)
#    1.000    1.000    0.000    2.500    7.000    2.000 
#    6.000    0.000    0.000    0.500    0.000    0.000 
#    0.000    0.000    0.000    0.000    0.000    0.000 
#
# Total GULP energy -594699.842716 kJ/mol
# GULP energy per Si atom -12389.580057 kJ/mol
# Density = 1.963065 g / cm^3
# Si number density = 19.675431 Si / 1000 Ang^3
#
#
#
# Elastic Constant Matrix: (Units=GPa)
#
#
# Indices 1 2 3 4 5 6 
#
# 1 169.0932 73.9102 64.4320 0.0000 0.0000 0.0000
# 2 73.9102 169.7866 37.0992 0.0000 0.0000 0.0000
# 3 64.4320 37.0992 78.1845 0.0000 0.0000 0.0000
# 4 0.0000 0.0000 0.0000 19.0230 0.0000 0.0000
# 5 0.0000 0.0000 0.0000 0.0000 43.2800 0.0000
# 6 0.0000 0.0000 0.0000 0.0000 0.0000 40.4998
#
#
#
# Elastic Compliance Matrix: (Units=1/GPa)
#
#
# Indices 1 2 3 4 5 6 
#
# 1 0.009647 -0.002747 -0.006647 0.000000 0.000000 0.000000
# 2 -0.002747 0.007353 -0.001225 0.000000 0.000000 0.000000
# 3 -0.006647 -0.001225 0.018849 0.000000 0.000000 0.000000
# 4 0.000000 0.000000 0.000000 0.052568 0.000000 0.000000
# 5 0.000000 0.000000 0.000000 0.000000 0.023105 0.000000
# 6 0.000000 0.000000 0.000000 0.000000 0.000000 0.024691
#
#
# Mechanical properties :
#
#
# Convention : Reuss Voigt Hill
#
# Bulk Modulus (GPa) = 68.43949 85.32745 76.88347
# Shear Modulus (GPa) = 30.80253 36.66875 33.73564
#
# Velocity S-wave (km/s) = 3.96097 4.32172 4.14527
# Velocity P-wave (km/s) = 7.46852 8.26829 7.87856
#
# Compressibility (1/GPa) = 0.01461145
#
# Stress axis : x y z
#
# Youngs Moduli (GPa) = 103.65385 135.99177 53.05220
#
# Poissons Ratio (x) = 0.37361 0.35263
# Poissons Ratio (y) = 0.28477 0.06500
# Poissons Ratio (z) = 0.68898 0.16662
#
# Static dielectric constant tensor:
#      x y z
#    x 3.844940 0.000000 0.000000 
#    y 0.000000 3.840940 0.000000 
#    z 0.000000 0.000000 3.329360 
# 
# 
# High freq. dielectric constant tensor:
#      x y z
#    x 1.759130 0.000000 0.000000 
#    y 0.000000 1.789090 0.000000 
#    z 0.000000 0.000000 1.742170 
# 
# From -- ./inp_files/32312.got.cif
#   From: 2010.06.25/outbox.cif.g09.slc.cpg/sg48_17_cif.got.tgz:32312.got - 2010.06.26 18:06:46.
