data_PCOD8201672
_publ_section_title
;
Structure prediction by ZEFSAII (Michael W. Deem and Ramdas Pophale) SiO2 
 PCOD8201672
Probable space group: P N N N
;
_chemical_formula_sum "Si O2"
_cell_formula_units_Z 40
_cell_length_a 14.102680
_cell_length_b 9.155227
_cell_length_c 14.158671
_cell_angle_alpha 90.000000
_cell_angle_beta 90.000000
_cell_angle_gamma 90.000000
_cell_volume 1828.071840
_symmetry_space_group_name_H-M "P N N N"
_symmetry_group_IT_number 48
_space_group.IT_coordinate_system_code '2'
_symmetry_cell_setting 'orthorhombic'
loop_
_space_group_symop_operation_xyz
x,y,z
1/2-x,1/2-y,z
x,1/2-y,1/2-z
1/2-x,y,1/2-z
-x,-y,-z
1/2+x,1/2+y,-z
-x,1/2+y,1/2+z
1/2+x,-y,1/2+z
loop_
_atom_site_type_symbol
_atom_site_label
_atom_site_fract_x
_atom_site_fract_y
_atom_site_fract_z
Si Si1 0.250000 0.750000 0.084110
Si Si2 0.750000 0.750000 0.496110
Si Si3 0.996236 0.415371 0.401246
Si Si4 0.084059 0.304359 0.647956
Si Si5 0.797725 0.954269 0.846083
Si Si6 0.053853 0.845383 0.484427
O O1 0.300347 0.629453 0.149046
O O2 0.168766 0.659884 0.025656
O O3 0.841539 0.740683 0.431497
O O4 0.740355 0.609423 0.564081
O O5 0.095239 0.397404 0.347818
O O6 0.000000 0.500000 0.500000
O O7 0.925911 0.518914 0.340410
O O8 0.961911 0.251256 0.420819
O O9 0.116641 0.250000 0.750000
O O10 0.987075 0.228684 0.611724
O O11 0.750000 0.898873 0.750000
O O12 0.000000 0.000000 0.500000
#
# Coordination Sequence:
#
# PCOD8201672 Si02
#       6
#     4   4   8   8   8   8
#     4  12  23  38  68 108 137 178 241 292 358 442
#     4  12  22  46  66  96 138 180 244 296 358 434
#     4  10  20  46  65  91 145 185 221 294 363 427
#     4  11  23  42  69  96 133 187 240 287 362 439
#     4  12  25  40  68 103 137 180 232 295 367 434
#     4  11  23  43  69 102 144 193 236 296 371 444
#
# _framework density 21.880980000000001
#
# number of rings (size 3 to 8) (size 9 to 14) (size 15 to 20)
#    0.000    0.800    8.000    2.100    2.800    0.000 
#    0.000    1.000    0.000    0.000    0.000    8.400 
#    0.000    0.000    0.000    0.000    0.000    0.000 
#
# Total GULP energy -495592.324283 kJ/mol
# GULP energy per Si atom -12389.808107 kJ/mol
# Density = 2.183118 g / cm^3
# Si number density = 21.880980 Si / 1000 Ang^3
#
#
#
# Elastic Constant Matrix: (Units=GPa)
#
#
# Indices 1 2 3 4 5 6 
#
# 1 129.8253 30.3456 47.3644 0.0000 0.0000 0.0000
# 2 30.3456 136.5909 40.4347 0.0000 0.0000 0.0000
# 3 47.3644 40.4347 136.3911 0.0000 0.0000 0.0000
# 4 0.0000 0.0000 0.0000 26.3002 0.0000 0.0000
# 5 0.0000 0.0000 0.0000 0.0000 31.5469 0.0000
# 6 0.0000 0.0000 0.0000 0.0000 0.0000 39.5370
#
#
#
# Elastic Compliance Matrix: (Units=1/GPa)
#
#
# Indices 1 2 3 4 5 6 
#
# 1 0.008989 -0.001176 -0.002773 0.000000 0.000000 0.000000
# 2 -0.001176 0.008179 -0.002016 0.000000 0.000000 0.000000
# 3 -0.002773 -0.002016 0.008893 0.000000 0.000000 0.000000
# 4 0.000000 0.000000 0.000000 0.038022 0.000000 0.000000
# 5 0.000000 0.000000 0.000000 0.000000 0.031699 0.000000
# 6 0.000000 0.000000 0.000000 0.000000 0.000000 0.025293
#
#
# Mechanical properties :
#
#
# Convention : Reuss Voigt Hill
#
# Bulk Modulus (GPa) = 70.77126 71.01073 70.89100
# Shear Modulus (GPa) = 36.30645 38.45432 37.38039
#
# Velocity S-wave (km/s) = 4.07783 4.19672 4.13770
# Velocity P-wave (km/s) = 7.38821 7.48378 7.43614
#
# Compressibility (1/GPa) = 0.01413003
#
# Stress axis : x y z
#
# Youngs Moduli (GPa) = 111.24388 122.25903 112.45290
#
# Poissons Ratio (x) = 0.14380 0.31183
# Poissons Ratio (y) = 0.13085 0.22675
# Poissons Ratio (z) = 0.30848 0.24652
#
# Static dielectric constant tensor:
#      x y z
#    x 4.092070 0.000000 0.000000 
#    y 0.000000 4.488560 0.000000 
#    z 0.000000 0.000000 3.719180 
# 
# 
# High freq. dielectric constant tensor:
#      x y z
#    x 1.860250 0.000000 0.000000 
#    y 0.000000 1.875300 0.000000 
#    z 0.000000 0.000000 1.829980 
# 
# From -- ./inp_files/25120.got.cif
#   From: 2010.06.25/outbox.cif.g09.slc.cpg/sg48_13_cif.got.tgz:25120.got - 2010.06.26 18:06:46.
