data_PCOD8201191
_publ_section_title
;
Structure prediction by ZEFSAII (Michael W. Deem and Ramdas Pophale) SiO2 
 PCOD8201191
Probable space group: P M M M
;
_chemical_formula_sum "Si O2"
_cell_formula_units_Z 40
_cell_length_a 7.838007
_cell_length_b 29.616590
_cell_length_c 9.364544
_cell_angle_alpha 90.000000
_cell_angle_beta 90.000000
_cell_angle_gamma 90.000000
_cell_volume 2173.838794
_symmetry_space_group_name_H-M "P M M M"
_symmetry_group_IT_number 47
_symmetry_cell_setting 'orthorhombic'
loop_
_space_group_symop_operation_xyz
x,y,z
-x,-y,z
x,-y,-z
-x,y,-z
-x,-y,-z
x,y,-z
-x,y,z
x,-y,z
loop_
_atom_site_type_symbol
_atom_site_label
_atom_site_fract_x
_atom_site_fract_y
_atom_site_fract_z
Si Si1 0.303074 0.796268 0.838180
Si Si2 0.500000 0.550329 0.330753
Si Si3 0.804057 0.386007 0.668025
Si Si4 0.500000 0.949157 0.170539
Si Si5 0.200694 0.701181 0.159977
Si Si6 0.811869 0.890193 0.830521
O O1 0.500000 0.808400 0.831213
O O2 0.263965 0.747916 0.764897
O O3 0.208747 0.839336 0.766747
O O4 0.236998 0.790687 0.000000
O O5 0.500000 0.500000 0.264568
O O6 0.500000 0.547759 0.500000
O O7 0.674033 0.575046 0.279948
O O8 0.790018 0.377937 0.500000
O O9 0.739426 0.340373 0.743249
O O10 0.000000 0.398764 0.710381
O O11 0.331060 0.924098 0.230796
O O12 0.500000 0.000000 0.230691
O O13 0.500000 0.949560 0.000000
O O14 0.000000 0.702382 0.152202
O O15 0.278408 0.695436 0.000000
O O16 0.000000 0.908568 0.789718
O O17 0.787482 0.886975 0.000000
#
# Coordination Sequence:
#
# PCOD8201191 Si02
#       6
#     8   4   8   4   8   8
#     4   9  15  23  36  55  78 103 133 170 209 248
#     4   9  18  32  50  71  91 113 147 187 220 253
#     4   9  18  32  49  69  93 119 146 178 218 261
#     4   9  16  24  31  42  62  88 125 171 214 257
#     4   9  17  28  43  65  90 116 147 180 214 256
#     4   9  15  23  34  46  64  92 126 166 209 249
#
# _framework density 18.400628000000001
#
# number of rings (size 3 to 8) (size 9 to 14) (size 15 to 20)
#    0.000    3.000    1.000    0.600    1.400    3.200 
#    0.000    4.000    0.000    1.200    0.000    2.800 
#    0.000    0.000    0.000    0.000    0.000    2.000 
#
# Total GULP energy -495669.110580 kJ/mol
# GULP energy per Si atom -12391.727764 kJ/mol
# Density = 1.835875 g / cm^3
# Si number density = 18.400628 Si / 1000 Ang^3
#
#
#
# Elastic Constant Matrix: (Units=GPa)
#
#
# Indices 1 2 3 4 5 6 
#
# 1 118.2017 85.4242 13.0649 0.0000 0.0000 0.0000
# 2 85.4242 179.4898 19.6950 0.0000 0.0000 0.0000
# 3 13.0649 19.6950 14.2248 0.0000 0.0000 0.0000
# 4 0.0000 0.0000 0.0000 0.4772 0.0000 0.0000
# 5 0.0000 0.0000 0.0000 0.0000 7.8290 0.0000
# 6 0.0000 0.0000 0.0000 0.0000 0.0000 30.1895
#
#
#
# Elastic Compliance Matrix: (Units=1/GPa)
#
#
# Indices 1 2 3 4 5 6 
#
# 1 0.013086 -0.005789 -0.004004 0.000000 0.000000 0.000000
# 2 -0.005789 0.009130 -0.007324 0.000000 0.000000 0.000000
# 3 -0.004004 -0.007324 0.084119 0.000000 0.000000 0.000000
# 4 0.000000 0.000000 0.000000 2.095739 0.000000 0.000000
# 5 0.000000 0.000000 0.000000 0.000000 0.127731 0.000000
# 6 0.000000 0.000000 0.000000 0.000000 0.000000 0.033124
#
#
# Mechanical properties :
#
#
# Convention : Reuss Voigt Hill
#
# Bulk Modulus (GPa) = 13.86959 60.92051 37.39505
# Shear Modulus (GPa) = 2.06509 20.61461 11.33985
#
# Velocity S-wave (km/s) = 1.06053 3.35075 2.48518
# Velocity P-wave (km/s) = 3.00892 6.93900 5.34805
#
# Compressibility (1/GPa) = 0.07210018
#
# Stress axis : x y z
#
# Youngs Moduli (GPa) = 76.41636 109.52854 11.88794
#
# Poissons Ratio (x) = 0.63403 0.04760
# Poissons Ratio (y) = 0.44235 0.08707
# Poissons Ratio (z) = 0.30600 0.80223
#
# Static dielectric constant tensor:
#      x y z
#    x 3.482430 0.000000 0.000000 
#    y 0.000000 3.683270 0.000000 
#    z 0.000000 0.000000 2.802290 
# 
# 
# High freq. dielectric constant tensor:
#      x y z
#    x 1.726400 0.000000 0.000000 
#    y 0.000000 1.722720 0.000000 
#    z 0.000000 0.000000 1.622960 
# 
# From -- ./inp_files/1806.got.cif
#   From: 2010.03.12/outbox.cif.g09.slc.cpg/sg47_1_cif.got.tgz:1806.got - 2010.04.14 03:12:58.
