data_PCOD8201591
_publ_section_title
;
Structure prediction by ZEFSAII (Michael W. Deem and Ramdas Pophale) SiO2 
 PCOD8201591
Probable space group: P N N N
;
_chemical_formula_sum "Si O2"
_cell_formula_units_Z 64
_cell_length_a 24.803898
_cell_length_b 14.266425
_cell_length_c 8.914189
_cell_angle_alpha 90.000000
_cell_angle_beta 90.000000
_cell_angle_gamma 90.000000
_cell_volume 3154.401221
_symmetry_space_group_name_H-M "P N N N"
_symmetry_group_IT_number 48
_space_group.IT_coordinate_system_code '2'
_symmetry_cell_setting 'orthorhombic'
loop_
_space_group_symop_operation_xyz
x,y,z
1/2-x,1/2-y,z
x,1/2-y,1/2-z
1/2-x,y,1/2-z
-x,-y,-z
1/2+x,1/2+y,-z
-x,1/2+y,1/2+z
1/2+x,-y,1/2+z
loop_
_atom_site_type_symbol
_atom_site_label
_atom_site_fract_x
_atom_site_fract_y
_atom_site_fract_z
Si Si1 0.390489 0.811978 0.028164
Si Si2 0.297924 0.506296 0.953711
Si Si3 0.622854 0.382802 0.855246
Si Si4 0.177322 0.962215 0.614595
Si Si5 0.609033 0.639503 0.403960
Si Si6 0.997303 0.898397 0.566658
Si Si7 0.373770 0.157304 0.561534
Si Si8 0.540709 0.545269 0.883856
O O1 0.390870 0.698898 0.023761
O O2 0.370257 0.841183 0.191768
O O3 0.345753 0.859455 0.921805
O O4 0.449474 0.841810 0.975245
O O5 0.319094 0.539756 0.792842
O O6 0.234033 0.515688 0.964438
O O7 0.318306 0.398886 0.970569
O O8 0.322630 0.568512 0.086573
O O9 0.576010 0.457717 0.833187
O O10 0.138452 0.043484 0.547701
O O11 0.552516 0.652649 0.487707
O O12 0.641820 0.732910 0.454016
O O13 0.601699 0.636873 0.225647
O O14 0.990795 0.906452 0.746052
O O15 0.000000 0.000000 0.500000
O O16 0.421355 0.126145 0.450814
O O17 0.500000 0.500000 0.000000
#
# Coordination Sequence:
#
# PCOD8201591 Si02
#       8
#     8   8   8   8   8   8   8   8
#     4  11  24  39  61  87 116 158 203 239 295 361
#     4   9  21  40  61  85 121 152 195 255 301 346
#     4  10  23  41  58  85 118 152 200 248 291 352
#     4  10  20  39  62  87 115 158 199 245 302 353
#     4  10  20  37  61  87 120 156 198 240 294 357
#     4  12  22  38  59  86 120 158 195 242 293 356
#     4   9  21  37  58  89 119 155 197 243 294 356
#     4  11  23  38  57  83 119 158 194 238 293 348
#
# _framework density 20.289110999999998
#
# number of rings (size 3 to 8) (size 9 to 14) (size 15 to 20)
#    0.000    1.750    2.500    0.750    5.250    3.500 
#    0.000    5.000    0.000    0.000    0.000    3.500 
#    0.000    0.000    0.000    0.000    0.000    0.000 
#
# Total GULP energy -793342.359543 kJ/mol
# GULP energy per Si atom -12395.974368 kJ/mol
# Density = 2.024293 g / cm^3
# Si number density = 20.289111 Si / 1000 Ang^3
#
#
#
# Elastic Constant Matrix: (Units=GPa)
#
#
# Indices 1 2 3 4 5 6 
#
# 1 106.7360 17.7392 33.6745 0.0000 0.0000 0.0000
# 2 17.7392 97.1359 23.2402 0.0000 0.0000 0.0000
# 3 33.6745 23.2402 72.7875 0.0000 0.0000 0.0000
# 4 0.0000 0.0000 0.0000 26.1962 0.0000 0.0000
# 5 0.0000 0.0000 0.0000 0.0000 28.0188 0.0000
# 6 0.0000 0.0000 0.0000 0.0000 0.0000 13.3196
#
#
#
# Elastic Compliance Matrix: (Units=1/GPa)
#
#
# Indices 1 2 3 4 5 6 
#
# 1 0.011036 -0.000860 -0.004831 0.000000 0.000000 0.000000
# 2 -0.000860 0.011213 -0.003183 0.000000 0.000000 0.000000
# 3 -0.004831 -0.003183 0.016990 0.000000 0.000000 0.000000
# 4 0.000000 0.000000 0.000000 0.038174 0.000000 0.000000
# 5 0.000000 0.000000 0.000000 0.000000 0.035690 0.000000
# 6 0.000000 0.000000 0.000000 0.000000 0.000000 0.075077
#
#
# Mechanical properties :
#
#
# Convention : Reuss Voigt Hill
#
# Bulk Modulus (GPa) = 46.52810 47.32970 46.92890
# Shear Modulus (GPa) = 23.46410 26.97394 25.21902
#
# Velocity S-wave (km/s) = 3.40441 3.65016 3.52942
# Velocity P-wave (km/s) = 6.19965 6.41429 6.30788
#
# Compressibility (1/GPa) = 0.02149239
#
# Stress axis : x y z
#
# Youngs Moduli (GPa) = 90.61258 89.18000 58.85836
#
# Poissons Ratio (x) = 0.07665 0.28436
# Poissons Ratio (y) = 0.07788 0.18732
# Poissons Ratio (z) = 0.43777 0.28383
#
# Static dielectric constant tensor:
#      x y z
#    x 4.729890 0.000000 0.000000 
#    y 0.000000 4.074530 0.000000 
#    z 0.000000 0.000000 3.672080 
# 
# 
# High freq. dielectric constant tensor:
#      x y z
#    x 1.782910 0.000000 0.000000 
#    y 0.000000 1.803070 0.000000 
#    z 0.000000 0.000000 1.791180 
# 
# From -- ./inp_files/16032.got.cif
#   From: 2010.06.25/outbox.cif.g09.slc.cpg/sg48_9_cif.got.tgz:16032.got - 2010.06.26 18:06:46.
