data_PCOD8201165
_publ_section_title
;
Structure prediction by ZEFSAII (Michael W. Deem and Ramdas Pophale) SiO2 
 PCOD8201165
Probable space group: P M M M
;
_chemical_formula_sum "Si O2"
_cell_formula_units_Z 44
_cell_length_a 27.991770
_cell_length_b 9.593121
_cell_length_c 9.599250
_cell_angle_alpha 90.000000
_cell_angle_beta 90.000000
_cell_angle_gamma 90.000000
_cell_volume 2577.671595
_symmetry_space_group_name_H-M "P M M M"
_symmetry_group_IT_number 47
_symmetry_cell_setting 'orthorhombic'
loop_
_space_group_symop_operation_xyz
x,y,z
-x,-y,z
x,-y,-z
-x,y,-z
-x,-y,-z
x,y,-z
-x,y,z
x,-y,z
loop_
_atom_site_type_symbol
_atom_site_label
_atom_site_fract_x
_atom_site_fract_y
_atom_site_fract_z
Si Si1 0.554672 0.661746 0.159111
Si Si2 0.000000 0.334571 0.341946
Si Si3 0.180902 0.838971 0.161534
Si Si4 0.910740 0.662690 0.838906
Si Si5 0.626450 0.158946 0.335785
Si Si6 0.732303 0.165731 0.345654
O O1 0.500000 0.703689 0.188218
O O2 0.562591 0.500000 0.191112
O O3 0.587768 0.748382 0.260240
O O4 0.568179 0.695642 0.000000
O O5 0.953536 0.282254 0.258436
O O6 0.000000 0.500000 0.344554
O O7 0.000000 0.274899 0.500000
O O8 0.135505 0.748892 0.207435
O O9 0.226991 0.778929 0.241904
O O10 0.170643 0.000000 0.199001
O O11 0.192119 0.819605 0.000000
O O12 0.900248 0.500000 0.814641
O O13 0.924270 0.691376 0.000000
O O14 0.618650 0.171322 0.500000
O O15 0.679643 0.214209 0.296130
O O16 0.619845 0.000000 0.286400
O O17 0.743393 0.224353 0.500000
O O18 0.732131 0.000000 0.349714
#
# Coordination Sequence:
#
# PCOD8201165 Si02
#       6
#     8   4   8   8   8   8
#     4   9  19  35  51  68  94 127 160 194 235 283
#     4   9  17  29  46  67  88 112 146 185 220 258
#     4   9  17  29  46  68  91 116 149 185 219 260
#     4   9  17  30  47  65  87 116 147 179 219 265
#     4   9  18  32  50  73  98 123 156 197 236 277
#     4   8  15  29  47  66  91 122 151 181 222 270
#
# _framework density 17.069669000000001
#
# number of rings (size 3 to 8) (size 9 to 14) (size 15 to 20)
#    0.000    3.182    0.000    1.909    0.000    4.000 
#    0.000    5.909    0.000    6.000    0.000    0.000 
#    0.000    0.000    0.000    0.000    0.000    0.000 
#
# Total GULP energy -545479.358784 kJ/mol
# GULP energy per Si atom -12397.258154 kJ/mol
# Density = 1.703082 g / cm^3
# Si number density = 17.069669 Si / 1000 Ang^3
#
#
#
# Elastic Constant Matrix: (Units=GPa)
#
#
# Indices 1 2 3 4 5 6 
#
# 1 150.9745 54.0924 77.9567 0.0000 0.0000 0.0000
# 2 54.0924 43.6162 34.4391 0.0000 0.0000 0.0000
# 3 77.9567 34.4391 77.1267 0.0000 0.0000 0.0000
# 4 0.0000 0.0000 0.0000 22.4784 0.0000 0.0000
# 5 0.0000 0.0000 0.0000 0.0000 34.3604 0.0000
# 6 0.0000 0.0000 0.0000 0.0000 0.0000 58.2284
#
#
#
# Elastic Compliance Matrix: (Units=1/GPa)
#
#
# Indices 1 2 3 4 5 6 
#
# 1 0.016946 -0.011572 -0.011961 0.000000 0.000000 0.000000
# 2 -0.011572 0.043315 -0.007645 0.000000 0.000000 0.000000
# 3 -0.011961 -0.007645 0.028469 0.000000 0.000000 0.000000
# 4 0.000000 0.000000 0.000000 0.044487 0.000000 0.000000
# 5 0.000000 0.000000 0.000000 0.000000 0.029103 0.000000
# 6 0.000000 0.000000 0.000000 0.000000 0.000000 0.017174
#
#
# Mechanical properties :
#
#
# Convention : Reuss Voigt Hill
#
# Bulk Modulus (GPa) = 37.91585 67.18818 52.55202
# Shear Modulus (GPa) = 19.94887 30.02874 24.98881
#
# Velocity S-wave (km/s) = 3.42230 4.19882 3.83029
# Velocity P-wave (km/s) = 6.15441 7.93431 7.10036
#
# Compressibility (1/GPa) = 0.02637420
#
# Stress axis : x y z
#
# Youngs Moduli (GPa) = 59.01172 23.08687 35.12560
#
# Poissons Ratio (x) = 0.26715 0.42014
# Poissons Ratio (y) = 0.68286 0.26854
# Poissons Ratio (z) = 0.70585 0.17650
#
# Static dielectric constant tensor:
#      x y z
#    x 3.356340 0.000000 0.000000 
#    y 0.000000 2.904980 0.000000 
#    z 0.000000 0.000000 3.252720 
# 
# 
# High freq. dielectric constant tensor:
#      x y z
#    x 1.668250 0.000000 0.000000 
#    y 0.000000 1.626430 0.000000 
#    z 0.000000 0.000000 1.658210 
# 
# From -- ./inp_files/2078.got.cif
#   From: 2010.03.12/outbox.cif.g09.slc.cpg/sg47_2_cif.got.tgz:2078.got - 2010.04.14 03:12:58.
