data_PCOD8201581
_publ_section_title
;
Structure prediction by ZEFSAII (Michael W. Deem and Ramdas Pophale) SiO2 
 PCOD8201581
Probable space group: P N N N
;
_chemical_formula_sum "Si O2"
_cell_formula_units_Z 64
_cell_length_a 8.509451
_cell_length_b 30.156990
_cell_length_c 11.950966
_cell_angle_alpha 90.000000
_cell_angle_beta 90.000000
_cell_angle_gamma 90.000000
_cell_volume 3066.850067
_symmetry_space_group_name_H-M "P N N N"
_symmetry_group_IT_number 48
_space_group.IT_coordinate_system_code '2'
_symmetry_cell_setting 'orthorhombic'
loop_
_space_group_symop_operation_xyz
x,y,z
1/2-x,1/2-y,z
x,1/2-y,1/2-z
1/2-x,y,1/2-z
-x,-y,-z
1/2+x,1/2+y,-z
-x,1/2+y,1/2+z
1/2+x,-y,1/2+z
loop_
_atom_site_type_symbol
_atom_site_label
_atom_site_fract_x
_atom_site_fract_y
_atom_site_fract_z
Si Si1 0.928184 0.090567 0.285298
Si Si2 0.628076 0.665824 0.834895
Si Si3 0.306964 0.701495 0.874586
Si Si4 0.920935 0.076166 0.885617
Si Si5 0.292103 0.406705 0.015450
Si Si6 0.359794 0.872770 0.016745
Si Si7 0.121872 0.481326 0.328984
Si Si8 0.103988 0.117225 0.684026
O O1 0.750000 0.098829 0.250000
O O2 0.942891 0.096965 0.420219
O O3 0.037861 0.126575 0.228035
O O4 0.982454 0.042295 0.241437
O O5 0.750000 0.690001 0.750000
O O6 0.497968 0.700553 0.880034
O O7 0.734573 0.642427 0.931185
O O8 0.250000 0.750000 0.909560
O O9 0.250000 0.689094 0.750000
O O10 0.235008 0.667747 0.963896
O O11 0.747923 0.095232 0.907146
O O12 0.991119 0.090562 0.766354
O O13 0.939891 0.022916 0.900188
O O14 0.022722 0.095163 0.986845
O O15 0.270042 0.446636 0.102027
O O16 0.189501 0.415958 0.904217
O O17 0.491989 0.852912 0.103138
O O18 0.250000 0.504709 0.250000
O O19 0.250000 0.142069 0.750000
#
# Coordination Sequence:
#
# PCOD8201581 Si02
#       8
#     8   8   8   8   8   8   8   8
#     4  11  20  35  59  90 121 166 210 252 317 394
#     4  11  19  37  65  95 126 157 199 242 308 394
#     4  11  23  41  67 102 136 152 191 249 314 401
#     4  11  23  38  55  82 119 165 223 273 302 359
#     4  10  20  37  57  83 116 164 209 252 319 366
#     4  12  19  40  65  85 120 169 207 250 327 389
#     4  11  22  35  51  84 123 160 213 271 320 370
#     4  10  23  37  57  86 113 158 217 265 302 357
#
# _framework density 20.868317999999999
#
# number of rings (size 3 to 8) (size 9 to 14) (size 15 to 20)
#    0.000    1.125    3.750    5.250    0.000    2.500 
#    0.000    3.750    0.000    1.500    3.250    0.000 
#    0.000    0.000    0.000    0.000    0.000    0.000 
#
# Total GULP energy -792923.287264 kJ/mol
# GULP energy per Si atom -12389.426363 kJ/mol
# Density = 2.082082 g / cm^3
# Si number density = 20.868318 Si / 1000 Ang^3
#
#
#
# Elastic Constant Matrix: (Units=GPa)
#
#
# Indices 1 2 3 4 5 6 
#
# 1 79.5946 34.9907 42.0648 0.0000 0.0000 0.0000
# 2 34.9907 93.3222 32.3529 0.0000 0.0000 0.0000
# 3 42.0648 32.3529 102.1733 0.0000 0.0000 0.0000
# 4 0.0000 0.0000 0.0000 21.2248 0.0000 0.0000
# 5 0.0000 0.0000 0.0000 0.0000 57.4685 0.0000
# 6 0.0000 0.0000 0.0000 0.0000 0.0000 17.5071
#
#
#
# Elastic Compliance Matrix: (Units=1/GPa)
#
#
# Indices 1 2 3 4 5 6 
#
# 1 0.017660 -0.004607 -0.005812 0.000000 0.000000 0.000000
# 2 -0.004607 0.013239 -0.002295 0.000000 0.000000 0.000000
# 3 -0.005812 -0.002295 0.012907 0.000000 0.000000 0.000000
# 4 0.000000 0.000000 0.000000 0.047115 0.000000 0.000000
# 5 0.000000 0.000000 0.000000 0.000000 0.017401 0.000000
# 6 0.000000 0.000000 0.000000 0.000000 0.000000 0.057120
#
#
# Mechanical properties :
#
#
# Convention : Reuss Voigt Hill
#
# Bulk Modulus (GPa) = 54.41413 54.87852 54.64632
# Shear Modulus (GPa) = 25.38127 30.28553 27.83340
#
# Velocity S-wave (km/s) = 3.49127 3.81368 3.65603
# Velocity P-wave (km/s) = 6.51027 6.76364 6.63816
#
# Compressibility (1/GPa) = 0.01837758
#
# Stress axis : x y z
#
# Youngs Moduli (GPa) = 56.62363 75.53664 77.47764
#
# Poissons Ratio (x) = 0.34798 0.45031
# Poissons Ratio (y) = 0.26085 0.17784
# Poissons Ratio (z) = 0.32910 0.17338
#
# Static dielectric constant tensor:
#      x y z
#    x 4.219690 0.000000 0.000000 
#    y 0.000000 3.269990 0.000000 
#    z 0.000000 0.000000 4.028580 
# 
# 
# High freq. dielectric constant tensor:
#      x y z
#    x 1.843680 0.000000 0.000000 
#    y 0.000000 1.755810 0.000000 
#    z 0.000000 0.000000 1.829140 
# 
# From -- ./inp_files/19061.got.cif
#   From: 2010.06.25/outbox.cif.g09.slc.cpg/sg48_10_cif.got.tgz:19061.got - 2010.06.26 18:06:46.
