data_PCOD8201095
_publ_section_title
;
Structure prediction by ZEFSAII (Michael W. Deem and Ramdas Pophale) SiO2 
 PCOD8201095
Probable space group: P M M M
;
_chemical_formula_sum "Si O2"
_cell_formula_units_Z 52
_cell_length_a 18.239537
_cell_length_b 14.033620
_cell_length_c 13.066343
_cell_angle_alpha 90.000000
_cell_angle_beta 90.000000
_cell_angle_gamma 90.000000
_cell_volume 3344.549107
_symmetry_space_group_name_H-M "P M M M"
_symmetry_group_IT_number 47
_symmetry_cell_setting 'orthorhombic'
loop_
_space_group_symop_operation_xyz
x,y,z
-x,-y,z
x,-y,-z
-x,y,-z
-x,-y,-z
x,y,-z
-x,y,z
x,-y,z
loop_
_atom_site_type_symbol
_atom_site_label
_atom_site_fract_x
_atom_site_fract_y
_atom_site_fract_z
Si Si1 0.278840 0.391288 0.308312
Si Si2 0.659099 0.895834 0.379794
Si Si3 0.185798 0.391894 0.115244
Si Si4 0.583358 0.708614 0.378830
Si Si5 0.000000 0.610610 0.387842
Si Si6 0.918778 0.272285 0.758563
Si Si7 0.196881 0.213009 0.383822
O O1 0.265820 0.500000 0.344699
O O2 0.255446 0.378064 0.189573
O O3 0.364736 0.366049 0.319962
O O4 0.230247 0.319919 0.376734
O O5 0.649984 0.905195 0.500000
O O6 0.601569 0.816318 0.340676
O O7 0.741427 0.863283 0.353110
O O8 0.643894 0.000000 0.329254
O O9 0.155330 0.500000 0.123113
O O10 0.120624 0.318088 0.143234
O O11 0.211558 0.368769 0.000000
O O12 0.597905 0.699582 0.500000
O O13 0.500000 0.684147 0.350313
O O14 0.072115 0.643704 0.326002
O O15 0.000000 0.500000 0.399194
O O16 0.000000 0.658660 0.500000
O O17 0.868167 0.195280 0.699174
O O18 0.000000 0.230595 0.788272
O O19 0.169070 0.196842 0.500000
#
# Coordination Sequence:
#
# PCOD8201095 Si02
#       7
#     8   8   8   8   4   8   8
#     4   9  17  28  40  56  80 110 143 173 200 235
#     4   8  14  25  41  59  80 109 143 173 199 232
#     4   9  17  29  43  56  73 102 142 185 220 247
#     4   9  17  27  40  62  90 115 137 162 196 240
#     4   9  16  24  33  49  76 108 139 164 189 231
#     4   9  18  26  37  54  78 105 134 169 211 250
#     4   9  16  26  39  56  80 111 143 173 203 239
#
# _framework density 15.547686000000001
#
# number of rings (size 3 to 8) (size 9 to 14) (size 15 to 20)
#    0.462    2.692    0.000    2.308    0.000    2.769 
#    0.000    3.077    0.000    0.923    0.000    4.308 
#    0.000   49.846    0.000   24.923    0.000    1.385 
#
# Total GULP energy -644216.134490 kJ/mol
# GULP energy per Si atom -12388.771817 kJ/mol
# Density = 1.551230 g / cm^3
# Si number density = 15.547686 Si / 1000 Ang^3
#
#
#
# Elastic Constant Matrix: (Units=GPa)
#
#
# Indices 1 2 3 4 5 6 
#
# 1 84.1356 7.9244 19.5998 0.0000 0.0000 0.0000
# 2 7.9244 40.5030 2.8481 0.0000 0.0000 0.0000
# 3 19.5998 2.8481 57.1256 0.0000 0.0000 0.0000
# 4 0.0000 0.0000 0.0000 8.6021 0.0000 0.0000
# 5 0.0000 0.0000 0.0000 0.0000 16.4450 0.0000
# 6 0.0000 0.0000 0.0000 0.0000 0.0000 12.3117
#
#
#
# Elastic Compliance Matrix: (Units=1/GPa)
#
#
# Indices 1 2 3 4 5 6 
#
# 1 0.013121 -0.002258 -0.004389 0.000000 0.000000 0.000000
# 2 -0.002258 0.025165 -0.000480 0.000000 0.000000 0.000000
# 3 -0.004389 -0.000480 0.019035 0.000000 0.000000 0.000000
# 4 0.000000 0.000000 0.000000 0.116250 0.000000 0.000000
# 5 0.000000 0.000000 0.000000 0.000000 0.060809 0.000000
# 6 0.000000 0.000000 0.000000 0.000000 0.000000 0.081223
#
#
# Mechanical properties :
#
#
# Convention : Reuss Voigt Hill
#
# Bulk Modulus (GPa) = 23.22001 26.94541 25.08271
# Shear Modulus (GPa) = 14.52587 17.56457 16.04522
#
# Velocity S-wave (km/s) = 3.05991 3.36478 3.21596
# Velocity P-wave (km/s) = 5.23939 5.69773 5.47336
#
# Compressibility (1/GPa) = 0.04306631
#
# Stress axis : x y z
#
# Youngs Moduli (GPa) = 76.21512 39.73757 52.53445
#
# Poissons Ratio (x) = 0.08974 0.23058
# Poissons Ratio (y) = 0.17213 0.02521
# Poissons Ratio (z) = 0.33452 0.01907
#
# Static dielectric constant tensor:
#      x y z
#    x 3.089160 0.000000 0.000000 
#    y 0.000000 2.930230 0.000000 
#    z 0.000000 0.000000 2.742030 
# 
# 
# High freq. dielectric constant tensor:
#      x y z
#    x 1.594090 0.000000 0.000000 
#    y 0.000000 1.570690 0.000000 
#    z 0.000000 0.000000 1.558790 
# 
# From -- ./inp_files/18600.got.cif
#   From: 2010.03.12/outbox.cif.g09.slc.cpg/sg47_10_cif.got.tgz:18600.got - 2010.04.14 03:12:58.
