data_PCOD8201288
_publ_section_title
;
Structure prediction by ZEFSAII (Michael W. Deem and Ramdas Pophale) SiO2 
 PCOD8201288
Probable space group: P N N N
;
_chemical_formula_sum "Si O2"
_cell_formula_units_Z 64
_cell_length_a 18.722841
_cell_length_b 19.839957
_cell_length_c 9.602767
_cell_angle_alpha 90.000000
_cell_angle_beta 90.000000
_cell_angle_gamma 90.000000
_cell_volume 3567.047290
_symmetry_space_group_name_H-M "P N N N"
_symmetry_group_IT_number 48
_space_group.IT_coordinate_system_code '2'
_symmetry_cell_setting 'orthorhombic'
loop_
_space_group_symop_operation_xyz
x,y,z
1/2-x,1/2-y,z
x,1/2-y,1/2-z
1/2-x,y,1/2-z
-x,-y,-z
1/2+x,1/2+y,-z
-x,1/2+y,1/2+z
1/2+x,-y,1/2+z
loop_
_atom_site_type_symbol
_atom_site_label
_atom_site_fract_x
_atom_site_fract_y
_atom_site_fract_z
Si Si1 0.422805 0.792477 0.621289
Si Si2 0.978985 0.599427 0.286012
Si Si3 0.383618 0.987380 0.282932
Si Si4 0.565930 0.200949 0.865487
Si Si5 0.604852 0.481326 0.254173
Si Si6 0.156579 0.919740 0.472348
Si Si7 0.979414 0.594807 0.614143
Si Si8 0.183734 0.588753 0.539976
O O1 0.390910 0.750000 0.750000
O O2 0.452030 0.742756 0.503192
O O3 0.491909 0.834656 0.678455
O O4 0.361144 0.842234 0.562653
O O5 0.906919 0.562038 0.228839
O O6 0.972985 0.609906 0.450647
O O7 0.044430 0.551614 0.246176
O O8 0.993074 0.668937 0.201792
O O9 0.336997 0.981279 0.140456
O O10 0.341713 0.950643 0.404516
O O11 0.404907 0.065250 0.322932
O O12 0.600472 0.250000 0.750000
O O13 0.624875 0.145444 0.898376
O O14 0.604940 0.444152 0.402648
O O15 0.541709 0.459051 0.146890
O O16 0.676785 0.461530 0.172399
O O17 0.232972 0.895604 0.527947
#
# Coordination Sequence:
#
# PCOD8201288 Si02
#       8
#     8   8   8   8   8   8   8   8
#     4  11  22  34  53  76 105 147 184 213 250 310
#     4  10  17  33  57  71  96 135 176 221 277 316
#     4  10  18  33  56  74  94 135 179 220 276 310
#     4  11  21  35  50  72 106 145 181 210 251 309
#     4  10  19  33  55  74  96 133 175 225 280 310
#     4  11  24  33  49  81 108 138 178 229 249 300
#     4  10  17  34  56  71  97 136 174 220 277 322
#     4  11  20  38  53  70 110 150 180 205 259 319
#
# _framework density 17.94201
#
# number of rings (size 3 to 8) (size 9 to 14) (size 15 to 20)
#    0.000    1.500    5.000    3.750    0.000    6.000 
#    0.000    3.750    0.000    0.000    0.000    0.000 
#    0.000   15.000    0.000    0.000    0.000    0.000 
#
# Total GULP energy -792838.504755 kJ/mol
# GULP energy per Si atom -12388.101637 kJ/mol
# Density = 1.790117 g / cm^3
# Si number density = 17.942010 Si / 1000 Ang^3
#
#
#
# Elastic Constant Matrix: (Units=GPa)
#
#
# Indices 1 2 3 4 5 6 
#
# 1 46.1279 54.7578 30.8372 0.0000 0.0000 0.0000
# 2 54.7578 82.8713 37.4860 0.0000 0.0000 0.0000
# 3 30.8372 37.4860 99.3015 0.0000 0.0000 0.0000
# 4 0.0000 0.0000 0.0000 33.6273 0.0000 0.0000
# 5 0.0000 0.0000 0.0000 0.0000 19.0884 0.0000
# 6 0.0000 0.0000 0.0000 0.0000 0.0000 12.3385
#
#
#
# Elastic Compliance Matrix: (Units=1/GPa)
#
#
# Indices 1 2 3 4 5 6 
#
# 1 0.105272 -0.066050 -0.007758 0.000000 0.000000 0.000000
# 2 -0.066050 0.055993 -0.000626 0.000000 0.000000 0.000000
# 3 -0.007758 -0.000626 0.012716 0.000000 0.000000 0.000000
# 4 0.000000 0.000000 0.000000 0.029738 0.000000 0.000000
# 5 0.000000 0.000000 0.000000 0.000000 0.052388 0.000000
# 6 0.000000 0.000000 0.000000 0.000000 0.000000 0.081047
#
#
# Mechanical properties :
#
#
# Convention : Reuss Voigt Hill
#
# Bulk Modulus (GPa) = 39.81918 52.71808 46.26863
# Shear Modulus (GPa) = 10.11343 20.02550 15.06947
#
# Velocity S-wave (km/s) = 2.37676 3.34447 2.90124
# Velocity P-wave (km/s) = 5.45650 6.66035 6.08825
#
# Compressibility (1/GPa) = 0.02511353
#
# Stress axis : x y z
#
# Youngs Moduli (GPa) = 9.49920 17.85931 78.64311
#
# Poissons Ratio (x) = 1.17961 0.61008
# Poissons Ratio (y) = 0.62742 0.04923
# Poissons Ratio (z) = 0.07369 0.01118
#
# Static dielectric constant tensor:
#      x y z
#    x 3.256200 0.000000 0.000000 
#    y 0.000000 3.754960 0.000000 
#    z 0.000000 0.000000 3.607470 
# 
# 
# High freq. dielectric constant tensor:
#      x y z
#    x 1.646660 0.000000 0.000000 
#    y 0.000000 1.681410 0.000000 
#    z 0.000000 0.000000 1.714360 
# 
# From -- ./inp_files/14557.got.cif
#   From: 2010.06.25/outbox.cif.g09.slc.cpg/sg48_8_cif.got.tgz:14557.got - 2010.06.26 18:06:46.
