data_PCOD8201640
_publ_section_title
;
Structure prediction by ZEFSAII (Michael W. Deem and Ramdas Pophale) SiO2 
 PCOD8201640
Probable space group: P N N N
;
_chemical_formula_sum "Si O2"
_cell_formula_units_Z 42
_cell_length_a 17.372316
_cell_length_b 6.859136
_cell_length_c 19.314288
_cell_angle_alpha 90.000000
_cell_angle_beta 90.000000
_cell_angle_gamma 90.000000
_cell_volume 2301.472752
_symmetry_space_group_name_H-M "P N N N"
_symmetry_group_IT_number 48
_space_group.IT_coordinate_system_code '2'
_symmetry_cell_setting 'orthorhombic'
loop_
_space_group_symop_operation_xyz
x,y,z
1/2-x,1/2-y,z
x,1/2-y,1/2-z
1/2-x,y,1/2-z
-x,-y,-z
1/2+x,1/2+y,-z
-x,1/2+y,1/2+z
1/2+x,-y,1/2+z
loop_
_atom_site_type_symbol
_atom_site_label
_atom_site_fract_x
_atom_site_fract_y
_atom_site_fract_z
Si Si1 0.477654 0.746113 0.172753
Si Si2 0.750000 0.750000 0.750000
Si Si3 0.171661 0.143058 0.473436
Si Si4 0.973960 0.604256 0.570320
Si Si5 0.054409 0.978711 0.566309
Si Si6 0.687699 0.415296 0.659906
O O1 0.513723 0.750000 0.250000
O O2 0.468271 0.536365 0.136406
O O3 0.394402 0.837402 0.180652
O O4 0.533732 0.874906 0.126891
O O5 0.697773 0.614104 0.702272
O O6 0.250000 0.250000 0.494372
O O7 0.109081 0.293765 0.441437
O O8 0.140462 0.033414 0.542155
O O9 0.191085 0.969825 0.420499
O O10 0.000000 0.500000 0.500000
O O11 0.041433 0.757243 0.591306
O O12 0.000000 0.000000 0.500000
O O13 0.750000 0.250000 0.678022
#
# Coordination Sequence:
#
# PCOD8201640 Si02
#       6
#     8   2   8   8   8   8
#     4  12  24  36  61  90 122 162 206 253 308 363
#     4  12  26  40  48  82 136 176 196 246 304 378
#     4  11  21  38  63  88 118 161 212 251 304 366
#     4  11  20  40  63  85 124 159 197 256 305 360
#     4  10  20  40  58  84 119 156 208 254 298 364
#     4  12  24  39  54  85 128 168 203 249 299 371
#
# _framework density 18.249184
#
# number of rings (size 3 to 8) (size 9 to 14) (size 15 to 20)
#    0.000    0.762    8.571    2.571    2.667    0.762 
#    0.000    0.000    0.000    0.571    0.000    0.000 
#    5.714    0.000    0.000    0.000    0.000    0.000 
#
# Total GULP energy -520695.572136 kJ/mol
# GULP energy per Si atom -12397.513622 kJ/mol
# Density = 1.820765 g / cm^3
# Si number density = 18.249184 Si / 1000 Ang^3
#
#
#
# Elastic Constant Matrix: (Units=GPa)
#
#
# Indices 1 2 3 4 5 6 
#
# 1 83.8078 50.1470 51.2050 0.0000 0.0000 0.0000
# 2 50.1470 133.2549 50.4154 0.0000 0.0000 0.0000
# 3 51.2050 50.4154 110.8735 0.0000 0.0000 0.0000
# 4 0.0000 0.0000 0.0000 -1.4918 0.0000 0.0000
# 5 0.0000 0.0000 0.0000 0.0000 38.9733 0.0000
# 6 0.0000 0.0000 0.0000 0.0000 0.0000 -68.7593
#
#
#
# Elastic Compliance Matrix: (Units=1/GPa)
#
#
# Indices 1 2 3 4 5 6 
#
# 1 0.018650 -0.004541 -0.006548 0.000000 0.000000 0.000000
# 2 -0.004541 0.010169 -0.002527 0.000000 0.000000 0.000000
# 3 -0.006548 -0.002527 0.013193 0.000000 0.000000 0.000000
# 4 0.000000 0.000000 0.000000 -0.670348 0.000000 0.000000
# 5 0.000000 0.000000 0.000000 0.000000 0.025659 0.000000
# 6 0.000000 0.000000 0.000000 0.000000 0.000000 -0.014543
#
#
# Mechanical properties :
#
#
# Convention : Reuss Voigt Hill
#
# Bulk Modulus (GPa) = 67.66173 70.16345 68.91259
# Shear Modulus (GPa) = -8.54611 5.48905 -1.52853
#
# Velocity S-wave (km/s) = -2.16637 1.73619 -0.91619
# Velocity P-wave (km/s) = 5.55873 6.52304 6.06010
#
# Compressibility (1/GPa) = 0.01477940
#
# Stress axis : x y z
#
# Youngs Moduli (GPa) = 53.61891 98.33495 75.80015
#
# Poissons Ratio (x) = 0.44654 0.49637
# Poissons Ratio (y) = 0.24348 0.19154
# Poissons Ratio (z) = 0.35112 0.24849
#
# Static dielectric constant tensor:
#      x y z
#    x 3.351620 0.000000 0.000000 
#    y 0.000000 3.076910 0.000000 
#    z 0.000000 0.000000 3.907660 
# 
# 
# High freq. dielectric constant tensor:
#      x y z
#    x 1.681560 0.000000 0.000000 
#    y 0.000000 1.728560 0.000000 
#    z 0.000000 0.000000 1.699070 
# 
# From -- ./inp_files/34623.got.cif
#   From: 2010.06.25/outbox.cif.g09.slc.cpg/sg48_18_cif.got.tgz:34623.got - 2010.06.26 18:06:46.
