data_PCOD8201715
_publ_section_title
;
Structure prediction by ZEFSAII (Michael W. Deem and Ramdas Pophale) SiO2 
 PCOD8201715
Probable space group: P N N N
;
_chemical_formula_sum "Si O2"
_cell_formula_units_Z 48
_cell_length_a 17.363114
_cell_length_b 16.946032
_cell_length_c 8.289109
_cell_angle_alpha 90.000000
_cell_angle_beta 90.000000
_cell_angle_gamma 90.000000
_cell_volume 2438.953326
_symmetry_space_group_name_H-M "P N N N"
_symmetry_group_IT_number 48
_space_group.IT_coordinate_system_code '2'
_symmetry_cell_setting 'orthorhombic'
loop_
_space_group_symop_operation_xyz
x,y,z
1/2-x,1/2-y,z
x,1/2-y,1/2-z
1/2-x,y,1/2-z
-x,-y,-z
1/2+x,1/2+y,-z
-x,1/2+y,1/2+z
1/2+x,-y,1/2+z
loop_
_atom_site_type_symbol
_atom_site_label
_atom_site_fract_x
_atom_site_fract_y
_atom_site_fract_z
Si Si1 0.263961 0.838361 0.439197
Si Si2 0.840363 0.756159 0.071557
Si Si3 0.326020 0.392858 0.366439
Si Si4 0.406445 0.573583 0.912406
Si Si5 0.683694 0.468486 0.378021
Si Si6 0.580589 0.908049 0.573863
O O1 0.250000 0.750000 0.502127
O O2 0.250000 0.843983 0.250000
O O3 0.347741 0.866782 0.499632
O O4 0.198704 0.892728 0.513702
O O5 0.750000 0.750000 0.094219
O O6 0.879061 0.750000 0.250000
O O7 0.858807 0.687481 0.944534
O O8 0.867672 0.838560 0.998830
O O9 0.250000 0.383614 0.250000
O O10 0.317825 0.454437 0.511370
O O11 0.396871 0.421854 0.258897
O O12 0.392341 0.556650 0.722013
O O13 0.490225 0.611414 0.939339
O O14 0.397321 0.488003 0.987547
O O15 0.750000 0.485318 0.250000
#
# Coordination Sequence:
#
# PCOD8201715 Si02
#       6
#     8   8   8   8   8   8
#     4  10  21  41  65  92 116 158 212 259 308 362
#     4  11  24  39  61  91 128 168 212 254 305 374
#     4  12  22  37  63  94 127 168 213 258 307 378
#     4  10  23  42  65  90 127 163 203 261 318 368
#     4  10  21  37  63  92 119 163 213 262 303 370
#     4  11  23  42  61  93 130 164 204 256 315 374
#
# _framework density 19.680574
#
# number of rings (size 3 to 8) (size 9 to 14) (size 15 to 20)
#    0.000    1.333    1.667    5.000    2.333    3.667 
#    9.000    0.000    0.000    0.000    0.000    0.000 
#    0.000    0.000    0.000    0.000    0.000    0.000 
#
# Total GULP energy -594857.148196 kJ/mol
# GULP energy per Si atom -12392.857254 kJ/mol
# Density = 1.963578 g / cm^3
# Si number density = 19.680574 Si / 1000 Ang^3
#
#
#
# Elastic Constant Matrix: (Units=GPa)
#
#
# Indices 1 2 3 4 5 6 
#
# 1 80.1577 62.4319 28.3190 0.0000 0.0000 0.0000
# 2 62.4319 130.9897 49.4481 0.0000 0.0000 0.0000
# 3 28.3190 49.4481 96.3432 0.0000 0.0000 0.0000
# 4 0.0000 0.0000 0.0000 27.1118 0.0000 0.0000
# 5 0.0000 0.0000 0.0000 0.0000 -28.6954 0.0000
# 6 0.0000 0.0000 0.0000 0.0000 0.0000 22.9482
#
#
#
# Elastic Compliance Matrix: (Units=1/GPa)
#
#
# Indices 1 2 3 4 5 6 
#
# 1 0.019956 -0.009050 -0.001221 0.000000 0.000000 0.000000
# 2 -0.009050 0.013573 -0.004306 0.000000 0.000000 0.000000
# 3 -0.001221 -0.004306 0.012949 0.000000 0.000000 0.000000
# 4 0.000000 0.000000 0.000000 0.036884 0.000000 0.000000
# 5 0.000000 0.000000 0.000000 0.000000 -0.034849 0.000000
# 6 0.000000 0.000000 0.000000 0.000000 0.000000 0.043576
#
#
# Mechanical properties :
#
#
# Convention : Reuss Voigt Hill
#
# Bulk Modulus (GPa) = 57.72679 65.32096 61.52387
# Shear Modulus (GPa) = 39.36435 15.42570 27.39503
#
# Velocity S-wave (km/s) = 4.47717 2.80269 3.73498
# Velocity P-wave (km/s) = 7.49148 6.61332 7.06606
#
# Compressibility (1/GPa) = 0.01732298
#
# Stress axis : x y z
#
# Youngs Moduli (GPa) = 50.11096 73.67358 77.22885
#
# Poissons Ratio (x) = 0.66678 0.09427
# Poissons Ratio (y) = 0.45353 0.33257
# Poissons Ratio (z) = 0.06117 0.31726
#
# Static dielectric constant tensor:
#      x y z
#    x 3.512870 0.000000 0.000000 
#    y 0.000000 3.721900 0.000000 
#    z 0.000000 0.000000 4.303830 
# 
# 
# High freq. dielectric constant tensor:
#      x y z
#    x 1.746470 0.000000 0.000000 
#    y 0.000000 1.777070 0.000000 
#    z 0.000000 0.000000 1.791580 
# 
# From -- ./inp_files/14158.got.cif
#   From: 2010.06.25/outbox.cif.g09.slc.cpg/sg48_8_cif.got.tgz:14158.got - 2010.06.26 18:06:46.
