data_PCOD8201258
_publ_section_title
;
Structure prediction by ZEFSAII (Michael W. Deem and Ramdas Pophale) SiO2 
 PCOD8201258
Probable space group: P N N N
;
_chemical_formula_sum "Si O2"
_cell_formula_units_Z 36
_cell_length_a 21.386865
_cell_length_b 7.219426
_cell_length_c 10.880535
_cell_angle_alpha 90.000000
_cell_angle_beta 90.000000
_cell_angle_gamma 90.000000
_cell_volume 1679.964279
_symmetry_space_group_name_H-M "P N N N"
_symmetry_group_IT_number 48
_space_group.IT_coordinate_system_code '2'
_symmetry_cell_setting 'orthorhombic'
loop_
_space_group_symop_operation_xyz
x,y,z
1/2-x,1/2-y,z
x,1/2-y,1/2-z
1/2-x,y,1/2-z
-x,-y,-z
1/2+x,1/2+y,-z
-x,1/2+y,1/2+z
1/2+x,-y,1/2+z
loop_
_atom_site_type_symbol
_atom_site_label
_atom_site_fract_x
_atom_site_fract_y
_atom_site_fract_z
Si Si1 0.320813 0.304206 0.532363
Si Si2 0.597124 0.750000 0.250000
Si Si3 0.095183 0.498059 0.413672
Si Si4 0.538034 0.390649 0.145723
Si Si5 0.683177 0.966365 0.785798
O O1 0.250000 0.250000 0.564288
O O2 0.358280 0.361177 0.654886
O O3 0.351911 0.120131 0.479781
O O4 0.325745 0.473711 0.433798
O O5 0.552670 0.601871 0.183907
O O6 0.071929 0.651391 0.513898
O O7 0.128868 0.577784 0.289761
O O8 0.036285 0.371859 0.372977
O O9 0.561514 0.250000 0.250000
O O10 0.680907 0.750000 0.750000
O O11 0.750000 0.053712 0.750000
#
# Coordination Sequence:
#
# PCOD8201258 Si02
#       5
#     8   4   8   8   8
#     4  10  16  30  54  86 115 146 198 251 294 355
#     4  10  23  34  54  90 115 156 202 230 296 372
#     4   9  18  32  54  86 110 149 202 231 297 359
#     4  10  20  38  57  81 122 154 190 246 292 358
#     4   9  13  25  49  82 109 138 191 243 289 339
#
# _framework density 21.429027999999999
#
# number of rings (size 3 to 8) (size 9 to 14) (size 15 to 20)
#    0.000    2.444    4.444    2.333    0.000    0.000 
#    0.000   17.778    0.000   10.667    5.778    0.000 
#    0.000    0.000    0.000    0.000    0.000    0.000 
#
# Total GULP energy -445995.266294 kJ/mol
# GULP energy per Si atom -12388.757397 kJ/mol
# Density = 2.138025 g / cm^3
# Si number density = 21.429028 Si / 1000 Ang^3
#
#
#
# Elastic Constant Matrix: (Units=GPa)
#
#
# Indices 1 2 3 4 5 6 
#
# 1 131.1142 12.6407 38.9076 0.0000 0.0000 0.0000
# 2 12.6407 33.3994 17.0820 0.0000 0.0000 0.0000
# 3 38.9076 17.0820 132.5071 0.0000 0.0000 0.0000
# 4 0.0000 0.0000 0.0000 27.3840 0.0000 0.0000
# 5 0.0000 0.0000 0.0000 0.0000 40.3079 0.0000
# 6 0.0000 0.0000 0.0000 0.0000 0.0000 8.8246
#
#
#
# Elastic Compliance Matrix: (Units=1/GPa)
#
#
# Indices 1 2 3 4 5 6 
#
# 1 0.008487 -0.002074 -0.002225 0.000000 0.000000 0.000000
# 2 -0.002074 0.032561 -0.003588 0.000000 0.000000 0.000000
# 3 -0.002225 -0.003588 0.008663 0.000000 0.000000 0.000000
# 4 0.000000 0.000000 0.000000 0.036518 0.000000 0.000000
# 5 0.000000 0.000000 0.000000 0.000000 0.024809 0.000000
# 6 0.000000 0.000000 0.000000 0.000000 0.000000 0.113319
#
#
# Mechanical properties :
#
#
# Convention : Reuss Voigt Hill
#
# Bulk Modulus (GPa) = 29.46737 48.25347 38.86042
# Shear Modulus (GPa) = 19.88521 30.52934 25.20727
#
# Velocity S-wave (km/s) = 3.04954 3.77858 3.43346
# Velocity P-wave (km/s) = 5.11670 6.45008 5.82169
#
# Compressibility (1/GPa) = 0.03393584
#
# Stress axis : x y z
#
# Youngs Moduli (GPa) = 117.82627 30.71152 115.43906
#
# Poissons Ratio (x) = 0.06371 0.25681
# Poissons Ratio (y) = 0.24441 0.41425
# Poissons Ratio (z) = 0.26212 0.11021
#
# Static dielectric constant tensor:
#      x y z
#    x 4.124810 0.000000 0.000000 
#    y 0.000000 3.048500 0.000000 
#    z 0.000000 0.000000 4.821050 
# 
# 
# High freq. dielectric constant tensor:
#      x y z
#    x 1.855740 0.000000 0.000000 
#    y 0.000000 1.763140 0.000000 
#    z 0.000000 0.000000 1.865920 
# 
# From -- ./inp_files/14980.got.cif
#   From: 2010.06.25/outbox.cif.g09.slc.cpg/sg48_8_cif.got.tgz:14980.got - 2010.06.26 18:06:46.
