data_PCOD8201558
_publ_section_title
;
Structure prediction by ZEFSAII (Michael W. Deem and Ramdas Pophale) SiO2 
 PCOD8201558
Probable space group: P N N N
;
_chemical_formula_sum "Si O2"
_cell_formula_units_Z 56
_cell_length_a 10.857823
_cell_length_b 11.799785
_cell_length_c 21.871839
_cell_angle_alpha 90.000000
_cell_angle_beta 90.000000
_cell_angle_gamma 90.000000
_cell_volume 2802.219509
_symmetry_space_group_name_H-M "P N N N"
_symmetry_group_IT_number 48
_space_group.IT_coordinate_system_code '2'
_symmetry_cell_setting 'orthorhombic'
loop_
_space_group_symop_operation_xyz
x,y,z
1/2-x,1/2-y,z
x,1/2-y,1/2-z
1/2-x,y,1/2-z
-x,-y,-z
1/2+x,1/2+y,-z
-x,1/2+y,1/2+z
1/2+x,-y,1/2+z
loop_
_atom_site_type_symbol
_atom_site_label
_atom_site_fract_x
_atom_site_fract_y
_atom_site_fract_z
Si Si1 0.959257 0.985391 0.886942
Si Si2 0.492182 0.404079 0.368415
Si Si3 0.068100 0.424121 0.950279
Si Si4 0.388305 0.384667 0.242754
Si Si5 0.734527 0.877349 0.945132
Si Si6 0.389748 0.777115 0.431935
Si Si7 0.878782 0.301733 0.423944
O O1 0.933877 0.938915 0.819586
O O2 0.863522 0.940769 0.938195
O O3 0.093329 0.931815 0.903929
O O4 0.950960 0.121269 0.892162
O O5 0.597604 0.490212 0.393999
O O6 0.480182 0.425466 0.296379
O O7 0.361933 0.438073 0.399721
O O8 0.518763 0.275883 0.390527
O O9 0.981322 0.327299 0.922392
O O10 0.191575 0.378748 0.983383
O O11 0.000000 0.500000 0.000000
O O12 0.390633 0.250000 0.250000
O O13 0.250000 0.429752 0.250000
O O14 0.750000 0.750000 0.922255
O O15 0.250000 0.750000 0.409194
O O16 0.387509 0.801846 0.503550
O O17 0.750000 0.250000 0.400815
#
# Coordination Sequence:
#
# PCOD8201558 Si02
#       7
#     8   8   8   8   8   8   8
#     4  12  23  38  61  96 128 162 209 271 322 386
#     4  11  20  38  58  87 121 158 210 252 312 382
#     4  10  20  36  57  83 120 168 199 246 315 387
#     4  11  21  36  63  92 118 158 212 261 314 378
#     4  11  18  33  60  90 118 152 202 249 312 374
#     4  11  22  37  58  91 134 164 193 261 330 395
#     4  11  23  38  59  91 126 164 204 261 335 387
#
# _framework density 19.984158999999998
#
# number of rings (size 3 to 8) (size 9 to 14) (size 15 to 20)
#    0.000    1.000    7.143    2.143    2.000    0.000 
#    0.000    2.143    0.000    0.000    0.000    0.000 
#    0.000    0.000    0.000    0.000    0.000    0.000 
#
# Total GULP energy -693876.402749 kJ/mol
# GULP energy per Si atom -12390.650049 kJ/mol
# Density = 1.993867 g / cm^3
# Si number density = 19.984159 Si / 1000 Ang^3
#
#
#
# Elastic Constant Matrix: (Units=GPa)
#
#
# Indices 1 2 3 4 5 6 
#
# 1 64.8831 24.8196 30.5836 0.0000 0.0000 0.0000
# 2 24.8196 120.1045 36.3499 0.0000 0.0000 0.0000
# 3 30.5836 36.3499 101.0344 0.0000 0.0000 0.0000
# 4 0.0000 0.0000 0.0000 31.4414 0.0000 0.0000
# 5 0.0000 0.0000 0.0000 0.0000 20.1166 0.0000
# 6 0.0000 0.0000 0.0000 0.0000 0.0000 23.1069
#
#
#
# Elastic Compliance Matrix: (Units=1/GPa)
#
#
# Indices 1 2 3 4 5 6 
#
# 1 0.018573 -0.002398 -0.004760 0.000000 0.000000 0.000000
# 2 -0.002398 0.009653 -0.002747 0.000000 0.000000 0.000000
# 3 -0.004760 -0.002747 0.012327 0.000000 0.000000 0.000000
# 4 0.000000 0.000000 0.000000 0.031805 0.000000 0.000000
# 5 0.000000 0.000000 0.000000 0.000000 0.049710 0.000000
# 6 0.000000 0.000000 0.000000 0.000000 0.000000 0.043277
#
#
# Mechanical properties :
#
#
# Convention : Reuss Voigt Hill
#
# Bulk Modulus (GPa) = 48.20653 52.16979 50.18816
# Shear Modulus (GPa) = 26.03238 27.88424 26.95831
#
# Velocity S-wave (km/s) = 3.61314 3.73945 3.67684
# Velocity P-wave (km/s) = 6.44834 6.69379 6.57221
#
# Compressibility (1/GPa) = 0.02074408
#
# Stress axis : x y z
#
# Youngs Moduli (GPa) = 53.84170 103.59488 81.12465
#
# Poissons Ratio (x) = 0.24838 0.38611
# Poissons Ratio (y) = 0.12909 0.22286
# Poissons Ratio (z) = 0.25626 0.28459
#
# Static dielectric constant tensor:
#      x y z
#    x 3.931720 0.000000 0.000000 
#    y 0.000000 4.055380 0.000000 
#    z 0.000000 0.000000 3.714960 
# 
# 
# High freq. dielectric constant tensor:
#      x y z
#    x 1.765920 0.000000 0.000000 
#    y 0.000000 1.777280 0.000000 
#    z 0.000000 0.000000 1.752440 
# 
# From -- ./inp_files/34153.got.cif
#   From: 2010.06.25/outbox.cif.g09.slc.cpg/sg48_18_cif.got.tgz:34153.got - 2010.06.26 18:06:46.
