data_PCOD8201687
_publ_section_title
;
Structure prediction by ZEFSAII (Michael W. Deem and Ramdas Pophale) SiO2 
 PCOD8201687
Probable space group: P N N N
;
_chemical_formula_sum "Si O2"
_cell_formula_units_Z 56
_cell_length_a 21.085566
_cell_length_b 13.474021
_cell_length_c 9.197660
_cell_angle_alpha 90.000000
_cell_angle_beta 90.000000
_cell_angle_gamma 90.000000
_cell_volume 2613.122892
_symmetry_space_group_name_H-M "P N N N"
_symmetry_group_IT_number 48
_space_group.IT_coordinate_system_code '2'
_symmetry_cell_setting 'orthorhombic'
loop_
_space_group_symop_operation_xyz
x,y,z
1/2-x,1/2-y,z
x,1/2-y,1/2-z
1/2-x,y,1/2-z
-x,-y,-z
1/2+x,1/2+y,-z
-x,1/2+y,1/2+z
1/2+x,-y,1/2+z
loop_
_atom_site_type_symbol
_atom_site_label
_atom_site_fract_x
_atom_site_fract_y
_atom_site_fract_z
Si Si1 0.303396 0.825796 0.030705
Si Si2 0.919373 0.299791 0.596060
Si Si3 0.624977 0.670561 0.637964
Si Si4 0.750000 0.434184 0.250000
Si Si5 0.673429 0.575022 0.058160
Si Si6 0.349098 0.974206 0.273726
Si Si7 0.940842 0.787515 0.088398
Si Si8 0.250000 0.250000 0.471357
O O1 0.250000 0.750000 0.088204
O O2 0.281973 0.869436 0.876270
O O3 0.368951 0.765495 0.003177
O O4 0.309592 0.908395 0.158142
O O5 0.926030 0.250000 0.750000
O O6 0.895582 0.410988 0.623741
O O7 0.988591 0.305685 0.521679
O O8 0.595319 0.750000 0.750000
O O9 0.611839 0.557259 0.684283
O O10 0.590301 0.691728 0.487395
O O11 0.700306 0.689738 0.627956
O O12 0.692316 0.498924 0.184921
O O13 0.599975 0.610720 0.069790
O O14 0.715031 0.673491 0.078045
O O15 0.691864 0.531128 0.897749
O O16 0.946144 0.750000 0.250000
#
# Coordination Sequence:
#
# PCOD8201687 Si02
#       8
#     8   8   8   4   8   8   8   4
#     4  11  25  46  71  99 136 175 226 284 339 406
#     4   9  22  45  67  94 128 183 233 278 331 406
#     4  11  21  39  60  99 128 168 219 275 323 399
#     4  12  27  41  64 108 136 172 225 278 363 402
#     4  11  25  39  63 100 138 180 221 279 333 419
#     4  11  23  42  69  98 126 177 231 272 325 407
#     4  10  23  44  64  90 142 181 223 279 349 394
#     4  10  21  35  58  84 137 165 212 258 337 383
#
# _framework density 21.430295999999998
#
# number of rings (size 3 to 8) (size 9 to 14) (size 15 to 20)
#    0.000    1.429    2.857    2.143    6.000    9.429 
#    2.571    3.571    0.000    0.000    0.000    0.000 
#    0.000    0.000    0.000    0.000    0.000    0.000 
#
# Total GULP energy -694042.026582 kJ/mol
# GULP energy per Si atom -12393.607618 kJ/mol
# Density = 2.138152 g / cm^3
# Si number density = 21.430296 Si / 1000 Ang^3
#
#
#
# Elastic Constant Matrix: (Units=GPa)
#
#
# Indices 1 2 3 4 5 6 
#
# 1 147.0822 62.5599 48.9683 0.0000 0.0000 0.0000
# 2 62.5599 149.5620 52.1952 0.0000 0.0000 0.0000
# 3 48.9683 52.1952 94.6085 0.0000 0.0000 0.0000
# 4 0.0000 0.0000 0.0000 33.1921 0.0000 0.0000
# 5 0.0000 0.0000 0.0000 0.0000 19.5132 0.0000
# 6 0.0000 0.0000 0.0000 0.0000 0.0000 22.1934
#
#
#
# Elastic Compliance Matrix: (Units=1/GPa)
#
#
# Indices 1 2 3 4 5 6 
#
# 1 0.008987 -0.002645 -0.003192 0.000000 0.000000 0.000000
# 2 -0.002645 0.009059 -0.003629 0.000000 0.000000 0.000000
# 3 -0.003192 -0.003629 0.014224 0.000000 0.000000 0.000000
# 4 0.000000 0.000000 0.000000 0.030128 0.000000 0.000000
# 5 0.000000 0.000000 0.000000 0.000000 0.051247 0.000000
# 6 0.000000 0.000000 0.000000 0.000000 0.000000 0.045058
#
#
# Mechanical properties :
#
#
# Convention : Reuss Voigt Hill
#
# Bulk Modulus (GPa) = 74.97462 79.85551 77.41506
# Shear Modulus (GPa) = 27.46027 30.14835 28.80431
#
# Velocity S-wave (km/s) = 3.58351 3.75482 3.67016
# Velocity P-wave (km/s) = 7.22381 7.49280 7.35953
#
# Compressibility (1/GPa) = 0.01333785
#
# Stress axis : x y z
#
# Youngs Moduli (GPa) = 111.27525 110.38803 70.30325
#
# Poissons Ratio (x) = 0.29198 0.22442
# Poissons Ratio (y) = 0.29432 0.25511
# Poissons Ratio (z) = 0.35521 0.40057
#
# Static dielectric constant tensor:
#      x y z
#    x 4.217100 0.000000 0.000000 
#    y 0.000000 4.041490 0.000000 
#    z 0.000000 0.000000 3.755680 
# 
# 
# High freq. dielectric constant tensor:
#      x y z
#    x 1.826370 0.000000 0.000000 
#    y 0.000000 1.853200 0.000000 
#    z 0.000000 0.000000 1.834320 
# 
# From -- ./inp_files/15323.got.cif
#   From: 2010.06.25/outbox.cif.g09.slc.cpg/sg48_8_cif.got.tgz:15323.got - 2010.06.26 18:06:46.
