data_PCOD8201931
_publ_section_title
;
Structure prediction by ZEFSAII (Michael W. Deem and Ramdas Pophale) SiO2 
 PCOD8201931
Probable space group: P N N N
;
_chemical_formula_sum "Si O2"
_cell_formula_units_Z 56
_cell_length_a 21.456065
_cell_length_b 13.642107
_cell_length_c 9.832602
_cell_angle_alpha 90.000000
_cell_angle_beta 90.000000
_cell_angle_gamma 90.000000
_cell_volume 2878.060957
_symmetry_space_group_name_H-M "P N N N"
_symmetry_group_IT_number 48
_space_group.IT_coordinate_system_code '2'
_symmetry_cell_setting 'orthorhombic'
loop_
_space_group_symop_operation_xyz
x,y,z
1/2-x,1/2-y,z
x,1/2-y,1/2-z
1/2-x,y,1/2-z
-x,-y,-z
1/2+x,1/2+y,-z
-x,1/2+y,1/2+z
1/2+x,-y,1/2+z
loop_
_atom_site_type_symbol
_atom_site_label
_atom_site_fract_x
_atom_site_fract_y
_atom_site_fract_z
Si Si1 0.749916 0.559571 0.092534
Si Si2 0.382204 0.128750 0.017585
Si Si3 0.460878 0.359917 0.746622
Si Si4 0.376836 0.351797 0.001272
Si Si5 0.339970 0.853516 0.245962
Si Si6 0.743109 0.145206 0.985330
Si Si7 0.568365 0.516523 0.777291
O O1 0.750000 0.594306 0.250000
O O2 0.814455 0.586132 0.019496
O O3 0.740218 0.441850 0.088389
O O4 0.693706 0.607206 0.006217
O O5 0.431105 0.117649 0.897551
O O6 0.372331 0.241774 0.057717
O O7 0.416592 0.072643 0.138856
O O8 0.492616 0.250000 0.750000
O O9 0.504883 0.453408 0.776164
O O10 0.403898 0.357740 0.850873
O O11 0.426001 0.408215 0.097877
O O12 0.376878 0.750000 0.250000
O O13 0.283654 0.844827 0.350244
O O14 0.379232 0.938924 0.309189
O O15 0.323910 0.875003 0.086244
O O16 0.750000 0.250000 0.064417
#
# Coordination Sequence:
#
# PCOD8201931 Si02
#       7
#     8   8   8   8   8   8   8
#     4  12  22  38  64  87 119 168 200 240 307 367
#     4  11  24  40  61  91 123 159 204 251 298 358
#     4  10  23  43  63  86 118 163 210 244 293 368
#     4  11  24  40  61  91 123 159 204 251 298 358
#     4   9  17  31  55  82 109 147 189 237 296 352
#     4   9  18  34  53  82 119 147 189 247 293 347
#     4  12  21  38  63  89 121 152 196 258 305 345
#
# _framework density 19.457545
#
# number of rings (size 3 to 8) (size 9 to 14) (size 15 to 20)
#    0.000    1.429    4.286    3.000    0.000    1.429 
#    0.000    1.429    0.000    1.714    0.000    0.000 
#    0.000    0.000    0.000    0.000    0.000    0.000 
#
# Total GULP energy -693745.522071 kJ/mol
# GULP energy per Si atom -12388.312894 kJ/mol
# Density = 1.941326 g / cm^3
# Si number density = 19.457545 Si / 1000 Ang^3
#
#
#
# Elastic Constant Matrix: (Units=GPa)
#
#
# Indices 1 2 3 4 5 6 
#
# 1 69.2041 36.4600 7.9760 0.0000 0.0000 0.0000
# 2 36.4600 139.6654 23.9929 0.0000 0.0000 0.0000
# 3 7.9760 23.9929 67.6460 0.0000 0.0000 0.0000
# 4 0.0000 0.0000 0.0000 23.4910 0.0000 0.0000
# 5 0.0000 0.0000 0.0000 0.0000 17.5017 0.0000
# 6 0.0000 0.0000 0.0000 0.0000 0.0000 35.1030
#
#
#
# Elastic Compliance Matrix: (Units=1/GPa)
#
#
# Indices 1 2 3 4 5 6 
#
# 1 0.016767 -0.004299 -0.000452 0.000000 0.000000 0.000000
# 2 -0.004299 0.008727 -0.002588 0.000000 0.000000 0.000000
# 3 -0.000452 -0.002588 0.015754 0.000000 0.000000 0.000000
# 4 0.000000 0.000000 0.000000 0.042570 0.000000 0.000000
# 5 0.000000 0.000000 0.000000 0.000000 0.057137 0.000000
# 6 0.000000 0.000000 0.000000 0.000000 0.000000 0.028488
#
#
# Mechanical properties :
#
#
# Convention : Reuss Voigt Hill
#
# Bulk Modulus (GPa) = 37.63833 45.93038 41.78435
# Shear Modulus (GPa) = 25.90954 29.09156 27.50055
#
# Velocity S-wave (km/s) = 3.65306 3.87089 3.76355
# Velocity P-wave (km/s) = 6.09745 6.60568 6.35665
#
# Compressibility (1/GPa) = 0.02656866
#
# Stress axis : x y z
#
# Youngs Moduli (GPa) = 59.63998 114.58668 63.47518
#
# Poissons Ratio (x) = 0.49266 0.02869
# Poissons Ratio (y) = 0.25642 0.16430
# Poissons Ratio (z) = 0.02696 0.29659
#
# Static dielectric constant tensor:
#      x y z
#    x 3.376950 0.000000 0.000000 
#    y 0.000000 3.960260 0.000000 
#    z 0.000000 0.000000 3.347680 
# 
# 
# High freq. dielectric constant tensor:
#      x y z
#    x 1.742920 0.000000 0.000000 
#    y 0.000000 1.780370 0.000000 
#    z 0.000000 0.000000 1.747280 
# 
# From -- ./inp_files/15281.got.cif
#   From: 2010.06.25/outbox.cif.g09.slc.cpg/sg48_8_cif.got.tgz:15281.got - 2010.06.26 18:06:46.
