data_PCOD8201018
_publ_section_title
;
Structure prediction by ZEFSAII (Michael W. Deem and Ramdas Pophale) SiO2 
 PCOD8201018
Probable space group: P M M M
;
_chemical_formula_sum "Si O2"
_cell_formula_units_Z 44
_cell_length_a 13.577619
_cell_length_b 21.196464
_cell_length_c 9.568898
_cell_angle_alpha 90.000000
_cell_angle_beta 90.000000
_cell_angle_gamma 90.000000
_cell_volume 2753.905040
_symmetry_space_group_name_H-M "P M M M"
_symmetry_group_IT_number 47
_symmetry_cell_setting 'orthorhombic'
loop_
_space_group_symop_operation_xyz
x,y,z
-x,-y,z
x,-y,-z
-x,y,-z
-x,-y,-z
x,y,-z
-x,y,z
x,-y,z
loop_
_atom_site_type_symbol
_atom_site_label
_atom_site_fract_x
_atom_site_fract_y
_atom_site_fract_z
Si Si1 0.275566 0.376462 0.337838
Si Si2 0.387210 0.751145 0.339206
Si Si3 0.611065 0.500000 0.333899
Si Si4 0.109959 0.069598 0.834279
Si Si5 0.226687 0.811035 0.163084
Si Si6 0.113399 0.684225 0.837934
O O1 0.246732 0.382841 0.500000
O O2 0.350863 0.319615 0.311603
O O3 0.329862 0.438768 0.281120
O O4 0.175304 0.366065 0.251636
O O5 0.372380 0.770020 0.500000
O O6 0.500000 0.754979 0.293334
O O7 0.327810 0.800409 0.245103
O O8 0.500000 0.500000 0.271721
O O9 0.604178 0.500000 0.500000
O O10 0.180955 0.124156 0.776215
O O11 0.000000 0.079279 0.773521
O O12 0.149671 0.000000 0.790894
O O13 0.104875 0.075569 0.000000
O O14 0.149500 0.755125 0.193425
O O15 0.251830 0.815859 0.000000
O O16 0.000000 0.679286 0.792439
O O17 0.127600 0.667473 0.000000
#
# Coordination Sequence:
#
# PCOD8201018 Si02
#       6
#     8   8   4   8   8   8
#     4   9  17  29  46  67  86 106 137 175 211 248
#     4   9  17  29  44  62  85 111 138 170 210 253
#     4   9  16  28  48  69  86 106 135 173 216 257
#     4   8  13  22  39  64  90 112 135 167 208 250
#     4   9  16  26  43  66  87 108 139 176 208 242
#     4   9  17  29  44  62  87 117 143 168 203 247
#
# _framework density 15.977312
#
# number of rings (size 3 to 8) (size 9 to 14) (size 15 to 20)
#    0.000    3.182    0.000    1.636    0.000    5.091 
#    0.000    0.909    0.000    7.636    0.000    5.091 
#    0.000    0.000    0.000    0.000    0.000    0.000 
#
# Total GULP energy -545508.956447 kJ/mol
# GULP energy per Si atom -12397.930828 kJ/mol
# Density = 1.594095 g / cm^3
# Si number density = 15.977312 Si / 1000 Ang^3
#
#
#
# Elastic Constant Matrix: (Units=GPa)
#
#
# Indices 1 2 3 4 5 6 
#
# 1 148.1290 74.2283 51.3295 0.0000 0.0000 0.0000
# 2 74.2283 119.1599 36.8909 0.0000 0.0000 0.0000
# 3 51.3295 36.8909 38.8182 0.0000 0.0000 0.0000
# 4 0.0000 0.0000 0.0000 17.4436 0.0000 0.0000
# 5 0.0000 0.0000 0.0000 0.0000 26.8706 0.0000
# 6 0.0000 0.0000 0.0000 0.0000 0.0000 26.4535
#
#
#
# Elastic Compliance Matrix: (Units=1/GPa)
#
#
# Indices 1 2 3 4 5 6 
#
# 1 0.013782 -0.004170 -0.014261 0.000000 0.000000 0.000000
# 2 -0.004170 0.013152 -0.006985 0.000000 0.000000 0.000000
# 3 -0.014261 -0.006985 0.051257 0.000000 0.000000 0.000000
# 4 0.000000 0.000000 0.000000 0.057328 0.000000 0.000000
# 5 0.000000 0.000000 0.000000 0.000000 0.037215 0.000000
# 6 0.000000 0.000000 0.000000 0.000000 0.000000 0.037802
#
#
# Mechanical properties :
#
#
# Convention : Reuss Voigt Hill
#
# Bulk Modulus (GPa) = 36.55137 70.11161 53.33149
# Shear Modulus (GPa) = 18.48495 23.73076 21.10786
#
# Velocity S-wave (km/s) = 3.40509 3.85811 3.63866
# Velocity P-wave (km/s) = 6.19566 7.98899 7.14878
#
# Compressibility (1/GPa) = 0.02735876
#
# Stress axis : x y z
#
# Youngs Moduli (GPa) = 72.55583 76.03177 19.50945
#
# Poissons Ratio (x) = 0.31708 0.27823
# Poissons Ratio (y) = 0.30258 0.13627
# Poissons Ratio (z) = 1.03475 0.53108
#
# Static dielectric constant tensor:
#      x y z
#    x 3.074730 0.000000 0.000000 
#    y 0.000000 3.127120 0.000000 
#    z 0.000000 0.000000 2.783620 
# 
# 
# High freq. dielectric constant tensor:
#      x y z
#    x 1.611800 0.000000 0.000000 
#    y 0.000000 1.608710 0.000000 
#    z 0.000000 0.000000 1.583630 
# 
# From -- ./inp_files/10879.got.cif
#   From: 2010.03.12/outbox.cif.g09.slc.cpg/sg47_6_cif.got.tgz:10879.got - 2010.04.14 03:12:58.
