data_PCOD8201499
_publ_section_title
;
Structure prediction by ZEFSAII (Michael W. Deem and Ramdas Pophale) SiO2 
 PCOD8201499
Probable space group: P N N N
;
_chemical_formula_sum "Si O2"
_cell_formula_units_Z 56
_cell_length_a 24.102633
_cell_length_b 8.438839
_cell_length_c 16.245049
_cell_angle_alpha 90.000000
_cell_angle_beta 90.000000
_cell_angle_gamma 90.000000
_cell_volume 3304.214365
_symmetry_space_group_name_H-M "P N N N"
_symmetry_group_IT_number 48
_space_group.IT_coordinate_system_code '2'
_symmetry_cell_setting 'orthorhombic'
loop_
_space_group_symop_operation_xyz
x,y,z
1/2-x,1/2-y,z
x,1/2-y,1/2-z
1/2-x,y,1/2-z
-x,-y,-z
1/2+x,1/2+y,-z
-x,1/2+y,1/2+z
1/2+x,-y,1/2+z
loop_
_atom_site_type_symbol
_atom_site_label
_atom_site_fract_x
_atom_site_fract_y
_atom_site_fract_z
Si Si1 0.483428 0.343807 0.821903
Si Si2 0.039573 0.635760 0.033786
Si Si3 0.431846 0.420686 0.235506
Si Si4 0.861424 0.586861 0.578119
Si Si5 0.252526 0.563004 0.156766
Si Si6 0.556228 0.052722 0.456209
Si Si7 0.861244 0.942576 0.606058
O O1 0.449348 0.250000 0.750000
O O2 0.511786 0.229495 0.889957
O O3 0.526966 0.431871 0.760548
O O4 0.444973 0.477465 0.864593
O O5 0.097309 0.556203 0.057932
O O6 0.054127 0.755899 0.958836
O O7 0.000000 0.500000 0.000000
O O8 0.461908 0.250000 0.250000
O O9 0.408976 0.434234 0.144433
O O10 0.381584 0.430965 0.299906
O O11 0.805543 0.502012 0.607854
O O12 0.886323 0.505744 0.496786
O O13 0.854575 0.773347 0.561579
O O14 0.250000 0.750000 0.161212
O O15 0.250000 0.492988 0.250000
O O16 0.199726 0.513049 0.104197
O O17 0.500000 0.000000 0.500000
#
# Coordination Sequence:
#
# PCOD8201499 Si02
#       7
#     8   8   8   8   8   8   8
#     4  11  21  34  53  76 104 139 183 225 270 322
#     4  11  22  34  52  76 105 140 180 216 272 325
#     4  10  20  30  50  74 104 142 183 225 261 309
#     4  11  20  36  49  71 106 141 186 224 264 313
#     4  11  23  32  48  72 104 143 186 220 254 307
#     4  10  20  34  52  69 102 138 179 221 273 311
#     4  11  21  33  51  73 104 143 184 219 261 314
#
# _framework density 16.948052000000001
#
# number of rings (size 3 to 8) (size 9 to 14) (size 15 to 20)
#    0.000    1.286    5.714    3.000    2.000    0.571 
#    0.000    0.000    0.000    0.000    0.000    0.000 
#    0.000    9.143    0.000   15.571    0.000    0.286 
#
# Total GULP energy -693887.864893 kJ/mol
# GULP energy per Si atom -12390.854730 kJ/mol
# Density = 1.690948 g / cm^3
# Si number density = 16.948052 Si / 1000 Ang^3
#
#
#
# Elastic Constant Matrix: (Units=GPa)
#
#
# Indices 1 2 3 4 5 6 
#
# 1 81.8593 41.6726 34.8167 0.0000 0.0000 0.0000
# 2 41.6726 125.6924 49.0208 0.0000 0.0000 0.0000
# 3 34.8167 49.0208 72.8853 0.0000 0.0000 0.0000
# 4 0.0000 0.0000 0.0000 58.1124 0.0000 0.0000
# 5 0.0000 0.0000 0.0000 0.0000 21.6640 0.0000
# 6 0.0000 0.0000 0.0000 0.0000 0.0000 29.3249
#
#
#
# Elastic Compliance Matrix: (Units=1/GPa)
#
#
# Indices 1 2 3 4 5 6 
#
# 1 0.016225 -0.003194 -0.005602 0.000000 0.000000 0.000000
# 2 -0.003194 0.011414 -0.006151 0.000000 0.000000 0.000000
# 3 -0.005602 -0.006151 0.020533 0.000000 0.000000 0.000000
# 4 0.000000 0.000000 0.000000 0.017208 0.000000 0.000000
# 5 0.000000 0.000000 0.000000 0.000000 0.046160 0.000000
# 6 0.000000 0.000000 0.000000 0.000000 0.000000 0.034101
#
#
# Mechanical properties :
#
#
# Convention : Reuss Voigt Hill
#
# Bulk Modulus (GPa) = 54.71209 59.05079 56.88144
# Shear Modulus (GPa) = 27.52893 32.14872 29.83883
#
# Velocity S-wave (km/s) = 4.03465 4.36006 4.20051
# Velocity P-wave (km/s) = 7.35234 7.76304 7.56048
#
# Compressibility (1/GPa) = 0.01827749
#
# Stress axis : x y z
#
# Youngs Moduli (GPa) = 61.63334 87.61289 48.70203
#
# Poissons Ratio (x) = 0.27988 0.27283
# Poissons Ratio (y) = 0.19689 0.29955
# Poissons Ratio (z) = 0.34527 0.53888
#
# Static dielectric constant tensor:
#      x y z
#    x 2.966570 0.000000 0.000000 
#    y 0.000000 3.742010 0.000000 
#    z 0.000000 0.000000 3.161220 
# 
# 
# High freq. dielectric constant tensor:
#      x y z
#    x 1.621920 0.000000 0.000000 
#    y 0.000000 1.682290 0.000000 
#    z 0.000000 0.000000 1.624090 
# 
# From -- ./inp_files/15398.got.cif
#   From: 2010.06.25/outbox.cif.g09.slc.cpg/sg48_8_cif.got.tgz:15398.got - 2010.06.26 18:06:46.
