data_PCOD8201968
_publ_section_title
;
Structure prediction by ZEFSAII (Michael W. Deem and Ramdas Pophale) SiO2 
 PCOD8201968
Probable space group: P N N N
;
_chemical_formula_sum "Si O2"
_cell_formula_units_Z 40
_cell_length_a 15.090971
_cell_length_b 14.871808
_cell_length_c 8.018582
_cell_angle_alpha 90.000000
_cell_angle_beta 90.000000
_cell_angle_gamma 90.000000
_cell_volume 1799.610545
_symmetry_space_group_name_H-M "P N N N"
_symmetry_group_IT_number 48
_space_group.IT_coordinate_system_code '2'
_symmetry_cell_setting 'orthorhombic'
loop_
_space_group_symop_operation_xyz
x,y,z
1/2-x,1/2-y,z
x,1/2-y,1/2-z
1/2-x,y,1/2-z
-x,-y,-z
1/2+x,1/2+y,-z
-x,1/2+y,1/2+z
1/2+x,-y,1/2+z
loop_
_atom_site_type_symbol
_atom_site_label
_atom_site_fract_x
_atom_site_fract_y
_atom_site_fract_z
Si Si1 0.338638 0.714166 0.562322
Si Si2 0.025378 0.242251 0.941864
Si Si3 0.914436 0.551917 0.436202
Si Si4 0.078672 0.066747 0.541819
Si Si5 0.765125 0.035966 0.562738
O O1 0.250000 0.750000 0.474098
O O2 0.346237 0.750000 0.750000
O O3 0.419280 0.758806 0.463396
O O4 0.322908 0.606667 0.549689
O O5 0.048721 0.250000 0.750000
O O6 0.074563 0.153127 0.013701
O O7 0.057522 0.333758 0.029201
O O8 0.908933 0.562464 0.239150
O O9 0.828445 0.495800 0.489646
O O10 0.000000 0.500000 0.500000
O O11 0.168510 0.048061 0.439897
O O12 0.000000 0.000000 0.500000
O O13 0.750000 0.071585 0.750000
#
# Coordination Sequence:
#
# PCOD8201968 Si02
#       5
#     8   8   8   8   8
#     4  11  26  39  66 100 135 173 232 288 351 410
#     4  10  24  44  68  99 134 185 231 291 355 418
#     4  11  25  43  69  99 142 185 235 290 361 420
#     4  11  23  44  70  99 141 183 237 294 352 425
#     4  12  27  44  68 103 141 187 231 290 358 428
#
# _framework density 22.227032000000001
#
# number of rings (size 3 to 8) (size 9 to 14) (size 15 to 20)
#    0.000    1.000    2.000    3.000   14.000    2.400 
#    0.000    4.000    0.000    0.000    0.000    0.000 
#    0.000    0.000    0.000    0.000    0.000    0.000 
#
# Total GULP energy -495607.828406 kJ/mol
# GULP energy per Si atom -12390.195710 kJ/mol
# Density = 2.217644 g / cm^3
# Si number density = 22.227032 Si / 1000 Ang^3
#
#
#
# Elastic Constant Matrix: (Units=GPa)
#
#
# Indices 1 2 3 4 5 6 
#
# 1 111.6210 31.3737 16.7096 0.0000 0.0000 0.0000
# 2 31.3737 147.8907 39.6423 0.0000 0.0000 0.0000
# 3 16.7096 39.6423 67.3747 0.0000 0.0000 0.0000
# 4 0.0000 0.0000 0.0000 29.7161 0.0000 0.0000
# 5 0.0000 0.0000 0.0000 0.0000 36.3542 0.0000
# 6 0.0000 0.0000 0.0000 0.0000 0.0000 46.5608
#
#
#
# Elastic Compliance Matrix: (Units=1/GPa)
#
#
# Indices 1 2 3 4 5 6 
#
# 1 0.009638 -0.001667 -0.001410 0.000000 0.000000 0.000000
# 2 -0.001667 0.008316 -0.004480 0.000000 0.000000 0.000000
# 3 -0.001410 -0.004480 0.017828 0.000000 0.000000 0.000000
# 4 0.000000 0.000000 0.000000 0.033652 0.000000 0.000000
# 5 0.000000 0.000000 0.000000 0.000000 0.027507 0.000000
# 6 0.000000 0.000000 0.000000 0.000000 0.000000 0.021477
#
#
# Mechanical properties :
#
#
# Convention : Reuss Voigt Hill
#
# Bulk Modulus (GPa) = 48.37956 55.81531 52.09744
# Shear Modulus (GPa) = 35.60719 38.47025 37.03872
#
# Velocity S-wave (km/s) = 4.00681 4.16479 4.08656
# Velocity P-wave (km/s) = 6.57415 6.94933 6.76434
#
# Compressibility (1/GPa) = 0.02066989
#
# Stress axis : x y z
#
# Youngs Moduli (GPa) = 103.75139 120.24797 56.09220
#
# Poissons Ratio (x) = 0.20043 0.07907
# Poissons Ratio (y) = 0.17294 0.25128
# Poissons Ratio (z) = 0.14626 0.53868
#
# Static dielectric constant tensor:
#      x y z
#    x 4.241180 0.000000 0.000000 
#    y 0.000000 5.273650 0.000000 
#    z 0.000000 0.000000 3.820910 
# 
# 
# High freq. dielectric constant tensor:
#      x y z
#    x 1.883000 0.000000 0.000000 
#    y 0.000000 1.894970 0.000000 
#    z 0.000000 0.000000 1.862380 
# 
# From -- ./inp_files/12301.got.cif
#   From: 2010.06.25/outbox.cif.g09.slc.cpg/sg48_7_cif.got.tgz:12301.got - 2010.06.26 18:06:46.
