data_PCOD8201577
_publ_section_title
;
Structure prediction by ZEFSAII (Michael W. Deem and Ramdas Pophale) SiO2 
 PCOD8201577
Probable space group: P N N N
;
_chemical_formula_sum "Si O2"
_cell_formula_units_Z 52
_cell_length_a 21.472930
_cell_length_b 10.559886
_cell_length_c 10.533102
_cell_angle_alpha 90.000000
_cell_angle_beta 90.000000
_cell_angle_gamma 90.000000
_cell_volume 2388.398710
_symmetry_space_group_name_H-M "P N N N"
_symmetry_group_IT_number 48
_space_group.IT_coordinate_system_code '2'
_symmetry_cell_setting 'orthorhombic'
loop_
_space_group_symop_operation_xyz
x,y,z
1/2-x,1/2-y,z
x,1/2-y,1/2-z
1/2-x,y,1/2-z
-x,-y,-z
1/2+x,1/2+y,-z
-x,1/2+y,1/2+z
1/2+x,-y,1/2+z
loop_
_atom_site_type_symbol
_atom_site_label
_atom_site_fract_x
_atom_site_fract_y
_atom_site_fract_z
Si Si1 0.469697 0.793407 0.510536
Si Si2 0.673451 0.594019 0.509537
Si Si3 0.449688 0.958619 0.103668
Si Si4 0.605133 0.250000 0.250000
Si Si5 0.432843 0.458318 0.122203
Si Si6 0.178504 0.494186 0.737259
Si Si7 0.688042 0.886657 0.528747
O O1 0.459236 0.694160 0.394805
O O2 0.436063 0.724528 0.626833
O O3 0.539878 0.827812 0.559219
O O4 0.440859 0.927033 0.475117
O O5 0.620381 0.509837 0.577568
O O6 0.658084 0.586582 0.360040
O O7 0.680567 0.737955 0.553607
O O8 0.744021 0.546834 0.543381
O O9 0.466367 0.011438 0.243674
O O10 0.500000 0.000000 0.000000
O O11 0.645384 0.127277 0.273342
O O12 0.358134 0.446074 0.134340
O O13 0.250000 0.527774 0.750000
O O14 0.163049 0.410981 0.613871
#
# Coordination Sequence:
#
# PCOD8201577 Si02
#       7
#     8   8   8   4   8   8   8
#     4  11  24  42  65  94 128 165 215 270 331 396
#     4  10  22  38  65  95 131 171 222 274 323 398
#     4  12  25  43  66  95 128 170 221 274 331 398
#     4  12  19  38  66  94 128 163 214 272 334 402
#     4  11  25  44  65  91 130 176 215 271 334 402
#     4  10  20  36  62  95 131 169 213 271 334 395
#     4  10  21  41  63  95 130 174 220 271 335 392
#
# _framework density 21.771909000000001
#
# number of rings (size 3 to 8) (size 9 to 14) (size 15 to 20)
#    0.000    1.231    3.077    3.000    0.000    4.308 
#    0.000    5.385    0.000    1.846    0.000    0.000 
#    0.000    0.000    0.000    0.000    0.000    0.000 
#
# Total GULP energy -644213.725212 kJ/mol
# GULP energy per Si atom -12388.725485 kJ/mol
# Density = 2.172235 g / cm^3
# Si number density = 21.771909 Si / 1000 Ang^3
#
#
#
# Elastic Constant Matrix: (Units=GPa)
#
#
# Indices 1 2 3 4 5 6 
#
# 1 97.2371 37.7354 31.8314 0.0000 0.0000 0.0000
# 2 37.7354 87.0908 10.3346 0.0000 0.0000 0.0000
# 3 31.8314 10.3346 79.4570 0.0000 0.0000 0.0000
# 4 0.0000 0.0000 0.0000 28.1254 0.0000 0.0000
# 5 0.0000 0.0000 0.0000 0.0000 32.9403 0.0000
# 6 0.0000 0.0000 0.0000 0.0000 0.0000 29.1935
#
#
#
# Elastic Compliance Matrix: (Units=1/GPa)
#
#
# Indices 1 2 3 4 5 6 
#
# 1 0.014021 -0.005493 -0.004902 0.000000 0.000000 0.000000
# 2 -0.005493 0.013815 0.000404 0.000000 0.000000 0.000000
# 3 -0.004902 0.000404 0.014497 0.000000 0.000000 0.000000
# 4 0.000000 0.000000 0.000000 0.035555 0.000000 0.000000
# 5 0.000000 0.000000 0.000000 0.000000 0.030358 0.000000
# 6 0.000000 0.000000 0.000000 0.000000 0.000000 0.034254
#
#
# Mechanical properties :
#
#
# Convention : Reuss Voigt Hill
#
# Bulk Modulus (GPa) = 44.74567 47.06531 45.90549
# Shear Modulus (GPa) = 29.42343 30.31073 29.86708
#
# Velocity S-wave (km/s) = 3.68018 3.73526 3.70782
# Velocity P-wave (km/s) = 6.21731 6.34565 6.28181
#
# Compressibility (1/GPa) = 0.02234853
#
# Stress axis : x y z
#
# Youngs Moduli (GPa) = 71.32261 72.38757 68.98051
#
# Poissons Ratio (x) = 0.39765 0.33817
# Poissons Ratio (y) = 0.39180 -0.02786
# Poissons Ratio (z) = 0.34965 -0.02924
#
# Static dielectric constant tensor:
#      x y z
#    x 4.228390 0.000000 0.000000 
#    y 0.000000 4.043410 0.000000 
#    z 0.000000 0.000000 0.481680 
# 
# 
# High freq. dielectric constant tensor:
#      x y z
#    x 1.862270 0.000000 0.000000 
#    y 0.000000 1.853230 0.000000 
#    z 0.000000 0.000000 1.850820 
# 
# From -- ./inp_files/28580.got.cif
#   From: 2010.06.25/outbox.cif.g09.slc.cpg/sg48_15_cif.got.tgz:28580.got - 2010.06.26 18:06:46.
