data_PCOD8201219
_publ_section_title
;
Structure prediction by ZEFSAII (Michael W. Deem and Ramdas Pophale) SiO2 
 PCOD8201219
Probable space group: P M M M
;
_chemical_formula_sum "Si O2"
_cell_formula_units_Z 40
_cell_length_a 27.893252
_cell_length_b 9.201928
_cell_length_c 7.784880
_cell_angle_alpha 90.000000
_cell_angle_beta 90.000000
_cell_angle_gamma 90.000000
_cell_volume 1998.158357
_symmetry_space_group_name_H-M "P M M M"
_symmetry_group_IT_number 47
_symmetry_cell_setting 'orthorhombic'
loop_
_space_group_symop_operation_xyz
x,y,z
-x,-y,z
x,-y,-z
-x,y,-z
-x,-y,-z
x,y,-z
-x,y,z
x,-y,z
loop_
_atom_site_type_symbol
_atom_site_label
_atom_site_fract_x
_atom_site_fract_y
_atom_site_fract_z
Si Si1 0.000000 0.835783 0.701410
Si Si2 0.808780 0.663451 0.205303
Si Si3 0.282726 0.836955 0.796567
Si Si4 0.446678 0.672015 0.500000
Si Si5 0.101220 0.162141 0.800746
Si Si6 0.621943 0.329286 0.802966
O O1 0.049155 0.762122 0.769353
O O2 0.000000 0.828266 0.500000
O O3 0.000000 0.000000 0.773508
O O4 0.806448 0.500000 0.277516
O O5 0.763214 0.751932 0.277667
O O6 0.856983 0.738607 0.279740
O O7 0.808670 0.661586 0.000000
O O8 0.330555 0.753156 0.741188
O O9 0.283637 0.000000 0.720228
O O10 0.279102 0.842625 0.000000
O O11 0.450128 0.500000 0.500000
O O12 0.500000 0.740660 0.500000
O O13 0.420000 0.722711 0.674377
O O14 0.102468 0.000000 0.716615
O O15 0.111604 0.147924 0.000000
O O16 0.632173 0.500000 0.785720
O O17 0.607737 0.289876 0.000000
#
# Coordination Sequence:
#
# PCOD8201219 Si02
#       6
#     4   8   8   4   8   8
#     4   9  17  29  46  65  86 116 152 191 234 280
#     4   9  16  26  43  69  98 124 153 193 240 289
#     4   9  16  27  46  72 100 129 161 198 242 294
#     4   9  18  32  51  77 107 137 173 216 255 294
#     4   9  16  27  45  68  91 116 151 193 234 280
#     4   9  17  30  50  75 103 136 172 210 253 299
#
# _framework density 20.018433000000002
#
# number of rings (size 3 to 8) (size 9 to 14) (size 15 to 20)
#    0.000    3.000    0.000    1.500    0.000    6.400 
#    0.000    3.000    2.200    4.800    0.000    2.800 
#    0.000    0.000    0.000    0.000    0.000    0.000 
#
# Total GULP energy -495791.737831 kJ/mol
# GULP energy per Si atom -12394.793446 kJ/mol
# Density = 1.997287 g / cm^3
# Si number density = 20.018433 Si / 1000 Ang^3
#
#
#
# Elastic Constant Matrix: (Units=GPa)
#
#
# Indices 1 2 3 4 5 6 
#
# 1 219.2715 78.8473 45.7995 0.0000 0.0000 0.0000
# 2 78.8473 102.1993 20.1562 0.0000 0.0000 0.0000
# 3 45.7995 20.1562 50.6067 0.0000 0.0000 0.0000
# 4 0.0000 0.0000 0.0000 5.3270 0.0000 0.0000
# 5 0.0000 0.0000 0.0000 0.0000 -1.9464 0.0000
# 6 0.0000 0.0000 0.0000 0.0000 0.0000 -1.7245
#
#
#
# Elastic Compliance Matrix: (Units=1/GPa)
#
#
# Indices 1 2 3 4 5 6 
#
# 1 0.007204 -0.004636 -0.004673 0.000000 0.000000 0.000000
# 2 -0.004636 0.013603 -0.001222 0.000000 0.000000 0.000000
# 3 -0.004673 -0.001222 0.024476 0.000000 0.000000 0.000000
# 4 0.000000 0.000000 0.000000 0.187723 0.000000 0.000000
# 5 0.000000 0.000000 0.000000 0.000000 -0.513771 0.000000
# 6 0.000000 0.000000 0.000000 0.000000 0.000000 -0.579884
#
#
# Mechanical properties :
#
#
# Convention : Reuss Voigt Hill
#
# Bulk Modulus (GPa) = 41.28800 73.52040 57.40420
# Shear Modulus (GPa) = -6.01312 15.48286 4.73487
#
# Velocity S-wave (km/s) = -1.73503 2.78408 1.53961
# Velocity P-wave (km/s) = 4.08118 6.86592 5.64787
#
# Compressibility (1/GPa) = 0.02422011
#
# Stress axis : x y z
#
# Youngs Moduli (GPa) = 138.81852 73.51553 40.85644
#
# Poissons Ratio (x) = 0.34082 0.19092
# Poissons Ratio (y) = 0.64357 0.04993
# Poissons Ratio (z) = 0.64868 0.08984
#
# Static dielectric constant tensor:
#      x y z
#    x 3.931900 0.000000 0.000000 
#    y 0.000000 3.598260 0.000000 
#    z 0.000000 0.000000 3.226830 
# 
# 
# High freq. dielectric constant tensor:
#      x y z
#    x 1.790360 0.000000 0.000000 
#    y 0.000000 1.750900 0.000000 
#    z 0.000000 0.000000 1.751680 
# 
# From -- ./inp_files/12980.got.cif
#   From: 2010.03.12/outbox.cif.g09.slc.cpg/sg47_7_cif.got.tgz:12980.got - 2010.04.14 03:12:58.
