data_PCOD8201035
_publ_section_title
;
Structure prediction by ZEFSAII (Michael W. Deem and Ramdas Pophale) SiO2 
 PCOD8201035
Probable space group: P M M M
;
_chemical_formula_sum "Si O2"
_cell_formula_units_Z 52
_cell_length_a 9.906249
_cell_length_b 13.506702
_cell_length_c 27.981662
_cell_angle_alpha 90.000000
_cell_angle_beta 90.000000
_cell_angle_gamma 90.000000
_cell_volume 3743.967451
_symmetry_space_group_name_H-M "P M M M"
_symmetry_group_IT_number 47
_symmetry_cell_setting 'orthorhombic'
loop_
_space_group_symop_operation_xyz
x,y,z
-x,-y,z
x,-y,-z
-x,y,-z
-x,-y,-z
x,y,-z
-x,y,z
x,-y,z
loop_
_atom_site_type_symbol
_atom_site_label
_atom_site_fract_x
_atom_site_fract_y
_atom_site_fract_z
Si Si1 0.345047 0.884732 0.864721
Si Si2 0.845321 0.109674 0.315236
Si Si3 0.656420 0.194808 0.237355
Si Si4 0.148079 0.307068 0.637270
Si Si5 0.000000 0.382082 0.445630
Si Si6 0.346331 0.609702 0.289850
Si Si7 0.848593 0.882417 0.052954
O O1 0.500000 0.868548 0.879233
O O2 0.306458 0.823330 0.817603
O O3 0.255178 0.840706 0.907790
O O4 0.314807 0.000000 0.854829
O O5 0.748823 0.125309 0.269907
O O6 0.812696 0.190911 0.356376
O O7 0.000000 0.118447 0.297704
O O8 0.817548 0.000000 0.336401
O O9 0.500000 0.167653 0.247048
O O10 0.687899 0.309922 0.249106
O O11 0.256509 0.375847 0.662996
O O12 0.000000 0.325008 0.661408
O O13 0.133909 0.337898 0.581199
O O14 0.000000 0.500000 0.442153
O O15 0.000000 0.345069 0.500000
O O16 0.500000 0.621612 0.307008
O O17 0.319853 0.500000 0.268712
O O18 0.000000 0.847634 0.066145
O O19 0.840881 0.000000 0.052585
O O20 0.809274 0.842803 0.000000
#
# Coordination Sequence:
#
# PCOD8201035 Si02
#       7
#     8   8   8   8   4   8   8
#     4   9  16  24  34  49  71  98 124 151 182 217
#     4   9  16  26  39  55  77 103 129 159 190 220
#     4   9  17  27  37  54  79 104 131 158 187 228
#     4   8  16  27  41  59  78 101 129 159 188 225
#     4   9  16  26  43  63  79  99 130 164 196 233
#     4   9  16  26  41  59  79 103 129 158 192 228
#     4   8  14  24  36  49  66  91 123 155 186 222
#
# _framework density 13.889009
#
# number of rings (size 3 to 8) (size 9 to 14) (size 15 to 20)
#    0.462    2.846    0.000    1.385    0.000    1.846 
#    0.000    3.077    0.000    1.385    0.000    2.154 
#    0.000    0.615    0.000   15.385    0.000    1.846 
#
# Total GULP energy -644294.674093 kJ/mol
# GULP energy per Si atom -12390.282194 kJ/mol
# Density = 1.385740 g / cm^3
# Si number density = 13.889009 Si / 1000 Ang^3
#
#
#
# Elastic Constant Matrix: (Units=GPa)
#
#
# Indices 1 2 3 4 5 6 
#
# 1 52.9088 30.2510 48.6068 0.0000 0.0000 0.0000
# 2 30.2510 71.4001 41.3421 0.0000 0.0000 0.0000
# 3 48.6068 41.3421 114.0166 0.0000 0.0000 0.0000
# 4 0.0000 0.0000 0.0000 14.7892 0.0000 0.0000
# 5 0.0000 0.0000 0.0000 0.0000 19.4838 0.0000
# 6 0.0000 0.0000 0.0000 0.0000 0.0000 14.8294
#
#
#
# Elastic Compliance Matrix: (Units=1/GPa)
#
#
# Indices 1 2 3 4 5 6 
#
# 1 0.034059 -0.007623 -0.011756 0.000000 0.000000 0.000000
# 2 -0.007623 0.019434 -0.003797 0.000000 0.000000 0.000000
# 3 -0.011756 -0.003797 0.015159 0.000000 0.000000 0.000000
# 4 0.000000 0.000000 0.000000 0.067617 0.000000 0.000000
# 5 0.000000 0.000000 0.000000 0.000000 0.051325 0.000000
# 6 0.000000 0.000000 0.000000 0.000000 0.000000 0.067434
#
#
# Mechanical properties :
#
#
# Convention : Reuss Voigt Hill
#
# Bulk Modulus (GPa) = 44.84248 53.19170 49.01709
# Shear Modulus (GPa) = 16.19109 17.69551 16.94330
#
# Velocity S-wave (km/s) = 3.41801 3.57328 3.49651
# Velocity P-wave (km/s) = 6.92340 7.44347 7.18814
#
# Compressibility (1/GPa) = 0.02230028
#
# Stress axis : x y z
#
# Youngs Moduli (GPa) = 29.36090 51.45656 65.96802
#
# Poissons Ratio (x) = 0.39228 0.77549
# Poissons Ratio (y) = 0.22383 0.25046
# Poissons Ratio (z) = 0.34515 0.19536
#
# Static dielectric constant tensor:
#      x y z
#    x 2.810970 0.000000 0.000000 
#    y 0.000000 2.699390 0.000000 
#    z 0.000000 0.000000 2.671510 
# 
# 
# High freq. dielectric constant tensor:
#      x y z
#    x 1.530970 0.000000 0.000000 
#    y 0.000000 1.511370 0.000000 
#    z 0.000000 0.000000 1.505270 
# 
# From -- ./inp_files/33417.got.cif
#   From: 2010.03.12/outbox.cif.g09.slc.cpg/sg47_17_cif.got.tgz:33417.got - 2010.04.14 03:12:58.
