data_PCOD8201248
_publ_section_title
;
Structure prediction by ZEFSAII (Michael W. Deem and Ramdas Pophale) SiO2 
 PCOD8201248
Probable space group: P N N N
;
_chemical_formula_sum "Si O2"
_cell_formula_units_Z 64
_cell_length_a 25.028523
_cell_length_b 31.097036
_cell_length_c 5.293649
_cell_angle_alpha 90.000000
_cell_angle_beta 90.000000
_cell_angle_gamma 90.000000
_cell_volume 4120.115203
_symmetry_space_group_name_H-M "P N N N"
_symmetry_group_IT_number 48
_space_group.IT_coordinate_system_code '2'
_symmetry_cell_setting 'orthorhombic'
loop_
_space_group_symop_operation_xyz
x,y,z
1/2-x,1/2-y,z
x,1/2-y,1/2-z
1/2-x,y,1/2-z
-x,-y,-z
1/2+x,1/2+y,-z
-x,1/2+y,1/2+z
1/2+x,-y,1/2+z
loop_
_atom_site_type_symbol
_atom_site_label
_atom_site_fract_x
_atom_site_fract_y
_atom_site_fract_z
Si Si1 0.989991 0.039477 0.250000
Si Si2 0.890515 0.502815 0.750000
Si Si3 0.689598 0.129820 0.249998
Si Si4 0.099464 0.701173 0.750001
Si Si5 0.008367 0.088674 0.750001
Si Si6 0.056603 0.834457 0.249999
Si Si7 0.601467 0.533052 0.250000
Si Si8 0.353713 0.906104 0.250001
O O1 0.046173 0.014178 0.249996
O O2 0.982100 0.069078 0.496048
O O3 0.944584 0.003692 0.250006
O O4 0.982099 0.069078 0.003951
O O5 0.863873 0.525431 0.503009
O O6 0.879434 0.452793 0.750003
O O7 0.863873 0.525432 0.996988
O O8 0.750000 0.147259 0.250000
O O9 0.651523 0.171294 0.249999
O O10 0.681210 0.100540 0.497932
O O11 0.681211 0.100541 0.002062
O O12 0.120080 0.750000 0.750000
O O13 0.063260 0.693980 0.501259
O O14 0.063260 0.693980 0.998743
O O15 0.000293 0.140499 0.750001
O O16 0.072313 0.079430 0.750003
O O17 0.098711 0.872735 0.250000
#
# Coordination Sequence:
#
# PCOD8201248 Si02
#       8
#     8   8   8   8   8   8   8   8
#     4  10  16  22  33  51  77 102 122 135 148 177
#     4  10  17  24  35  53  75  99 119 136 156 187
#     4  10  21  34  47  60  71  86 111 149 198 250
#     4  10  21  34  47  60  71  86 111 149 198 250
#     4  10  17  24  35  53  75  99 119 136 156 187
#     4  10  18  29  44  59  75  92 113 140 175 221
#     4  10  16  22  33  51  77 102 122 135 148 177
#     4  10  18  29  44  59  75  92 113 140 175 221
#
# _framework density 15.533545999999999
#
# number of rings (size 3 to 8) (size 9 to 14) (size 15 to 20)
#    0.000    2.000    0.000    8.250    0.000    2.250 
#    0.000    0.000    0.000    4.500    0.000    0.000 
#    0.000    0.000    0.000    0.000    0.000    0.000 
#
# Total GULP energy -793071.186755 kJ/mol
# GULP energy per Si atom -12391.737293 kJ/mol
# Density = 1.549819 g / cm^3
# Si number density = 15.533546 Si / 1000 Ang^3
#
#
#
# Elastic Constant Matrix: (Units=GPa)
#
#
# Indices 1 2 3 4 5 6 
#
# 1 17.9404 32.4515 19.7357 0.0000 0.0000 0.0000
# 2 32.4515 68.0815 39.5310 0.0000 0.0000 0.0000
# 3 19.7357 39.5310 168.4090 0.0000 0.0000 0.0000
# 4 0.0000 0.0000 0.0000 19.7469 0.0000 0.0000
# 5 0.0000 0.0000 0.0000 0.0000 -0.7576 0.0000
# 6 0.0000 0.0000 0.0000 0.0000 0.0000 11.9631
#
#
#
# Elastic Compliance Matrix: (Units=1/GPa)
#
#
# Indices 1 2 3 4 5 6 
#
# 1 0.405415 -0.191799 -0.002489 0.000000 0.000000 0.000000
# 2 -0.191799 0.107745 -0.002814 0.000000 0.000000 0.000000
# 3 -0.002489 -0.002814 0.006890 0.000000 0.000000 0.000000
# 4 0.000000 0.000000 0.000000 0.050641 0.000000 0.000000
# 5 0.000000 0.000000 0.000000 0.000000 -1.319993 0.000000
# 6 0.000000 0.000000 0.000000 0.000000 0.000000 0.083591
#
#
# Mechanical properties :
#
#
# Convention : Reuss Voigt Hill
#
# Bulk Modulus (GPa) = 7.94625 48.65193 28.29909
# Shear Modulus (GPa) = -21.78084 17.03799 -2.37143
#
# Velocity S-wave (km/s) = -3.74863 3.31547 -1.23692
# Velocity P-wave (km/s) = 3.68913 6.78565 4.02711
#
# Compressibility (1/GPa) = 0.12584549
#
# Stress axis : x y z
#
# Youngs Moduli (GPa) = 2.46661 9.28121 145.13309
#
# Poissons Ratio (x) = 1.78012 0.36124
# Poissons Ratio (y) = 0.47309 0.40845
# Poissons Ratio (z) = 0.00614 0.02612
#
# Static dielectric constant tensor:
#      x y z
#    x 2.516080 0.000000 0.000000 
#    y 0.000000 2.846520 0.000000 
#    z 0.000000 0.000000 4.552040 
# 
# 
# High freq. dielectric constant tensor:
#      x y z
#    x 1.522060 0.000000 0.000000 
#    y 0.000000 1.563920 0.000000 
#    z 0.000000 0.000000 1.642150 
# 
# From -- ./inp_files/6076.got.cif
#   From: 2010.06.25/outbox.cif.g09.slc.cpg/sg48_4_cif.got.tgz:6076.got - 2010.06.26 18:06:46.
