data_PCOD8201154
_publ_section_title
;
Structure prediction by ZEFSAII (Michael W. Deem and Ramdas Pophale) SiO2 
 PCOD8201154
Probable space group: P M M M
;
_chemical_formula_sum "Si O2"
_cell_formula_units_Z 44
_cell_length_a 9.561344
_cell_length_b 30.169408
_cell_length_c 7.936900
_cell_angle_alpha 90.000000
_cell_angle_beta 90.000000
_cell_angle_gamma 90.000000
_cell_volume 2289.478874
_symmetry_space_group_name_H-M "P M M M"
_symmetry_group_IT_number 47
_symmetry_cell_setting 'orthorhombic'
loop_
_space_group_symop_operation_xyz
x,y,z
-x,-y,z
x,-y,-z
-x,y,-z
-x,-y,-z
x,y,-z
-x,y,z
x,-y,z
loop_
_atom_site_type_symbol
_atom_site_label
_atom_site_fract_x
_atom_site_fract_y
_atom_site_fract_z
Si Si1 0.343048 0.803493 0.198982
Si Si2 0.156593 0.724167 0.201445
Si Si3 0.347786 0.547971 0.305206
Si Si4 0.836230 0.111066 0.194263
Si Si5 0.836516 0.626510 0.809319
Si Si6 0.165020 0.049184 0.500000
O O1 0.500000 0.807041 0.275032
O O2 0.265379 0.760220 0.274435
O O3 0.252948 0.846306 0.247385
O O4 0.351681 0.798909 0.000000
O O5 0.200621 0.675150 0.266736
O O6 0.000000 0.735929 0.265160
O O7 0.155751 0.724135 0.000000
O O8 0.368546 0.541246 0.500000
O O9 0.500000 0.560078 0.225320
O O10 0.296245 0.500000 0.230017
O O11 0.238737 0.587152 0.284889
O O12 0.788407 0.073362 0.326648
O O13 0.000000 0.122615 0.214189
O O14 0.804952 0.096290 0.000000
O O15 0.000000 0.618098 0.793174
O O16 0.785159 0.624936 0.000000
O O17 0.000000 0.045456 0.500000
O O18 0.232327 0.000000 0.500000
#
# Coordination Sequence:
#
# PCOD8201154 Si02
#       6
#     8   8   8   8   8   4
#     4   9  16  26  44  71  99 127 162 201 237 280
#     4   8  14  26  44  67  97 129 158 191 236 290
#     4   9  19  35  51  66  88 122 162 201 242 290
#     4   9  17  30  50  74 100 133 169 206 252 300
#     4   9  18  31  48  73 101 125 153 195 244 293
#     4   9  18  32  51  77 105 131 167 215 256 295
#
# _framework density 19.218347000000001
#
# number of rings (size 3 to 8) (size 9 to 14) (size 15 to 20)
#    0.000    3.182    0.000    2.182    0.000    4.727 
#    0.000    6.818    2.000    1.091    0.000    2.545 
#    0.000    0.000    0.000    0.000    0.000    0.000 
#
# Total GULP energy -545127.409789 kJ/mol
# GULP energy per Si atom -12389.259313 kJ/mol
# Density = 1.917461 g / cm^3
# Si number density = 19.218347 Si / 1000 Ang^3
#
#
#
# Elastic Constant Matrix: (Units=GPa)
#
#
# Indices 1 2 3 4 5 6 
#
# 1 77.7545 72.8798 23.0209 0.0000 0.0000 0.0000
# 2 72.8798 176.2049 44.1656 0.0000 0.0000 0.0000
# 3 23.0209 44.1656 51.3944 0.0000 0.0000 0.0000
# 4 0.0000 0.0000 0.0000 39.7514 0.0000 0.0000
# 5 0.0000 0.0000 0.0000 0.0000 12.6454 0.0000
# 6 0.0000 0.0000 0.0000 0.0000 0.0000 8.4032
#
#
#
# Elastic Compliance Matrix: (Units=1/GPa)
#
#
# Indices 1 2 3 4 5 6 
#
# 1 0.021254 -0.008163 -0.002506 0.000000 0.000000 0.000000
# 2 -0.008163 0.010368 -0.005254 0.000000 0.000000 0.000000
# 3 -0.002506 -0.005254 0.025094 0.000000 0.000000 0.000000
# 4 0.000000 0.000000 0.000000 0.025156 0.000000 0.000000
# 5 0.000000 0.000000 0.000000 0.000000 0.079080 0.000000
# 6 0.000000 0.000000 0.000000 0.000000 0.000000 0.119002
#
#
# Mechanical properties :
#
#
# Convention : Reuss Voigt Hill
#
# Bulk Modulus (GPa) = 40.20482 65.05403 52.62943
# Shear Modulus (GPa) = 15.62061 23.17916 19.39989
#
# Velocity S-wave (km/s) = 2.85405 3.47666 3.18063
# Velocity P-wave (km/s) = 5.64148 7.07387 6.39789
#
# Compressibility (1/GPa) = 0.02487264
#
# Stress axis : x y z
#
# Youngs Moduli (GPa) = 47.05043 96.44889 39.84972
#
# Poissons Ratio (x) = 0.78729 0.09984
# Poissons Ratio (y) = 0.38406 0.20935
# Poissons Ratio (z) = 0.11789 0.50670
#
# Static dielectric constant tensor:
#      x y z
#    x 3.520630 0.000000 0.000000 
#    y 0.000000 3.775390 0.000000 
#    z 0.000000 0.000000 3.194170 
# 
# 
# High freq. dielectric constant tensor:
#      x y z
#    x 1.730850 0.000000 0.000000 
#    y 0.000000 1.753380 0.000000 
#    z 0.000000 0.000000 1.717410 
# 
# From -- ./inp_files/2108.got.cif
#   From: 2010.03.12/outbox.cif.g09.slc.cpg/sg47_2_cif.got.tgz:2108.got - 2010.04.14 03:12:58.
