data_PCOD8201017
_publ_section_title
;
Structure prediction by ZEFSAII (Michael W. Deem and Ramdas Pophale) SiO2 
 PCOD8201017
Probable space group: P M M M
;
_chemical_formula_sum "Si O2"
_cell_formula_units_Z 52
_cell_length_a 26.315395
_cell_length_b 13.675313
_cell_length_c 9.449789
_cell_angle_alpha 90.000000
_cell_angle_beta 90.000000
_cell_angle_gamma 90.000000
_cell_volume 3400.707506
_symmetry_space_group_name_H-M "P M M M"
_symmetry_group_IT_number 47
_symmetry_cell_setting 'orthorhombic'
loop_
_space_group_symop_operation_xyz
x,y,z
-x,-y,z
x,-y,-z
-x,y,-z
-x,-y,-z
x,y,-z
-x,y,z
x,-y,z
loop_
_atom_site_type_symbol
_atom_site_label
_atom_site_fract_x
_atom_site_fract_y
_atom_site_fract_z
Si Si1 0.500000 0.116163 0.160130
Si Si2 0.848294 0.272884 0.165563
Si Si3 0.252950 0.611869 0.164677
Si Si4 0.798211 0.888218 0.335505
Si Si5 0.403575 0.113517 0.664410
Si Si6 0.943816 0.609228 0.832127
Si Si7 0.302543 0.773731 0.664192
O O1 0.549784 0.153698 0.242383
O O2 0.500000 0.000000 0.160773
O O3 0.500000 0.157296 0.000000
O O4 0.803406 0.349300 0.198774
O O5 0.839724 0.171707 0.247149
O O6 0.900530 0.318591 0.226484
O O7 0.851737 0.249346 0.000000
O O8 0.256099 0.500000 0.215207
O O9 0.294981 0.673966 0.248868
O O10 0.265431 0.622067 0.000000
O O11 0.810803 0.875667 0.500000
O O12 0.741889 0.850302 0.300140
O O13 0.801469 0.000000 0.287057
O O14 0.417147 0.128445 0.500000
O O15 0.354887 0.176029 0.710405
O O16 0.391960 0.000000 0.695627
O O17 0.935138 0.500000 0.771290
O O18 0.000000 0.647243 0.787394
O O19 0.939205 0.604520 0.000000
O O20 0.302770 0.745951 0.500000
#
# Coordination Sequence:
#
# PCOD8201017 Si02
#       7
#     4   8   8   8   8   8   8
#     4   9  17  27  39  59  86 113 140 169 201 238
#     4   9  16  26  42  63  84 106 135 170 204 241
#     4   9  17  28  41  59  85 113 136 161 200 249
#     4   9  17  29  43  59  82 111 140 169 203 243
#     4   9  16  27  43  61  83 111 140 169 202 240
#     4   8  13  22  39  63  86 106 131 166 208 250
#     4   9  17  28  43  63  83 106 139 174 204 236
#
# _framework density 15.290934999999999
#
# number of rings (size 3 to 8) (size 9 to 14) (size 15 to 20)
#    0.000    3.154    0.000    1.615    0.000    5.846 
#    0.000    0.000    0.000    5.077    0.000    4.846 
#    0.000    4.308    0.000    0.000    0.000    0.000 
#
# Total GULP energy -644710.775525 kJ/mol
# GULP energy per Si atom -12398.284145 kJ/mol
# Density = 1.525613 g / cm^3
# Si number density = 15.290935 Si / 1000 Ang^3
#
#
#
# Elastic Constant Matrix: (Units=GPa)
#
#
# Indices 1 2 3 4 5 6 
#
# 1 124.9918 65.0824 47.8756 0.0000 0.0000 0.0000
# 2 65.0824 115.3412 45.7245 0.0000 0.0000 0.0000
# 3 47.8756 45.7245 47.6840 0.0000 0.0000 0.0000
# 4 0.0000 0.0000 0.0000 23.8260 0.0000 0.0000
# 5 0.0000 0.0000 0.0000 0.0000 19.8198 0.0000
# 6 0.0000 0.0000 0.0000 0.0000 0.0000 25.8957
#
#
#
# Elastic Compliance Matrix: (Units=1/GPa)
#
#
# Indices 1 2 3 4 5 6 
#
# 1 0.013931 -0.003736 -0.010405 0.000000 0.000000 0.000000
# 2 -0.003736 0.014989 -0.010622 0.000000 0.000000 0.000000
# 3 -0.010405 -0.010622 0.041603 0.000000 0.000000 0.000000
# 4 0.000000 0.000000 0.000000 0.041971 0.000000 0.000000
# 5 0.000000 0.000000 0.000000 0.000000 0.050455 0.000000
# 6 0.000000 0.000000 0.000000 0.000000 0.000000 0.038616
#
#
# Mechanical properties :
#
#
# Convention : Reuss Voigt Hill
#
# Bulk Modulus (GPa) = 47.62317 67.26468 57.44392
# Shear Modulus (GPa) = 19.37314 22.53060 20.95187
#
# Velocity S-wave (km/s) = 3.56331 3.84273 3.70566
# Velocity P-wave (km/s) = 6.93844 7.98587 7.48051
#
# Compressibility (1/GPa) = 0.02099818
#
# Stress axis : x y z
#
# Youngs Moduli (GPa) = 71.78154 66.71635 24.03670
#
# Poissons Ratio (x) = 0.24926 0.25009
# Poissons Ratio (y) = 0.26819 0.25531
# Poissons Ratio (z) = 0.74685 0.70864
#
# Static dielectric constant tensor:
#      x y z
#    x 3.010520 0.000000 0.000000 
#    y 0.000000 2.864150 0.000000 
#    z 0.000000 0.000000 2.813910 
# 
# 
# High freq. dielectric constant tensor:
#      x y z
#    x 1.581460 0.000000 0.000000 
#    y 0.000000 1.566990 0.000000 
#    z 0.000000 0.000000 1.571040 
# 
# From -- ./inp_files/12498.got.cif
#   From: 2010.03.12/outbox.cif.g09.slc.cpg/sg47_7_cif.got.tgz:12498.got - 2010.04.14 03:12:58.
