data_PCOD8201246
_publ_section_title
;
Structure prediction by ZEFSAII (Michael W. Deem and Ramdas Pophale) SiO2 
 PCOD8201246
Probable space group: P N N N
;
_chemical_formula_sum "Si O2"
_cell_formula_units_Z 52
_cell_length_a 20.477585
_cell_length_b 14.218620
_cell_length_c 8.724839
_cell_angle_alpha 90.000000
_cell_angle_beta 90.000000
_cell_angle_gamma 90.000000
_cell_volume 2540.350295
_symmetry_space_group_name_H-M "P N N N"
_symmetry_group_IT_number 48
_space_group.IT_coordinate_system_code '2'
_symmetry_cell_setting 'orthorhombic'
loop_
_space_group_symop_operation_xyz
x,y,z
1/2-x,1/2-y,z
x,1/2-y,1/2-z
1/2-x,y,1/2-z
-x,-y,-z
1/2+x,1/2+y,-z
-x,1/2+y,1/2+z
1/2+x,-y,1/2+z
loop_
_atom_site_type_symbol
_atom_site_label
_atom_site_fract_x
_atom_site_fract_y
_atom_site_fract_z
Si Si1 0.750000 0.750000 0.048568
Si Si2 0.961798 0.735212 0.573115
Si Si3 0.314662 0.907200 0.557986
Si Si4 0.641233 0.610428 0.018867
Si Si5 0.835027 0.422500 0.086639
Si Si6 0.867682 0.631610 0.128618
Si Si7 0.599430 0.252472 0.570387
O O1 0.701272 0.677884 0.959729
O O2 0.797097 0.681410 0.143943
O O3 0.975600 0.750000 0.750000
O O4 0.921929 0.637655 0.578587
O O5 0.919919 0.813963 0.478448
O O6 0.030930 0.718700 0.495587
O O7 0.335179 0.898666 0.734192
O O8 0.237865 0.907405 0.526321
O O9 0.342956 0.818060 0.472346
O O10 0.342083 0.003106 0.485999
O O11 0.614818 0.627638 0.192639
O O12 0.859310 0.528333 0.056504
O O13 0.884160 0.355665 0.994466
O O14 0.592665 0.250000 0.750000
#
# Coordination Sequence:
#
# PCOD8201246 Si02
#       7
#     4   8   8   8   8   8   8
#     4  10  15  30  61  94 123 152 189 234 287 356
#     4  11  24  41  60  87 122 163 204 250 301 357
#     4  10  21  39  65  95 122 157 200 246 298 357
#     4  10  19  35  63  94 124 156 196 243 297 360
#     4  10  21  39  65  95 122 157 200 246 298 357
#     4  10  19  35  63  94 124 156 196 243 297 360
#     4  12  26  43  61  82 118 166 209 254 301 353
#
# _framework density 20.469619000000002
#
# number of rings (size 3 to 8) (size 9 to 14) (size 15 to 20)
#    0.000    1.538    1.538    5.538    0.000    4.923 
#    0.000    6.154    0.000    0.000    0.000    0.000 
#    0.000    0.000    0.000    0.000    0.000    0.000 
#
# Total GULP energy -644403.801766 kJ/mol
# GULP energy per Si atom -12392.380803 kJ/mol
# Density = 2.042303 g / cm^3
# Si number density = 20.469619 Si / 1000 Ang^3
#
#
#
# Elastic Constant Matrix: (Units=GPa)
#
#
# Indices 1 2 3 4 5 6 
#
# 1 91.0861 24.9235 19.8316 0.0000 0.0000 0.0000
# 2 24.9235 110.8684 14.5930 0.0000 0.0000 0.0000
# 3 19.8316 14.5930 55.9156 0.0000 0.0000 0.0000
# 4 0.0000 0.0000 0.0000 19.6273 0.0000 0.0000
# 5 0.0000 0.0000 0.0000 0.0000 16.7468 0.0000
# 6 0.0000 0.0000 0.0000 0.0000 0.0000 21.7711
#
#
#
# Elastic Compliance Matrix: (Units=1/GPa)
#
#
# Indices 1 2 3 4 5 6 
#
# 1 0.012436 -0.002294 -0.003812 0.000000 0.000000 0.000000
# 2 -0.002294 0.009764 -0.001735 0.000000 0.000000 0.000000
# 3 -0.003812 -0.001735 0.019689 0.000000 0.000000 0.000000
# 4 0.000000 0.000000 0.000000 0.050950 0.000000 0.000000
# 5 0.000000 0.000000 0.000000 0.000000 0.059713 0.000000
# 6 0.000000 0.000000 0.000000 0.000000 0.000000 0.045932
#
#
# Mechanical properties :
#
#
# Convention : Reuss Voigt Hill
#
# Bulk Modulus (GPa) = 38.15688 41.84071 39.99879
# Shear Modulus (GPa) = 22.43150 24.86383 23.64766
#
# Velocity S-wave (km/s) = 3.31394 3.48899 3.40259
# Velocity P-wave (km/s) = 5.77271 6.05933 5.91776
#
# Compressibility (1/GPa) = 0.02620759
#
# Stress axis : x y z
#
# Youngs Moduli (GPa) = 80.40985 102.42022 50.79024
#
# Poissons Ratio (x) = 0.23495 0.19362
# Poissons Ratio (y) = 0.18446 0.08810
# Poissons Ratio (z) = 0.30653 0.17765
#
# Static dielectric constant tensor:
#      x y z
#    x 3.763600 0.000000 0.000000 
#    y 0.000000 3.961950 0.000000 
#    z 0.000000 0.000000 3.459420 
# 
# 
# High freq. dielectric constant tensor:
#      x y z
#    x 1.806300 0.000000 0.000000 
#    y 0.000000 1.810750 0.000000 
#    z 0.000000 0.000000 1.778300 
# 
# From -- ./inp_files/15222.got.cif
#   From: 2010.06.25/outbox.cif.g09.slc.cpg/sg48_8_cif.got.tgz:15222.got - 2010.06.26 18:06:46.
