data_PCOD8201779
_publ_section_title
;
Structure prediction by ZEFSAII (Michael W. Deem and Ramdas Pophale) SiO2 
 PCOD8201779
Probable space group: P N N N
;
_chemical_formula_sum "Si O2"
_cell_formula_units_Z 40
_cell_length_a 6.504829
_cell_length_b 16.603896
_cell_length_c 19.490362
_cell_angle_alpha 90.000000
_cell_angle_beta 90.000000
_cell_angle_gamma 90.000000
_cell_volume 2105.066375
_symmetry_space_group_name_H-M "P N N N"
_symmetry_group_IT_number 48
_space_group.IT_coordinate_system_code '2'
_symmetry_cell_setting 'orthorhombic'
loop_
_space_group_symop_operation_xyz
x,y,z
1/2-x,1/2-y,z
x,1/2-y,1/2-z
1/2-x,y,1/2-z
-x,-y,-z
1/2+x,1/2+y,-z
-x,1/2+y,1/2+z
1/2+x,-y,1/2+z
loop_
_atom_site_type_symbol
_atom_site_label
_atom_site_fract_x
_atom_site_fract_y
_atom_site_fract_z
Si Si1 0.019255 0.387959 0.448019
Si Si2 0.250000 0.250000 0.250000
Si Si3 0.250000 0.750000 0.250000
Si Si4 0.405033 0.817171 0.117487
Si Si5 0.250000 0.250000 0.972982
Si Si6 0.304758 0.527064 0.456188
Si Si7 0.126330 0.830540 0.811894
O O1 0.107702 0.304316 0.477794
O O2 0.209253 0.445011 0.426790
O O3 0.868915 0.427891 0.501448
O O4 0.876232 0.380658 0.381113
O O5 0.390636 0.308929 0.204780
O O6 0.399965 0.803790 0.200611
O O7 0.250000 0.750000 0.084733
O O8 0.352811 0.910886 0.105188
O O9 0.620947 0.805467 0.079158
O O10 0.500000 0.500000 0.500000
O O11 0.250000 0.750000 0.826892
O O12 0.250000 0.876549 0.750000
#
# Coordination Sequence:
#
# PCOD8201779 Si02
#       7
#     8   2   2   8   4   8   8
#     4  11  23  36  60  91 117 162 199 254 315 365
#     4   8  16  36  54  82 110 148 188 234 284 346
#     4   8  20  42  66  84 126 162 214 262 300 398
#     4  10  21  41  62  92 118 161 208 259 315 376
#     4  12  21  35  70  95 115 158 214 258 320 379
#     4  11  23  39  57  89 129 153 199 266 316 368
#     4   9  20  35  56  83 119 154 200 242 284 366
#
# _framework density 19.001774999999999
#
# number of rings (size 3 to 8) (size 9 to 14) (size 15 to 20)
#    0.600    1.400    4.000    0.600    2.800    3.600 
#    0.000    3.000    0.000    0.000    0.000    0.000 
#    0.000    0.000    0.000    0.000    0.000    0.000 
#
# Total GULP energy -495526.136116 kJ/mol
# GULP energy per Si atom -12388.153403 kJ/mol
# Density = 1.895853 g / cm^3
# Si number density = 19.001775 Si / 1000 Ang^3
#
#
#
# Elastic Constant Matrix: (Units=GPa)
#
#
# Indices 1 2 3 4 5 6 
#
# 1 86.8035 25.1339 31.7948 0.0000 0.0000 0.0000
# 2 25.1339 86.7272 43.7846 0.0000 0.0000 0.0000
# 3 31.7948 43.7846 126.5139 0.0000 0.0000 0.0000
# 4 0.0000 0.0000 0.0000 23.9957 0.0000 0.0000
# 5 0.0000 0.0000 0.0000 0.0000 29.1907 0.0000
# 6 0.0000 0.0000 0.0000 0.0000 0.0000 27.5134
#
#
#
# Elastic Compliance Matrix: (Units=1/GPa)
#
#
# Indices 1 2 3 4 5 6 
#
# 1 0.013154 -0.002597 -0.002407 0.000000 0.000000 0.000000
# 2 -0.002597 0.014484 -0.004360 0.000000 0.000000 0.000000
# 3 -0.002407 -0.004360 0.010018 0.000000 0.000000 0.000000
# 4 0.000000 0.000000 0.000000 0.041674 0.000000 0.000000
# 5 0.000000 0.000000 0.000000 0.000000 0.034257 0.000000
# 6 0.000000 0.000000 0.000000 0.000000 0.000000 0.036346
#
#
# Mechanical properties :
#
#
# Convention : Reuss Voigt Hill
#
# Bulk Modulus (GPa) = 52.83121 55.71903 54.27512
# Shear Modulus (GPa) = 28.57614 29.42873 29.00243
#
# Velocity S-wave (km/s) = 3.88218 3.93967 3.91103
# Velocity P-wave (km/s) = 6.92523 7.07682 7.00143
#
# Compressibility (1/GPa) = 0.01892821
#
# Stress axis : x y z
#
# Youngs Moduli (GPa) = 76.02342 69.04060 99.81849
#
# Poissons Ratio (x) = 0.17929 0.24027
# Poissons Ratio (y) = 0.19742 0.43522
# Poissons Ratio (z) = 0.18299 0.30103
#
# Static dielectric constant tensor:
#      x y z
#    x 3.308350 0.000000 0.000000 
#    y 0.000000 3.575060 0.000000 
#    z 0.000000 0.000000 3.464990 
# 
# 
# High freq. dielectric constant tensor:
#      x y z
#    x 1.747650 0.000000 0.000000 
#    y 0.000000 1.726210 0.000000 
#    z 0.000000 0.000000 1.727590 
# 
# From -- ./inp_files/32826.got.cif
#   From: 2010.06.25/outbox.cif.g09.slc.cpg/sg48_17_cif.got.tgz:32826.got - 2010.06.26 18:06:46.
