data_PCOD8201040
_publ_section_title
;
Structure prediction by ZEFSAII (Michael W. Deem and Ramdas Pophale) SiO2 
 PCOD8201040
Probable space group: P M M M
;
_chemical_formula_sum "Si O2"
_cell_formula_units_Z 64
_cell_length_a 10.079825
_cell_length_b 18.649006
_cell_length_c 23.635096
_cell_angle_alpha 90.000000
_cell_angle_beta 90.000000
_cell_angle_gamma 90.000000
_cell_volume 4442.895020
_symmetry_space_group_name_H-M "P M M M"
_symmetry_group_IT_number 47
_symmetry_cell_setting 'orthorhombic'
loop_
_space_group_symop_operation_xyz
x,y,z
-x,-y,z
x,-y,-z
-x,y,-z
-x,-y,-z
x,y,-z
-x,y,z
x,-y,z
loop_
_atom_site_type_symbol
_atom_site_label
_atom_site_fract_x
_atom_site_fract_y
_atom_site_fract_z
Si Si1 0.850411 0.268120 0.820178
Si Si2 0.851379 0.085177 0.562955
Si Si3 0.651750 0.159249 0.773435
Si Si4 0.151410 0.195057 0.936390
Si Si5 0.652030 0.083041 0.110958
Si Si6 0.651634 0.083974 0.343053
Si Si7 0.149568 0.579415 0.153683
Si Si8 0.643719 0.584476 0.938353
O O1 0.746732 0.227552 0.780650
O O2 0.819584 0.253923 0.887221
O O3 0.837926 0.353236 0.803676
O O4 0.000000 0.241978 0.806446
O O5 0.816719 0.114101 0.500000
O O6 0.745488 0.116120 0.607702
O O7 0.000000 0.109810 0.580131
O O8 0.843317 0.000000 0.562426
O O9 0.500000 0.186385 0.772784
O O10 0.675408 0.102443 0.823370
O O11 0.690792 0.121685 0.715163
O O12 0.249729 0.127911 0.928586
O O13 0.000000 0.167548 0.930882
O O14 0.175218 0.226766 0.000000
O O15 0.500000 0.099719 0.093559
O O16 0.685636 0.000000 0.102548
O O17 0.500000 0.099873 0.360236
O O18 0.675680 0.000000 0.334453
O O19 0.190977 0.500000 0.178381
O O20 0.239829 0.606338 0.102753
O O21 0.000000 0.574506 0.130614
O O22 0.500000 0.612284 0.915806
O O23 0.638560 0.500000 0.943970
O O24 0.671915 0.618424 0.000000
#
# Coordination Sequence:
#
# PCOD8201040 Si02
#       8
#     8   8   8   8   8   8   8   8
#     4   9  18  31  44  57  74  96 121 150 186 229
#     4   8  14  24  36  52  78 110 140 169 199 227
#     4   9  17  29  43  58  77 100 126 156 192 231
#     4   9  18  31  43  54  71  95 119 144 180 228
#     4   9  17  29  44  59  74  92 116 151 192 229
#     4   9  16  25  39  59  80 103 134 170 202 229
#     4   9  17  28  42  59  75  91 115 147 181 219
#     4   8  14  24  36  51  72  93 110 132 165 206
#
# _framework density 14.405022000000001
#
# number of rings (size 3 to 8) (size 9 to 14) (size 15 to 20)
#    0.000    3.250    0.000    1.125    0.000    4.250 
#    0.000    5.000    0.000    2.250    0.000    0.000 
#    0.000    0.000    0.000    0.000    0.000    0.625 
#
# Total GULP energy -792874.404088 kJ/mol
# GULP energy per Si atom -12388.662564 kJ/mol
# Density = 1.437224 g / cm^3
# Si number density = 14.405022 Si / 1000 Ang^3
#
#
#
# Elastic Constant Matrix: (Units=GPa)
#
#
# Indices 1 2 3 4 5 6 
#
# 1 71.2353 34.4375 40.6289 0.0000 0.0000 0.0000
# 2 34.4375 63.4695 17.6892 0.0000 0.0000 0.0000
# 3 40.6289 17.6892 71.1820 0.0000 0.0000 0.0000
# 4 0.0000 0.0000 0.0000 7.7063 0.0000 0.0000
# 5 0.0000 0.0000 0.0000 0.0000 23.6885 0.0000
# 6 0.0000 0.0000 0.0000 0.0000 0.0000 15.7878
#
#
#
# Elastic Compliance Matrix: (Units=1/GPa)
#
#
# Indices 1 2 3 4 5 6 
#
# 1 0.026305 -0.010839 -0.012321 0.000000 0.000000 0.000000
# 2 -0.010839 0.021394 0.000870 0.000000 0.000000 0.000000
# 3 -0.012321 0.000870 0.020865 0.000000 0.000000 0.000000
# 4 0.000000 0.000000 0.000000 0.129763 0.000000 0.000000
# 5 0.000000 0.000000 0.000000 0.000000 0.042215 0.000000
# 6 0.000000 0.000000 0.000000 0.000000 0.000000 0.063340
#
#
# Mechanical properties :
#
#
# Convention : Reuss Voigt Hill
#
# Bulk Modulus (GPa) = 41.69342 43.48865 42.59104
# Shear Modulus (GPa) = 14.02701 16.97862 15.50281
#
# Velocity S-wave (km/s) = 3.12390 3.43689 3.28412
# Velocity P-wave (km/s) = 6.48214 6.78270 6.63412
#
# Compressibility (1/GPa) = 0.02398460
#
# Stress axis : x y z
#
# Youngs Moduli (GPa) = 38.01585 46.74193 47.92803
#
# Poissons Ratio (x) = 0.50662 0.59050
# Poissons Ratio (y) = 0.41204 -0.04169
# Poissons Ratio (z) = 0.46838 -0.04066
#
# Static dielectric constant tensor:
#      x y z
#    x 3.081970 0.000000 0.000000 
#    y 0.000000 2.635620 0.000000 
#    z 0.000000 0.000000 2.683290 
# 
# 
# High freq. dielectric constant tensor:
#      x y z
#    x 1.565380 0.000000 0.000000 
#    y 0.000000 1.521930 0.000000 
#    z 0.000000 0.000000 1.512250 
# 
# From -- ./inp_files/30199.got.cif
#   From: 2010.03.12/outbox.cif.g09.slc.cpg/sg47_16_cif.got.tgz:30199.got - 2010.04.14 03:12:58.
