data_PCOD8201055
_publ_section_title
;
Structure prediction by ZEFSAII (Michael W. Deem and Ramdas Pophale) SiO2 
 PCOD8201055
Probable space group: P M M M
;
_chemical_formula_sum "Si O2"
_cell_formula_units_Z 40
_cell_length_a 29.556630
_cell_length_b 9.837601
_cell_length_c 7.760011
_cell_angle_alpha 90.000000
_cell_angle_beta 90.000000
_cell_angle_gamma 90.000000
_cell_volume 2256.349941
_symmetry_space_group_name_H-M "P M M M"
_symmetry_group_IT_number 47
_symmetry_cell_setting 'orthorhombic'
loop_
_space_group_symop_operation_xyz
x,y,z
-x,-y,z
x,-y,-z
-x,y,-z
-x,-y,-z
x,y,-z
-x,y,z
x,-y,z
loop_
_atom_site_type_symbol
_atom_site_label
_atom_site_fract_x
_atom_site_fract_y
_atom_site_fract_z
Si Si1 0.051046 0.337672 0.500000
Si Si2 0.887766 0.661791 0.808447
Si Si3 0.709750 0.153376 0.795162
Si Si4 0.449057 0.162446 0.000000
Si Si5 0.388086 0.161227 0.308690
Si Si6 0.787315 0.650966 0.204214
O O1 0.051753 0.500000 0.500000
O O2 0.076069 0.281429 0.670998
O O3 0.000000 0.281572 0.500000
O O4 0.889221 0.500000 0.815620
O O5 0.837409 0.705902 0.748161
O O6 0.899136 0.719523 0.000000
O O7 0.662439 0.215407 0.727890
O O8 0.750030 0.246298 0.719348
O O9 0.717148 0.000000 0.726589
O O10 0.709000 0.154755 0.000000
O O11 0.423570 0.219709 0.830371
O O12 0.500000 0.219796 0.000000
O O13 0.449353 0.000000 0.000000
O O14 0.403632 0.206337 0.500000
O O15 0.386844 0.000000 0.290447
O O16 0.779422 0.500000 0.282194
O O17 0.783062 0.643192 0.000000
#
# Coordination Sequence:
#
# PCOD8201055 Si02
#       6
#     4   8   8   4   8   8
#     4   9  16  24  36  56  79 105 139 173 208 255
#     4   8  14  25  38  52  76 108 136 167 210 253
#     4   9  15  25  42  61  84 115 146 176 212 253
#     4   9  16  26  40  58  81 111 147 181 214 257
#     4   9  16  26  39  56  82 113 141 173 215 258
#     4   8  14  25  41  60  84 115 146 175 212 256
#
# _framework density 17.727746
#
# number of rings (size 3 to 8) (size 9 to 14) (size 15 to 20)
#    0.000    3.400    1.000    1.200    0.000    0.800 
#    1.800    4.000    0.000    0.000    0.000    0.000 
#    0.000    3.200    0.000    9.600    0.000   10.000 
#
# Total GULP energy -495710.739543 kJ/mol
# GULP energy per Si atom -12392.768489 kJ/mol
# Density = 1.768740 g / cm^3
# Si number density = 17.727746 Si / 1000 Ang^3
#
#
#
# Elastic Constant Matrix: (Units=GPa)
#
#
# Indices 1 2 3 4 5 6 
#
# 1 178.2729 33.4494 78.8877 0.0000 0.0000 0.0000
# 2 33.4494 27.5169 14.7814 0.0000 0.0000 0.0000
# 3 78.8877 14.7814 105.5017 0.0000 0.0000 0.0000
# 4 0.0000 0.0000 0.0000 4.3591 0.0000 0.0000
# 5 0.0000 0.0000 0.0000 0.0000 15.7238 0.0000
# 6 0.0000 0.0000 0.0000 0.0000 0.0000 18.1611
#
#
#
# Elastic Compliance Matrix: (Units=1/GPa)
#
#
# Indices 1 2 3 4 5 6 
#
# 1 0.010043 -0.008839 -0.006271 0.000000 0.000000 0.000000
# 2 -0.008839 0.047079 0.000014 0.000000 0.000000 0.000000
# 3 -0.006271 0.000014 0.014166 0.000000 0.000000 0.000000
# 4 0.000000 0.000000 0.000000 0.229406 0.000000 0.000000
# 5 0.000000 0.000000 0.000000 0.000000 0.063598 0.000000
# 6 0.000000 0.000000 0.000000 0.000000 0.000000 0.055063
#
#
# Mechanical properties :
#
#
# Convention : Reuss Voigt Hill
#
# Bulk Modulus (GPa) = 24.33450 62.83648 43.58549
# Shear Modulus (GPa) = 10.79341 19.92701 15.36021
#
# Velocity S-wave (km/s) = 2.47015 3.35633 2.94675
# Velocity P-wave (km/s) = 4.67890 7.10930 6.01807
#
# Compressibility (1/GPa) = 0.04109393
#
# Stress axis : x y z
#
# Youngs Moduli (GPa) = 99.57254 21.24082 70.59302
#
# Poissons Ratio (x) = 0.18776 0.44269
# Poissons Ratio (y) = 0.88017 -0.00096
# Poissons Ratio (z) = 0.62442 -0.00029
#
# Static dielectric constant tensor:
#      x y z
#    x 3.534320 0.000000 0.000000 
#    y 0.000000 2.822500 0.000000 
#    z 0.000000 0.000000 3.376400 
# 
# 
# High freq. dielectric constant tensor:
#      x y z
#    x 1.690470 0.000000 0.000000 
#    y 0.000000 1.601580 0.000000 
#    z 0.000000 0.000000 1.686250 
# 
# From -- ./inp_files/4414.got.cif
#   From: 2010.03.12/outbox.cif.g09.slc.cpg/sg47_3_cif.got.tgz:4414.got - 2010.04.14 03:12:58.
