data_PCOD8201898
_publ_section_title
;
Structure prediction by ZEFSAII (Michael W. Deem and Ramdas Pophale) SiO2 
 PCOD8201898
Probable space group: P N N N
;
_chemical_formula_sum "Si O2"
_cell_formula_units_Z 60
_cell_length_a 17.957150
_cell_length_b 18.337183
_cell_length_c 7.543660
_cell_angle_alpha 90.000000
_cell_angle_beta 90.000000
_cell_angle_gamma 90.000000
_cell_volume 2484.003112
_symmetry_space_group_name_H-M "P N N N"
_symmetry_group_IT_number 48
_space_group.IT_coordinate_system_code '2'
_symmetry_cell_setting 'orthorhombic'
loop_
_space_group_symop_operation_xyz
x,y,z
1/2-x,1/2-y,z
x,1/2-y,1/2-z
1/2-x,y,1/2-z
-x,-y,-z
1/2+x,1/2+y,-z
-x,1/2+y,1/2+z
1/2+x,-y,1/2+z
loop_
_atom_site_type_symbol
_atom_site_label
_atom_site_fract_x
_atom_site_fract_y
_atom_site_fract_z
Si Si1 0.792041 0.053638 0.429864
Si Si2 0.419940 0.645799 0.650485
Si Si3 0.750000 0.343332 0.750000
Si Si4 0.037955 0.046694 0.237921
Si Si5 0.106805 0.793925 0.036137
Si Si6 0.665620 0.832555 0.205012
Si Si7 0.187807 0.411617 0.119884
Si Si8 0.018149 0.399644 0.650780
O O1 0.750000 0.073245 0.250000
O O2 0.877969 0.070938 0.395909
O O3 0.771577 0.106034 0.589435
O O4 0.778035 0.970078 0.481844
O O5 0.504147 0.615157 0.650830
O O6 0.411971 0.708531 0.501484
O O7 0.387506 0.670338 0.842072
O O8 0.682479 0.296129 0.843663
O O9 0.126010 0.047249 0.265397
O O10 0.991013 0.035493 0.715620
O O11 0.017470 0.064079 0.038737
O O12 0.039858 0.831454 0.149801
O O13 0.650412 0.750000 0.250000
O O14 0.750000 0.856784 0.250000
O O15 0.602958 0.878604 0.305827
O O16 0.656071 0.844069 0.993513
O O17 0.250000 0.380033 0.250000
#
# Coordination Sequence:
#
# PCOD8201898 Si02
#       8
#     8   8   4   8   8   8   8   8
#     4  12  25  43  72 103 155 197 253 317 375 449
#     4  10  23  44  67 104 152 210 248 317 388 448
#     4  12  24  45  68 112 150 207 262 302 374 471
#     4  10  23  43  74 107 146 195 259 312 379 458
#     4  10  23  43  71 106 155 204 259 309 382 466
#     4  11  26  48  72 104 145 191 247 314 393 447
#     4  12  26  45  73 111 146 193 258 318 383 467
#     4  10  22  45  74 105 149 199 247 321 379 454
#
# _framework density 24.15456
#
# number of rings (size 3 to 8) (size 9 to 14) (size 15 to 20)
#    0.000    1.200    2.000    2.800    1.867    5.867 
#    0.000    4.000    0.000    0.000    0.000    0.000 
#    0.000    0.000    0.000    0.000    0.000    0.000 
#
# Total GULP energy -743313.322024 kJ/mol
# GULP energy per Si atom -12388.555367 kJ/mol
# Density = 2.409958 g / cm^3
# Si number density = 24.154560 Si / 1000 Ang^3
#
#
#
# Elastic Constant Matrix: (Units=GPa)
#
#
# Indices 1 2 3 4 5 6 
#
# 1 153.0333 49.2423 30.6610 0.0000 0.0000 0.0000
# 2 49.2423 134.3647 47.9062 0.0000 0.0000 0.0000
# 3 30.6610 47.9062 83.0012 0.0000 0.0000 0.0000
# 4 0.0000 0.0000 0.0000 44.2719 0.0000 0.0000
# 5 0.0000 0.0000 0.0000 0.0000 38.6890 0.0000
# 6 0.0000 0.0000 0.0000 0.0000 0.0000 31.3977
#
#
#
# Elastic Compliance Matrix: (Units=1/GPa)
#
#
# Indices 1 2 3 4 5 6 
#
# 1 0.007554 -0.002233 -0.001502 0.000000 0.000000 0.000000
# 2 -0.002233 0.010031 -0.004965 0.000000 0.000000 0.000000
# 3 -0.001502 -0.004965 0.015468 0.000000 0.000000 0.000000
# 4 0.000000 0.000000 0.000000 0.022588 0.000000 0.000000
# 5 0.000000 0.000000 0.000000 0.000000 0.025847 0.000000
# 6 0.000000 0.000000 0.000000 0.000000 0.000000 0.031849
#
#
# Mechanical properties :
#
#
# Convention : Reuss Voigt Hill
#
# Bulk Modulus (GPa) = 63.87980 69.55757 66.71869
# Shear Modulus (GPa) = 36.77712 39.04436 37.91074
#
# Velocity S-wave (km/s) = 3.90625 4.02486 3.96600
# Velocity P-wave (km/s) = 6.84461 7.10343 6.97522
#
# Compressibility (1/GPa) = 0.01565440
#
# Stress axis : x y z
#
# Youngs Moduli (GPa) = 132.38189 99.69195 64.64860
#
# Poissons Ratio (x) = 0.22261 0.09708
# Poissons Ratio (y) = 0.29561 0.32096
# Poissons Ratio (z) = 0.19879 0.49494
#
# Static dielectric constant tensor:
#      x y z
#    x 4.347870 0.000000 0.000000 
#    y 0.000000 4.477210 0.000000 
#    z 0.000000 0.000000 4.542950 
# 
# 
# High freq. dielectric constant tensor:
#      x y z
#    x 1.959700 0.000000 0.000000 
#    y 0.000000 1.963580 0.000000 
#    z 0.000000 0.000000 1.973360 
# 
# From -- ./inp_files/5390.got.cif
#   From: 2010.06.25/outbox.cif.g09.slc.cpg/sg48_3_cif.got.tgz:5390.got - 2010.06.26 18:06:46.
