data_PCOD8201565
_publ_section_title
;
Structure prediction by ZEFSAII (Michael W. Deem and Ramdas Pophale) SiO2 
 PCOD8201565
Probable space group: P N N N
;
_chemical_formula_sum "Si O2"
_cell_formula_units_Z 56
_cell_length_a 20.297776
_cell_length_b 9.865450
_cell_length_c 13.805624
_cell_angle_alpha 90.000000
_cell_angle_beta 90.000000
_cell_angle_gamma 90.000000
_cell_volume 2764.530568
_symmetry_space_group_name_H-M "P N N N"
_symmetry_group_IT_number 48
_space_group.IT_coordinate_system_code '2'
_symmetry_cell_setting 'orthorhombic'
loop_
_space_group_symop_operation_xyz
x,y,z
1/2-x,1/2-y,z
x,1/2-y,1/2-z
1/2-x,y,1/2-z
-x,-y,-z
1/2+x,1/2+y,-z
-x,1/2+y,1/2+z
1/2+x,-y,1/2+z
loop_
_atom_site_type_symbol
_atom_site_label
_atom_site_fract_x
_atom_site_fract_y
_atom_site_fract_z
Si Si1 0.112737 0.208789 0.924392
Si Si2 0.914515 0.503178 0.582283
Si Si3 0.764712 0.505171 0.637674
Si Si4 0.555700 0.001621 0.080278
Si Si5 0.046384 0.506545 0.698797
Si Si6 0.386125 0.710895 0.932773
Si Si7 0.250000 0.250000 0.006634
Si Si8 0.250000 0.750000 0.480926
O O1 0.097445 0.366115 0.926538
O O2 0.087783 0.130011 0.827930
O O3 0.191529 0.200009 0.936126
O O4 0.077593 0.134516 0.014241
O O5 0.843958 0.504086 0.633362
O O6 0.923472 0.366668 0.519516
O O7 0.973346 0.507150 0.656937
O O8 0.750000 0.518474 0.750000
O O9 0.731153 0.627421 0.578366
O O10 0.731227 0.371973 0.591588
O O11 0.528977 0.013158 0.188706
O O12 0.600950 0.130599 0.061427
O O13 0.500000 0.000000 0.000000
O O14 0.089881 0.637612 0.666301
O O15 0.307797 0.697681 0.948164
#
# Coordination Sequence:
#
# PCOD8201565 Si02
#       8
#     8   8   8   8   8   8   4   4
#     4  10  21  39  60  84 115 151 193 238 289 350
#     4   9  20  39  62  81 115 160 191 229 290 356
#     4  10  20  36  58  89 121 155 198 241 291 356
#     4  12  24  37  57  87 116 143 188 248 292 339
#     4  11  22  40  59  83 114 156 197 234 292 359
#     4  10  21  39  60  84 115 151 193 238 289 350
#     4  10  21  38  59  82 116 156 194 246 296 336
#     4  10  21  38  59  82 116 156 194 246 296 336
#
# _framework density 20.256603999999999
#
# number of rings (size 3 to 8) (size 9 to 14) (size 15 to 20)
#    0.000    1.714    0.000    6.429    0.000    2.286 
#    0.000   10.000    0.000    0.000    0.000    0.000 
#    0.000    0.000    0.000    0.000    0.000    0.000 
#
# Total GULP energy -694229.658651 kJ/mol
# GULP energy per Si atom -12396.958190 kJ/mol
# Density = 2.021050 g / cm^3
# Si number density = 20.256604 Si / 1000 Ang^3
#
#
#
# Elastic Constant Matrix: (Units=GPa)
#
#
# Indices 1 2 3 4 5 6 
#
# 1 84.6842 9.2507 41.5228 0.0000 0.0000 0.0000
# 2 9.2507 117.3367 -5.1139 0.0000 0.0000 0.0000
# 3 41.5228 -5.1139 95.3303 0.0000 0.0000 0.0000
# 4 0.0000 0.0000 0.0000 20.0702 0.0000 0.0000
# 5 0.0000 0.0000 0.0000 0.0000 24.1528 0.0000
# 6 0.0000 0.0000 0.0000 0.0000 0.0000 20.2007
#
#
#
# Elastic Compliance Matrix: (Units=1/GPa)
#
#
# Indices 1 2 3 4 5 6 
#
# 1 0.015274 -0.001498 -0.006733 0.000000 0.000000 0.000000
# 2 -0.001498 0.008689 0.001118 0.000000 0.000000 0.000000
# 3 -0.006733 0.001118 0.013483 0.000000 0.000000 0.000000
# 4 0.000000 0.000000 0.000000 0.049825 0.000000 0.000000
# 5 0.000000 0.000000 0.000000 0.000000 0.041403 0.000000
# 6 0.000000 0.000000 0.000000 0.000000 0.000000 0.049503
#
#
# Mechanical properties :
#
#
# Convention : Reuss Voigt Hill
#
# Bulk Modulus (GPa) = 43.06440 43.18559 43.12499
# Shear Modulus (GPa) = 24.98235 29.66419 27.32327
#
# Velocity S-wave (km/s) = 3.51564 3.83093 3.67666
# Velocity P-wave (km/s) = 6.14697 6.39793 6.27371
#
# Compressibility (1/GPa) = 0.02322104
#
# Stress axis : x y z
#
# Youngs Moduli (GPa) = 65.47274 115.08407 74.17019
#
# Poissons Ratio (x) = 0.17235 0.49939
# Poissons Ratio (y) = 0.09805 -0.08295
# Poissons Ratio (z) = 0.44083 -0.12871
#
# Static dielectric constant tensor:
#      x y z
#    x 3.563690 0.000000 0.000000 
#    y 0.000000 3.989750 0.000000 
#    z 0.000000 0.000000 3.601740 
# 
# 
# High freq. dielectric constant tensor:
#      x y z
#    x 1.787210 0.000000 0.000000 
#    y 0.000000 1.811640 0.000000 
#    z 0.000000 0.000000 1.781550 
# 
# From -- ./inp_files/13158.got.cif
#   From: 2010.06.25/outbox.cif.g09.slc.cpg/sg48_7_cif.got.tgz:13158.got - 2010.06.26 18:06:46.
