data_PCOD8201019
_publ_section_title
;
Structure prediction by ZEFSAII (Michael W. Deem and Ramdas Pophale) SiO2 
 PCOD8201019
Probable space group: P M M M
;
_chemical_formula_sum "Si O2"
_cell_formula_units_Z 64
_cell_length_a 28.611295
_cell_length_b 9.717728
_cell_length_c 13.802280
_cell_angle_alpha 90.000000
_cell_angle_beta 90.000000
_cell_angle_gamma 90.000000
_cell_volume 3837.541523
_symmetry_space_group_name_H-M "P M M M"
_symmetry_group_IT_number 47
_symmetry_cell_setting 'orthorhombic'
loop_
_space_group_symop_operation_xyz
x,y,z
-x,-y,z
x,-y,-z
-x,y,-z
-x,-y,-z
x,y,-z
-x,y,z
x,-y,z
loop_
_atom_site_type_symbol
_atom_site_label
_atom_site_fract_x
_atom_site_fract_y
_atom_site_fract_z
Si Si1 0.637477 0.659918 0.767070
Si Si2 0.270506 0.658541 0.887824
Si Si3 0.447995 0.336754 0.891922
Si Si4 0.859125 0.837991 0.605959
Si Si5 0.225318 0.840326 0.732997
Si Si6 0.947105 0.159603 0.277256
Si Si7 0.317381 0.841619 0.387831
Si Si8 0.055454 0.652765 0.893792
O O1 0.633534 0.500000 0.737885
O O2 0.677940 0.683570 0.845833
O O3 0.589976 0.718397 0.815414
O O4 0.645999 0.746673 0.669674
O O5 0.255551 0.500000 0.875381
O O6 0.233761 0.752802 0.830095
O O7 0.270412 0.702530 0.000000
O O8 0.500000 0.291761 0.858030
O O9 0.444071 0.500000 0.896487
O O10 0.437977 0.278217 0.000000
O O11 0.850623 0.771577 0.500000
O O12 0.822026 0.781493 0.683968
O O13 0.912582 0.804077 0.634901
O O14 0.851195 0.000000 0.599305
O O15 0.265842 0.817371 0.654299
O O16 0.221169 0.000000 0.762942
O O17 0.926625 0.238135 0.184047
O O18 0.000000 0.205185 0.305271
O O19 0.945610 0.000000 0.250560
O O20 0.317305 0.797543 0.500000
O O21 0.332568 0.000000 0.375461
O O22 0.072574 0.500000 0.864389
O O23 0.000000 0.656518 0.897648
O O24 0.075476 0.691802 0.000000
#
# Coordination Sequence:
#
# PCOD8201019 Si02
#       8
#     8   8   8   8   8   8   8   8
#     4   9  16  26  43  67  91 115 146 182 217 255
#     4   9  17  29  45  66  94 123 144 168 211 263
#     4   8  13  22  39  64  91 117 146 180 216 255
#     4   9  17  30  48  67  87 112 141 174 213 256
#     4   9  17  30  48  67  85 110 146 181 211 248
#     4   9  17  28  44  68  92 111 136 172 211 250
#     4   9  17  29  45  64  85 110 143 183 223 261
#     4   8  14  26  44  63  83 110 141 169 200 240
#
# _framework density 16.677344000000002
#
# number of rings (size 3 to 8) (size 9 to 14) (size 15 to 20)
#    0.000    3.250    0.000    1.500    0.000    4.000 
#    0.000    3.750    0.000    7.875    0.000    5.250 
#    0.000    0.000    0.000    0.000    0.000    0.000 
#
# Total GULP energy -793272.218276 kJ/mol
# GULP energy per Si atom -12394.878411 kJ/mol
# Density = 1.663939 g / cm^3
# Si number density = 16.677344 Si / 1000 Ang^3
#
#
#
# Elastic Constant Matrix: (Units=GPa)
#
#
# Indices 1 2 3 4 5 6 
#
# 1 89.1619 32.3435 54.5471 0.0000 0.0000 0.0000
# 2 32.3435 45.8918 50.3838 0.0000 0.0000 0.0000
# 3 54.5471 50.3838 132.4108 0.0000 0.0000 0.0000
# 4 0.0000 0.0000 0.0000 21.9229 0.0000 0.0000
# 5 0.0000 0.0000 0.0000 0.0000 23.7773 0.0000
# 6 0.0000 0.0000 0.0000 0.0000 0.0000 15.1645
#
#
#
# Elastic Compliance Matrix: (Units=1/GPa)
#
#
# Indices 1 2 3 4 5 6 
#
# 1 0.016216 -0.007033 -0.004004 0.000000 0.000000 0.000000
# 2 -0.007033 0.040475 -0.012504 0.000000 0.000000 0.000000
# 3 -0.004004 -0.012504 0.013960 0.000000 0.000000 0.000000
# 4 0.000000 0.000000 0.000000 0.045614 0.000000 0.000000
# 5 0.000000 0.000000 0.000000 0.000000 0.042057 0.000000
# 6 0.000000 0.000000 0.000000 0.000000 0.000000 0.065943
#
#
# Mechanical properties :
#
#
# Convention : Reuss Voigt Hill
#
# Bulk Modulus (GPa) = 42.42877 60.22371 51.32624
# Shear Modulus (GPa) = 17.90807 20.85229 19.38018
#
# Velocity S-wave (km/s) = 3.28044 3.53985 3.41261
# Velocity P-wave (km/s) = 6.31225 7.27302 6.80960
#
# Compressibility (1/GPa) = 0.02356892
#
# Stress axis : x y z
#
# Youngs Moduli (GPa) = 61.66578 24.70686 71.63430
#
# Poissons Ratio (x) = 0.17375 0.28686
# Poissons Ratio (y) = 0.43367 0.89571
# Poissons Ratio (z) = 0.24694 0.30893
#
# Static dielectric constant tensor:
#      x y z
#    x 3.121070 0.000000 0.000000 
#    y 0.000000 2.969160 0.000000 
#    z 0.000000 0.000000 3.272360 
# 
# 
# High freq. dielectric constant tensor:
#      x y z
#    x 1.629020 0.000000 0.000000 
#    y 0.000000 1.613500 0.000000 
#    z 0.000000 0.000000 1.640960 
# 
# From -- ./inp_files/16878.got.cif
#   From: 2010.03.12/outbox.cif.g09.slc.cpg/sg47_9_cif.got.tgz:16878.got - 2010.04.14 03:12:58.
