data_PCOD8201463
_publ_section_title
;
Structure prediction by ZEFSAII (Michael W. Deem and Ramdas Pophale) SiO2 
 PCOD8201463
Probable space group: P N N N
;
_chemical_formula_sum "Si O2"
_cell_formula_units_Z 56
_cell_length_a 15.375533
_cell_length_b 11.495025
_cell_length_c 14.461441
_cell_angle_alpha 90.000000
_cell_angle_beta 90.000000
_cell_angle_gamma 90.000000
_cell_volume 2555.945975
_symmetry_space_group_name_H-M "P N N N"
_symmetry_group_IT_number 48
_space_group.IT_coordinate_system_code '2'
_symmetry_cell_setting 'orthorhombic'
loop_
_space_group_symop_operation_xyz
x,y,z
1/2-x,1/2-y,z
x,1/2-y,1/2-z
1/2-x,y,1/2-z
-x,-y,-z
1/2+x,1/2+y,-z
-x,1/2+y,1/2+z
1/2+x,-y,1/2+z
loop_
_atom_site_type_symbol
_atom_site_label
_atom_site_fract_x
_atom_site_fract_y
_atom_site_fract_z
Si Si1 0.945836 0.194025 0.393108
Si Si2 0.446759 0.125660 0.602778
Si Si3 0.806364 0.424713 0.992744
Si Si4 0.513575 0.501080 0.279502
Si Si5 0.604520 0.094779 0.490523
Si Si6 0.843043 0.122098 0.712945
Si Si7 0.085069 0.369914 0.954435
O O1 0.933004 0.334087 0.399941
O O2 0.024260 0.152123 0.458162
O O3 0.852671 0.146337 0.426410
O O4 0.966694 0.138684 0.290744
O O5 0.428378 0.066031 0.702123
O O6 0.550531 0.141563 0.580413
O O7 0.394043 0.246695 0.595636
O O8 0.410905 0.041639 0.522989
O O9 0.844733 0.376906 0.897411
O O10 0.705886 0.390081 0.992571
O O11 0.827829 0.562652 0.009895
O O12 0.413572 0.527377 0.253060
O O13 0.534569 0.551582 0.380571
O O14 0.868055 0.250000 0.750000
O O15 0.750000 0.079751 0.750000
#
# Coordination Sequence:
#
# PCOD8201463 Si02
#       7
#     8   8   8   8   8   8   8
#     4  10  20  36  59  84 124 166 199 240 316 384
#     4  10  22  38  58  83 117 163 214 257 305 375
#     4  11  20  36  58  88 125 155 200 257 320 385
#     4  11  19  36  59  88 120 156 201 255 310 377
#     4  10  23  38  56  85 117 166 211 257 312 374
#     4  11  22  29  53  98 128 152 186 263 339 377
#     4  10  19  37  60  86 122 163 201 247 321 381
#
# _framework density 21.909697999999999
#
# number of rings (size 3 to 8) (size 9 to 14) (size 15 to 20)
#    0.000    1.571    2.857    3.429    6.000    1.143 
#    0.000    2.857    0.000    6.857    0.000    0.000 
#    0.000    0.000    0.000    0.000    0.000    0.000 
#
# Total GULP energy -693883.004707 kJ/mol
# GULP energy per Si atom -12390.767941 kJ/mol
# Density = 2.185983 g / cm^3
# Si number density = 21.909698 Si / 1000 Ang^3
#
#
#
# Elastic Constant Matrix: (Units=GPa)
#
#
# Indices 1 2 3 4 5 6 
#
# 1 61.9177 27.5110 13.2274 0.0000 0.0000 0.0000
# 2 27.5110 132.1052 20.0654 0.0000 0.0000 0.0000
# 3 13.2274 20.0654 60.9014 0.0000 0.0000 0.0000
# 4 0.0000 0.0000 0.0000 38.8500 0.0000 0.0000
# 5 0.0000 0.0000 0.0000 0.0000 17.5623 0.0000
# 6 0.0000 0.0000 0.0000 0.0000 0.0000 27.6438
#
#
#
# Elastic Compliance Matrix: (Units=1/GPa)
#
#
# Indices 1 2 3 4 5 6 
#
# 1 0.018257 -0.003368 -0.002856 0.000000 0.000000 0.000000
# 2 -0.003368 0.008590 -0.002099 0.000000 0.000000 0.000000
# 3 -0.002856 -0.002099 0.017732 0.000000 0.000000 0.000000
# 4 0.000000 0.000000 0.000000 0.025740 0.000000 0.000000
# 5 0.000000 0.000000 0.000000 0.000000 0.056940 0.000000
# 6 0.000000 0.000000 0.000000 0.000000 0.000000 0.036174
#
#
# Mechanical properties :
#
#
# Convention : Reuss Voigt Hill
#
# Bulk Modulus (GPa) = 35.79899 41.83687 38.81793
# Shear Modulus (GPa) = 26.40064 29.75260 28.07662
#
# Velocity S-wave (km/s) = 3.47504 3.68906 3.58365
# Velocity P-wave (km/s) = 5.69877 6.10591 5.90585
#
# Compressibility (1/GPa) = 0.02793375
#
# Stress axis : x y z
#
# Youngs Moduli (GPa) = 54.77322 116.41541 56.39642
#
# Poissons Ratio (x) = 0.39212 0.16104
# Poissons Ratio (y) = 0.18449 0.11835
# Poissons Ratio (z) = 0.15641 0.24431
#
# Static dielectric constant tensor:
#      x y z
#    x 3.780880 0.000000 0.000000 
#    y 0.000000 4.399620 0.000000 
#    z 0.000000 0.000000 3.872660 
# 
# 
# High freq. dielectric constant tensor:
#      x y z
#    x 1.834550 0.000000 0.000000 
#    y 0.000000 1.871040 0.000000 
#    z 0.000000 0.000000 1.852800 
# 
# From -- ./inp_files/26528.got.cif
#   From: 2010.06.25/outbox.cif.g09.slc.cpg/sg48_14_cif.got.tgz:26528.got - 2010.06.26 18:06:46.
