data_PCOD8201685
_publ_section_title
;
Structure prediction by ZEFSAII (Michael W. Deem and Ramdas Pophale) SiO2 
 PCOD8201685
Probable space group: P N N N
;
_chemical_formula_sum "Si O2"
_cell_formula_units_Z 48
_cell_length_a 29.282558
_cell_length_b 9.111908
_cell_length_c 9.404846
_cell_angle_alpha 90.000000
_cell_angle_beta 90.000000
_cell_angle_gamma 90.000000
_cell_volume 2509.400770
_symmetry_space_group_name_H-M "P N N N"
_symmetry_group_IT_number 48
_space_group.IT_coordinate_system_code '2'
_symmetry_cell_setting 'orthorhombic'
loop_
_space_group_symop_operation_xyz
x,y,z
1/2-x,1/2-y,z
x,1/2-y,1/2-z
1/2-x,y,1/2-z
-x,-y,-z
1/2+x,1/2+y,-z
-x,1/2+y,1/2+z
1/2+x,-y,1/2+z
loop_
_atom_site_type_symbol
_atom_site_label
_atom_site_fract_x
_atom_site_fract_y
_atom_site_fract_z
Si Si1 0.333878 0.904998 0.437475
Si Si2 0.522786 0.916147 0.218595
Si Si3 0.251936 0.083633 0.080687
Si Si4 0.579508 0.149716 0.382759
Si Si5 0.440889 0.925121 0.046035
Si Si6 0.160720 0.570693 0.117429
O O1 0.375923 0.926121 0.547000
O O2 0.345471 0.970940 0.283022
O O3 0.322827 0.735307 0.412773
O O4 0.288758 0.990419 0.493887
O O5 0.537056 0.750000 0.250000
O O6 0.467517 0.934741 0.198248
O O7 0.543402 0.024358 0.337373
O O8 0.541025 0.953764 0.062355
O O9 0.250000 0.250000 0.028685
O O10 0.250000 0.065141 0.250000
O O11 0.301821 0.026474 0.035439
O O12 0.595658 0.250000 0.250000
O O13 0.553214 0.256053 0.492958
O O14 0.387993 0.962813 0.052131
#
# Coordination Sequence:
#
# PCOD8201685 Si02
#       6
#     8   8   8   8   8   8
#     4   9  17  30  53  80  99 139 177 211 264 319
#     4  10  21  35  55  75 106 144 178 226 271 317
#     4   9  17  29  48  76 113 134 158 211 271 315
#     4   9  19  36  55  76 107 141 179 226 263 318
#     4   9  20  37  53  77 106 141 182 222 267 314
#     4   9  17  31  53  76 104 136 177 219 254 319
#
# _framework density 19.128074000000002
#
# number of rings (size 3 to 8) (size 9 to 14) (size 15 to 20)
#    0.000    2.833    0.000    0.500    4.667    4.000 
#    0.000    0.000   18.333   17.000    0.000   11.667 
#    0.000    0.000    0.000    0.000    0.000    0.000 
#
# Total GULP energy -594841.645279 kJ/mol
# GULP energy per Si atom -12392.534277 kJ/mol
# Density = 1.908454 g / cm^3
# Si number density = 19.128074 Si / 1000 Ang^3
#
#
#
# Elastic Constant Matrix: (Units=GPa)
#
#
# Indices 1 2 3 4 5 6 
#
# 1 152.3234 83.5097 44.4735 0.0000 0.0000 0.0000
# 2 83.5097 102.5155 30.6523 0.0000 0.0000 0.0000
# 3 44.4735 30.6523 47.9715 0.0000 0.0000 0.0000
# 4 0.0000 0.0000 0.0000 21.4473 0.0000 0.0000
# 5 0.0000 0.0000 0.0000 0.0000 26.3882 0.0000
# 6 0.0000 0.0000 0.0000 0.0000 0.0000 23.6691
#
#
#
# Elastic Compliance Matrix: (Units=1/GPa)
#
#
# Indices 1 2 3 4 5 6 
#
# 1 0.013424 -0.008918 -0.006747 0.000000 0.000000 0.000000
# 2 -0.008918 0.017983 -0.003223 0.000000 0.000000 0.000000
# 3 -0.006747 -0.003223 0.029160 0.000000 0.000000 0.000000
# 4 0.000000 0.000000 0.000000 0.046626 0.000000 0.000000
# 5 0.000000 0.000000 0.000000 0.000000 0.037896 0.000000
# 6 0.000000 0.000000 0.000000 0.000000 0.000000 0.042249
#
#
# Mechanical properties :
#
#
# Convention : Reuss Voigt Hill
#
# Bulk Modulus (GPa) = 43.87602 68.89794 56.38698
# Shear Modulus (GPa) = 21.48595 23.91256 22.69926
#
# Velocity S-wave (km/s) = 3.35515 3.53955 3.44859
# Velocity P-wave (km/s) = 6.16419 7.26650 6.73793
#
# Compressibility (1/GPa) = 0.02279149
#
# Stress axis : x y z
#
# Youngs Moduli (GPa) = 74.49322 55.60850 34.29370
#
# Poissons Ratio (x) = 0.49591 0.23138
# Poissons Ratio (y) = 0.66433 0.11052
# Poissons Ratio (z) = 0.50260 0.17921
#
# Static dielectric constant tensor:
#      x y z
#    x 3.680940 0.000000 0.000000 
#    y 0.000000 3.444920 0.000000 
#    z 0.000000 0.000000 3.349870 
# 
# 
# High freq. dielectric constant tensor:
#      x y z
#    x 1.752640 0.000000 0.000000 
#    y 0.000000 1.735660 0.000000 
#    z 0.000000 0.000000 1.712380 
# 
# From -- ./inp_files/9466.got.cif
#   From: 2010.06.25/outbox.cif.g09.slc.cpg/sg48_5_cif.got.tgz:9466.got - 2010.06.26 18:06:46.
