data_PCOD8201302
_publ_section_title
;
Structure prediction by ZEFSAII (Michael W. Deem and Ramdas Pophale) SiO2 
 PCOD8201302
Probable space group: P N N N
;
_chemical_formula_sum "Si O2"
_cell_formula_units_Z 40
_cell_length_a 10.069595
_cell_length_b 8.683426
_cell_length_c 23.356688
_cell_angle_alpha 90.000000
_cell_angle_beta 90.000000
_cell_angle_gamma 90.000000
_cell_volume 2042.275703
_symmetry_space_group_name_H-M "P N N N"
_symmetry_group_IT_number 48
_space_group.IT_coordinate_system_code '2'
_symmetry_cell_setting 'orthorhombic'
loop_
_space_group_symop_operation_xyz
x,y,z
1/2-x,1/2-y,z
x,1/2-y,1/2-z
1/2-x,y,1/2-z
-x,-y,-z
1/2+x,1/2+y,-z
-x,1/2+y,1/2+z
1/2+x,-y,1/2+z
loop_
_atom_site_type_symbol
_atom_site_label
_atom_site_fract_x
_atom_site_fract_y
_atom_site_fract_z
Si Si1 0.082699 0.919171 0.813136
Si Si2 0.712090 0.425295 0.013316
Si Si3 0.625591 0.647343 0.412845
Si Si4 0.023657 0.941729 0.080093
Si Si5 0.393711 0.928823 0.815812
O O1 0.236895 0.930979 0.829354
O O2 0.043115 0.740690 0.822116
O O3 0.068596 0.981293 0.748296
O O4 0.984675 0.023732 0.851903
O O5 0.750000 0.250000 0.020506
O O6 0.669885 0.467483 0.947520
O O7 0.829196 0.538696 0.034324
O O8 0.581677 0.442471 0.052159
O O9 0.750000 0.750000 0.389587
O O10 0.513309 0.764412 0.434722
O O11 0.553101 0.549084 0.362707
#
# Coordination Sequence:
#
# PCOD8201302 Si02
#       5
#     8   8   8   8   8
#     4   9  16  28  46  70  99 134 156 187 254 310
#     4  10  20  34  49  65 100 140 169 209 248 294
#     4  10  18  30  47  73  99 129 169 203 248 293
#     4  10  20  32  48  73 101 132 173 206 248 307
#     4   9  16  27  47  70 100 133 152 194 252 309
#
# _framework density 19.585995
#
# number of rings (size 3 to 8) (size 9 to 14) (size 15 to 20)
#    0.000    2.400    4.000    2.400    0.000    1.600 
#    0.000    4.000    0.000    0.000    0.000    2.800 
#    0.000    6.400    0.000    0.000    0.000    0.000 
#
# Total GULP energy -495642.420545 kJ/mol
# GULP energy per Si atom -12391.060514 kJ/mol
# Density = 1.954142 g / cm^3
# Si number density = 19.585995 Si / 1000 Ang^3
#
#
#
# Elastic Constant Matrix: (Units=GPa)
#
#
# Indices 1 2 3 4 5 6 
#
# 1 23.6552 34.8800 39.4483 0.0000 0.0000 0.0000
# 2 34.8800 118.2879 69.6001 0.0000 0.0000 0.0000
# 3 39.4483 69.6001 131.3753 0.0000 0.0000 0.0000
# 4 0.0000 0.0000 0.0000 30.0893 0.0000 0.0000
# 5 0.0000 0.0000 0.0000 0.0000 22.6682 0.0000
# 6 0.0000 0.0000 0.0000 0.0000 0.0000 6.5491
#
#
#
# Elastic Compliance Matrix: (Units=1/GPa)
#
#
# Indices 1 2 3 4 5 6 
#
# 1 0.106280 -0.018251 -0.022244 0.000000 0.000000 0.000000
# 2 -0.018251 0.015417 -0.002687 0.000000 0.000000 0.000000
# 3 -0.022244 -0.002687 0.015715 0.000000 0.000000 0.000000
# 4 0.000000 0.000000 0.000000 0.033234 0.000000 0.000000
# 5 0.000000 0.000000 0.000000 0.000000 0.044115 0.000000
# 6 0.000000 0.000000 0.000000 0.000000 0.000000 0.152692
#
#
# Mechanical properties :
#
#
# Convention : Reuss Voigt Hill
#
# Bulk Modulus (GPa) = 19.58970 62.35279 40.97124
# Shear Modulus (GPa) = 10.61949 20.48734 15.55341
#
# Velocity S-wave (km/s) = 2.33104 3.23773 2.82105
# Velocity P-wave (km/s) = 4.15555 6.77360 5.61918
#
# Compressibility (1/GPa) = 0.05104724
#
# Stress axis : x y z
#
# Youngs Moduli (GPa) = 9.40911 64.86402 63.63475
#
# Poissons Ratio (x) = 1.18383 1.41548
# Poissons Ratio (y) = 0.17173 0.17101
# Poissons Ratio (z) = 0.20930 0.17431
#
# Static dielectric constant tensor:
#      x y z
#    x 3.023040 0.000000 0.000000 
#    y 0.000000 3.763800 0.000000 
#    z 0.000000 0.000000 3.794950 
# 
# 
# High freq. dielectric constant tensor:
#      x y z
#    x 1.685770 0.000000 0.000000 
#    y 0.000000 1.773430 0.000000 
#    z 0.000000 0.000000 1.764210 
# 
# From -- ./inp_files/25474.got.cif
#   From: 2010.06.25/outbox.cif.g09.slc.cpg/sg48_13_cif.got.tgz:25474.got - 2010.06.26 18:06:46.
