data_PCOD8201172
_publ_section_title
;
Structure prediction by ZEFSAII (Michael W. Deem and Ramdas Pophale) SiO2 
 PCOD8201172
Probable space group: P M M M
;
_chemical_formula_sum "Si O2"
_cell_formula_units_Z 36
_cell_length_a 20.747999
_cell_length_b 9.119183
_cell_length_c 11.836456
_cell_angle_alpha 90.000000
_cell_angle_beta 90.000000
_cell_angle_gamma 90.000000
_cell_volume 2239.514287
_symmetry_space_group_name_H-M "P M M M"
_symmetry_group_IT_number 47
_symmetry_cell_setting 'orthorhombic'
loop_
_space_group_symop_operation_xyz
x,y,z
-x,-y,z
x,-y,-z
-x,y,-z
-x,-y,-z
x,y,-z
-x,y,z
x,-y,z
loop_
_atom_site_type_symbol
_atom_site_label
_atom_site_fract_x
_atom_site_fract_y
_atom_site_fract_z
Si Si1 0.073421 0.825464 0.500000
Si Si2 0.000000 0.824932 0.126372
Si Si3 0.122116 0.825609 0.738025
Si Si4 0.500000 0.834227 0.134855
Si Si5 0.752951 0.827825 0.869194
Si Si6 0.375169 0.665156 0.134292
O O1 0.112639 0.769274 0.609669
O O2 0.000000 0.764221 0.500000
O O3 0.069714 0.000000 0.500000
O O4 0.936921 0.763286 0.188602
O O5 0.000000 0.000000 0.127528
O O6 0.000000 0.763052 0.000000
O O7 0.188645 0.768183 0.791909
O O8 0.121519 0.000000 0.742657
O O9 0.436930 0.751757 0.182381
O O10 0.500000 0.000000 0.181035
O O11 0.500000 0.833674 0.000000
O O12 0.689519 0.745525 0.825115
O O13 0.741352 0.000000 0.853339
O O14 0.768418 0.791609 0.000000
O O15 0.376080 0.500000 0.182152
O O16 0.378035 0.664380 0.000000
#
# Coordination Sequence:
#
# PCOD8201172 Si02
#       6
#     4   4   8   4   8   8
#     4   9  14  22  34  50  75 104 131 166 215 259
#     4   9  14  19  29  47  72 101 131 164 204 249
#     4   9  15  22  33  50  74 103 134 168 208 252
#     4   9  15  23  37  57  81 110 141 170 199 233
#     4   9  16  25  36  53  79 108 136 168 207 247
#     4   9  16  25  37  54  78 109 142 171 199 236
#
# _framework density 16.074912999999999
#
# number of rings (size 3 to 8) (size 9 to 14) (size 15 to 20)
#    0.000    3.000    1.111    1.667    0.000    6.667 
#    0.000    0.000    0.000    0.000    0.000    1.556 
#    0.000    6.222    0.000   10.444    0.000    5.111 
#
# Total GULP energy -446258.429252 kJ/mol
# GULP energy per Si atom -12396.067479 kJ/mol
# Density = 1.603833 g / cm^3
# Si number density = 16.074913 Si / 1000 Ang^3
#
#
#
# Elastic Constant Matrix: (Units=GPa)
#
#
# Indices 1 2 3 4 5 6 
#
# 1 178.5185 53.1332 61.4816 0.0000 0.0000 0.0000
# 2 53.1332 57.8843 20.2077 0.0000 0.0000 0.0000
# 3 61.4816 20.2077 86.8092 0.0000 0.0000 0.0000
# 4 0.0000 0.0000 0.0000 3.8501 0.0000 0.0000
# 5 0.0000 0.0000 0.0000 0.0000 7.0269 0.0000
# 6 0.0000 0.0000 0.0000 0.0000 0.0000 3.7885
#
#
#
# Elastic Compliance Matrix: (Units=1/GPa)
#
#
# Indices 1 2 3 4 5 6 
#
# 1 0.009378 -0.006846 -0.005048 0.000000 0.000000 0.000000
# 2 -0.006846 0.023801 -0.000692 0.000000 0.000000 0.000000
# 3 -0.005048 -0.000692 0.015256 0.000000 0.000000 0.000000
# 4 0.000000 0.000000 0.000000 0.259731 0.000000 0.000000
# 5 0.000000 0.000000 0.000000 0.000000 0.142310 0.000000
# 6 0.000000 0.000000 0.000000 0.000000 0.000000 0.263956
#
#
# Mechanical properties :
#
#
# Convention : Reuss Voigt Hill
#
# Bulk Modulus (GPa) = 42.98673 65.87298 54.42986
# Shear Modulus (GPa) = 6.69023 15.49242 11.09133
#
# Velocity S-wave (km/s) = 2.04229 3.10782 2.62959
# Velocity P-wave (km/s) = 5.68866 7.34478 6.56912
#
# Compressibility (1/GPa) = 0.02326299
#
# Stress axis : x y z
#
# Youngs Moduli (GPa) = 106.63563 42.01460 65.54843
#
# Poissons Ratio (x) = 0.28762 0.33090
# Poissons Ratio (y) = 0.72999 0.04537
# Poissons Ratio (z) = 0.53831 0.02908
#
# Static dielectric constant tensor:
#      x y z
#    x 3.250750 0.000000 0.000000 
#    y 0.000000 2.713000 0.000000 
#    z 0.000000 0.000000 2.827650 
# 
# 
# High freq. dielectric constant tensor:
#      x y z
#    x 1.631420 0.000000 0.000000 
#    y 0.000000 1.577760 0.000000 
#    z 0.000000 0.000000 1.570020 
# 
# From -- ./inp_files/16201.got.cif
#   From: 2010.03.12/outbox.cif.g09.slc.cpg/sg47_9_cif.got.tgz:16201.got - 2010.04.14 03:12:58.
