data_PCOD8201699
_publ_section_title
;
Structure prediction by ZEFSAII (Michael W. Deem and Ramdas Pophale) SiO2 
 PCOD8201699
Probable space group: P N N N
;
_chemical_formula_sum "Si O2"
_cell_formula_units_Z 44
_cell_length_a 8.383258
_cell_length_b 8.499737
_cell_length_c 27.654248
_cell_angle_alpha 90.000000
_cell_angle_beta 90.000000
_cell_angle_gamma 90.000000
_cell_volume 1970.516942
_symmetry_space_group_name_H-M "P N N N"
_symmetry_group_IT_number 48
_space_group.IT_coordinate_system_code '2'
_symmetry_cell_setting 'orthorhombic'
loop_
_space_group_symop_operation_xyz
x,y,z
1/2-x,1/2-y,z
x,1/2-y,1/2-z
1/2-x,y,1/2-z
-x,-y,-z
1/2+x,1/2+y,-z
-x,1/2+y,1/2+z
1/2+x,-y,1/2+z
loop_
_atom_site_type_symbol
_atom_site_label
_atom_site_fract_x
_atom_site_fract_y
_atom_site_fract_z
Si Si1 0.991863 0.163773 0.820478
Si Si2 0.473786 0.576916 0.071550
Si Si3 0.340771 0.507692 0.315710
Si Si4 0.250000 0.250000 0.750000
Si Si5 0.932981 0.268688 0.476018
Si Si6 0.659466 0.586354 0.581039
Si Si7 0.250000 0.250000 0.250000
O O1 0.032406 0.156629 0.878132
O O2 0.851119 0.037212 0.813487
O O3 0.933663 0.334934 0.801758
O O4 0.145559 0.135851 0.785953
O O5 0.551403 0.405150 0.064657
O O6 0.280256 0.555925 0.068348
O O7 0.522814 0.686910 0.026300
O O8 0.410219 0.453213 0.366793
O O9 0.369935 0.361003 0.280502
O O10 0.750000 0.250000 0.486880
O O11 0.013347 0.106266 0.456659
O O12 0.750000 0.750000 0.581934
#
# Coordination Sequence:
#
# PCOD8201699 Si02
#       7
#     8   8   8   2   8   8   2
#     4  10  23  43  66  88 126 170 218 265 323 398
#     4   9  21  41  59  89 128 174 214 262 321 399
#     4  10  21  39  67  93 117 169 220 261 320 392
#     4  12  24  42  60  92 124 154 212 282 328 372
#     4  10  21  36  61  95 129 166 216 271 327 382
#     4   9  18  37  59  87 125 162 210 264 312 384
#     4  12  20  34  68  96 112 146 224 282 308 360
#
# _framework density 22.329167000000002
#
# number of rings (size 3 to 8) (size 9 to 14) (size 15 to 20)
#    0.000    2.182    0.909    1.091    5.091    3.636 
#    8.182    0.000    0.000    2.182    0.000    0.000 
#    0.000    0.000    0.000    0.000    0.000    0.000 
#
# Total GULP energy -545220.432744 kJ/mol
# GULP energy per Si atom -12391.373471 kJ/mol
# Density = 2.227834 g / cm^3
# Si number density = 22.329167 Si / 1000 Ang^3
#
#
#
# Elastic Constant Matrix: (Units=GPa)
#
#
# Indices 1 2 3 4 5 6 
#
# 1 66.8718 11.2924 45.0616 0.0000 0.0000 0.0000
# 2 11.2924 75.0655 63.4261 0.0000 0.0000 0.0000
# 3 45.0616 63.4261 136.6949 0.0000 0.0000 0.0000
# 4 0.0000 0.0000 0.0000 42.0245 0.0000 0.0000
# 5 0.0000 0.0000 0.0000 0.0000 27.5284 0.0000
# 6 0.0000 0.0000 0.0000 0.0000 0.0000 8.2590
#
#
#
# Elastic Compliance Matrix: (Units=1/GPa)
#
#
# Indices 1 2 3 4 5 6 
#
# 1 0.020004 0.004215 -0.008550 0.000000 0.000000 0.000000
# 2 0.004215 0.022801 -0.011969 0.000000 0.000000 0.000000
# 3 -0.008550 -0.011969 0.015688 0.000000 0.000000 0.000000
# 4 0.000000 0.000000 0.000000 0.023796 0.000000 0.000000
# 5 0.000000 0.000000 0.000000 0.000000 0.036326 0.000000
# 6 0.000000 0.000000 0.000000 0.000000 0.000000 0.121080
#
#
# Mechanical properties :
#
#
# Convention : Reuss Voigt Hill
#
# Bulk Modulus (GPa) = 38.63370 57.57695 48.10533
# Shear Modulus (GPa) = 17.79803 26.15252 21.97527
#
# Velocity S-wave (km/s) = 2.82632 3.42603 3.14052
# Velocity P-wave (km/s) = 5.29058 6.44141 5.89415
#
# Compressibility (1/GPa) = 0.02588413
#
# Stress axis : x y z
#
# Youngs Moduli (GPa) = 49.99100 43.85827 63.74448
#
# Poissons Ratio (x) = -0.18486 0.54501
# Poissons Ratio (y) = -0.21071 0.76296
# Poissons Ratio (z) = 0.42742 0.52494
#
# Static dielectric constant tensor:
#      x y z
#    x 3.857360 0.000000 0.000000 
#    y 0.000000 3.942440 0.000000 
#    z 0.000000 0.000000 4.352230 
# 
# 
# High freq. dielectric constant tensor:
#      x y z
#    x 1.836820 0.000000 0.000000 
#    y 0.000000 1.869170 0.000000 
#    z 0.000000 0.000000 1.899730 
# 
# From -- ./inp_files/38639.got.cif
#   From: 2010.06.25/outbox.cif.g09.slc.cpg/sg48_20_cif.got.tgz:38639.got - 2010.06.26 18:06:46.
