data_PCOD8201411
_publ_section_title
;
Structure prediction by ZEFSAII (Michael W. Deem and Ramdas Pophale) SiO2 
 PCOD8201411
Probable space group: P N N N
;
_chemical_formula_sum "Si O2"
_cell_formula_units_Z 40
_cell_length_a 5.062648
_cell_length_b 12.689505
_cell_length_c 32.389753
_cell_angle_alpha 90.000000
_cell_angle_beta 90.000000
_cell_angle_gamma 90.000000
_cell_volume 2080.798613
_symmetry_space_group_name_H-M "P N N N"
_symmetry_group_IT_number 48
_space_group.IT_coordinate_system_code '2'
_symmetry_cell_setting 'orthorhombic'
loop_
_space_group_symop_operation_xyz
x,y,z
1/2-x,1/2-y,z
x,1/2-y,1/2-z
1/2-x,y,1/2-z
-x,-y,-z
1/2+x,1/2+y,-z
-x,1/2+y,1/2+z
1/2+x,-y,1/2+z
loop_
_atom_site_type_symbol
_atom_site_label
_atom_site_fract_x
_atom_site_fract_y
_atom_site_fract_z
Si Si1 0.489957 0.680625 0.026311
Si Si2 0.004183 0.819525 0.933992
Si Si3 0.001527 0.133719 0.731077
Si Si4 0.129936 0.363312 0.863228
Si Si5 0.897933 0.461132 0.600120
O O1 0.750000 0.750000 0.027939
O O2 0.515480 0.582494 0.057125
O O3 0.250000 0.750000 0.043200
O O4 0.424009 0.638907 0.980076
O O5 0.250000 0.750000 0.916276
O O6 0.750000 0.750000 0.938796
O O7 0.911106 0.912861 0.903658
O O8 0.000978 0.250000 0.750000
O O9 0.250000 0.070999 0.750000
O O10 0.005249 0.142711 0.682016
O O11 0.750000 0.072484 0.750000
O O12 0.250000 0.250000 0.878404
O O13 0.389379 0.436451 0.863867
O O14 0.893353 0.412226 0.891171
#
# Coordination Sequence:
#
# PCOD8201411 Si02
#       5
#     8   8   8   8   8
#     4  10  20  36  54  79 110 150 186 227 288 350
#     4  10  22  40  59  74 105 153 202 243 283 330
#     4  10  19  34  53  73 110 161 183 191 251 341
#     4  12  23  35  54  85 121 153 177 222 279 340
#     4  12  23  35  55  85 115 143 194 241 288 325
#
# _framework density 19.223388
#
# number of rings (size 3 to 8) (size 9 to 14) (size 15 to 20)
#    0.000    1.200    2.000    6.600    2.800    0.000 
#    0.000    8.000    0.000    0.000    0.000    0.000 
#    0.000   56.000    0.000    0.000    0.000    0.000 
#
# Total GULP energy -495562.016837 kJ/mol
# GULP energy per Si atom -12389.050421 kJ/mol
# Density = 1.917963 g / cm^3
# Si number density = 19.223388 Si / 1000 Ang^3
#
#
#
# Elastic Constant Matrix: (Units=GPa)
#
#
# Indices 1 2 3 4 5 6 
#
# 1 156.6893 33.4802 24.0775 0.0000 0.0000 0.0000
# 2 33.4802 76.6433 39.0449 0.0000 0.0000 0.0000
# 3 24.0775 39.0449 66.9806 0.0000 0.0000 0.0000
# 4 0.0000 0.0000 0.0000 14.2194 0.0000 0.0000
# 5 0.0000 0.0000 0.0000 0.0000 44.1286 0.0000
# 6 0.0000 0.0000 0.0000 0.0000 0.0000 23.1471
#
#
#
# Elastic Compliance Matrix: (Units=1/GPa)
#
#
# Indices 1 2 3 4 5 6 
#
# 1 0.007091 -0.002559 -0.001057 0.000000 0.000000 0.000000
# 2 -0.002559 0.019482 -0.010437 0.000000 0.000000 0.000000
# 3 -0.001057 -0.010437 0.021394 0.000000 0.000000 0.000000
# 4 0.000000 0.000000 0.000000 0.070326 0.000000 0.000000
# 5 0.000000 0.000000 0.000000 0.000000 0.022661 0.000000
# 6 0.000000 0.000000 0.000000 0.000000 0.000000 0.043202
#
#
# Mechanical properties :
#
#
# Convention : Reuss Voigt Hill
#
# Bulk Modulus (GPa) = 50.35055 54.83536 52.59295
# Shear Modulus (GPa) = 22.84319 29.87973 26.36146
#
# Velocity S-wave (km/s) = 3.45092 3.94679 3.70715
# Velocity P-wave (km/s) = 6.49058 7.02544 6.76330
#
# Compressibility (1/GPa) = 0.01986076
#
# Stress axis : x y z
#
# Youngs Moduli (GPa) = 141.01716 51.32885 46.74266
#
# Poissons Ratio (x) = 0.13135 0.04942
# Poissons Ratio (y) = 0.36087 0.48785
# Poissons Ratio (z) = 0.14911 0.53571
#
# Static dielectric constant tensor:
#      x y z
#    x 3.053210 0.000000 0.000000 
#    y 0.000000 3.054050 0.000000 
#    z 0.000000 0.000000 3.435640 
# 
# 
# High freq. dielectric constant tensor:
#      x y z
#    x 1.782470 0.000000 0.000000 
#    y 0.000000 1.697140 0.000000 
#    z 0.000000 0.000000 1.734010 
# 
# From -- ./inp_files/2570.got.cif
#   From: 2010.06.25/outbox.cif.g09.slc.cpg/sg48_2_cif.got.tgz:2570.got - 2010.06.26 18:06:46.
