data_PCOD8201936
_publ_section_title
;
Structure prediction by ZEFSAII (Michael W. Deem and Ramdas Pophale) SiO2 
 PCOD8201936
Probable space group: P N N N
;
_chemical_formula_sum "Si O2"
_cell_formula_units_Z 60
_cell_length_a 6.533307
_cell_length_b 22.589616
_cell_length_c 19.182018
_cell_angle_alpha 90.000000
_cell_angle_beta 90.000000
_cell_angle_gamma 90.000000
_cell_volume 2830.976138
_symmetry_space_group_name_H-M "P N N N"
_symmetry_group_IT_number 48
_space_group.IT_coordinate_system_code '2'
_symmetry_cell_setting 'orthorhombic'
loop_
_space_group_symop_operation_xyz
x,y,z
1/2-x,1/2-y,z
x,1/2-y,1/2-z
1/2-x,y,1/2-z
-x,-y,-z
1/2+x,1/2+y,-z
-x,1/2+y,1/2+z
1/2+x,-y,1/2+z
loop_
_atom_site_type_symbol
_atom_site_label
_atom_site_fract_x
_atom_site_fract_y
_atom_site_fract_z
Si Si1 0.784457 0.819804 0.671609
Si Si2 0.408756 0.296812 0.600735
Si Si3 0.454941 0.636665 0.934181
Si Si4 0.250000 0.750000 0.501529
Si Si5 0.851454 0.970444 0.323632
Si Si6 0.804437 0.378942 0.828967
Si Si7 0.658721 0.104216 0.176733
Si Si8 0.909366 0.897814 0.078925
O O1 0.750000 0.750000 0.671461
O O2 0.750000 0.845087 0.750000
O O3 0.650154 0.846163 0.610630
O O4 0.008366 0.843488 0.652209
O O5 0.250000 0.250000 0.633470
O O6 0.547022 0.267937 0.540831
O O7 0.561118 0.320055 0.659891
O O8 0.270310 0.349823 0.571695
O O9 0.324898 0.595856 0.883191
O O10 0.323931 0.694752 0.952984
O O11 0.513169 0.594616 0.999605
O O12 0.750000 0.949657 0.250000
O O13 0.683568 0.956843 0.384697
O O14 0.058286 0.936393 0.344052
O O15 0.929471 0.037864 0.316843
O O16 0.750000 0.379507 0.750000
O O17 0.604384 0.375519 0.877009
O O18 0.750000 0.125888 0.250000
#
# Coordination Sequence:
#
# PCOD8201936 Si02
#       8
#     8   8   8   4   8   8   8   8
#     4  11  25  45  68 100 137 180 222 276 340 411
#     4  11  22  41  64  94 139 177 233 274 335 414
#     4  12  25  41  70  97 137 173 227 280 341 412
#     4  12  24  42  68  98 132 196 218 278 352 410
#     4  10  23  43  73  97 134 181 227 286 339 408
#     4  11  22  42  69  98 134 184 233 279 342 404
#     4  11  25  46  68 105 135 173 230 280 345 415
#     4  11  24  41  67 102 132 175 232 279 341 404
#
# _framework density 21.194102999999998
#
# number of rings (size 3 to 8) (size 9 to 14) (size 15 to 20)
#    0.000    0.933    5.333    0.800    3.733    2.133 
#    0.000    6.333    0.000    0.000    0.000    0.000 
#    0.000    0.000    0.000    0.000    0.000    0.000 
#
# Total GULP energy -743567.507492 kJ/mol
# GULP energy per Si atom -12392.791792 kJ/mol
# Density = 2.114586 g / cm^3
# Si number density = 21.194103 Si / 1000 Ang^3
#
#
#
# Elastic Constant Matrix: (Units=GPa)
#
#
# Indices 1 2 3 4 5 6 
#
# 1 129.4720 39.8398 56.6013 0.0000 0.0000 0.0000
# 2 39.8398 80.7254 32.4943 0.0000 0.0000 0.0000
# 3 56.6013 32.4943 120.9551 0.0000 0.0000 0.0000
# 4 0.0000 0.0000 0.0000 23.0119 0.0000 0.0000
# 5 0.0000 0.0000 0.0000 0.0000 38.8439 0.0000
# 6 0.0000 0.0000 0.0000 0.0000 0.0000 27.9053
#
#
#
# Elastic Compliance Matrix: (Units=1/GPa)
#
#
# Indices 1 2 3 4 5 6 
#
# 1 0.010576 -0.003619 -0.003977 0.000000 0.000000 0.000000
# 2 -0.003619 0.015128 -0.002371 0.000000 0.000000 0.000000
# 3 -0.003977 -0.002371 0.010765 0.000000 0.000000 0.000000
# 4 0.000000 0.000000 0.000000 0.043456 0.000000 0.000000
# 5 0.000000 0.000000 0.000000 0.000000 0.025744 0.000000
# 6 0.000000 0.000000 0.000000 0.000000 0.000000 0.035836
#
#
# Mechanical properties :
#
#
# Convention : Reuss Voigt Hill
#
# Bulk Modulus (GPa) = 60.47163 65.44701 62.95932
# Shear Modulus (GPa) = 29.94934 31.43337 30.69136
#
# Velocity S-wave (km/s) = 3.76320 3.85531 3.80953
# Velocity P-wave (km/s) = 6.89031 7.12494 7.00861
#
# Compressibility (1/GPa) = 0.01653668
#
# Stress axis : x y z
#
# Youngs Moduli (GPa) = 94.55653 66.10347 92.89041
#
# Poissons Ratio (x) = 0.23920 0.36941
# Poissons Ratio (y) = 0.34216 0.22022
# Poissons Ratio (z) = 0.37603 0.15671
#
# Static dielectric constant tensor:
#      x y z
#    x 3.718000 0.000000 0.000000 
#    y 0.000000 3.911560 0.000000 
#    z 0.000000 0.000000 3.879760 
# 
# 
# High freq. dielectric constant tensor:
#      x y z
#    x 1.847010 0.000000 0.000000 
#    y 0.000000 1.820080 0.000000 
#    z 0.000000 0.000000 1.835400 
# 
# From -- ./inp_files/32992.got.cif
#   From: 2010.06.25/outbox.cif.g09.slc.cpg/sg48_17_cif.got.tgz:32992.got - 2010.06.26 18:06:46.
