data_PCOD8201642
_publ_section_title
;
Structure prediction by ZEFSAII (Michael W. Deem and Ramdas Pophale) SiO2 
 PCOD8201642
Probable space group: P N N N
;
_chemical_formula_sum "Si O2"
_cell_formula_units_Z 60
_cell_length_a 24.351077
_cell_length_b 5.562552
_cell_length_c 19.351833
_cell_angle_alpha 90.000000
_cell_angle_beta 90.000000
_cell_angle_gamma 90.000000
_cell_volume 2621.285743
_symmetry_space_group_name_H-M "P N N N"
_symmetry_group_IT_number 48
_space_group.IT_coordinate_system_code '2'
_symmetry_cell_setting 'orthorhombic'
loop_
_space_group_symop_operation_xyz
x,y,z
1/2-x,1/2-y,z
x,1/2-y,1/2-z
1/2-x,y,1/2-z
-x,-y,-z
1/2+x,1/2+y,-z
-x,1/2+y,1/2+z
1/2+x,-y,1/2+z
loop_
_atom_site_type_symbol
_atom_site_label
_atom_site_fract_x
_atom_site_fract_y
_atom_site_fract_z
Si Si1 0.802105 0.115566 0.095046
Si Si2 0.435660 0.960663 0.430501
Si Si3 0.643371 0.835606 0.914398
Si Si4 0.885156 0.003857 0.208857
Si Si5 0.750000 0.750000 0.987551
Si Si6 0.019185 0.762204 0.639463
Si Si7 0.930485 0.095146 0.682602
Si Si8 0.399511 0.616502 0.537357
O O1 0.750000 0.250000 0.129843
O O2 0.837959 0.968195 0.150802
O O3 0.837842 0.327573 0.061459
O O4 0.782125 0.939460 0.034460
O O5 0.375550 0.059645 0.405032
O O6 0.481915 0.164557 0.423733
O O7 0.454793 0.758028 0.377532
O O8 0.428062 0.859432 0.507349
O O9 0.627272 0.980069 0.844537
O O10 0.706624 0.872580 0.934629
O O11 0.603931 0.914889 0.979012
O O12 0.869352 0.250000 0.250000
O O13 0.945812 0.052516 0.177523
O O14 0.886854 0.750000 0.250000
O O15 0.062860 0.949745 0.603964
O O16 0.978725 0.896041 0.694242
O O17 0.917943 0.250000 0.750000
#
# Coordination Sequence:
#
# PCOD8201642 Si02
#       8
#     8   8   8   8   4   8   8   8
#     4  11  24  43  72 101 133 187 232 306 361 428
#     4  10  21  37  62  95 132 174 216 285 346 417
#     4  10  22  38  66 100 130 176 221 302 353 435
#     4  11  29  49  68 102 151 192 253 299 349 426
#     4  12  22  42  75  97 132 170 244 290 390 426
#     4  10  24  38  66  93 133 186 228 281 349 419
#     4  10  24  43  65  95 135 185 233 279 353 436
#     4  10  20  40  59  99 134 164 226 286 352 415
#
# _framework density 22.889529
#
# number of rings (size 3 to 8) (size 9 to 14) (size 15 to 20)
#    0.000    1.600    2.667    0.400    5.600    7.733 
#    0.000    0.000    0.000    2.400    0.000    0.000 
#    0.000    0.000    0.000    0.000    0.000    0.000 
#
# Total GULP energy -743332.584518 kJ/mol
# GULP energy per Si atom -12388.876409 kJ/mol
# Density = 2.283743 g / cm^3
# Si number density = 22.889529 Si / 1000 Ang^3
#
#
#
# Elastic Constant Matrix: (Units=GPa)
#
#
# Indices 1 2 3 4 5 6 
#
# 1 157.0283 48.0972 68.2802 0.0000 0.0000 0.0000
# 2 48.0972 80.5290 32.2203 0.0000 0.0000 0.0000
# 3 68.2802 32.2203 88.6017 0.0000 0.0000 0.0000
# 4 0.0000 0.0000 0.0000 39.0358 0.0000 0.0000
# 5 0.0000 0.0000 0.0000 0.0000 38.2076 0.0000
# 6 0.0000 0.0000 0.0000 0.0000 0.0000 23.1628
#
#
#
# Elastic Compliance Matrix: (Units=1/GPa)
#
#
# Indices 1 2 3 4 5 6 
#
# 1 0.010358 -0.003502 -0.006709 0.000000 0.000000 0.000000
# 2 -0.003502 0.015717 -0.003016 0.000000 0.000000 0.000000
# 3 -0.006709 -0.003016 0.017553 0.000000 0.000000 0.000000
# 4 0.000000 0.000000 0.000000 0.025617 0.000000 0.000000
# 5 0.000000 0.000000 0.000000 0.000000 0.026173 0.000000
# 6 0.000000 0.000000 0.000000 0.000000 0.000000 0.043173
#
#
# Mechanical properties :
#
#
# Convention : Reuss Voigt Hill
#
# Bulk Modulus (GPa) = 58.23014 69.26162 63.74588
# Shear Modulus (GPa) = 29.27901 31.91866 30.59884
#
# Velocity S-wave (km/s) = 3.58039 3.73831 3.66020
# Velocity P-wave (km/s) = 6.52588 6.99700 6.76554
#
# Compressibility (1/GPa) = 0.01717324
#
# Stress axis : x y z
#
# Youngs Moduli (GPa) = 96.54163 63.62710 56.96877
#
# Poissons Ratio (x) = 0.22284 0.38219
# Poissons Ratio (y) = 0.33812 0.17184
# Poissons Ratio (z) = 0.64768 0.19192
#
# Static dielectric constant tensor:
#      x y z
#    x 4.205040 0.000000 0.000000 
#    y 0.000000 4.147580 0.000000 
#    z 0.000000 0.000000 4.058400 
# 
# 
# High freq. dielectric constant tensor:
#      x y z
#    x 1.904420 0.000000 0.000000 
#    y 0.000000 1.899830 0.000000 
#    z 0.000000 0.000000 1.890140 
# 
# From -- ./inp_files/34975.got.cif
#   From: 2010.06.25/outbox.cif.g09.slc.cpg/sg48_18_cif.got.tgz:34975.got - 2010.06.26 18:06:46.
