data_PCOD8201406
_publ_section_title
;
Structure prediction by ZEFSAII (Michael W. Deem and Ramdas Pophale) SiO2 
 PCOD8201406
Probable space group: P N N N
;
_chemical_formula_sum "Si O2"
_cell_formula_units_Z 64
_cell_length_a 9.699507
_cell_length_b 21.765160
_cell_length_c 15.285818
_cell_angle_alpha 90.000000
_cell_angle_beta 90.000000
_cell_angle_gamma 90.000000
_cell_volume 3227.009242
_symmetry_space_group_name_H-M "P N N N"
_symmetry_group_IT_number 48
_space_group.IT_coordinate_system_code '2'
_symmetry_cell_setting 'orthorhombic'
loop_
_space_group_symop_operation_xyz
x,y,z
1/2-x,1/2-y,z
x,1/2-y,1/2-z
1/2-x,y,1/2-z
-x,-y,-z
1/2+x,1/2+y,-z
-x,1/2+y,1/2+z
1/2+x,-y,1/2+z
loop_
_atom_site_type_symbol
_atom_site_label
_atom_site_fract_x
_atom_site_fract_y
_atom_site_fract_z
Si Si1 0.281698 0.612261 0.651496
Si Si2 0.902383 0.192586 0.597739
Si Si3 0.992341 0.980386 0.601053
Si Si4 0.589693 0.410855 0.727305
Si Si5 0.994947 0.154760 0.073830
Si Si6 0.003538 0.706200 0.903257
Si Si7 0.584788 0.328280 0.886696
Si Si8 0.725036 0.881695 0.851230
O O1 0.250000 0.596257 0.750000
O O2 0.366076 0.555402 0.613554
O O3 0.140978 0.616990 0.597779
O O4 0.371029 0.674587 0.648348
O O5 0.959485 0.141099 0.660634
O O6 0.980883 0.191549 0.505804
O O7 0.744094 0.172142 0.582107
O O8 0.930539 0.257733 0.646646
O O9 0.859507 0.937609 0.608407
O O10 0.978413 0.029655 0.681523
O O11 0.000000 0.000000 0.500000
O O12 0.750000 0.421603 0.750000
O O13 0.536772 0.381818 0.819464
O O14 0.989498 0.221853 0.118398
O O15 0.126545 0.117241 0.104525
O O16 0.010400 0.160519 0.970106
O O17 0.856415 0.681615 0.869552
O O18 0.750000 0.891927 0.750000
#
# Coordination Sequence:
#
# PCOD8201406 Si02
#       8
#     8   8   8   8   8   8   8   8
#     4  11  23  39  60  87 122 158 211 262 300 364
#     4   9  16  33  58  92 125 154 191 245 310 383
#     4  11  25  45  64  81 117 175 215 258 313 371
#     4  10  19  33  62  88 117 156 209 250 310 365
#     4  11  21  37  61  94 126 156 196 260 311 367
#     4  10  20  36  62  89 127 166 193 234 323 390
#     4   9  18  31  58  96 127 146 191 257 313 369
#     4  11  24  41  60  89 125 160 211 258 302 372
#
# _framework density 19.832605999999998
#
# number of rings (size 3 to 8) (size 9 to 14) (size 15 to 20)
#    0.000    1.750    1.250    4.500    1.750    4.500 
#    2.250    0.625    0.000    0.000    0.000    3.500 
#    0.000    0.000    0.000    0.000    0.000    0.000 
#
# Total GULP energy -792903.131685 kJ/mol
# GULP energy per Si atom -12389.111433 kJ/mol
# Density = 1.978747 g / cm^3
# Si number density = 19.832606 Si / 1000 Ang^3
#
#
#
# Elastic Constant Matrix: (Units=GPa)
#
#
# Indices 1 2 3 4 5 6 
#
# 1 116.2944 60.4225 45.3862 0.0000 0.0000 0.0000
# 2 60.4225 122.6303 57.8175 0.0000 0.0000 0.0000
# 3 45.3862 57.8175 105.2763 0.0000 0.0000 0.0000
# 4 0.0000 0.0000 0.0000 89.2321 0.0000 0.0000
# 5 0.0000 0.0000 0.0000 0.0000 29.2424 0.0000
# 6 0.0000 0.0000 0.0000 0.0000 0.0000 23.6880
#
#
#
# Elastic Compliance Matrix: (Units=1/GPa)
#
#
# Indices 1 2 3 4 5 6 
#
# 1 0.012068 -0.004714 -0.002614 0.000000 0.000000 0.000000
# 2 -0.004714 0.012845 -0.005022 0.000000 0.000000 0.000000
# 3 -0.002614 -0.005022 0.013384 0.000000 0.000000 0.000000
# 4 0.000000 0.000000 0.000000 0.011207 0.000000 0.000000
# 5 0.000000 0.000000 0.000000 0.000000 0.034197 0.000000
# 6 0.000000 0.000000 0.000000 0.000000 0.000000 0.042215
#
#
# Mechanical properties :
#
#
# Convention : Reuss Voigt Hill
#
# Bulk Modulus (GPa) = 73.54515 74.60591 74.07553
# Shear Modulus (GPa) = 32.22714 40.47082 36.34898
#
# Velocity S-wave (km/s) = 4.03545 4.52222 4.28575
# Velocity P-wave (km/s) = 7.67311 8.06020 7.86903
#
# Compressibility (1/GPa) = 0.01359709
#
# Stress axis : x y z
#
# Youngs Moduli (GPa) = 82.86286 77.85078 74.71626
#
# Poissons Ratio (x) = 0.36697 0.19530
# Poissons Ratio (y) = 0.39060 0.37525
# Poissons Ratio (z) = 0.21660 0.39099
#
# Static dielectric constant tensor:
#      x y z
#    x 3.456990 0.000000 0.000000 
#    y 0.000000 3.760300 0.000000 
#    z 0.000000 0.000000 3.831360 
# 
# 
# High freq. dielectric constant tensor:
#      x y z
#    x 1.751380 0.000000 0.000000 
#    y 0.000000 1.773650 0.000000 
#    z 0.000000 0.000000 1.785100 
# 
# From -- ./inp_files/25754.got.cif
#   From: 2010.06.25/outbox.cif.g09.slc.cpg/sg48_13_cif.got.tgz:25754.got - 2010.06.26 18:06:46.
