data_PCOD8201428
_publ_section_title
;
Structure prediction by ZEFSAII (Michael W. Deem and Ramdas Pophale) SiO2 
 PCOD8201428
Probable space group: P N N N
;
_chemical_formula_sum "Si O2"
_cell_formula_units_Z 52
_cell_length_a 25.782112
_cell_length_b 9.527975
_cell_length_c 10.780309
_cell_angle_alpha 90.000000
_cell_angle_beta 90.000000
_cell_angle_gamma 90.000000
_cell_volume 2648.197121
_symmetry_space_group_name_H-M "P N N N"
_symmetry_group_IT_number 48
_space_group.IT_coordinate_system_code '2'
_symmetry_cell_setting 'orthorhombic'
loop_
_space_group_symop_operation_xyz
x,y,z
1/2-x,1/2-y,z
x,1/2-y,1/2-z
1/2-x,y,1/2-z
-x,-y,-z
1/2+x,1/2+y,-z
-x,1/2+y,1/2+z
1/2+x,-y,1/2+z
loop_
_atom_site_type_symbol
_atom_site_label
_atom_site_fract_x
_atom_site_fract_y
_atom_site_fract_z
Si Si1 0.740016 0.594674 0.605132
Si Si2 0.832461 0.101493 0.917465
Si Si3 0.146884 0.912743 0.371897
Si Si4 0.029033 0.615620 0.073841
Si Si5 0.953818 0.750000 0.250000
Si Si6 0.078493 0.440132 0.549199
Si Si7 0.004074 0.664882 0.622881
O O1 0.750000 0.750000 0.545179
O O2 0.750000 0.607956 0.750000
O O3 0.777494 0.471808 0.553892
O O4 0.681345 0.542621 0.576022
O O5 0.848896 0.085037 0.775714
O O6 0.832039 0.269800 0.937819
O O7 0.869946 0.022607 0.013960
O O8 0.086773 0.937843 0.398661
O O9 0.994944 0.636579 0.196663
O O10 0.000000 0.500000 0.000000
O O11 0.031638 0.753597 0.989983
O O12 0.914909 0.692016 0.357219
O O13 0.052633 0.386977 0.420764
O O14 0.041501 0.533270 0.637260
O O15 0.998478 0.750000 0.750000
#
# Coordination Sequence:
#
# PCOD8201428 Si02
#       7
#     8   8   8   8   4   8   8
#     4   9  19  35  53  82 117 146 185 238 298 355
#     4  10  19  35  58  83 113 156 191 233 298 351
#     4  10  20  34  56  83 118 152 190 239 286 357
#     4  11  22  34  55  84 115 156 193 233 286 346
#     4  10  22  38  52  80 126 150 202 238 278 348
#     4  10  21  36  56  80 115 160 194 241 288 340
#     4  10  21  35  52  80 117 155 196 237 284 341
#
# _framework density 19.636002000000001
#
# number of rings (size 3 to 8) (size 9 to 14) (size 15 to 20)
#    0.000    2.000    1.538    2.308    6.462    4.308 
#    2.769    0.000    0.000    0.000    0.000   11.308 
#    0.000    0.000    0.000    0.000    0.000    0.000 
#
# Total GULP energy -644260.412137 kJ/mol
# GULP energy per Si atom -12389.623310 kJ/mol
# Density = 1.959131 g / cm^3
# Si number density = 19.636002 Si / 1000 Ang^3
#
#
#
# Elastic Constant Matrix: (Units=GPa)
#
#
# Indices 1 2 3 4 5 6 
#
# 1 88.4142 54.9704 33.5724 0.0000 0.0000 0.0000
# 2 54.9704 99.2752 22.1412 0.0000 0.0000 0.0000
# 3 33.5724 22.1412 53.6341 0.0000 0.0000 0.0000
# 4 0.0000 0.0000 0.0000 32.7658 0.0000 0.0000
# 5 0.0000 0.0000 0.0000 0.0000 16.8673 0.0000
# 6 0.0000 0.0000 0.0000 0.0000 0.0000 34.4216
#
#
#
# Elastic Compliance Matrix: (Units=1/GPa)
#
#
# Indices 1 2 3 4 5 6 
#
# 1 0.020556 -0.009376 -0.008996 0.000000 0.000000 0.000000
# 2 -0.009376 0.015371 -0.000477 0.000000 0.000000 0.000000
# 3 -0.008996 -0.000477 0.024473 0.000000 0.000000 0.000000
# 4 0.000000 0.000000 0.000000 0.030520 0.000000 0.000000
# 5 0.000000 0.000000 0.000000 0.000000 0.059286 0.000000
# 6 0.000000 0.000000 0.000000 0.000000 0.000000 0.029052
#
#
# Mechanical properties :
#
#
# Convention : Reuss Voigt Hill
#
# Bulk Modulus (GPa) = 44.04900 51.41016 47.72958
# Shear Modulus (GPa) = 22.26957 25.52023 23.89490
#
# Velocity S-wave (km/s) = 3.37132 3.60900 3.49218
# Velocity P-wave (km/s) = 6.13481 6.60340 6.37341
#
# Compressibility (1/GPa) = 0.02270199
#
# Stress axis : x y z
#
# Youngs Moduli (GPa) = 48.64840 65.05866 40.86142
#
# Poissons Ratio (x) = 0.60996 0.36761
# Poissons Ratio (y) = 0.45611 0.01948
# Poissons Ratio (z) = 0.43766 0.03101
#
# Static dielectric constant tensor:
#      x y z
#    x 3.405280 0.000000 0.000000 
#    y 0.000000 3.715660 0.000000 
#    z 0.000000 0.000000 3.108180 
# 
# 
# High freq. dielectric constant tensor:
#      x y z
#    x 1.748990 0.000000 0.000000 
#    y 0.000000 1.784420 0.000000 
#    z 0.000000 0.000000 1.729810 
# 
# From -- ./inp_files/16402.got.cif
#   From: 2010.06.25/outbox.cif.g09.slc.cpg/sg48_9_cif.got.tgz:16402.got - 2010.06.26 18:06:46.
