data_PCOD8201525
_publ_section_title
;
Structure prediction by ZEFSAII (Michael W. Deem and Ramdas Pophale) SiO2 
 PCOD8201525
Probable space group: P N N N
;
_chemical_formula_sum "Si O2"
_cell_formula_units_Z 34
_cell_length_a 17.537193
_cell_length_b 4.875157
_cell_length_c 17.844282
_cell_angle_alpha 90.000000
_cell_angle_beta 90.000000
_cell_angle_gamma 90.000000
_cell_volume 1525.624891
_symmetry_space_group_name_H-M "P N N N"
_symmetry_group_IT_number 48
_space_group.IT_coordinate_system_code '2'
_symmetry_cell_setting 'orthorhombic'
loop_
_space_group_symop_operation_xyz
x,y,z
1/2-x,1/2-y,z
x,1/2-y,1/2-z
1/2-x,y,1/2-z
-x,-y,-z
1/2+x,1/2+y,-z
-x,1/2+y,1/2+z
1/2+x,-y,1/2+z
loop_
_atom_site_type_symbol
_atom_site_label
_atom_site_fract_x
_atom_site_fract_y
_atom_site_fract_z
Si Si1 0.750000 0.250000 0.750000
Si Si2 0.135208 0.868306 0.369184
Si Si3 0.250000 0.250000 0.901862
Si Si4 0.118218 0.001443 0.800156
Si Si5 0.750000 0.250000 0.507152
Si Si6 0.458201 0.145726 0.333449
O O1 0.802141 0.061158 0.695427
O O2 0.175082 0.728042 0.441065
O O3 0.075084 0.654523 0.338408
O O4 0.087267 0.144695 0.388528
O O5 0.317683 0.361367 0.850753
O O6 0.227429 0.495282 0.955937
O O7 0.152329 0.750000 0.750000
O O8 0.049063 0.877282 0.850522
O O9 0.084838 0.250000 0.750000
O O10 0.446589 0.250000 0.250000
#
# Coordination Sequence:
#
# PCOD8201525 Si02
#       6
#     2   8   4   8   4   8
#     4  10  20  34  60  94 126 184 210 274 318 370
#     4  11  22  38  61  95 137 173 227 261 324 391
#     4  12  25  48  66  91 134 176 222 280 336 389
#     4  11  24  43  72 102 124 162 220 289 353 401
#     4  11  26  43  61  92 137 188 224 264 309 412
#     4  11  20  38  63  98 133 164 208 288 341 387
#
# _framework density 22.285951000000001
#
# number of rings (size 3 to 8) (size 9 to 14) (size 15 to 20)
#    0.000    0.941    2.353    6.000    0.000    4.706 
#    0.000    7.059    0.000    0.000    0.000    0.000 
#    0.000    0.000    0.000    0.000    0.000    0.000 
#
# Total GULP energy -421356.025187 kJ/mol
# GULP energy per Si atom -12392.824270 kJ/mol
# Density = 2.223523 g / cm^3
# Si number density = 22.285951 Si / 1000 Ang^3
#
#
#
# Elastic Constant Matrix: (Units=GPa)
#
#
# Indices 1 2 3 4 5 6 
#
# 1 159.8776 54.7517 65.7285 0.0000 0.0000 0.0000
# 2 54.7517 135.0568 42.8303 0.0000 0.0000 0.0000
# 3 65.7285 42.8303 89.1797 0.0000 0.0000 0.0000
# 4 0.0000 0.0000 0.0000 43.1938 0.0000 0.0000
# 5 0.0000 0.0000 0.0000 0.0000 53.1990 0.0000
# 6 0.0000 0.0000 0.0000 0.0000 0.0000 47.6261
#
#
#
# Elastic Compliance Matrix: (Units=1/GPa)
#
#
# Indices 1 2 3 4 5 6 
#
# 1 0.009369 -0.001897 -0.005994 0.000000 0.000000 0.000000
# 2 -0.001897 0.009119 -0.002981 0.000000 0.000000 0.000000
# 3 -0.005994 -0.002981 0.017063 0.000000 0.000000 0.000000
# 4 0.000000 0.000000 0.000000 0.023151 0.000000 0.000000
# 5 0.000000 0.000000 0.000000 0.000000 0.018797 0.000000
# 6 0.000000 0.000000 0.000000 0.000000 0.000000 0.020997
#
#
# Mechanical properties :
#
#
# Convention : Reuss Voigt Hill
#
# Bulk Modulus (GPa) = 72.43357 78.97057 75.70207
# Shear Modulus (GPa) = 40.05048 43.52403 41.78725
#
# Velocity S-wave (km/s) = 4.24384 4.42405 4.33488
# Velocity P-wave (km/s) = 7.52237 7.84910 7.68747
#
# Compressibility (1/GPa) = 0.01380575
#
# Stress axis : x y z
#
# Youngs Moduli (GPa) = 106.73842 109.66312 58.60712
#
# Poissons Ratio (x) = 0.20806 0.35128
# Poissons Ratio (y) = 0.20251 0.17472
# Poissons Ratio (z) = 0.63978 0.32693
#
# Static dielectric constant tensor:
#      x y z
#    x 4.231300 0.000000 0.000000 
#    y 0.000000 4.326410 0.000000 
#    z 0.000000 0.000000 3.950160 
# 
# 
# High freq. dielectric constant tensor:
#      x y z
#    x 1.886330 0.000000 0.000000 
#    y 0.000000 1.891880 0.000000 
#    z 0.000000 0.000000 1.846750 
# 
# From -- ./inp_files/31808.got.cif
#   From: 2010.06.25/outbox.cif.g09.slc.cpg/sg48_16_cif.got.tgz:31808.got - 2010.06.26 18:06:46.
