data_PCOD8201882
_publ_section_title
;
Structure prediction by ZEFSAII (Michael W. Deem and Ramdas Pophale) SiO2 
 PCOD8201882
Probable space group: P N N N
;
_chemical_formula_sum "Si O2"
_cell_formula_units_Z 32
_cell_length_a 6.128355
_cell_length_b 10.645491
_cell_length_c 20.752679
_cell_angle_alpha 90.000000
_cell_angle_beta 90.000000
_cell_angle_gamma 90.000000
_cell_volume 1353.891247
_symmetry_space_group_name_H-M "P N N N"
_symmetry_group_IT_number 48
_space_group.IT_coordinate_system_code '2'
_symmetry_cell_setting 'orthorhombic'
loop_
_space_group_symop_operation_xyz
x,y,z
1/2-x,1/2-y,z
x,1/2-y,1/2-z
1/2-x,y,1/2-z
-x,-y,-z
1/2+x,1/2+y,-z
-x,1/2+y,1/2+z
1/2+x,-y,1/2+z
loop_
_atom_site_type_symbol
_atom_site_label
_atom_site_fract_x
_atom_site_fract_y
_atom_site_fract_z
Si Si1 0.990615 0.440257 0.134596
Si Si2 0.190964 0.116186 0.939086
Si Si3 0.250000 0.250000 0.437469
Si Si4 0.131796 0.616077 0.334063
Si Si5 0.250000 0.480792 0.750000
O O1 0.057330 0.303936 0.107200
O O2 0.189327 0.507655 0.171264
O O3 0.886550 0.519374 0.075443
O O4 0.814157 0.426889 0.191386
O O5 0.250000 0.250000 0.906178
O O6 0.964722 0.083055 0.904875
O O7 0.158773 0.136527 0.016522
O O8 0.250000 0.750000 0.329565
O O9 0.948916 0.606243 0.277415
#
# Coordination Sequence:
#
# PCOD8201882 Si02
#       5
#     8   8   4   8   4
#     4  11  22  42  64  94 131 176 225 270 342 401
#     4   9  20  39  62  99 130 157 214 282 338 405
#     4  10  22  42  67  91 132 180 214 270 336 414
#     4  11  21  40  65  93 128 168 218 282 347 397
#     4  10  26  41  59  96 130 172 229 283 320 402
#
# _framework density 23.635576
#
# number of rings (size 3 to 8) (size 9 to 14) (size 15 to 20)
#    0.750    1.000    2.500    1.500    0.000    4.000 
#    0.000   16.250    0.000    0.000    0.000    0.000 
#    0.000    0.000    0.000    0.000    0.000    0.000 
#
# Total GULP energy -396439.707572 kJ/mol
# GULP energy per Si atom -12388.740862 kJ/mol
# Density = 2.358178 g / cm^3
# Si number density = 23.635576 Si / 1000 Ang^3
#
#
#
# Elastic Constant Matrix: (Units=GPa)
#
#
# Indices 1 2 3 4 5 6 
#
# 1 111.6837 48.4439 62.1960 0.0000 0.0000 0.0000
# 2 48.4439 88.4140 60.5137 0.0000 0.0000 0.0000
# 3 62.1960 60.5137 143.7389 0.0000 0.0000 0.0000
# 4 0.0000 0.0000 0.0000 26.4461 0.0000 0.0000
# 5 0.0000 0.0000 0.0000 0.0000 34.2142 0.0000
# 6 0.0000 0.0000 0.0000 0.0000 0.0000 42.5151
#
#
#
# Elastic Compliance Matrix: (Units=1/GPa)
#
#
# Indices 1 2 3 4 5 6 
#
# 1 0.013004 -0.004599 -0.003691 0.000000 0.000000 0.000000
# 2 -0.004599 0.017515 -0.005384 0.000000 0.000000 0.000000
# 3 -0.003691 -0.005384 0.010821 0.000000 0.000000 0.000000
# 4 0.000000 0.000000 0.000000 0.037813 0.000000 0.000000
# 5 0.000000 0.000000 0.000000 0.000000 0.029228 0.000000
# 6 0.000000 0.000000 0.000000 0.000000 0.000000 0.023521
#
#
# Mechanical properties :
#
#
# Convention : Reuss Voigt Hill
#
# Bulk Modulus (GPa) = 71.46608 76.23821 73.85214
# Shear Modulus (GPa) = 30.50398 32.14727 31.32562
#
# Velocity S-wave (km/s) = 3.59638 3.69198 3.64450
# Velocity P-wave (km/s) = 6.89548 7.10634 7.00170
#
# Compressibility (1/GPa) = 0.01399265
#
# Stress axis : x y z
#
# Youngs Moduli (GPa) = 76.89875 57.09291 92.41648
#
# Poissons Ratio (x) = 0.26258 0.34108
# Poissons Ratio (y) = 0.35367 0.49755
# Poissons Ratio (z) = 0.28381 0.30738
#
# Static dielectric constant tensor:
#      x y z
#    x 4.392770 0.000000 0.000000 
#    y 0.000000 3.806200 0.000000 
#    z 0.000000 0.000000 4.274050 
# 
# 
# High freq. dielectric constant tensor:
#      x y z
#    x 1.938430 0.000000 0.000000 
#    y 0.000000 1.901300 0.000000 
#    z 0.000000 0.000000 1.945880 
# 
# From -- ./inp_files/35180.got.cif
#   From: 2010.06.25/outbox.cif.g09.slc.cpg/sg48_18_cif.got.tgz:35180.got - 2010.06.26 18:06:46.
