data_PCOD8201896
_publ_section_title
;
Structure prediction by ZEFSAII (Michael W. Deem and Ramdas Pophale) SiO2 
 PCOD8201896
Probable space group: P N N N
;
_chemical_formula_sum "Si O2"
_cell_formula_units_Z 34
_cell_length_a 7.139927
_cell_length_b 11.696017
_cell_length_c 18.314824
_cell_angle_alpha 90.000000
_cell_angle_beta 90.000000
_cell_angle_gamma 90.000000
_cell_volume 1529.447282
_symmetry_space_group_name_H-M "P N N N"
_symmetry_group_IT_number 48
_space_group.IT_coordinate_system_code '2'
_symmetry_cell_setting 'orthorhombic'
loop_
_space_group_symop_operation_xyz
x,y,z
1/2-x,1/2-y,z
x,1/2-y,1/2-z
1/2-x,y,1/2-z
-x,-y,-z
1/2+x,1/2+y,-z
-x,1/2+y,1/2+z
1/2+x,-y,1/2+z
loop_
_atom_site_type_symbol
_atom_site_label
_atom_site_fract_x
_atom_site_fract_y
_atom_site_fract_z
Si Si1 0.539861 0.131007 0.222396
Si Si2 0.250000 0.250000 0.750000
Si Si3 0.998392 0.936976 0.174495
Si Si4 0.155466 0.988067 0.586860
Si Si5 0.316647 0.874419 0.065739
O O1 0.443431 0.250000 0.250000
O O2 0.750000 0.131132 0.250000
O O3 0.440359 0.022780 0.260667
O O4 0.542396 0.109981 0.134179
O O5 0.108709 0.174427 0.797423
O O6 0.860054 0.998811 0.119025
O O7 0.188171 0.907613 0.133500
O O8 0.033466 0.106832 0.591261
O O9 0.197913 0.956211 0.503848
O O10 0.250000 0.750000 0.040086
#
# Coordination Sequence:
#
# PCOD8201896 Si02
#       5
#     8   2   8   8   8
#     4   9  19  38  68  89 122 168 218 268 325 379
#     4  12  20  40  68  96 144 162 226 274 334 404
#     4  11  22  41  65  95 126 176 207 273 328 393
#     4  10  22  45  60  96 129 166 226 267 321 404
#     4  11  25  39  66  94 133 172 214 268 336 398
#
# _framework density 22.230253000000001
#
# number of rings (size 3 to 8) (size 9 to 14) (size 15 to 20)
#    0.000    1.647    3.529    2.118    6.588    0.941 
#    0.000    2.353    0.000    0.000    0.000    0.000 
#    0.000    0.000    0.000    0.000    0.000    0.000 
#
# Total GULP energy -421201.870274 kJ/mol
# GULP energy per Si atom -12388.290302 kJ/mol
# Density = 2.217966 g / cm^3
# Si number density = 22.230253 Si / 1000 Ang^3
#
#
#
# Elastic Constant Matrix: (Units=GPa)
#
#
# Indices 1 2 3 4 5 6 
#
# 1 68.7724 12.6837 15.2740 0.0000 0.0000 0.0000
# 2 12.6837 113.6176 16.6569 0.0000 0.0000 0.0000
# 3 15.2740 16.6569 89.6430 0.0000 0.0000 0.0000
# 4 0.0000 0.0000 0.0000 14.9185 0.0000 0.0000
# 5 0.0000 0.0000 0.0000 0.0000 27.0206 0.0000
# 6 0.0000 0.0000 0.0000 0.0000 0.0000 15.7342
#
#
#
# Elastic Compliance Matrix: (Units=1/GPa)
#
#
# Indices 1 2 3 4 5 6 
#
# 1 0.015316 -0.001364 -0.002356 0.000000 0.000000 0.000000
# 2 -0.001364 0.009169 -0.001471 0.000000 0.000000 0.000000
# 3 -0.002356 -0.001471 0.011830 0.000000 0.000000 0.000000
# 4 0.000000 0.000000 0.000000 0.067031 0.000000 0.000000
# 5 0.000000 0.000000 0.000000 0.000000 0.037009 0.000000
# 6 0.000000 0.000000 0.000000 0.000000 0.000000 0.063556
#
#
# Mechanical properties :
#
#
# Convention : Reuss Voigt Hill
#
# Bulk Modulus (GPa) = 38.56275 40.14025 39.35150
# Shear Modulus (GPa) = 22.42771 26.69587 24.56179
#
# Velocity S-wave (km/s) = 3.17974 3.46913 3.32758
# Velocity P-wave (km/s) = 5.55568 5.84314 5.70122
#
# Compressibility (1/GPa) = 0.02593176
#
# Stress axis : x y z
#
# Youngs Moduli (GPa) = 65.29285 109.05752 84.52938
#
# Poissons Ratio (x) = 0.14879 0.19916
# Poissons Ratio (y) = 0.08908 0.12437
# Poissons Ratio (z) = 0.15383 0.16046
#
# Static dielectric constant tensor:
#      x y z
#    x 4.050030 0.000000 0.000000 
#    y 0.000000 4.946830 0.000000 
#    z 0.000000 0.000000 4.286780 
# 
# 
# High freq. dielectric constant tensor:
#      x y z
#    x 1.869110 0.000000 0.000000 
#    y 0.000000 1.865190 0.000000 
#    z 0.000000 0.000000 1.887920 
# 
# From -- ./inp_files/29982.got.cif
#   From: 2010.06.25/outbox.cif.g09.slc.cpg/sg48_15_cif.got.tgz:29982.got - 2010.06.26 18:06:46.
