data_PCOD8201189
_publ_section_title
;
Structure prediction by ZEFSAII (Michael W. Deem and Ramdas Pophale) SiO2 
 PCOD8201189
Probable space group: P M M M
;
_chemical_formula_sum "Si O2"
_cell_formula_units_Z 32
_cell_length_a 9.095561
_cell_length_b 7.566205
_cell_length_c 22.697345
_cell_angle_alpha 90.000000
_cell_angle_beta 90.000000
_cell_angle_gamma 90.000000
_cell_volume 1562.005842
_symmetry_space_group_name_H-M "P M M M"
_symmetry_group_IT_number 47
_symmetry_cell_setting 'orthorhombic'
loop_
_space_group_symop_operation_xyz
x,y,z
-x,-y,z
x,-y,-z
-x,y,-z
-x,-y,-z
x,y,-z
-x,y,z
x,-y,z
loop_
_atom_site_type_symbol
_atom_site_label
_atom_site_fract_x
_atom_site_fract_y
_atom_site_fract_z
Si Si1 0.327388 0.797786 0.846284
Si Si2 0.674075 0.500000 0.934586
Si Si3 0.333958 0.789231 0.385097
Si Si4 0.166036 0.210544 0.500000
Si Si5 0.834710 0.209885 0.728885
O O1 0.500000 0.777949 0.834215
O O2 0.274358 0.676447 0.900497
O O3 0.245497 0.727932 0.788220
O O4 0.285696 0.000000 0.861503
O O5 0.500000 0.500000 0.939680
O O6 0.744608 0.500000 0.000000
O O7 0.500000 0.716475 0.385985
O O8 0.249343 0.716927 0.442416
O O9 0.252590 0.713934 0.327273
O O10 0.333830 0.000000 0.384663
O O11 0.000000 0.283795 0.500000
O O12 0.165569 0.000000 0.500000
O O13 0.000000 0.285759 0.728257
O O14 0.836258 0.000000 0.725791
#
# Coordination Sequence:
#
# PCOD8201189 Si02
#       5
#     8   4   8   4   8
#     4   9  17  30  49  72  98 129 164 202 245 292
#     4   9  18  32  51  77 105 130 161 202 243 287
#     4   9  15  22  33  51  78 114 157 203 250 299
#     4   9  15  21  29  45  75 116 159 202 250 301
#     4   9  16  26  41  61  86 118 157 201 248 296
#
# _framework density 20.486478999999999
#
# number of rings (size 3 to 8) (size 9 to 14) (size 15 to 20)
#    0.000    3.000    0.000    1.875    0.000    8.000 
#    0.000    3.125    0.000    1.500    0.000    3.500 
#    0.000    1.000    0.000   10.875    0.000   32.500 
#
# Total GULP energy -396752.434122 kJ/mol
# GULP energy per Si atom -12398.513566 kJ/mol
# Density = 2.043985 g / cm^3
# Si number density = 20.486479 Si / 1000 Ang^3
#
#
#
# Elastic Constant Matrix: (Units=GPa)
#
#
# Indices 1 2 3 4 5 6 
#
# 1 138.2510 21.9101 91.5132 0.0000 0.0000 0.0000
# 2 21.9101 55.9813 49.0899 0.0000 0.0000 0.0000
# 3 91.5132 49.0899 229.1844 0.0000 0.0000 0.0000
# 4 0.0000 0.0000 0.0000 -17.2337 0.0000 0.0000
# 5 0.0000 0.0000 0.0000 0.0000 16.1991 0.0000
# 6 0.0000 0.0000 0.0000 0.0000 0.0000 0.4608
#
#
#
# Elastic Compliance Matrix: (Units=1/GPa)
#
#
# Indices 1 2 3 4 5 6 
#
# 1 0.009843 -0.000500 -0.003823 0.000000 0.000000 0.000000
# 2 -0.000500 0.022020 -0.004517 0.000000 0.000000 0.000000
# 3 -0.003823 -0.004517 0.006857 0.000000 0.000000 0.000000
# 4 0.000000 0.000000 0.000000 -0.058026 0.000000 0.000000
# 5 0.000000 0.000000 0.000000 0.000000 0.061732 0.000000
# 6 0.000000 0.000000 0.000000 0.000000 0.000000 2.169969
#
#
# Mechanical properties :
#
#
# Convention : Reuss Voigt Hill
#
# Bulk Modulus (GPa) = 47.52805 83.16035 65.34420
# Shear Modulus (GPa) = 2.23505 17.27880 9.75693
#
# Velocity S-wave (km/s) = 1.04564 2.90733 2.18471
# Velocity P-wave (km/s) = 4.97070 7.20770 6.19108
#
# Compressibility (1/GPa) = 0.02104021
#
# Stress axis : x y z
#
# Youngs Moduli (GPa) = 101.59263 45.41412 145.82688
#
# Poissons Ratio (x) = 0.02270 0.55755
# Poissons Ratio (y) = 0.05078 0.65868
# Poissons Ratio (z) = 0.38842 0.20513
#
# Static dielectric constant tensor:
#      x y z
#    x 3.718930 0.000000 0.000000 
#    y 0.000000 3.245000 0.000000 
#    z 0.000000 0.000000 3.939850 
# 
# 
# High freq. dielectric constant tensor:
#      x y z
#    x 1.789890 0.000000 0.000000 
#    y 0.000000 1.768160 0.000000 
#    z 0.000000 0.000000 1.804050 
# 
# From -- ./inp_files/31628.got.cif
#   From: 2010.03.12/outbox.cif.g09.slc.cpg/sg47_16_cif.got.tgz:31628.got - 2010.04.14 03:12:58.
