data_PCOD8201695
_publ_section_title
;
Structure prediction by ZEFSAII (Michael W. Deem and Ramdas Pophale) SiO2 
 PCOD8201695
Probable space group: P N N N
;
_chemical_formula_sum "Si O2"
_cell_formula_units_Z 48
_cell_length_a 4.949252
_cell_length_b 29.307030
_cell_length_c 15.524981
_cell_angle_alpha 90.000000
_cell_angle_beta 90.000000
_cell_angle_gamma 90.000000
_cell_volume 2251.865532
_symmetry_space_group_name_H-M "P N N N"
_symmetry_group_IT_number 48
_space_group.IT_coordinate_system_code '2'
_symmetry_cell_setting 'orthorhombic'
loop_
_space_group_symop_operation_xyz
x,y,z
1/2-x,1/2-y,z
x,1/2-y,1/2-z
1/2-x,y,1/2-z
-x,-y,-z
1/2+x,1/2+y,-z
-x,1/2+y,1/2+z
1/2+x,-y,1/2+z
loop_
_atom_site_type_symbol
_atom_site_label
_atom_site_fract_x
_atom_site_fract_y
_atom_site_fract_z
Si Si1 0.238331 0.345572 0.844015
Si Si2 0.259794 0.500963 0.436315
Si Si3 0.000257 0.928922 0.696050
Si Si4 0.718207 0.400352 0.893146
Si Si5 0.298663 0.302339 0.019129
Si Si6 0.281404 0.858186 0.931268
O O1 0.250000 0.321711 0.750000
O O2 0.441591 0.388420 0.844818
O O3 0.943391 0.366012 0.858382
O O4 0.337220 0.308928 0.915760
O O5 0.500000 0.500000 0.500000
O O6 0.327304 0.459993 0.370561
O O7 0.267212 0.546244 0.377016
O O8 0.000000 0.500000 0.500000
O O9 0.750000 0.908475 0.750000
O O10 0.250000 0.953574 0.750000
O O11 0.164790 0.886908 0.654295
O O12 0.686508 0.393832 0.995834
O O13 0.250000 0.250000 0.041357
O O14 0.551882 0.319308 0.076179
O O15 0.052436 0.333311 0.044312
#
# Coordination Sequence:
#
# PCOD8201695 Si02
#       6
#     8   8   8   8   8   8
#     4  10  21  36  57  88 129 166 203 254 317 366
#     4  12  24  40  65  91 129 173 222 268 312 374
#     4  12  26  42  64  98 131 167 220 273 333 383
#     4  10  21  37  60  84 118 173 215 246 297 377
#     4  10  21  38  65  95 118 159 217 258 314 393
#     4  10  21  40  64  87 125 164 205 261 317 385
#
# _framework density 21.315660000000001
#
# number of rings (size 3 to 8) (size 9 to 14) (size 15 to 20)
#    0.000    1.333    1.667    4.000    4.667    2.333 
#    0.000    0.000    0.000   13.500    0.000    0.000 
#    0.000    0.000    0.000    0.000    0.000    0.000 
#
# Total GULP energy -594697.332998 kJ/mol
# GULP energy per Si atom -12389.527771 kJ/mol
# Density = 2.126714 g / cm^3
# Si number density = 21.315660 Si / 1000 Ang^3
#
#
#
# Elastic Constant Matrix: (Units=GPa)
#
#
# Indices 1 2 3 4 5 6 
#
# 1 147.9983 39.2179 40.4473 0.0000 0.0000 0.0000
# 2 39.2179 129.0500 26.4604 0.0000 0.0000 0.0000
# 3 40.4473 26.4604 97.6155 0.0000 0.0000 0.0000
# 4 0.0000 0.0000 0.0000 13.7175 0.0000 0.0000
# 5 0.0000 0.0000 0.0000 0.0000 34.8214 0.0000
# 6 0.0000 0.0000 0.0000 0.0000 0.0000 34.8482
#
#
#
# Elastic Compliance Matrix: (Units=1/GPa)
#
#
# Indices 1 2 3 4 5 6 
#
# 1 0.008020 -0.001859 -0.002819 0.000000 0.000000 0.000000
# 2 -0.001859 0.008636 -0.001571 0.000000 0.000000 0.000000
# 3 -0.002819 -0.001571 0.011838 0.000000 0.000000 0.000000
# 4 0.000000 0.000000 0.000000 0.072900 0.000000 0.000000
# 5 0.000000 0.000000 0.000000 0.000000 0.028718 0.000000
# 6 0.000000 0.000000 0.000000 0.000000 0.000000 0.028696
#
#
# Mechanical properties :
#
#
# Convention : Reuss Voigt Hill
#
# Bulk Modulus (GPa) = 62.51463 65.21277 63.86370
# Shear Modulus (GPa) = 28.30657 34.57997 31.44327
#
# Velocity S-wave (km/s) = 3.64809 4.03212 3.84490
# Velocity P-wave (km/s) = 6.86560 7.23447 7.05245
#
# Compressibility (1/GPa) = 0.01599626
#
# Stress axis : x y z
#
# Youngs Moduli (GPa) = 124.68895 115.79481 84.47286
#
# Poissons Ratio (x) = 0.21529 0.23814
# Poissons Ratio (y) = 0.23182 0.13267
# Poissons Ratio (z) = 0.35151 0.18186
#
# Static dielectric constant tensor:
#      x y z
#    x 4.072470 0.000000 0.000000 
#    y 0.000000 3.568780 0.000000 
#    z 0.000000 0.000000 3.921660 
# 
# 
# High freq. dielectric constant tensor:
#      x y z
#    x 1.863020 0.000000 0.000000 
#    y 0.000000 1.809580 0.000000 
#    z 0.000000 0.000000 1.830560 
# 
# From -- ./inp_files/24418.got.cif
#   From: 2010.06.25/outbox.cif.g09.slc.cpg/sg48_13_cif.got.tgz:24418.got - 2010.06.26 18:06:46.
