data_PCOD8201195
_publ_section_title
;
Structure prediction by ZEFSAII (Michael W. Deem and Ramdas Pophale) SiO2 
 PCOD8201195
Probable space group: P M M M
;
_chemical_formula_sum "Si O2"
_cell_formula_units_Z 52
_cell_length_a 9.328169
_cell_length_b 13.637380
_cell_length_c 26.595967
_cell_angle_alpha 90.000000
_cell_angle_beta 90.000000
_cell_angle_gamma 90.000000
_cell_volume 3383.320445
_symmetry_space_group_name_H-M "P M M M"
_symmetry_group_IT_number 47
_symmetry_cell_setting 'orthorhombic'
loop_
_space_group_symop_operation_xyz
x,y,z
-x,-y,z
x,-y,-z
-x,y,-z
-x,-y,-z
x,y,-z
-x,y,z
x,-y,z
loop_
_atom_site_type_symbol
_atom_site_label
_atom_site_fract_x
_atom_site_fract_y
_atom_site_fract_z
Si Si1 0.835167 0.109013 0.615860
Si Si2 0.831655 0.297482 0.556710
Si Si3 0.334355 0.390514 0.644042
Si Si4 0.333889 0.886127 0.807066
Si Si5 0.667269 0.798753 0.702451
Si Si6 0.662949 0.116995 0.000000
Si Si7 0.837746 0.883423 0.095717
O O1 0.791804 0.186378 0.572807
O O2 0.745805 0.125058 0.666339
O O3 0.000000 0.122554 0.630972
O O4 0.804550 0.000000 0.594846
O O5 0.776778 0.313570 0.500000
O O6 0.753928 0.374015 0.593058
O O7 0.000000 0.316743 0.560630
O O8 0.500000 0.377278 0.629891
O O9 0.302249 0.500000 0.664337
O O10 0.290274 0.312969 0.687448
O O11 0.500000 0.870474 0.821182
O O12 0.286932 0.820160 0.759606
O O13 0.238271 0.848098 0.853234
O O14 0.304062 0.000000 0.794693
O O15 0.500000 0.818482 0.695825
O O16 0.746713 0.157580 0.951235
O O17 0.500000 0.157253 0.000000
O O18 0.661044 0.000000 0.000000
O O19 0.000000 0.842161 0.093519
O O20 0.839498 0.000000 0.093542
#
# Coordination Sequence:
#
# PCOD8201195 Si02
#       7
#     8   8   8   8   8   4   8
#     4   9  17  28  42  60  81 105 132 161 194 233
#     4   9  18  31  45  62  83 105 130 160 194 235
#     4   9  18  32  48  64  81 102 129 162 202 245
#     4   9  16  25  37  54  76 102 132 163 195 232
#     4   9  17  29  44  60  79 104 133 165 200 240
#     4   9  15  23  35  49  69 101 140 177 206 231
#     4   9  16  24  34  50  73 102 136 171 203 232
#
# _framework density 15.369517
#
# number of rings (size 3 to 8) (size 9 to 14) (size 15 to 20)
#    0.000    3.000    0.000    1.154    0.000    5.538 
#    0.000    4.615    0.000    0.000    0.000    4.308 
#    0.000    0.000    0.000    0.692    0.000   16.385 
#
# Total GULP energy -644684.645339 kJ/mol
# GULP energy per Si atom -12397.781641 kJ/mol
# Density = 1.533454 g / cm^3
# Si number density = 15.369517 Si / 1000 Ang^3
#
#
#
# Elastic Constant Matrix: (Units=GPa)
#
#
# Indices 1 2 3 4 5 6 
#
# 1 63.7184 19.7686 53.0726 0.0000 0.0000 0.0000
# 2 19.7686 59.7668 32.6932 0.0000 0.0000 0.0000
# 3 53.0726 32.6932 126.4210 0.0000 0.0000 0.0000
# 4 0.0000 0.0000 0.0000 11.9636 0.0000 0.0000
# 5 0.0000 0.0000 0.0000 0.0000 27.2227 0.0000
# 6 0.0000 0.0000 0.0000 0.0000 0.0000 14.7816
#
#
#
# Elastic Compliance Matrix: (Units=1/GPa)
#
#
# Indices 1 2 3 4 5 6 
#
# 1 0.024554 -0.002892 -0.009560 0.000000 0.000000 0.000000
# 2 -0.002892 0.019829 -0.003914 0.000000 0.000000 0.000000
# 3 -0.009560 -0.003914 0.012936 0.000000 0.000000 0.000000
# 4 0.000000 0.000000 0.000000 0.083587 0.000000 0.000000
# 5 0.000000 0.000000 0.000000 0.000000 0.036734 0.000000
# 6 0.000000 0.000000 0.000000 0.000000 0.000000 0.067652
#
#
# Mechanical properties :
#
#
# Convention : Reuss Voigt Hill
#
# Bulk Modulus (GPa) = 40.67198 51.21944 45.94571
# Shear Modulus (GPa) = 17.46911 20.41836 18.94373
#
# Velocity S-wave (km/s) = 3.37502 3.64881 3.51458
# Velocity P-wave (km/s) = 6.45816 7.15188 6.81386
#
# Compressibility (1/GPa) = 0.02458695
#
# Stress axis : x y z
#
# Youngs Moduli (GPa) = 40.72622 50.43066 77.30574
#
# Poissons Ratio (x) = 0.14585 0.73906
# Poissons Ratio (y) = 0.11778 0.30256
# Poissons Ratio (z) = 0.38935 0.19738
#
# Static dielectric constant tensor:
#      x y z
#    x 3.026360 0.000000 0.000000 
#    y 0.000000 2.757380 0.000000 
#    z 0.000000 0.000000 2.991790 
# 
# 
# High freq. dielectric constant tensor:
#      x y z
#    x 1.594910 0.000000 0.000000 
#    y 0.000000 1.546870 0.000000 
#    z 0.000000 0.000000 1.584730 
# 
# From -- ./inp_files/8027.got.cif
#   From: 2010.03.12/outbox.cif.g09.slc.cpg/sg47_5_cif.got.tgz:8027.got - 2010.04.14 03:12:58.
