data_PCOD8201805
_publ_section_title
;
Structure prediction by ZEFSAII (Michael W. Deem and Ramdas Pophale) SiO2 
 PCOD8201805
Probable space group: P N N N
;
_chemical_formula_sum "Si O2"
_cell_formula_units_Z 34
_cell_length_a 10.232927
_cell_length_b 17.957890
_cell_length_c 8.347333
_cell_angle_alpha 90.000000
_cell_angle_beta 90.000000
_cell_angle_gamma 90.000000
_cell_volume 1533.920749
_symmetry_space_group_name_H-M "P N N N"
_symmetry_group_IT_number 48
_space_group.IT_coordinate_system_code '2'
_symmetry_cell_setting 'orthorhombic'
loop_
_space_group_symop_operation_xyz
x,y,z
1/2-x,1/2-y,z
x,1/2-y,1/2-z
1/2-x,y,1/2-z
-x,-y,-z
1/2+x,1/2+y,-z
-x,1/2+y,1/2+z
1/2+x,-y,1/2+z
loop_
_atom_site_type_symbol
_atom_site_label
_atom_site_fract_x
_atom_site_fract_y
_atom_site_fract_z
Si Si1 0.750000 0.750000 0.750000
Si Si2 0.708258 0.015224 0.430740
Si Si3 0.519221 0.609049 0.050129
Si Si4 0.505294 0.769328 0.916674
Si Si5 0.370565 0.613429 0.357252
O O1 0.650658 0.799869 0.861697
O O2 0.750000 0.008825 0.250000
O O3 0.597058 0.078574 0.439198
O O4 0.827275 0.039071 0.547379
O O5 0.652027 0.935618 0.490352
O O6 0.488349 0.593205 0.238081
O O7 0.534860 0.696329 0.022237
O O8 0.428659 0.750000 0.750000
O O9 0.418130 0.825769 0.015822
O O10 0.250000 0.645592 0.250000
#
# Coordination Sequence:
#
# PCOD8201805 Si02
#       5
#     2   8   8   8   8
#     4   8  24  40  62  98 124 180 206 276 328 404
#     4  10  22  40  60  96 131 179 217 274 341 401
#     4  10  22  40  61  98 133 168 226 275 339 402
#     4  10  21  43  67  96 130 179 226 275 341 406
#     4  10  22  41  68  98 133 174 225 288 336 398
#
# _framework density 22.165424000000002
#
# number of rings (size 3 to 8) (size 9 to 14) (size 15 to 20)
#    0.706    1.412    0.000    2.118    0.000    9.412 
#   10.588    7.059    0.000    0.000    0.000    0.000 
#    0.000    0.000    0.000    0.000    0.000    0.000 
#
# Total GULP energy -421236.830540 kJ/mol
# GULP energy per Si atom -12389.318545 kJ/mol
# Density = 2.211497 g / cm^3
# Si number density = 22.165424 Si / 1000 Ang^3
#
#
#
# Elastic Constant Matrix: (Units=GPa)
#
#
# Indices 1 2 3 4 5 6 
#
# 1 74.9522 40.8308 39.4929 0.0000 0.0000 0.0000
# 2 40.8308 101.7950 27.1751 0.0000 0.0000 0.0000
# 3 39.4929 27.1751 86.8688 0.0000 0.0000 0.0000
# 4 0.0000 0.0000 0.0000 26.4644 0.0000 0.0000
# 5 0.0000 0.0000 0.0000 0.0000 38.9991 0.0000
# 6 0.0000 0.0000 0.0000 0.0000 0.0000 28.4332
#
#
#
# Elastic Compliance Matrix: (Units=1/GPa)
#
#
# Indices 1 2 3 4 5 6 
#
# 1 0.020701 -0.006319 -0.007435 0.000000 0.000000 0.000000
# 2 -0.006319 0.012648 -0.001084 0.000000 0.000000 0.000000
# 3 -0.007435 -0.001084 0.015231 0.000000 0.000000 0.000000
# 4 0.000000 0.000000 0.000000 0.037787 0.000000 0.000000
# 5 0.000000 0.000000 0.000000 0.000000 0.025642 0.000000
# 6 0.000000 0.000000 0.000000 0.000000 0.000000 0.035170
#
#
# Mechanical properties :
#
#
# Convention : Reuss Voigt Hill
#
# Bulk Modulus (GPa) = 52.89608 53.17931 53.03769
# Shear Modulus (GPa) = 27.29937 29.18715 28.24326
#
# Velocity S-wave (km/s) = 3.51325 3.63269 3.57347
# Velocity P-wave (km/s) = 6.35400 6.45286 6.40362
#
# Compressibility (1/GPa) = 0.01890499
#
# Stress axis : x y z
#
# Youngs Moduli (GPa) = 48.30577 79.06688 65.65689
#
# Poissons Ratio (x) = 0.49960 0.48814
# Poissons Ratio (y) = 0.30523 0.07116
# Poissons Ratio (z) = 0.35914 0.08570
#
# Static dielectric constant tensor:
#      x y z
#    x 4.037740 0.000000 0.000000 
#    y 0.000000 3.685080 0.000000 
#    z 0.000000 0.000000 4.158990 
# 
# 
# High freq. dielectric constant tensor:
#      x y z
#    x 1.865990 0.000000 0.000000 
#    y 0.000000 1.844540 0.000000 
#    z 0.000000 0.000000 1.885200 
# 
# From -- ./inp_files/8745.got.cif
#   From: 2010.06.25/outbox.cif.g09.slc.cpg/sg48_5_cif.got.tgz:8745.got - 2010.06.26 18:06:46.
