data_PCOD8201833
_publ_section_title
;
Structure prediction by ZEFSAII (Michael W. Deem and Ramdas Pophale) SiO2 
 PCOD8201833
Probable space group: P N N N
;
_chemical_formula_sum "Si O2"
_cell_formula_units_Z 34
_cell_length_a 16.918817
_cell_length_b 5.026882
_cell_length_c 18.857130
_cell_angle_alpha 90.000000
_cell_angle_beta 90.000000
_cell_angle_gamma 90.000000
_cell_volume 1603.778100
_symmetry_space_group_name_H-M "P N N N"
_symmetry_group_IT_number 48
_space_group.IT_coordinate_system_code '2'
_symmetry_cell_setting 'orthorhombic'
loop_
_space_group_symop_operation_xyz
x,y,z
1/2-x,1/2-y,z
x,1/2-y,1/2-z
1/2-x,y,1/2-z
-x,-y,-z
1/2+x,1/2+y,-z
-x,1/2+y,1/2+z
1/2+x,-y,1/2+z
loop_
_atom_site_type_symbol
_atom_site_label
_atom_site_fract_x
_atom_site_fract_y
_atom_site_fract_z
Si Si1 0.750000 0.250000 0.518259
Si Si2 0.750000 0.250000 0.250000
Si Si3 0.510029 0.250354 0.409117
Si Si4 0.750000 0.750000 0.419898
Si Si5 0.875791 0.595552 0.319225
Si Si6 0.081548 0.757089 0.440951
O O1 0.766488 0.499599 0.468816
O O2 0.825011 0.201912 0.570122
O O3 0.799283 0.428638 0.301907
O O4 0.469084 0.536924 0.390932
O O5 0.565145 0.310582 0.476189
O O6 0.558984 0.115554 0.345560
O O7 0.439564 0.046750 0.425377
O O8 0.834561 0.793921 0.376827
O O9 0.909599 0.750000 0.250000
#
# Coordination Sequence:
#
# PCOD8201833 Si02
#       6
#     4   2   8   4   8   8
#     4  12  23  38  65  86 119 164 207 258 312 374
#     4  12  24  40  56  90 120 172 210 238 294 390
#     4  10  23  38  56  84 123 161 199 255 303 371
#     4  12  23  36  56  92 122 166 203 248 302 370
#     4  12  25  37  57  86 129 170 210 251 305 383
#     4  10  22  38  58  85 116 161 207 249 313 361
#
# _framework density 21.199940999999999
#
# number of rings (size 3 to 8) (size 9 to 14) (size 15 to 20)
#    0.000    0.941    4.706    2.118    9.882    0.000 
#    0.000    0.000    0.000    0.000    0.000    0.824 
#    0.000    0.000    0.000    0.000    0.000    0.000 
#
# Total GULP energy -421392.496321 kJ/mol
# GULP energy per Si atom -12393.896951 kJ/mol
# Density = 2.115169 g / cm^3
# Si number density = 21.199941 Si / 1000 Ang^3
#
#
#
# Elastic Constant Matrix: (Units=GPa)
#
#
# Indices 1 2 3 4 5 6 
#
# 1 123.1309 18.8992 26.3701 0.0000 0.0000 0.0000
# 2 18.8992 101.2723 17.0104 0.0000 0.0000 0.0000
# 3 26.3701 17.0104 52.1962 0.0000 0.0000 0.0000
# 4 0.0000 0.0000 0.0000 58.8251 0.0000 0.0000
# 5 0.0000 0.0000 0.0000 0.0000 18.9846 0.0000
# 6 0.0000 0.0000 0.0000 0.0000 0.0000 38.7740
#
#
#
# Elastic Compliance Matrix: (Units=1/GPa)
#
#
# Indices 1 2 3 4 5 6 
#
# 1 0.009200 -0.000990 -0.004325 0.000000 0.000000 0.000000
# 2 -0.000990 0.010553 -0.002939 0.000000 0.000000 0.000000
# 3 -0.004325 -0.002939 0.022301 0.000000 0.000000 0.000000
# 4 0.000000 0.000000 0.000000 0.017000 0.000000 0.000000
# 5 0.000000 0.000000 0.000000 0.000000 0.052674 0.000000
# 6 0.000000 0.000000 0.000000 0.000000 0.000000 0.025791
#
#
# Mechanical properties :
#
#
# Convention : Reuss Voigt Hill
#
# Bulk Modulus (GPa) = 39.14587 44.57319 41.85953
# Shear Modulus (GPa) = 30.76138 37.60471 34.18304
#
# Velocity S-wave (km/s) = 3.81335 4.21623 4.01984
# Velocity P-wave (km/s) = 6.15581 6.69126 6.42911
#
# Compressibility (1/GPa) = 0.02554548
#
# Stress axis : x y z
#
# Youngs Moduli (GPa) = 108.69907 94.76155 44.84050
#
# Poissons Ratio (x) = 0.09385 0.19394
# Poissons Ratio (y) = 0.10765 0.13177
# Poissons Ratio (z) = 0.47013 0.27848
#
# Static dielectric constant tensor:
#      x y z
#    x 3.606450 0.000000 0.000000 
#    y 0.000000 4.080400 0.000000 
#    z 0.000000 0.000000 3.466570 
# 
# 
# High freq. dielectric constant tensor:
#      x y z
#    x 1.826300 0.000000 0.000000 
#    y 0.000000 1.856080 0.000000 
#    z 0.000000 0.000000 1.772940 
# 
# From -- ./inp_files/24177.got.cif
#   From: 2010.06.25/outbox.cif.g09.slc.cpg/sg48_13_cif.got.tgz:24177.got - 2010.06.26 18:06:46.
