data_PCOD8201378
_publ_section_title
;
Structure prediction by ZEFSAII (Michael W. Deem and Ramdas Pophale) SiO2 
 PCOD8201378
Probable space group: P N N N
;
_chemical_formula_sum "Si O2"
_cell_formula_units_Z 48
_cell_length_a 20.117311
_cell_length_b 8.471428
_cell_length_c 15.814522
_cell_angle_alpha 90.000000
_cell_angle_beta 90.000000
_cell_angle_gamma 90.000000
_cell_volume 2695.148030
_symmetry_space_group_name_H-M "P N N N"
_symmetry_group_IT_number 48
_space_group.IT_coordinate_system_code '2'
_symmetry_cell_setting 'orthorhombic'
loop_
_space_group_symop_operation_xyz
x,y,z
1/2-x,1/2-y,z
x,1/2-y,1/2-z
1/2-x,y,1/2-z
-x,-y,-z
1/2+x,1/2+y,-z
-x,1/2+y,1/2+z
1/2+x,-y,1/2+z
loop_
_atom_site_type_symbol
_atom_site_label
_atom_site_fract_x
_atom_site_fract_y
_atom_site_fract_z
Si Si1 0.935731 0.945271 0.049830
Si Si2 0.052172 0.365409 0.021929
Si Si3 0.001124 0.650725 0.675837
Si Si4 0.823228 0.078613 0.935033
Si Si5 0.172890 0.558781 0.078388
Si Si6 0.386699 0.571427 0.240743
O O1 0.941080 0.035961 0.139070
O O2 0.942010 0.755343 0.057527
O O3 0.868640 0.982257 0.999538
O O4 0.000000 0.000000 0.000000
O O5 0.123982 0.444793 0.028166
O O6 0.031932 0.265351 0.105369
O O7 0.000000 0.500000 0.000000
O O8 0.036567 0.750000 0.750000
O O9 0.946948 0.547634 0.726157
O O10 0.837124 0.262194 0.952777
O O11 0.748311 0.016630 0.946136
O O12 0.838193 0.047569 0.837598
O O13 0.157265 0.532687 0.177181
O O14 0.414655 0.750000 0.250000
#
# Coordination Sequence:
#
# PCOD8201378 Si02
#       6
#     8   8   8   8   8   8
#     4  10  20  35  54  72 111 151 192 240 279 327
#     4  11  22  35  55  81 110 151 194 239 288 340
#     4  11  21  36  55  82 112 149 198 242 293 337
#     4  10  19  35  52  80 115 160 188 228 277 336
#     4  10  20  32  54  81 116 151 194 223 280 349
#     4  10  19  32  52  80 117 158 187 224 279 344
#
# _framework density 17.809782999999999
#
# number of rings (size 3 to 8) (size 9 to 14) (size 15 to 20)
#    0.000    1.667    5.000    2.500    2.333    2.667 
#    0.000    0.000    0.000    0.000    0.000    9.333 
#    0.000    8.000    0.000    0.000    0.000    0.000 
#
# Total GULP energy -594757.685946 kJ/mol
# GULP energy per Si atom -12390.785124 kJ/mol
# Density = 1.776925 g / cm^3
# Si number density = 17.809783 Si / 1000 Ang^3
#
#
#
# Elastic Constant Matrix: (Units=GPa)
#
#
# Indices 1 2 3 4 5 6 
#
# 1 115.6679 68.1342 46.2894 0.0000 0.0000 0.0000
# 2 68.1342 126.0168 54.6471 0.0000 0.0000 0.0000
# 3 46.2894 54.6471 63.3190 0.0000 0.0000 0.0000
# 4 0.0000 0.0000 0.0000 32.9872 0.0000 0.0000
# 5 0.0000 0.0000 0.0000 0.0000 30.4474 0.0000
# 6 0.0000 0.0000 0.0000 0.0000 0.0000 31.3112
#
#
#
# Elastic Compliance Matrix: (Units=1/GPa)
#
#
# Indices 1 2 3 4 5 6 
#
# 1 0.013936 -0.004981 -0.005889 0.000000 0.000000 0.000000
# 2 -0.004981 0.014462 -0.008840 0.000000 0.000000 0.000000
# 3 -0.005889 -0.008840 0.027728 0.000000 0.000000 0.000000
# 4 0.000000 0.000000 0.000000 0.030315 0.000000 0.000000
# 5 0.000000 0.000000 0.000000 0.000000 0.032844 0.000000
# 6 0.000000 0.000000 0.000000 0.000000 0.000000 0.031937
#
#
# Mechanical properties :
#
#
# Convention : Reuss Voigt Hill
#
# Bulk Modulus (GPa) = 59.86081 71.46057 65.66069
# Shear Modulus (GPa) = 25.48276 28.01136 26.74706
#
# Velocity S-wave (km/s) = 3.78673 3.97017 3.87953
# Velocity P-wave (km/s) = 7.26659 7.82482 7.55086
#
# Compressibility (1/GPa) = 0.01670542
#
# Stress axis : x y z
#
# Youngs Moduli (GPa) = 71.75413 69.14627 36.06521
#
# Poissons Ratio (x) = 0.34444 0.21240
# Poissons Ratio (y) = 0.35743 0.31881
# Poissons Ratio (z) = 0.42258 0.61124
#
# Static dielectric constant tensor:
#      x y z
#    x 3.084000 0.000000 0.000000 
#    y 0.000000 3.734110 0.000000 
#    z 0.000000 0.000000 3.427240 
# 
# 
# High freq. dielectric constant tensor:
#      x y z
#    x 1.669910 0.000000 0.000000 
#    y 0.000000 1.708230 0.000000 
#    z 0.000000 0.000000 1.662100 
# 
# From -- ./inp_files/14313.got.cif
#   From: 2010.06.25/outbox.cif.g09.slc.cpg/sg48_8_cif.got.tgz:14313.got - 2010.06.26 18:06:46.
