data_PCOD8201495
_publ_section_title
;
Structure prediction by ZEFSAII (Michael W. Deem and Ramdas Pophale) SiO2 
 PCOD8201495
Probable space group: P N N N
;
_chemical_formula_sum "Si O2"
_cell_formula_units_Z 56
_cell_length_a 9.281081
_cell_length_b 19.146893
_cell_length_c 15.691895
_cell_angle_alpha 90.000000
_cell_angle_beta 90.000000
_cell_angle_gamma 90.000000
_cell_volume 2788.510388
_symmetry_space_group_name_H-M "P N N N"
_symmetry_group_IT_number 48
_space_group.IT_coordinate_system_code '2'
_symmetry_cell_setting 'orthorhombic'
loop_
_space_group_symop_operation_xyz
x,y,z
1/2-x,1/2-y,z
x,1/2-y,1/2-z
1/2-x,y,1/2-z
-x,-y,-z
1/2+x,1/2+y,-z
-x,1/2+y,1/2+z
1/2+x,-y,1/2+z
loop_
_atom_site_type_symbol
_atom_site_label
_atom_site_fract_x
_atom_site_fract_y
_atom_site_fract_z
Si Si1 0.767703 0.926567 0.982113
Si Si2 0.171191 0.529467 0.330647
Si Si3 0.836907 0.517562 0.333020
Si Si4 0.236517 0.671783 0.396132
Si Si5 0.258473 0.642102 0.844746
Si Si6 0.996189 0.186601 0.033658
Si Si7 0.013377 0.659596 0.969827
O O1 0.604706 0.900593 0.975989
O O2 0.877177 0.867802 0.948318
O O3 0.788652 0.993621 0.921128
O O4 0.795352 0.941891 0.081082
O O5 0.250000 0.492216 0.250000
O O6 0.226252 0.609827 0.328217
O O7 0.003102 0.527751 0.312569
O O8 0.750000 0.545683 0.250000
O O9 0.807821 0.437295 0.349743
O O10 0.250000 0.750000 0.355653
O O11 0.087250 0.666378 0.447887
O O12 0.375087 0.655136 0.452968
O O13 0.250000 0.671063 0.750000
O O14 0.376650 0.689049 0.892040
O O15 0.099110 0.647963 0.882704
O O16 0.062674 0.264342 0.028699
#
# Coordination Sequence:
#
# PCOD8201495 Si02
#       7
#     8   8   8   8   8   8   8
#     4  12  23  40  67  92 131 168 205 262 323 367
#     4  12  26  41  66  96 129 163 210 259 315 376
#     4  11  25  43  66  93 124 164 209 266 320 377
#     4   9  20  41  65  88 119 161 209 254 308 373
#     4  10  21  38  61  88 127 166 217 263 312 373
#     4  10  19  40  61  88 124 170 212 254 314 370
#     4  10  23  35  62  95 121 166 217 256 305 378
#
# _framework density 20.082408000000001
#
# number of rings (size 3 to 8) (size 9 to 14) (size 15 to 20)
#    0.000    1.429    2.857    3.857    6.000    2.571 
#    0.000    0.000    0.000    4.286    0.000    0.000 
#    0.000    0.000    0.000    0.000    0.000    0.000 
#
# Total GULP energy -694346.031816 kJ/mol
# GULP energy per Si atom -12399.036282 kJ/mol
# Density = 2.003670 g / cm^3
# Si number density = 20.082408 Si / 1000 Ang^3
#
#
#
# Elastic Constant Matrix: (Units=GPa)
#
#
# Indices 1 2 3 4 5 6 
#
# 1 121.0842 40.9294 46.9660 0.0000 0.0000 0.0000
# 2 40.9294 95.1342 21.3885 0.0000 0.0000 0.0000
# 3 46.9660 21.3885 117.5928 0.0000 0.0000 0.0000
# 4 0.0000 0.0000 0.0000 44.7201 0.0000 0.0000
# 5 0.0000 0.0000 0.0000 0.0000 28.1384 0.0000
# 6 0.0000 0.0000 0.0000 0.0000 0.0000 28.8010
#
#
#
# Elastic Compliance Matrix: (Units=1/GPa)
#
#
# Indices 1 2 3 4 5 6 
#
# 1 0.011010 -0.003908 -0.003686 0.000000 0.000000 0.000000
# 2 -0.003908 0.012347 -0.000685 0.000000 0.000000 0.000000
# 3 -0.003686 -0.000685 0.010101 0.000000 0.000000 0.000000
# 4 0.000000 0.000000 0.000000 0.022361 0.000000 0.000000
# 5 0.000000 0.000000 0.000000 0.000000 0.035539 0.000000
# 6 0.000000 0.000000 0.000000 0.000000 0.000000 0.034721
#
#
# Mechanical properties :
#
#
# Convention : Reuss Voigt Hill
#
# Bulk Modulus (GPa) = 59.17578 61.37545 60.27562
# Shear Modulus (GPa) = 33.72246 35.30040 34.51143
#
# Velocity S-wave (km/s) = 4.10225 4.19713 4.14997
# Velocity P-wave (km/s) = 7.20891 7.35636 7.28301
#
# Compressibility (1/GPa) = 0.01689881
#
# Stress axis : x y z
#
# Youngs Moduli (GPa) = 90.83055 80.99326 99.00193
#
# Poissons Ratio (x) = 0.31651 0.36496
# Poissons Ratio (y) = 0.35495 0.06781
# Poissons Ratio (z) = 0.33483 0.05547
#
# Static dielectric constant tensor:
#      x y z
#    x 3.670750 0.000000 0.000000 
#    y 0.000000 3.734280 0.000000 
#    z 0.000000 0.000000 3.611100 
# 
# 
# High freq. dielectric constant tensor:
#      x y z
#    x 1.784750 0.000000 0.000000 
#    y 0.000000 1.792240 0.000000 
#    z 0.000000 0.000000 1.777190 
# 
# From -- ./inp_files/15290.got.cif
#   From: 2010.06.25/outbox.cif.g09.slc.cpg/sg48_8_cif.got.tgz:15290.got - 2010.06.26 18:06:46.
