data_PCOD8201222
_publ_section_title
;
Structure prediction by ZEFSAII (Michael W. Deem and Ramdas Pophale) SiO2 
 PCOD8201222
Probable space group: P M M M
;
_chemical_formula_sum "Si O2"
_cell_formula_units_Z 44
_cell_length_a 13.678125
_cell_length_b 9.478668
_cell_length_c 21.172048
_cell_angle_alpha 90.000000
_cell_angle_beta 90.000000
_cell_angle_gamma 90.000000
_cell_volume 2744.964613
_symmetry_space_group_name_H-M "P M M M"
_symmetry_group_IT_number 47
_symmetry_cell_setting 'orthorhombic'
loop_
_space_group_symop_operation_xyz
x,y,z
-x,-y,z
x,-y,-z
-x,y,-z
-x,-y,-z
x,y,-z
-x,y,z
x,-y,z
loop_
_atom_site_type_symbol
_atom_site_label
_atom_site_fract_x
_atom_site_fract_y
_atom_site_fract_z
Si Si1 0.772383 0.337794 0.929620
Si Si2 0.273335 0.836759 0.745145
Si Si3 0.613428 0.163777 0.380526
Si Si4 0.616104 0.340333 0.500000
Si Si5 0.888652 0.334506 0.807626
Si Si6 0.611016 0.836100 0.869982
O O1 0.743213 0.500000 0.920255
O O2 0.854044 0.293365 0.878471
O O3 0.674134 0.248087 0.921004
O O4 0.814509 0.310367 0.000000
O O5 0.323014 0.792052 0.679753
O O6 0.175460 0.746140 0.755445
O O7 0.351452 0.803700 0.799625
O O8 0.243152 0.000000 0.745076
O O9 0.500000 0.195041 0.365632
O O10 0.653387 0.257917 0.438170
O O11 0.627708 0.000000 0.398064
O O12 0.657454 0.500000 0.500000
O O13 0.500000 0.340372 0.500000
O O14 0.877541 0.500000 0.795387
O O15 0.000000 0.284627 0.800392
O O16 0.500000 0.783560 0.874530
O O17 0.620027 0.000000 0.886352
#
# Coordination Sequence:
#
# PCOD8201222 Si02
#       6
#     8   8   8   4   8   8
#     4   9  18  31  45  62  84 110 142 179 217 259
#     4   9  17  29  46  67  88 112 145 182 217 255
#     4   9  16  27  44  65  91 123 154 180 208 246
#     4   9  17  27  39  61  94 127 156 183 209 240
#     4   9  18  32  48  65  85 109 139 178 224 270
#     4   9  17  29  44  62  86 115 145 177 213 254
#
# _framework density 16.029350000000001
#
# number of rings (size 3 to 8) (size 9 to 14) (size 15 to 20)
#    0.000    3.000    0.000    0.818    0.000    5.818 
#    0.000    3.636    0.000    3.273    0.000    5.727 
#    0.000    5.091    0.000    0.000    0.000    0.000 
#
# Total GULP energy -545587.901775 kJ/mol
# GULP energy per Si atom -12399.725040 kJ/mol
# Density = 1.599287 g / cm^3
# Si number density = 16.029350 Si / 1000 Ang^3
#
#
#
# Elastic Constant Matrix: (Units=GPa)
#
#
# Indices 1 2 3 4 5 6 
#
# 1 103.8433 42.8792 45.9769 0.0000 0.0000 0.0000
# 2 42.8792 56.6422 47.3355 0.0000 0.0000 0.0000
# 3 45.9769 47.3355 111.7354 0.0000 0.0000 0.0000
# 4 0.0000 0.0000 0.0000 26.2139 0.0000 0.0000
# 5 0.0000 0.0000 0.0000 0.0000 17.6893 0.0000
# 6 0.0000 0.0000 0.0000 0.0000 0.0000 25.1749
#
#
#
# Elastic Compliance Matrix: (Units=1/GPa)
#
#
# Indices 1 2 3 4 5 6 
#
# 1 0.014294 -0.009142 -0.002009 0.000000 0.000000 0.000000
# 2 -0.009142 0.033178 -0.010294 0.000000 0.000000 0.000000
# 3 -0.002009 -0.010294 0.014137 0.000000 0.000000 0.000000
# 4 0.000000 0.000000 0.000000 0.038148 0.000000 0.000000
# 5 0.000000 0.000000 0.000000 0.000000 0.056531 0.000000
# 6 0.000000 0.000000 0.000000 0.000000 0.000000 0.039722
#
#
# Mechanical properties :
#
#
# Convention : Reuss Voigt Hill
#
# Bulk Modulus (GPa) = 53.41917 60.51156 56.96537
# Shear Modulus (GPa) = 20.39654 22.88425 21.64039
#
# Velocity S-wave (km/s) = 3.57101 3.78252 3.67829
# Velocity P-wave (km/s) = 7.09937 7.54381 7.32496
#
# Compressibility (1/GPa) = 0.01871987
#
# Stress axis : x y z
#
# Youngs Moduli (GPa) = 69.95758 30.14062 70.73624
#
# Poissons Ratio (x) = 0.27556 0.14209
# Poissons Ratio (y) = 0.63958 0.72812
# Poissons Ratio (z) = 0.14053 0.31025
#
# Static dielectric constant tensor:
#      x y z
#    x 2.902830 0.000000 0.000000 
#    y 0.000000 3.059810 0.000000 
#    z 0.000000 0.000000 3.055810 
# 
# 
# High freq. dielectric constant tensor:
#      x y z
#    x 1.590560 0.000000 0.000000 
#    y 0.000000 1.615720 0.000000 
#    z 0.000000 0.000000 1.612350 
# 
# From -- ./inp_files/6746.got.cif
#   From: 2010.03.12/outbox.cif.g09.slc.cpg/sg47_4_cif.got.tgz:6746.got - 2010.04.14 03:12:58.
