data_PCOD8201242
_publ_section_title
;
Structure prediction by ZEFSAII (Michael W. Deem and Ramdas Pophale) SiO2 
 PCOD8201242
Probable space group: P M M M
;
_chemical_formula_sum "Si O2"
_cell_formula_units_Z 56
_cell_length_a 21.000000
_cell_length_b 9.000000
_cell_length_c 15.000000
_cell_angle_alpha 90.000000
_cell_angle_beta 90.000000
_cell_angle_gamma 90.000000
_cell_volume 2835.000000
_symmetry_space_group_name_H-M "P M M M"
_symmetry_group_IT_number 47
_symmetry_cell_setting 'orthorhombic'
loop_
_space_group_symop_operation_xyz
x,y,z
-x,-y,z
x,-y,-z
-x,y,-z
-x,-y,-z
x,y,-z
-x,y,z
x,-y,z
loop_
_atom_site_type_symbol
_atom_site_label
_atom_site_fract_x
_atom_site_fract_y
_atom_site_fract_z
Si Si1 0.822728 0.175264 0.641064
Si Si2 0.376473 0.175087 0.101992
Si Si3 0.868205 0.326475 0.184074
Si Si4 0.428148 0.325407 0.269996
Si Si5 0.000000 0.324147 0.900393
Si Si6 0.236801 0.838659 0.898245
Si Si7 0.313052 0.327360 0.602258
Si Si8 0.073541 0.824130 0.500000
O O1 0.842848 0.221846 0.738719
O O2 0.754434 0.245577 0.618227
O O3 0.883393 0.231235 0.582898
O O4 0.814634 0.000000 0.630324
O O5 0.423122 0.254602 0.171556
O O6 0.305239 0.213189 0.139712
O O7 0.388836 0.000000 0.105425
O O8 0.387962 0.232769 0.000000
O O9 0.868254 0.500000 0.209116
O O10 0.816576 0.290100 0.108120
O O11 0.937740 0.271553 0.153053
O O12 0.500000 0.288095 0.306202
O O13 0.419850 0.500000 0.259650
O O14 0.372192 0.266623 0.337297
O O15 0.000000 0.500000 0.909521
O O16 0.000000 0.254364 0.000000
O O17 0.216068 0.000000 0.856092
O O18 0.251325 0.868294 0.000000
O O19 0.333584 0.301873 0.500000
O O20 0.300534 0.500000 0.622513
O O21 0.000000 0.757849 0.500000
O O22 0.066616 0.000000 0.500000
#
# Coordination Sequence:
#
# PCOD8201242 Si02
#       8
#     8   8   8   8   4   8   8   4
#     4  11  22  38  61  87 115 148 187 232 283 338
#     4   9  19  36  57  81 111 148 188 231 285 346
#     4  11  22  35  54  80 110 146 189 232 281 337
#     4  10  22  38  56  83 117 152 192 237 286 341
#     4   9  20  38  55  74 109 154 194 234 282 337
#     4   9  18  34  55  80 109 141 182 233 283 331
#     4  10  21  39  63  88 117 152 192 240 291 349
#     4   9  20  38  59  83 112 147 182 224 279 339
#
# _framework density 19.753086
#
# number of rings (size 3 to 8) (size 9 to 14) (size 15 to 20)
#    0.000    2.143    0.714    3.000    1.000    5.429 
#    0.000    5.357    0.000    4.286    0.000    2.000 
#    0.000    0.000    0.000    0.000    0.000    0.000 
#
# Total GULP energy -693863.699027 kJ/mol
# GULP energy per Si atom -12390.423197 kJ/mol
# Density = 1.970813 g / cm^3
# Si number density = 19.753086 Si / 1000 Ang^3
#
#
#
# Elastic Constant Matrix: (Units=GPa)
#
#
# Indices 1 2 3 4 5 6 
#
# 1 177.0209 41.4575 58.4454 0.0000 0.0000 0.0000
# 2 41.4575 46.2776 25.7117 0.0000 0.0000 0.0000
# 3 58.4454 25.7117 89.2425 0.0000 0.0000 0.0000
# 4 0.0000 0.0000 0.0000 16.5156 0.0000 0.0000
# 5 0.0000 0.0000 0.0000 0.0000 36.5307 0.0000
# 6 0.0000 0.0000 0.0000 0.0000 0.0000 29.4211
#
#
#
# Elastic Compliance Matrix: (Units=1/GPa)
#
#
# Indices 1 2 3 4 5 6 
#
# 1 0.008120 -0.005143 -0.003836 0.000000 0.000000 0.000000
# 2 -0.005143 0.028984 -0.004983 0.000000 0.000000 0.000000
# 3 -0.003836 -0.004983 0.015153 0.000000 0.000000 0.000000
# 4 0.000000 0.000000 0.000000 0.060549 0.000000 0.000000
# 5 0.000000 0.000000 0.000000 0.000000 0.027374 0.000000
# 6 0.000000 0.000000 0.000000 0.000000 0.000000 0.033989
#
#
# Mechanical properties :
#
#
# Convention : Reuss Voigt Hill
#
# Bulk Modulus (GPa) = 41.09412 62.64111 51.86761
# Shear Modulus (GPa) = 23.78635 28.95523 26.37079
#
# Velocity S-wave (km/s) = 3.47390 3.83281 3.65776
# Velocity P-wave (km/s) = 6.07780 7.16716 6.64484
#
# Compressibility (1/GPa) = 0.02433438
#
# Stress axis : x y z
#
# Youngs Moduli (GPa) = 123.15204 34.50145 65.99247
#
# Poissons Ratio (x) = 0.17744 0.25316
# Poissons Ratio (y) = 0.63336 0.32881
# Poissons Ratio (z) = 0.47243 0.17190
#
# Static dielectric constant tensor:
#      x y z
#    x 4.020820 0.000000 0.000000 
#    y 0.000000 3.371440 0.000000 
#    z 0.000000 0.000000 4.151750 
# 
# 
# High freq. dielectric constant tensor:
#      x y z
#    x 1.792490 0.000000 0.000000 
#    y 0.000000 1.749580 0.000000 
#    z 0.000000 0.000000 1.772950 
# 
# From -- ./inp_files/25238.got.cif
#   From: 2010.03.12/outbox.ucp.g09.slc.cvg/sg47_13_cif.got.tgz:25238.got - 2010.05.04 21:26:29.
