data_PCOD8201630
_publ_section_title
;
Structure prediction by ZEFSAII (Michael W. Deem and Ramdas Pophale) SiO2 
 PCOD8201630
Probable space group: P N N N
;
_chemical_formula_sum "Si O2"
_cell_formula_units_Z 64
_cell_length_a 29.845836
_cell_length_b 8.758933
_cell_length_c 12.091547
_cell_angle_alpha 90.000000
_cell_angle_beta 90.000000
_cell_angle_gamma 90.000000
_cell_volume 3160.944138
_symmetry_space_group_name_H-M "P N N N"
_symmetry_group_IT_number 48
_space_group.IT_coordinate_system_code '2'
_symmetry_cell_setting 'orthorhombic'
loop_
_space_group_symop_operation_xyz
x,y,z
1/2-x,1/2-y,z
x,1/2-y,1/2-z
1/2-x,y,1/2-z
-x,-y,-z
1/2+x,1/2+y,-z
-x,1/2+y,1/2+z
1/2+x,-y,1/2+z
loop_
_atom_site_type_symbol
_atom_site_label
_atom_site_fract_x
_atom_site_fract_y
_atom_site_fract_z
Si Si1 0.946588 0.208177 0.625881
Si Si2 0.309613 0.612380 0.594123
Si Si3 0.388099 0.470768 0.484537
Si Si4 0.230997 0.094316 0.986424
Si Si5 0.091099 0.986200 0.990578
Si Si6 0.449982 0.270417 0.623587
Si Si7 0.830351 0.436400 0.338911
Si Si8 0.844614 0.687360 0.626845
O O1 0.933553 0.250000 0.750000
O O2 0.920210 0.049963 0.605177
O O3 0.934990 0.342064 0.539495
O O4 0.999024 0.175474 0.613464
O O5 0.354564 0.603817 0.522529
O O6 0.267976 0.539997 0.525144
O O7 0.301238 0.789461 0.621051
O O8 0.322350 0.530814 0.710063
O O9 0.419298 0.408097 0.581665
O O10 0.355613 0.336023 0.444882
O O11 0.250000 0.250000 0.942883
O O12 0.206422 0.121814 0.106182
O O13 0.190131 0.078002 0.902442
O O14 0.118457 0.927552 0.881505
O O15 0.056901 0.115861 0.947815
O O16 0.121103 0.053078 0.091919
O O17 0.435809 0.250000 0.750000
O O18 0.849913 0.750000 0.750000
#
# Coordination Sequence:
#
# PCOD8201630 Si02
#       8
#     8   8   8   8   8   8   8   8
#     4  11  22  38  62  88 119 160 205 251 302 358
#     4  11  21  38  57  86 116 155 186 234 300 359
#     4  11  21  39  61  85 122 156 201 246 300 354
#     4  11  22  38  56  88 113 150 189 241 291 344
#     4  10  20  39  61  88 118 160 198 248 298 357
#     4  10  22  38  59  91 124 155 197 252 309 368
#     4  10  22  37  60  82 120 151 187 236 294 361
#     4  10  22  40  61  84 116 158 202 245 291 350
#
# _framework density 20.247115999999998
#
# number of rings (size 3 to 8) (size 9 to 14) (size 15 to 20)
#    0.000    1.500    2.500    3.000    0.000    2.250 
#    0.000    0.000    0.000    6.000    3.250    0.000 
#    0.000    0.000    0.000    0.000    0.000    0.000 
#
# Total GULP energy -792960.157171 kJ/mol
# GULP energy per Si atom -12390.002456 kJ/mol
# Density = 2.020103 g / cm^3
# Si number density = 20.247116 Si / 1000 Ang^3
#
#
#
# Elastic Constant Matrix: (Units=GPa)
#
#
# Indices 1 2 3 4 5 6 
#
# 1 94.8790 21.1586 42.5898 0.0000 0.0000 0.0000
# 2 21.1586 51.1413 8.1428 0.0000 0.0000 0.0000
# 3 42.5898 8.1428 96.1387 0.0000 0.0000 0.0000
# 4 0.0000 0.0000 0.0000 27.9466 0.0000 0.0000
# 5 0.0000 0.0000 0.0000 0.0000 21.6228 0.0000
# 6 0.0000 0.0000 0.0000 0.0000 0.0000 30.3455
#
#
#
# Elastic Compliance Matrix: (Units=1/GPa)
#
#
# Indices 1 2 3 4 5 6 
#
# 1 0.014305 -0.004976 -0.005916 0.000000 0.000000 0.000000
# 2 -0.004976 0.021552 0.000379 0.000000 0.000000 0.000000
# 3 -0.005916 0.000379 0.012990 0.000000 0.000000 0.000000
# 4 0.000000 0.000000 0.000000 0.035783 0.000000 0.000000
# 5 0.000000 0.000000 0.000000 0.000000 0.046248 0.000000
# 6 0.000000 0.000000 0.000000 0.000000 0.000000 0.032954
#
#
# Mechanical properties :
#
#
# Convention : Reuss Voigt Hill
#
# Bulk Modulus (GPa) = 35.94351 42.88235 39.41293
# Shear Modulus (GPa) = 25.75581 27.33417 26.54499
#
# Velocity S-wave (km/s) = 3.57048 3.67826 3.62477
# Velocity P-wave (km/s) = 5.89820 6.26617 6.08497
#
# Compressibility (1/GPa) = 0.02782143
#
# Stress axis : x y z
#
# Youngs Moduli (GPa) = 69.90576 46.39899 76.98121
#
# Poissons Ratio (x) = 0.23090 0.45539
# Poissons Ratio (y) = 0.34788 -0.02919
# Poissons Ratio (z) = 0.41354 -0.01759
#
# Static dielectric constant tensor:
#      x y z
#    x 3.785740 0.000000 0.000000 
#    y 0.000000 3.678970 0.000000 
#    z 0.000000 0.000000 3.609540 
# 
# 
# High freq. dielectric constant tensor:
#      x y z
#    x 1.800810 0.000000 0.000000 
#    y 0.000000 1.794490 0.000000 
#    z 0.000000 0.000000 1.777380 
# 
# From -- ./inp_files/16961.got.cif
#   From: 2010.06.25/outbox.cif.g09.slc.cpg/sg48_9_cif.got.tgz:16961.got - 2010.06.26 18:06:46.
