data_PCOD8201274
_publ_section_title
;
Structure prediction by ZEFSAII (Michael W. Deem and Ramdas Pophale) SiO2 
 PCOD8201274
Probable space group: P N N N
;
_chemical_formula_sum "Si O2"
_cell_formula_units_Z 58
_cell_length_a 18.910264
_cell_length_b 14.309133
_cell_length_c 10.248202
_cell_angle_alpha 90.000000
_cell_angle_beta 90.000000
_cell_angle_gamma 90.000000
_cell_volume 2773.055677
_symmetry_space_group_name_H-M "P N N N"
_symmetry_group_IT_number 48
_space_group.IT_coordinate_system_code '2'
_symmetry_cell_setting 'orthorhombic'
loop_
_space_group_symop_operation_xyz
x,y,z
1/2-x,1/2-y,z
x,1/2-y,1/2-z
1/2-x,y,1/2-z
-x,-y,-z
1/2+x,1/2+y,-z
-x,1/2+y,1/2+z
1/2+x,-y,1/2+z
loop_
_atom_site_type_symbol
_atom_site_label
_atom_site_fract_x
_atom_site_fract_y
_atom_site_fract_z
Si Si1 0.331578 0.557492 0.891094
Si Si2 0.903940 0.261282 0.396416
Si Si3 0.750000 0.750000 0.250000
Si Si4 0.496531 0.349777 0.722923
Si Si5 0.366135 0.355449 0.914854
Si Si6 0.433509 0.488657 0.405639
Si Si7 0.168762 0.577500 0.911247
Si Si8 0.442940 0.291577 0.450496
O O1 0.378461 0.639827 0.955129
O O2 0.347025 0.459616 0.963140
O O3 0.252069 0.588277 0.919540
O O4 0.351053 0.547911 0.737030
O O5 0.875123 0.250000 0.250000
O O6 0.869362 0.171747 0.466046
O O7 0.987963 0.261933 0.402271
O O8 0.700563 0.682166 0.165844
O O9 0.536881 0.250000 0.750000
O O10 0.439372 0.364787 0.836080
O O11 0.552578 0.436309 0.712141
O O12 0.451734 0.339319 0.591232
O O13 0.380067 0.285355 0.037832
O O14 0.500000 0.500000 0.500000
O O15 0.360772 0.502312 0.486219
O O16 0.428109 0.380444 0.353842
#
# Coordination Sequence:
#
# PCOD8201274 Si02
#       8
#     8   8   2   8   8   8   8   8
#     4  10  21  31  48  74 112 142 170 211 279 327
#     4  10  20  33  51  72 103 140 182 219 254 316
#     4  12  20  32  52  80 120 136 158 208 272 340
#     4   9  17  32  49  74 104 134 173 219 264 300
#     4  11  22  32  51  80 116 138 166 216 278 325
#     4  10  17  28  54  72 100 139 182 215 256 312
#     4  10  18  32  50  76 106 141 177 215 265 334
#     4  10  19  33  48  76 106 136 180 213 264 315
#
# _framework density 20.915555000000001
#
# number of rings (size 3 to 8) (size 9 to 14) (size 15 to 20)
#    0.000    1.931    4.828    2.897    3.862    2.207 
#    0.000    0.000    0.000    0.000    0.000    7.241 
#    0.000    0.000    0.000    0.000    0.000    0.000 
#
# Total GULP energy -718579.092451 kJ/mol
# GULP energy per Si atom -12389.294697 kJ/mol
# Density = 2.086795 g / cm^3
# Si number density = 20.915555 Si / 1000 Ang^3
#
#
#
# Elastic Constant Matrix: (Units=GPa)
#
#
# Indices 1 2 3 4 5 6 
#
# 1 96.6489 62.2739 14.3401 0.0000 0.0000 0.0000
# 2 62.2739 189.9528 12.4453 0.0000 0.0000 0.0000
# 3 14.3401 12.4453 15.1091 0.0000 0.0000 0.0000
# 4 0.0000 0.0000 0.0000 25.0063 0.0000 0.0000
# 5 0.0000 0.0000 0.0000 0.0000 29.4624 0.0000
# 6 0.0000 0.0000 0.0000 0.0000 0.0000 34.0406
#
#
#
# Elastic Compliance Matrix: (Units=1/GPa)
#
#
# Indices 1 2 3 4 5 6 
#
# 1 0.014520 -0.004077 -0.010423 0.000000 0.000000 0.000000
# 2 -0.004077 0.006710 -0.001657 0.000000 0.000000 0.000000
# 3 -0.010423 -0.001657 0.077442 0.000000 0.000000 0.000000
# 4 0.000000 0.000000 0.000000 0.039990 0.000000 0.000000
# 5 0.000000 0.000000 0.000000 0.000000 0.033942 0.000000
# 6 0.000000 0.000000 0.000000 0.000000 0.000000 0.029377
#
#
# Mechanical properties :
#
#
# Convention : Reuss Voigt Hill
#
# Bulk Modulus (GPa) = 15.06976 53.31436 34.19206
# Shear Modulus (GPa) = 19.49972 31.87862 25.68917
#
# Velocity S-wave (km/s) = 3.05668 3.90828 3.50842
# Velocity P-wave (km/s) = 4.43604 6.77583 5.72670
#
# Compressibility (1/GPa) = 0.06635807
#
# Stress axis : x y z
#
# Youngs Moduli (GPa) = 68.86850 149.03623 12.91289
#
# Poissons Ratio (x) = 0.60769 0.13459
# Poissons Ratio (y) = 0.28081 0.02139
# Poissons Ratio (z) = 0.71780 0.24693
#
# Static dielectric constant tensor:
#      x y z
#    x 3.603860 0.000000 0.000000 
#    y 0.000000 4.803310 0.000000 
#    z 0.000000 0.000000 3.441490 
# 
# 
# High freq. dielectric constant tensor:
#      x y z
#    x 1.797240 0.000000 0.000000 
#    y 0.000000 1.849970 0.000000 
#    z 0.000000 0.000000 1.750840 
# 
# From -- ./inp_files/22296.got.cif
#   From: 2010.06.25/outbox.cif.g09.slc.cpg/sg48_12_cif.got.tgz:22296.got - 2010.06.26 18:06:46.
