data_PCOD8201966
_publ_section_title
;
Structure prediction by ZEFSAII (Michael W. Deem and Ramdas Pophale) SiO2 
 PCOD8201966
Probable space group: P N N N
;
_chemical_formula_sum "Si O2"
_cell_formula_units_Z 30
_cell_length_a 5.495242
_cell_length_b 29.048980
_cell_length_c 8.378457
_cell_angle_alpha 90.000000
_cell_angle_beta 90.000000
_cell_angle_gamma 90.000000
_cell_volume 1337.462935
_symmetry_space_group_name_H-M "P N N N"
_symmetry_group_IT_number 48
_space_group.IT_coordinate_system_code '2'
_symmetry_cell_setting 'orthorhombic'
loop_
_space_group_symop_operation_xyz
x,y,z
1/2-x,1/2-y,z
x,1/2-y,1/2-z
1/2-x,y,1/2-z
-x,-y,-z
1/2+x,1/2+y,-z
-x,1/2+y,1/2+z
1/2+x,-y,1/2+z
loop_
_atom_site_type_symbol
_atom_site_label
_atom_site_fract_x
_atom_site_fract_y
_atom_site_fract_z
Si Si1 0.415118 0.293376 0.491578
Si Si2 0.247385 0.021641 0.935631
Si Si3 0.352622 0.380515 0.072872
Si Si4 0.250000 0.838571 0.750000
Si Si5 0.250000 0.750000 0.250000
O O1 0.250000 0.250000 0.454273
O O2 0.249855 0.337770 0.529691
O O3 0.556267 0.304352 0.328293
O O4 0.587177 0.283518 0.642000
O O5 0.250000 0.012860 0.750000
O O6 0.221548 0.075307 0.972636
O O7 0.500000 0.000000 0.000000
O O8 0.000000 0.000000 0.000000
O O9 0.250000 0.385498 0.250000
O O10 0.639560 0.370872 0.107459
#
# Coordination Sequence:
#
# PCOD8201966 Si02
#       5
#     8   8   8   4   2
#     4  11  25  43  66 100 140 186 240 294 362 437
#     4  12  28  50  79 113 152 197 251 312 381 453
#     4  10  24  44  71 103 142 184 243 298 373 444
#     4  10  24  43  72 100 140 184 236 300 369 450
#     4  12  26  42  64  90 148 186 246 296 364 428
#
# _framework density 22.430527999999999
#
# number of rings (size 3 to 8) (size 9 to 14) (size 15 to 20)
#    0.000    1.067    0.000    4.400    9.333   17.067 
#    0.000    0.000    0.000    0.000    0.000    0.000 
#    0.000    0.000    0.000    0.000    0.000    0.000 
#
# Total GULP energy -371814.865969 kJ/mol
# GULP energy per Si atom -12393.828866 kJ/mol
# Density = 2.237947 g / cm^3
# Si number density = 22.430528 Si / 1000 Ang^3
#
#
#
# Elastic Constant Matrix: (Units=GPa)
#
#
# Indices 1 2 3 4 5 6 
#
# 1 179.3137 90.9290 61.3912 0.0000 0.0000 0.0000
# 2 90.9290 180.9568 49.7026 0.0000 0.0000 0.0000
# 3 61.3912 49.7026 125.3068 0.0000 0.0000 0.0000
# 4 0.0000 0.0000 0.0000 40.2493 0.0000 0.0000
# 5 0.0000 0.0000 0.0000 0.0000 28.5201 0.0000
# 6 0.0000 0.0000 0.0000 0.0000 0.0000 27.0237
#
#
#
# Elastic Compliance Matrix: (Units=1/GPa)
#
#
# Indices 1 2 3 4 5 6 
#
# 1 0.008214 -0.003392 -0.002679 0.000000 0.000000 0.000000
# 2 -0.003392 0.007602 -0.001354 0.000000 0.000000 0.000000
# 3 -0.002679 -0.001354 0.009830 0.000000 0.000000 0.000000
# 4 0.000000 0.000000 0.000000 0.024845 0.000000 0.000000
# 5 0.000000 0.000000 0.000000 0.000000 0.035063 0.000000
# 6 0.000000 0.000000 0.000000 0.000000 0.000000 0.037005
#
#
# Mechanical properties :
#
#
# Convention : Reuss Voigt Hill
#
# Bulk Modulus (GPa) = 92.61496 98.84698 95.73097
# Shear Modulus (GPa) = 35.45940 38.06226 36.76083
#
# Velocity S-wave (km/s) = 3.98031 4.12381 4.05269
# Velocity P-wave (km/s) = 7.90589 8.17546 8.04181
#
# Compressibility (1/GPa) = 0.01079739
#
# Stress axis : x y z
#
# Youngs Moduli (GPa) = 121.74577 131.54002 101.73075
#
# Poissons Ratio (x) = 0.44613 0.27253
# Poissons Ratio (y) = 0.41291 0.13772
# Poissons Ratio (z) = 0.32615 0.17808
#
# Static dielectric constant tensor:
#      x y z
#    x 4.833270 0.000000 0.000000 
#    y 0.000000 4.427240 0.000000 
#    z 0.000000 0.000000 4.029610 
# 
# 
# High freq. dielectric constant tensor:
#      x y z
#    x 1.906840 0.000000 0.000000 
#    y 0.000000 1.892030 0.000000 
#    z 0.000000 0.000000 1.879140 
# 
# From -- ./inp_files/1060.got.cif
#   From: 2010.06.25/outbox.cif.g09.slc.cpg/sg48_1_cif.got.tgz:1060.got - 2010.06.26 18:06:46.
