data_PCOD8201125
_publ_section_title
;
Structure prediction by ZEFSAII (Michael W. Deem and Ramdas Pophale) SiO2 
 PCOD8201125
Probable space group: P M M M
;
_chemical_formula_sum "Si O2"
_cell_formula_units_Z 52
_cell_length_a 33.589410
_cell_length_b 9.766295
_cell_length_c 9.155778
_cell_angle_alpha 90.000000
_cell_angle_beta 90.000000
_cell_angle_gamma 90.000000
_cell_volume 3003.498834
_symmetry_space_group_name_H-M "P M M M"
_symmetry_group_IT_number 47
_symmetry_cell_setting 'orthorhombic'
loop_
_space_group_symop_operation_xyz
x,y,z
-x,-y,z
x,-y,-z
-x,y,-z
-x,-y,-z
x,y,-z
-x,y,z
x,-y,z
loop_
_atom_site_type_symbol
_atom_site_label
_atom_site_fract_x
_atom_site_fract_y
_atom_site_fract_z
Si Si1 0.614089 0.157001 0.171654
Si Si2 0.232872 0.341794 0.670437
Si Si3 0.154291 0.337159 0.835287
Si Si4 0.306225 0.842841 0.329465
Si Si5 0.077435 0.663335 0.665336
Si Si6 0.455953 0.653702 0.826375
Si Si7 0.000000 0.336817 0.165358
O O1 0.654526 0.208165 0.246386
O O2 0.577328 0.244054 0.236808
O O3 0.605369 0.000000 0.211422
O O4 0.619005 0.179358 0.000000
O O5 0.224013 0.320660 0.500000
O O6 0.242233 0.500000 0.706000
O O7 0.194579 0.287498 0.757624
O O8 0.269994 0.251598 0.723685
O O9 0.152584 0.500000 0.835691
O O10 0.116566 0.278947 0.746386
O O11 0.153050 0.279522 0.000000
O O12 0.314141 0.823927 0.500000
O O13 0.296168 0.000000 0.290076
O O14 0.076671 0.719555 0.500000
O O15 0.077684 0.500000 0.664761
O O16 0.038855 0.718848 0.750918
O O17 0.500000 0.697361 0.770136
O O18 0.446127 0.500000 0.773084
O O19 0.455609 0.659890 0.000000
O O20 0.000000 0.500000 0.164121
O O21 0.000000 0.280246 0.000000
#
# Coordination Sequence:
#
# PCOD8201125 Si02
#       7
#     8   8   8   8   8   8   4
#     4   9  17  28  43  64  86 107 136 174 210 244
#     4   9  17  29  44  61  80 104 137 173 206 245
#     4   9  16  25  37  54  76 101 130 167 211 254
#     4   9  18  32  47  62  84 114 142 169 208 256
#     4   9  15  22  32  46  67  98 135 172 210 254
#     4   8  14  25  41  62  88 115 141 171 209 250
#     4   9  15  21  29  43  65  95 134 177 216 255
#
# _framework density 17.313140000000001
#
# number of rings (size 3 to 8) (size 9 to 14) (size 15 to 20)
#    0.000    3.154    0.000    1.615    0.000    6.154 
#    0.000    1.538    0.000    0.462    0.000    3.231 
#    0.000    0.000    0.000    0.692    0.000   15.077 
#
# Total GULP energy -644689.298672 kJ/mol
# GULP energy per Si atom -12397.871128 kJ/mol
# Density = 1.727373 g / cm^3
# Si number density = 17.313140 Si / 1000 Ang^3
#
#
#
# Elastic Constant Matrix: (Units=GPa)
#
#
# Indices 1 2 3 4 5 6 
#
# 1 198.0242 63.2182 74.0625 0.0000 0.0000 0.0000
# 2 63.2182 43.3937 26.1841 0.0000 0.0000 0.0000
# 3 74.0625 26.1841 85.7327 0.0000 0.0000 0.0000
# 4 0.0000 0.0000 0.0000 9.9353 0.0000 0.0000
# 5 0.0000 0.0000 0.0000 0.0000 25.6408 0.0000
# 6 0.0000 0.0000 0.0000 0.0000 0.0000 4.9269
#
#
#
# Elastic Compliance Matrix: (Units=1/GPa)
#
#
# Indices 1 2 3 4 5 6 
#
# 1 0.011431 -0.013111 -0.005871 0.000000 0.000000 0.000000
# 2 -0.013111 0.043289 -0.001895 0.000000 0.000000 0.000000
# 3 -0.005871 -0.001895 0.017315 0.000000 0.000000 0.000000
# 4 0.000000 0.000000 0.000000 0.100651 0.000000 0.000000
# 5 0.000000 0.000000 0.000000 0.000000 0.039000 0.000000
# 6 0.000000 0.000000 0.000000 0.000000 0.000000 0.202967
#
#
# Mechanical properties :
#
#
# Convention : Reuss Voigt Hill
#
# Bulk Modulus (GPa) = 33.02352 72.67556 52.84954
# Shear Modulus (GPa) = 10.71810 19.01300 14.86555
#
# Velocity S-wave (km/s) = 2.49082 3.31748 2.93341
# Velocity P-wave (km/s) = 5.23334 7.53276 6.48577
#
# Compressibility (1/GPa) = 0.03028145
#
# Stress axis : x y z
#
# Youngs Moduli (GPa) = 87.47890 23.10048 57.75480
#
# Poissons Ratio (x) = 0.30287 0.33907
# Poissons Ratio (y) = 1.14695 0.10943
# Poissons Ratio (z) = 0.51358 0.04377
#
# Static dielectric constant tensor:
#      x y z
#    x 3.495370 0.000000 0.000000 
#    y 0.000000 2.858100 0.000000 
#    z 0.000000 0.000000 3.152090 
# 
# 
# High freq. dielectric constant tensor:
#      x y z
#    x 1.683960 0.000000 0.000000 
#    y 0.000000 1.615320 0.000000 
#    z 0.000000 0.000000 1.656930 
# 
# From -- ./inp_files/13285.got.cif
#   From: 2010.03.12/outbox.cif.g09.slc.cpg/sg47_7_cif.got.tgz:13285.got - 2010.04.14 03:12:58.
