data_PCOD8201362
_publ_section_title
;
Structure prediction by ZEFSAII (Michael W. Deem and Ramdas Pophale) SiO2 
 PCOD8201362
Probable space group: P N N N
;
_chemical_formula_sum "Si O2"
_cell_formula_units_Z 32
_cell_length_a 10.011283
_cell_length_b 5.090212
_cell_length_c 30.501757
_cell_angle_alpha 90.000000
_cell_angle_beta 90.000000
_cell_angle_gamma 90.000000
_cell_volume 1554.355898
_symmetry_space_group_name_H-M "P N N N"
_symmetry_group_IT_number 48
_space_group.IT_coordinate_system_code '2'
_symmetry_cell_setting 'orthorhombic'
loop_
_space_group_symop_operation_xyz
x,y,z
1/2-x,1/2-y,z
x,1/2-y,1/2-z
1/2-x,y,1/2-z
-x,-y,-z
1/2+x,1/2+y,-z
-x,1/2+y,1/2+z
1/2+x,-y,1/2+z
loop_
_atom_site_type_symbol
_atom_site_label
_atom_site_fract_x
_atom_site_fract_y
_atom_site_fract_z
Si Si1 0.013275 0.815461 0.585536
Si Si2 0.601016 0.994500 0.269999
Si Si3 0.599837 0.692207 0.131490
Si Si4 0.750000 0.750000 0.534083
Si Si5 0.250000 0.750000 0.521889
O O1 0.027910 0.515906 0.600593
O O2 0.129079 0.869066 0.550333
O O3 0.869842 0.854372 0.564115
O O4 0.024227 0.027772 0.625805
O O5 0.527103 0.250000 0.250000
O O6 0.750000 0.997733 0.250000
O O7 0.520131 0.750000 0.250000
O O8 0.601753 0.953991 0.321725
O O9 0.750000 0.750000 0.116503
O O10 0.800604 0.499285 0.506264
#
# Coordination Sequence:
#
# PCOD8201362 Si02
#       5
#     8   8   8   4   4
#     4  12  25  40  64  89 126 165 209 259 314 371
#     4  10  19  30  53  86 130 151 184 245 314 349
#     4  12  21  38  59  93 130 160 198 254 315 369
#     4  12  26  44  60  90 123 168 213 260 318 376
#     4  12  22  42  66  90 119 158 221 272 316 358
#
# _framework density 20.587306000000002
#
# number of rings (size 3 to 8) (size 9 to 14) (size 15 to 20)
#    0.000    0.500    5.000    6.000    3.500    0.000 
#    0.000    0.000    0.000    0.000    0.000   13.125 
#    0.000    0.000    0.000    0.000    0.000    0.000 
#
# Total GULP energy -396518.348728 kJ/mol
# GULP energy per Si atom -12391.198398 kJ/mol
# Density = 2.054045 g / cm^3
# Si number density = 20.587306 Si / 1000 Ang^3
#
#
#
# Elastic Constant Matrix: (Units=GPa)
#
#
# Indices 1 2 3 4 5 6 
#
# 1 81.7234 15.5084 37.5981 0.0000 0.0000 0.0000
# 2 15.5084 172.2492 40.7422 0.0000 0.0000 0.0000
# 3 37.5981 40.7422 97.9366 0.0000 0.0000 0.0000
# 4 0.0000 0.0000 0.0000 77.4437 0.0000 0.0000
# 5 0.0000 0.0000 0.0000 0.0000 5.5214 0.0000
# 6 0.0000 0.0000 0.0000 0.0000 0.0000 18.8048
#
#
#
# Elastic Compliance Matrix: (Units=1/GPa)
#
#
# Indices 1 2 3 4 5 6 
#
# 1 0.014861 0.000013 -0.005711 0.000000 0.000000 0.000000
# 2 0.000013 0.006439 -0.002684 0.000000 0.000000 0.000000
# 3 -0.005711 -0.002684 0.013519 0.000000 0.000000 0.000000
# 4 0.000000 0.000000 0.000000 0.012913 0.000000 0.000000
# 5 0.000000 0.000000 0.000000 0.000000 0.181113 0.000000
# 6 0.000000 0.000000 0.000000 0.000000 0.000000 0.053178
#
#
# Mechanical properties :
#
#
# Convention : Reuss Voigt Hill
#
# Bulk Modulus (GPa) = 55.38065 59.95629 57.66847
# Shear Modulus (GPa) = 16.40393 37.55802 26.98097
#
# Velocity S-wave (km/s) = 2.82582 4.27585 3.62410
# Velocity P-wave (km/s) = 6.13236 7.31870 6.75164
#
# Compressibility (1/GPa) = 0.01805685
#
# Stress axis : x y z
#
# Youngs Moduli (GPa) = 67.28923 155.29993 73.96795
#
# Poissons Ratio (x) = -0.00197 0.42240
# Poissons Ratio (y) = -0.00085 0.19850
# Poissons Ratio (z) = 0.38426 0.41676
#
# Static dielectric constant tensor:
#      x y z
#    x 3.282140 0.000000 0.000000 
#    y 0.000000 13.173940 0.000000 
#    z 0.000000 0.000000 3.828230 
# 
# 
# High freq. dielectric constant tensor:
#      x y z
#    x 1.745380 0.000000 0.000000 
#    y 0.000000 1.843970 0.000000 
#    z 0.000000 0.000000 1.807540 
# 
# From -- ./inp_files/1093.got.cif
#   From: 2010.06.25/outbox.cif.g09.slc.cpg/sg48_1_cif.got.tgz:1093.got - 2010.06.26 18:06:46.
