data_PCOD8201933
_publ_section_title
;
Structure prediction by ZEFSAII (Michael W. Deem and Ramdas Pophale) SiO2 
 PCOD8201933
Probable space group: P N N N
;
_chemical_formula_sum "Si O2"
_cell_formula_units_Z 48
_cell_length_a 10.628893
_cell_length_b 8.619116
_cell_length_c 25.031352
_cell_angle_alpha 90.000000
_cell_angle_beta 90.000000
_cell_angle_gamma 90.000000
_cell_volume 2293.163752
_symmetry_space_group_name_H-M "P N N N"
_symmetry_group_IT_number 48
_space_group.IT_coordinate_system_code '2'
_symmetry_cell_setting 'orthorhombic'
loop_
_space_group_symop_operation_xyz
x,y,z
1/2-x,1/2-y,z
x,1/2-y,1/2-z
1/2-x,y,1/2-z
-x,-y,-z
1/2+x,1/2+y,-z
-x,1/2+y,1/2+z
1/2+x,-y,1/2+z
loop_
_atom_site_type_symbol
_atom_site_label
_atom_site_fract_x
_atom_site_fract_y
_atom_site_fract_z
Si Si1 0.395952 0.427269 0.740454
Si Si2 0.128636 0.925481 0.018861
Si Si3 0.082943 0.144169 0.200953
Si Si4 0.117802 0.583655 0.975697
Si Si5 0.503263 0.425255 0.364897
Si Si6 0.742343 0.072255 0.631596
O O1 0.435240 0.250000 0.750000
O O2 0.250000 0.455620 0.750000
O O3 0.468643 0.534624 0.782099
O O4 0.430459 0.472843 0.680394
O O5 0.145586 0.945240 0.082486
O O6 0.123621 0.746365 0.005217
O O7 0.249249 0.002496 0.988505
O O8 0.000000 0.000000 0.000000
O O9 0.131409 0.250000 0.250000
O O10 0.033569 0.253450 0.153813
O O11 0.197648 0.037289 0.180412
O O12 0.103361 0.596387 0.912158
O O13 0.000000 0.500000 0.000000
O O14 0.380229 0.515485 0.386139
O O15 0.750000 0.250000 0.651524
#
# Coordination Sequence:
#
# PCOD8201933 Si02
#       6
#     8   8   8   8   8   8
#     4  10  23  43  65  95 131 168 219 274 337 405
#     4  11  24  40  64  97 132 175 223 276 327 400
#     4  10  24  41  64  97 128 166 223 273 335 398
#     4  11  22  44  64  94 133 170 223 270 330 400
#     4  11  23  40  68  93 128 181 214 278 337 398
#     4  12  22  42  65  93 133 177 225 272 341 402
#
# _framework density 20.93178
#
# number of rings (size 3 to 8) (size 9 to 14) (size 15 to 20)
#    0.000    1.167    3.333    2.500    0.000   12.333 
#    0.000    5.833    0.000    0.000    0.000    0.000 
#    0.000    0.000    0.000    0.000    0.000    0.000 
#
# Total GULP energy -595313.630537 kJ/mol
# GULP energy per Si atom -12402.367303 kJ/mol
# Density = 2.088414 g / cm^3
# Si number density = 20.931780 Si / 1000 Ang^3
#
#
#
# Elastic Constant Matrix: (Units=GPa)
#
#
# Indices 1 2 3 4 5 6 
#
# 1 154.7558 58.1955 51.7301 0.0000 0.0000 0.0000
# 2 58.1955 119.1368 49.9081 0.0000 0.0000 0.0000
# 3 51.7301 49.9081 117.7581 0.0000 0.0000 0.0000
# 4 0.0000 0.0000 0.0000 31.5864 0.0000 0.0000
# 5 0.0000 0.0000 0.0000 0.0000 40.1941 0.0000
# 6 0.0000 0.0000 0.0000 0.0000 0.0000 38.6995
#
#
#
# Elastic Compliance Matrix: (Units=1/GPa)
#
#
# Indices 1 2 3 4 5 6 
#
# 1 0.008431 -0.003121 -0.002381 0.000000 0.000000 0.000000
# 2 -0.003121 0.011361 -0.003444 0.000000 0.000000 0.000000
# 3 -0.002381 -0.003444 0.010998 0.000000 0.000000 0.000000
# 4 0.000000 0.000000 0.000000 0.031659 0.000000 0.000000
# 5 0.000000 0.000000 0.000000 0.000000 0.024879 0.000000
# 6 0.000000 0.000000 0.000000 0.000000 0.000000 0.025840
#
#
# Mechanical properties :
#
#
# Convention : Reuss Voigt Hill
#
# Bulk Modulus (GPa) = 77.53261 79.03532 78.28397
# Shear Modulus (GPa) = 36.93854 37.55047 37.24450
#
# Velocity S-wave (km/s) = 4.20540 4.24009 4.22278
# Velocity P-wave (km/s) = 7.79112 7.86204 7.82666
#
# Compressibility (1/GPa) = 0.01289780
#
# Stress axis : x y z
#
# Youngs Moduli (GPa) = 118.60454 88.02044 90.92914
#
# Poissons Ratio (x) = 0.27472 0.21651
# Poissons Ratio (y) = 0.37017 0.31316
# Poissons Ratio (z) = 0.28240 0.30314
#
# Static dielectric constant tensor:
#      x y z
#    x 15.282700 0.000000 0.000000 
#    y 0.000000 4.013160 0.000000 
#    z 0.000000 0.000000 3.910030 
# 
# 
# High freq. dielectric constant tensor:
#      x y z
#    x 1.831570 0.000000 0.000000 
#    y 0.000000 1.824390 0.000000 
#    z 0.000000 0.000000 1.827080 
# 
# From -- ./inp_files/36248.got.cif
#   From: 2010.06.25/outbox.cif.g09.slc.cpg/sg48_19_cif.got.tgz:36248.got - 2010.06.26 18:06:46.
