data_PCOD8201354
_publ_section_title
;
Structure prediction by ZEFSAII (Michael W. Deem and Ramdas Pophale) SiO2 
 PCOD8201354
Probable space group: P N N N
;
_chemical_formula_sum "Si O2"
_cell_formula_units_Z 26
_cell_length_a 13.460000
_cell_length_b 14.992211
_cell_length_c 6.756878
_cell_angle_alpha 90.000000
_cell_angle_beta 90.000000
_cell_angle_gamma 90.000000
_cell_volume 1363.505278
_symmetry_space_group_name_H-M "P N N N"
_symmetry_group_IT_number 48
_space_group.IT_coordinate_system_code '2'
_symmetry_cell_setting 'orthorhombic'
loop_
_space_group_symop_operation_xyz
x,y,z
1/2-x,1/2-y,z
x,1/2-y,1/2-z
1/2-x,y,1/2-z
-x,-y,-z
1/2+x,1/2+y,-z
-x,1/2+y,1/2+z
1/2+x,-y,1/2+z
loop_
_atom_site_type_symbol
_atom_site_label
_atom_site_fract_x
_atom_site_fract_y
_atom_site_fract_z
Si Si1 0.250000 0.524689 0.750000
Si Si2 0.250000 0.250000 0.250000
Si Si3 0.012104 0.750000 0.250000
Si Si4 0.666678 0.644568 0.099789
Si Si5 0.191638 0.667121 0.048936
O O1 0.324563 0.463501 0.883546
O O2 0.314392 0.584743 0.601084
O O3 0.315986 0.183112 0.380952
O O4 0.079425 0.698996 0.089565
O O5 0.944032 0.826844 0.156521
O O6 0.750000 0.684633 0.250000
O O7 0.250000 0.750000 0.949559
O O8 0.250000 0.639910 0.250000
#
# Coordination Sequence:
#
# PCOD8201354 Si02
#       5
#     4   2   4   8   8
#     4  10  21  39  62  90 126 156 198 259 297 358
#     4  12  18  40  60  86 132 168 182 256 324 354
#     4  10  18  44  60  90 122 164 200 252 296 378
#     4  10  21  37  61  89 123 153 206 250 302 355
#     4   9  21  40  62  83 124 163 199 244 313 361
#
# _framework density 19.068498999999999
#
# number of rings (size 3 to 8) (size 9 to 14) (size 15 to 20)
#    0.923    1.538    3.077    0.462    2.154    1.231 
#   11.077    6.154    0.000    0.000    0.000    0.000 
#    0.000    0.000    0.000    0.000    0.000    0.000 
#
# Total GULP energy -322094.894257 kJ/mol
# GULP energy per Si atom -12388.265164 kJ/mol
# Density = 1.902510 g / cm^3
# Si number density = 19.068499 Si / 1000 Ang^3
#
#
#
# Elastic Constant Matrix: (Units=GPa)
#
#
# Indices 1 2 3 4 5 6 
#
# 1 146.7489 61.3460 45.4718 0.0000 0.0000 0.0000
# 2 61.3460 161.6720 71.5904 0.0000 0.0000 0.0000
# 3 45.4718 71.5904 94.8438 0.0000 0.0000 0.0000
# 4 0.0000 0.0000 0.0000 50.1085 0.0000 0.0000
# 5 0.0000 0.0000 0.0000 0.0000 8.6244 0.0000
# 6 0.0000 0.0000 0.0000 0.0000 0.0000 34.6262
#
#
#
# Elastic Compliance Matrix: (Units=1/GPa)
#
#
# Indices 1 2 3 4 5 6 
#
# 1 0.008463 -0.002125 -0.002454 0.000000 0.000000 0.000000
# 2 -0.002125 0.009824 -0.006397 0.000000 0.000000 0.000000
# 3 -0.002454 -0.006397 0.016549 0.000000 0.000000 0.000000
# 4 0.000000 0.000000 0.000000 0.019957 0.000000 0.000000
# 5 0.000000 0.000000 0.000000 0.000000 0.115950 0.000000
# 6 0.000000 0.000000 0.000000 0.000000 0.000000 0.028880
#
#
# Mechanical properties :
#
#
# Convention : Reuss Voigt Hill
#
# Bulk Modulus (GPa) = 77.60877 84.45345 81.03111
# Shear Modulus (GPa) = 22.13692 33.66228 27.89960
#
# Velocity S-wave (km/s) = 3.41092 4.20615 3.82923
# Velocity P-wave (km/s) = 7.50339 8.24467 7.88275
#
# Compressibility (1/GPa) = 0.01288514
#
# Stress axis : x y z
#
# Youngs Moduli (GPa) = 118.16360 101.78967 60.42836
#
# Poissons Ratio (x) = 0.21627 0.14827
# Poissons Ratio (y) = 0.25106 0.38655
# Poissons Ratio (z) = 0.28993 0.65113
#
# Static dielectric constant tensor:
#      x y z
#    x 3.231150 0.000000 0.000000 
#    y 0.000000 3.518180 0.000000 
#    z 0.000000 0.000000 3.262610 
# 
# 
# High freq. dielectric constant tensor:
#      x y z
#    x 1.720980 0.000000 0.000000 
#    y 0.000000 1.751430 0.000000 
#    z 0.000000 0.000000 1.731650 
# 
# From -- ./inp_files/3959.got.cif
#   From: 2010.06.25/outbox.cif.g09.slc.cpg/sg48_2_cif.got.tgz:3959.got - 2010.06.26 18:06:46.
