data_PCOD8201221
_publ_section_title
;
Structure prediction by ZEFSAII (Michael W. Deem and Ramdas Pophale) SiO2 
 PCOD8201221
Probable space group: P M M M
;
_chemical_formula_sum "Si O2"
_cell_formula_units_Z 36
_cell_length_a 16.986637
_cell_length_b 12.519962
_cell_length_c 9.767589
_cell_angle_alpha 90.000000
_cell_angle_beta 90.000000
_cell_angle_gamma 90.000000
_cell_volume 2077.293174
_symmetry_space_group_name_H-M "P M M M"
_symmetry_group_IT_number 47
_symmetry_cell_setting 'orthorhombic'
loop_
_space_group_symop_operation_xyz
x,y,z
-x,-y,z
x,-y,-z
-x,y,-z
-x,-y,-z
x,y,-z
-x,y,z
x,-y,z
loop_
_atom_site_type_symbol
_atom_site_label
_atom_site_fract_x
_atom_site_fract_y
_atom_site_fract_z
Si Si1 0.253240 0.620204 0.659208
Si Si2 0.128763 0.879376 0.154129
Si Si3 0.304041 0.192066 0.842348
Si Si4 0.085145 0.697556 0.656177
Si Si5 0.411030 0.000000 0.162795
O O1 0.265844 0.648752 0.500000
O O2 0.281658 0.500000 0.690657
O O3 0.305044 0.700746 0.750363
O O4 0.159966 0.625474 0.698848
O O5 0.221866 0.867911 0.173966
O O6 0.081292 0.804624 0.255676
O O7 0.104306 0.000000 0.186856
O O8 0.104927 0.848034 0.000000
O O9 0.369113 0.108775 0.785632
O O10 0.320258 0.224909 0.000000
O O11 0.095425 0.733201 0.500000
O O12 0.000000 0.638069 0.676412
O O13 0.500000 0.000000 0.218389
O O14 0.406587 0.000000 0.000000
#
# Coordination Sequence:
#
# PCOD8201221 Si02
#       5
#     8   8   8   8   4
#     4   9  18  32  49  68  90 121 161 199 235 274
#     4   9  16  27  43  61  85 119 154 185 223 274
#     4   9  16  29  49  72  97 122 152 188 226 273
#     4   9  18  30  42  60  86 115 151 196 241 278
#     4   9  16  28  51  81 106 125 146 180 229 277
#
# _framework density 17.330245000000001
#
# number of rings (size 3 to 8) (size 9 to 14) (size 15 to 20)
#    0.000    3.000    1.111    0.000    0.000    2.222 
#    0.000    5.000    0.000    2.000    0.000   10.889 
#    0.000    0.000    0.000    0.000    0.000    0.000 
#
# Total GULP energy -446163.401726 kJ/mol
# GULP energy per Si atom -12393.427826 kJ/mol
# Density = 1.729080 g / cm^3
# Si number density = 17.330245 Si / 1000 Ang^3
#
#
#
# Elastic Constant Matrix: (Units=GPa)
#
#
# Indices 1 2 3 4 5 6 
#
# 1 78.4934 41.3613 22.6407 0.0000 0.0000 0.0000
# 2 41.3613 112.6161 51.0841 0.0000 0.0000 0.0000
# 3 22.6407 51.0841 56.2937 0.0000 0.0000 0.0000
# 4 0.0000 0.0000 0.0000 28.0264 0.0000 0.0000
# 5 0.0000 0.0000 0.0000 0.0000 14.6752 0.0000
# 6 0.0000 0.0000 0.0000 0.0000 0.0000 14.9430
#
#
#
# Elastic Compliance Matrix: (Units=1/GPa)
#
#
# Indices 1 2 3 4 5 6 
#
# 1 0.015911 -0.004999 -0.001863 0.000000 0.000000 0.000000
# 2 -0.004999 0.016663 -0.013110 0.000000 0.000000 0.000000
# 3 -0.001863 -0.013110 0.030410 0.000000 0.000000 0.000000
# 4 0.000000 0.000000 0.000000 0.035681 0.000000 0.000000
# 5 0.000000 0.000000 0.000000 0.000000 0.068142 0.000000
# 6 0.000000 0.000000 0.000000 0.000000 0.000000 0.066921
#
#
# Mechanical properties :
#
#
# Convention : Reuss Voigt Hill
#
# Bulk Modulus (GPa) = 43.40283 53.06394 48.23338
# Shear Modulus (GPa) = 17.77131 20.35005 19.06068
#
# Velocity S-wave (km/s) = 3.20574 3.43045 3.32000
# Velocity P-wave (km/s) = 6.22907 6.81002 6.52601
#
# Compressibility (1/GPa) = 0.02303997
#
# Stress axis : x y z
#
# Youngs Moduli (GPa) = 62.84819 60.01479 32.88363
#
# Poissons Ratio (x) = 0.29999 0.06127
# Poissons Ratio (y) = 0.31416 0.43111
# Poissons Ratio (z) = 0.11710 0.78680
#
# Static dielectric constant tensor:
#      x y z
#    x 3.150450 0.000000 0.000000 
#    y 0.000000 3.146730 0.000000 
#    z 0.000000 0.000000 3.154780 
# 
# 
# High freq. dielectric constant tensor:
#      x y z
#    x 1.648190 0.000000 0.000000 
#    y 0.000000 1.659000 0.000000 
#    z 0.000000 0.000000 1.654490 
# 
# From -- ./inp_files/3699.got.cif
#   From: 2010.03.12/outbox.cif.g09.slc.cpg/sg47_2_cif.got.tgz:3699.got - 2010.04.14 03:12:58.
