data_PCOD8201619
_publ_section_title
;
Structure prediction by ZEFSAII (Michael W. Deem and Ramdas Pophale) SiO2 
 PCOD8201619
Probable space group: P N N N
;
_chemical_formula_sum "Si O2"
_cell_formula_units_Z 64
_cell_length_a 14.367728
_cell_length_b 18.131343
_cell_length_c 11.329549
_cell_angle_alpha 90.000000
_cell_angle_beta 90.000000
_cell_angle_gamma 90.000000
_cell_volume 2951.417809
_symmetry_space_group_name_H-M "P N N N"
_symmetry_group_IT_number 48
_space_group.IT_coordinate_system_code '2'
_symmetry_cell_setting 'orthorhombic'
loop_
_space_group_symop_operation_xyz
x,y,z
1/2-x,1/2-y,z
x,1/2-y,1/2-z
1/2-x,y,1/2-z
-x,-y,-z
1/2+x,1/2+y,-z
-x,1/2+y,1/2+z
1/2+x,-y,1/2+z
loop_
_atom_site_type_symbol
_atom_site_label
_atom_site_fract_x
_atom_site_fract_y
_atom_site_fract_z
Si Si1 0.440459 0.035304 0.333325
Si Si2 0.144486 0.902264 0.256383
Si Si3 0.954529 0.213729 0.877663
Si Si4 0.634854 0.162548 0.000339
Si Si5 0.032965 0.834975 0.741300
Si Si6 0.699511 0.391383 0.128343
Si Si7 0.838086 0.708351 0.373660
Si Si8 0.378549 0.456584 0.903979
O O1 0.445273 0.111487 0.259420
O O2 0.415232 0.057802 0.465260
O O3 0.359051 0.989313 0.269130
O O4 0.535864 0.986371 0.323671
O O5 0.250000 0.872409 0.250000
O O6 0.082538 0.868804 0.147255
O O7 0.102922 0.885605 0.386647
O O8 0.946875 0.250000 0.750000
O O9 0.885050 0.252385 0.969502
O O10 0.059418 0.218622 0.932228
O O11 0.577202 0.141158 0.116660
O O12 0.744245 0.150296 0.024949
O O13 0.003524 0.750000 0.750000
O O14 0.098544 0.854059 0.855139
O O15 0.750000 0.376483 0.250000
O O16 0.697919 0.478238 0.096694
O O17 0.750000 0.750000 0.441021
O O18 0.841928 0.750000 0.250000
O O19 0.828550 0.619161 0.357988
#
# Coordination Sequence:
#
# PCOD8201619 Si02
#       8
#     8   8   8   8   8   8   8   8
#     4  10  22  40  60  85 118 167 218 261 311 382
#     4  11  22  38  63  93 127 164 210 263 324 393
#     4   9  20  37  58  94 130 159 203 259 327 385
#     4  10  22  38  61  91 130 162 197 265 328 379
#     4  10  23  39  60  86 119 168 215 258 315 387
#     4   9  20  37  59  94 122 160 206 258 318 380
#     4  10  21  37  62  97 125 166 210 271 326 375
#     4  10  20  38  65  85 121 165 215 267 309 377
#
# _framework density 21.684493
#
# number of rings (size 3 to 8) (size 9 to 14) (size 15 to 20)
#    0.000    2.125    1.250    0.750    3.500    8.000 
#    0.000    2.500    0.000    0.000    0.000    0.000 
#    0.000    0.000    0.000    0.000    0.000    0.000 
#
# Total GULP energy -792944.047028 kJ/mol
# GULP energy per Si atom -12389.750735 kJ/mol
# Density = 2.163514 g / cm^3
# Si number density = 21.684493 Si / 1000 Ang^3
#
#
#
# Elastic Constant Matrix: (Units=GPa)
#
#
# Indices 1 2 3 4 5 6 
#
# 1 87.9536 52.9721 13.7577 0.0000 0.0000 0.0000
# 2 52.9721 165.0945 38.1732 0.0000 0.0000 0.0000
# 3 13.7577 38.1732 74.4801 0.0000 0.0000 0.0000
# 4 0.0000 0.0000 0.0000 28.5839 0.0000 0.0000
# 5 0.0000 0.0000 0.0000 0.0000 8.7268 0.0000
# 6 0.0000 0.0000 0.0000 0.0000 0.0000 37.6409
#
#
#
# Elastic Compliance Matrix: (Units=1/GPa)
#
#
# Indices 1 2 3 4 5 6 
#
# 1 0.014100 -0.004449 -0.000324 0.000000 0.000000 0.000000
# 2 -0.004449 0.008275 -0.003420 0.000000 0.000000 0.000000
# 3 -0.000324 -0.003420 0.015239 0.000000 0.000000 0.000000
# 4 0.000000 0.000000 0.000000 0.034985 0.000000 0.000000
# 5 0.000000 0.000000 0.000000 0.000000 0.114590 0.000000
# 6 0.000000 0.000000 0.000000 0.000000 0.000000 0.026567
#
#
# Mechanical properties :
#
#
# Convention : Reuss Voigt Hill
#
# Bulk Modulus (GPa) = 47.10651 59.70380 53.40516
# Shear Modulus (GPa) = 21.07772 29.83199 25.45486
#
# Velocity S-wave (km/s) = 3.12110 3.71311 3.42990
# Velocity P-wave (km/s) = 5.89569 6.78053 6.35353
#
# Compressibility (1/GPa) = 0.02122849
#
# Stress axis : x y z
#
# Youngs Moduli (GPa) = 70.92233 120.84084 65.62161
#
# Poissons Ratio (x) = 0.53764 0.02127
# Poissons Ratio (y) = 0.31554 0.22439
# Poissons Ratio (z) = 0.02299 0.41322
#
# Static dielectric constant tensor:
#      x y z
#    x 4.225450 0.000000 0.000000 
#    y 0.000000 4.080030 0.000000 
#    z 0.000000 0.000000 3.786440 
# 
# 
# High freq. dielectric constant tensor:
#      x y z
#    x 1.830030 0.000000 0.000000 
#    y 0.000000 1.855880 0.000000 
#    z 0.000000 0.000000 1.838850 
# 
# From -- ./inp_files/21561.got.cif
#   From: 2010.06.25/outbox.cif.g09.slc.cpg/sg48_11_cif.got.tgz:21561.got - 2010.06.26 18:06:46.
