data_PCOD8201228
_publ_section_title
;
Structure prediction by ZEFSAII (Michael W. Deem and Ramdas Pophale) SiO2 
 PCOD8201228
Probable space group: P M M M
;
_chemical_formula_sum "Si O2"
_cell_formula_units_Z 44
_cell_length_a 9.628839
_cell_length_b 14.040968
_cell_length_c 19.024040
_cell_angle_alpha 90.000000
_cell_angle_beta 90.000000
_cell_angle_gamma 90.000000
_cell_volume 2572.016350
_symmetry_space_group_name_H-M "P M M M"
_symmetry_group_IT_number 47
_symmetry_cell_setting 'orthorhombic'
loop_
_space_group_symop_operation_xyz
x,y,z
-x,-y,z
x,-y,-z
-x,y,-z
-x,-y,-z
x,y,-z
-x,y,z
x,-y,z
loop_
_atom_site_type_symbol
_atom_site_label
_atom_site_fract_x
_atom_site_fract_y
_atom_site_fract_z
Si Si1 0.838432 0.771610 0.580687
Si Si2 0.657539 0.275321 0.216727
Si Si3 0.155225 0.000000 0.916999
Si Si4 0.339884 0.108344 0.320921
Si Si5 0.160771 0.392097 0.686497
Si Si6 0.658943 0.824684 0.079750
O O1 0.796270 0.758101 0.500000
O O2 0.751801 0.858650 0.612882
O O3 0.800102 0.673046 0.619834
O O4 0.000000 0.796310 0.589335
O O5 0.500000 0.305444 0.233272
O O6 0.692896 0.174479 0.253848
O O7 0.755827 0.358804 0.244645
O O8 0.681048 0.263601 0.132898
O O9 0.239562 0.907324 0.893242
O O10 0.000000 0.000000 0.883683
O O11 0.144381 0.000000 0.000000
O O12 0.500000 0.116280 0.343534
O O13 0.300431 0.000000 0.300954
O O14 0.201619 0.500000 0.667302
O O15 0.000000 0.383129 0.705874
O O16 0.500000 0.861921 0.084669
O O17 0.693270 0.791710 0.000000
#
# Coordination Sequence:
#
# PCOD8201228 Si02
#       6
#     8   8   4   8   8   8
#     4   9  18  32  49  70  95 120 150 189 230 274
#     4   9  18  31  49  70  93 122 157 197 234 276
#     4   9  17  27  39  61  93 125 156 189 228 273
#     4   9  18  31  46  65  92 127 161 190 223 267
#     4   9  18  33  52  72  94 119 149 188 235 286
#     4   9  17  29  46  67  92 124 160 197 237 277
#
# _framework density 17.107202000000001
#
# number of rings (size 3 to 8) (size 9 to 14) (size 15 to 20)
#    0.000    3.000    0.000    0.273    1.273    3.636 
#    0.000    3.636    0.000    0.545    0.000    8.909 
#    0.000    0.000    0.000    0.000    0.000    0.000 
#
# Total GULP energy -545526.578471 kJ/mol
# GULP energy per Si atom -12398.331329 kJ/mol
# Density = 1.706827 g / cm^3
# Si number density = 17.107202 Si / 1000 Ang^3
#
#
#
# Elastic Constant Matrix: (Units=GPa)
#
#
# Indices 1 2 3 4 5 6 
#
# 1 55.6630 28.7509 32.7511 0.0000 0.0000 0.0000
# 2 28.7509 75.5457 25.7965 0.0000 0.0000 0.0000
# 3 32.7511 25.7965 90.8393 0.0000 0.0000 0.0000
# 4 0.0000 0.0000 0.0000 16.9730 0.0000 0.0000
# 5 0.0000 0.0000 0.0000 0.0000 23.8841 0.0000
# 6 0.0000 0.0000 0.0000 0.0000 0.0000 27.3777
#
#
#
# Elastic Compliance Matrix: (Units=1/GPa)
#
#
# Indices 1 2 3 4 5 6 
#
# 1 0.026103 -0.007442 -0.007298 0.000000 0.000000 0.000000
# 2 -0.007442 0.016780 -0.002082 0.000000 0.000000 0.000000
# 3 -0.007298 -0.002082 0.014231 0.000000 0.000000 0.000000
# 4 0.000000 0.000000 0.000000 0.058917 0.000000 0.000000
# 5 0.000000 0.000000 0.000000 0.000000 0.041869 0.000000
# 6 0.000000 0.000000 0.000000 0.000000 0.000000 0.036526
#
#
# Mechanical properties :
#
#
# Convention : Reuss Voigt Hill
#
# Bulk Modulus (GPa) = 42.60725 44.07166 43.33945
# Shear Modulus (GPa) = 21.19597 22.63026 21.91311
#
# Velocity S-wave (km/s) = 3.52377 3.64105 3.58289
# Velocity P-wave (km/s) = 6.44330 6.59502 6.51960
#
# Compressibility (1/GPa) = 0.02347019
#
# Stress axis : x y z
#
# Youngs Moduli (GPa) = 38.30946 59.59360 70.26992
#
# Poissons Ratio (x) = 0.44351 0.51281
# Poissons Ratio (y) = 0.28511 0.14630
# Poissons Ratio (z) = 0.27957 0.12408
#
# Static dielectric constant tensor:
#      x y z
#    x 3.311940 0.000000 0.000000 
#    y 0.000000 3.047790 0.000000 
#    z 0.000000 0.000000 3.191610 
# 
# 
# High freq. dielectric constant tensor:
#      x y z
#    x 1.661840 0.000000 0.000000 
#    y 0.000000 1.635480 0.000000 
#    z 0.000000 0.000000 1.653940 
# 
# From -- ./inp_files/6143.got.cif
#   From: 2010.03.12/outbox.cif.g09.slc.cpg/sg47_4_cif.got.tgz:6143.got - 2010.04.14 03:12:58.
