data_PCOD8201024
_publ_section_title
;
Structure prediction by ZEFSAII (Michael W. Deem and Ramdas Pophale) SiO2 
 PCOD8201024
Probable space group: P M M M
;
_chemical_formula_sum "Si O2"
_cell_formula_units_Z 52
_cell_length_a 24.171519
_cell_length_b 13.821810
_cell_length_c 9.435650
_cell_angle_alpha 90.000000
_cell_angle_beta 90.000000
_cell_angle_gamma 90.000000
_cell_volume 3152.395401
_symmetry_space_group_name_H-M "P M M M"
_symmetry_group_IT_number 47
_symmetry_cell_setting 'orthorhombic'
loop_
_space_group_symop_operation_xyz
x,y,z
-x,-y,z
x,-y,-z
-x,y,-z
-x,-y,-z
x,y,-z
-x,y,z
x,-y,z
loop_
_atom_site_type_symbol
_atom_site_label
_atom_site_fract_x
_atom_site_fract_y
_atom_site_fract_z
Si Si1 0.064853 0.500000 0.342244
Si Si2 0.339862 0.738496 0.337130
Si Si3 0.437931 0.608089 0.668348
Si Si4 0.174349 0.240533 0.162631
Si Si5 0.235182 0.390888 0.661027
Si Si6 0.726838 0.889839 0.167246
Si Si7 0.061924 0.685807 0.836411
O O1 0.092356 0.500000 0.500000
O O2 0.082353 0.404565 0.256835
O O3 0.000000 0.500000 0.359322
O O4 0.346347 0.772652 0.500000
O O5 0.396354 0.691235 0.275124
O O6 0.295499 0.653967 0.322369
O O7 0.321912 0.830845 0.244379
O O8 0.433138 0.605107 0.500000
O O9 0.500000 0.636442 0.716102
O O10 0.423298 0.500000 0.726155
O O11 0.190646 0.336252 0.245606
O O12 0.211838 0.149480 0.212361
O O13 0.107630 0.227963 0.186043
O O14 0.187892 0.260302 0.000000
O O15 0.214727 0.385084 0.500000
O O16 0.238299 0.500000 0.715987
O O17 0.723804 0.000000 0.219159
O O18 0.717369 0.881355 0.000000
O O19 0.000000 0.722000 0.792869
O O20 0.061589 0.652588 0.000000
#
# Coordination Sequence:
#
# PCOD8201024 Si02
#       7
#     4   8   8   8   8   8   8
#     4   9  17  27  39  57  81 111 145 173 196 231
#     4   9  16  27  45  68  91 114 145 182 216 253
#     4   8  13  22  40  68  99 128 154 178 207 247
#     4   9  18  30  44  62  81 106 141 176 212 258
#     4   9  17  27  39  59  88 117 140 169 211 252
#     4   9  18  33  50  65  83 109 142 182 228 272
#     4   9  17  29  43  58  80 110 141 172 208 252
#
# _framework density 16.495391999999999
#
# number of rings (size 3 to 8) (size 9 to 14) (size 15 to 20)
#    0.000    3.154    0.000    1.154    1.077    4.000 
#    0.000    0.000    0.000    2.769    0.000    7.538 
#    0.000    0.000    0.000   11.538    0.000   12.000 
#
# Total GULP energy -644288.222944 kJ/mol
# GULP energy per Si atom -12390.158134 kJ/mol
# Density = 1.645785 g / cm^3
# Si number density = 16.495392 Si / 1000 Ang^3
#
#
#
# Elastic Constant Matrix: (Units=GPa)
#
#
# Indices 1 2 3 4 5 6 
#
# 1 119.3626 63.5917 27.3565 0.0000 0.0000 0.0000
# 2 63.5917 117.4093 32.7695 0.0000 0.0000 0.0000
# 3 27.3565 32.7695 37.4904 0.0000 0.0000 0.0000
# 4 0.0000 0.0000 0.0000 19.2822 0.0000 0.0000
# 5 0.0000 0.0000 0.0000 0.0000 16.9661 0.0000
# 6 0.0000 0.0000 0.0000 0.0000 0.0000 19.2770
#
#
#
# Elastic Compliance Matrix: (Units=1/GPa)
#
#
# Indices 1 2 3 4 5 6 
#
# 1 0.012245 -0.005474 -0.004151 0.000000 0.000000 0.000000
# 2 -0.005474 0.013712 -0.007991 0.000000 0.000000 0.000000
# 3 -0.004151 -0.007991 0.036688 0.000000 0.000000 0.000000
# 4 0.000000 0.000000 0.000000 0.051861 0.000000 0.000000
# 5 0.000000 0.000000 0.000000 0.000000 0.058941 0.000000
# 6 0.000000 0.000000 0.000000 0.000000 0.000000 0.051875
#
#
# Mechanical properties :
#
#
# Convention : Reuss Voigt Hill
#
# Bulk Modulus (GPa) = 36.47900 57.96640 47.22270
# Shear Modulus (GPa) = 18.53957 21.14135 19.84046
#
# Velocity S-wave (km/s) = 3.35614 3.58390 3.47189
# Velocity P-wave (km/s) = 6.09761 7.23485 6.69044
#
# Compressibility (1/GPa) = 0.02741303
#
# Stress axis : x y z
#
# Youngs Moduli (GPa) = 81.66307 72.92628 27.25724
#
# Poissons Ratio (x) = 0.39919 0.11314
# Poissons Ratio (y) = 0.44702 0.21783
# Poissons Ratio (z) = 0.33897 0.58279
#
# Static dielectric constant tensor:
#      x y z
#    x 3.374160 0.000000 0.000000 
#    y 0.000000 2.957160 0.000000 
#    z 0.000000 0.000000 3.037350 
# 
# 
# High freq. dielectric constant tensor:
#      x y z
#    x 1.641200 0.000000 0.000000 
#    y 0.000000 1.602590 0.000000 
#    z 0.000000 0.000000 1.616830 
# 
# From -- ./inp_files/12510.got.cif
#   From: 2010.03.12/outbox.cif.g09.slc.cpg/sg47_7_cif.got.tgz:12510.got - 2010.04.14 03:12:58.
