data_PCOD8201392
_publ_section_title
;
Structure prediction by ZEFSAII (Michael W. Deem and Ramdas Pophale) SiO2 
 PCOD8201392
Probable space group: P N N N
;
_chemical_formula_sum "Si O2"
_cell_formula_units_Z 44
_cell_length_a 23.612708
_cell_length_b 5.564966
_cell_length_c 18.928313
_cell_angle_alpha 90.000000
_cell_angle_beta 90.000000
_cell_angle_gamma 90.000000
_cell_volume 2487.254474
_symmetry_space_group_name_H-M "P N N N"
_symmetry_group_IT_number 48
_space_group.IT_coordinate_system_code '2'
_symmetry_cell_setting 'orthorhombic'
loop_
_space_group_symop_operation_xyz
x,y,z
1/2-x,1/2-y,z
x,1/2-y,1/2-z
1/2-x,y,1/2-z
-x,-y,-z
1/2+x,1/2+y,-z
-x,1/2+y,1/2+z
1/2+x,-y,1/2+z
loop_
_atom_site_type_symbol
_atom_site_label
_atom_site_fract_x
_atom_site_fract_y
_atom_site_fract_z
Si Si1 0.443852 0.010035 0.953203
Si Si2 0.861340 0.017484 0.575695
Si Si3 0.521460 0.491034 0.080158
Si Si4 0.428836 0.836911 0.323323
Si Si5 0.819267 0.875211 0.820870
Si Si6 0.750000 0.250000 0.608106
O O1 0.441937 0.755886 0.909282
O O2 0.445350 0.254678 0.905326
O O3 0.386938 0.035951 0.999169
O O4 0.500000 0.000000 0.000000
O O5 0.912496 0.124045 0.622852
O O6 0.807554 0.197381 0.564057
O O7 0.839070 0.778462 0.612122
O O8 0.469965 0.478124 0.135960
O O9 0.500000 0.500000 0.000000
O O10 0.458158 0.750000 0.250000
O O11 0.370991 0.957568 0.298467
O O12 0.800280 0.750000 0.750000
O O13 0.762754 0.019556 0.843058
#
# Coordination Sequence:
#
# PCOD8201392 Si02
#       6
#     8   8   8   8   8   4
#     4  10  19  33  56  74  94 129 172 215 264 330
#     4  11  21  36  50  69  98 135 181 222 267 314
#     4  10  19  33  53  76 100 128 174 212 273 322
#     4  11  21  33  50  77 101 134 178 225 265 315
#     4  11  22  36  49  65  99 141 187 227 269 309
#     4  10  26  35  46  70  96 138 185 234 270 300
#
# _framework density 17.690187000000002
#
# number of rings (size 3 to 8) (size 9 to 14) (size 15 to 20)
#    0.000    1.455    5.455    2.727    2.545    2.182 
#    0.000    0.000    0.000    0.000    0.000    0.000 
#    0.000    0.000    0.000    4.909    0.000    0.000 
#
# Total GULP energy -545258.415870 kJ/mol
# GULP energy per Si atom -12392.236724 kJ/mol
# Density = 1.764992 g / cm^3
# Si number density = 17.690187 Si / 1000 Ang^3
#
#
#
# Elastic Constant Matrix: (Units=GPa)
#
#
# Indices 1 2 3 4 5 6 
#
# 1 75.5536 27.8054 38.3103 0.0000 0.0000 0.0000
# 2 27.8054 127.5728 13.7230 0.0000 0.0000 0.0000
# 3 38.3103 13.7230 44.9473 0.0000 0.0000 0.0000
# 4 0.0000 0.0000 0.0000 23.7399 0.0000 0.0000
# 5 0.0000 0.0000 0.0000 0.0000 10.4605 0.0000
# 6 0.0000 0.0000 0.0000 0.0000 0.0000 23.8587
#
#
#
# Elastic Compliance Matrix: (Units=1/GPa)
#
#
# Indices 1 2 3 4 5 6 
#
# 1 0.024511 -0.003200 -0.019915 0.000000 0.000000 0.000000
# 2 -0.003200 0.008523 0.000126 0.000000 0.000000 0.000000
# 3 -0.019915 0.000126 0.039184 0.000000 0.000000 0.000000
# 4 0.000000 0.000000 0.000000 0.042123 0.000000 0.000000
# 5 0.000000 0.000000 0.000000 0.000000 0.095598 0.000000
# 6 0.000000 0.000000 0.000000 0.000000 0.000000 0.041913
#
#
# Mechanical properties :
#
#
# Convention : Reuss Voigt Hill
#
# Bulk Modulus (GPa) = 38.11102 45.30567 41.70835
# Shear Modulus (GPa) = 16.30904 22.82749 19.56827
#
# Velocity S-wave (km/s) = 3.03962 3.59612 3.32951
# Velocity P-wave (km/s) = 5.82318 6.55049 6.19751
#
# Compressibility (1/GPa) = 0.02623913
#
# Stress axis : x y z
#
# Youngs Moduli (GPa) = 40.79720 117.33433 25.52046
#
# Poissons Ratio (x) = 0.37549 0.50824
# Poissons Ratio (y) = 0.13056 -0.00320
# Poissons Ratio (z) = 0.81248 -0.01473
#
# Static dielectric constant tensor:
#      x y z
#    x 3.221550 0.000000 0.000000 
#    y 0.000000 9.459530 0.000000 
#    z 0.000000 0.000000 2.948960 
# 
# 
# High freq. dielectric constant tensor:
#      x y z
#    x 1.661180 0.000000 0.000000 
#    y 0.000000 1.713850 0.000000 
#    z 0.000000 0.000000 1.626040 
# 
# From -- ./inp_files/24383.got.cif
#   From: 2010.06.25/outbox.cif.g09.slc.cpg/sg48_13_cif.got.tgz:24383.got - 2010.06.26 18:06:46.
