data_PCOD8201130
_publ_section_title
;
Structure prediction by ZEFSAII (Michael W. Deem and Ramdas Pophale) SiO2 
 PCOD8201130
Probable space group: P M M M
;
_chemical_formula_sum "Si O2"
_cell_formula_units_Z 64
_cell_length_a 41.189711
_cell_length_b 9.438442
_cell_length_c 9.623970
_cell_angle_alpha 90.000000
_cell_angle_beta 90.000000
_cell_angle_gamma 90.000000
_cell_volume 3741.479041
_symmetry_space_group_name_H-M "P M M M"
_symmetry_group_IT_number 47
_symmetry_cell_setting 'orthorhombic'
loop_
_space_group_symop_operation_xyz
x,y,z
-x,-y,z
x,-y,-z
-x,y,-z
-x,-y,-z
x,y,-z
-x,y,z
x,-y,z
loop_
_atom_site_type_symbol
_atom_site_label
_atom_site_fract_x
_atom_site_fract_y
_atom_site_fract_z
Si Si1 0.219814 0.164160 0.340113
Si Si2 0.535811 0.168235 0.655798
Si Si3 0.843088 0.664852 0.660239
Si Si4 0.964345 0.840684 0.165079
Si Si5 0.404954 0.835106 0.162409
Si Si6 0.718575 0.835875 0.161783
Si Si7 0.096131 0.665390 0.160713
Si Si8 0.343187 0.660421 0.834895
O O1 0.228325 0.197094 0.500000
O O2 0.188681 0.251764 0.290174
O O3 0.249997 0.212785 0.246991
O O4 0.211820 0.000000 0.316877
O O5 0.543826 0.221053 0.500000
O O6 0.500000 0.224067 0.700912
O O7 0.563138 0.225230 0.760619
O O8 0.535603 0.000000 0.659949
O O9 0.851184 0.697224 0.500000
O O10 0.836384 0.500000 0.685942
O O11 0.873065 0.719409 0.752274
O O12 0.935969 0.740190 0.222768
O O13 0.000000 0.790110 0.218525
O O14 0.957613 0.000000 0.217132
O O15 0.964198 0.835235 0.000000
O O16 0.374600 0.745095 0.219445
O O17 0.398347 0.000000 0.195831
O O18 0.410639 0.811197 0.000000
O O19 0.688814 0.741675 0.217789
O O20 0.710016 0.000000 0.189228
O O21 0.725553 0.808260 0.000000
O O22 0.090571 0.500000 0.181690
O O23 0.102162 0.704667 0.000000
O O24 0.343442 0.500000 0.776423
O O25 0.343458 0.660467 0.000000
#
# Coordination Sequence:
#
# PCOD8201130 Si02
#       8
#     8   8   8   8   8   8   8   8
#     4   9  18  32  48  66  88 113 142 176 213 253
#     4   8  14  25  41  62  88 115 142 175 216 258
#     4   9  18  32  47  62  85 118 148 173 209 257
#     4   8  14  25  41  62  88 115 141 172 214 260
#     4   9  16  26  43  66  88 111 142 179 214 248
#     4   9  17  30  48  68  89 113 142 176 213 253
#     4   9  17  28  43  65  89 111 141 181 216 246
#     4   9  17  29  45  65  89 116 144 174 211 255
#
# _framework density 17.105535
#
# number of rings (size 3 to 8) (size 9 to 14) (size 15 to 20)
#    0.000    3.250    0.000    1.125    0.000    3.500 
#    0.000    3.125    0.000    4.875    0.000    5.250 
#    0.000    0.000    0.000    0.000    0.000    0.000 
#
# Total GULP energy -793415.123931 kJ/mol
# GULP energy per Si atom -12397.111311 kJ/mol
# Density = 1.706660 g / cm^3
# Si number density = 17.105535 Si / 1000 Ang^3
#
#
#
# Elastic Constant Matrix: (Units=GPa)
#
#
# Indices 1 2 3 4 5 6 
#
# 1 194.7742 76.5481 66.2047 0.0000 0.0000 0.0000
# 2 76.5481 65.8879 31.0112 0.0000 0.0000 0.0000
# 3 66.2047 31.0112 47.8276 0.0000 0.0000 0.0000
# 4 0.0000 0.0000 0.0000 12.6691 0.0000 0.0000
# 5 0.0000 0.0000 0.0000 0.0000 9.0383 0.0000
# 6 0.0000 0.0000 0.0000 0.0000 0.0000 15.6784
#
#
#
# Elastic Compliance Matrix: (Units=1/GPa)
#
#
# Indices 1 2 3 4 5 6 
#
# 1 0.012749 -0.009363 -0.011576 0.000000 0.000000 0.000000
# 2 -0.009363 0.028719 -0.005661 0.000000 0.000000 0.000000
# 3 -0.011576 -0.005661 0.040604 0.000000 0.000000 0.000000
# 4 0.000000 0.000000 0.000000 0.078932 0.000000 0.000000
# 5 0.000000 0.000000 0.000000 0.000000 0.110640 0.000000
# 6 0.000000 0.000000 0.000000 0.000000 0.000000 0.063782
#
#
# Mechanical properties :
#
#
# Convention : Reuss Voigt Hill
#
# Bulk Modulus (GPa) = 34.63704 72.89085 53.76394
# Shear Modulus (GPa) = 12.55489 16.45887 14.50688
#
# Velocity S-wave (km/s) = 2.71212 3.10529 2.91534
# Velocity P-wave (km/s) = 5.48639 7.45400 6.54456
#
# Compressibility (1/GPa) = 0.02887083
#
# Stress axis : x y z
#
# Youngs Moduli (GPa) = 78.43976 34.81967 24.62819
#
# Poissons Ratio (x) = 0.32600 0.28511
# Poissons Ratio (y) = 0.73440 0.13943
# Poissons Ratio (z) = 0.90805 0.19713
#
# Static dielectric constant tensor:
#      x y z
#    x 3.511880 0.000000 0.000000 
#    y 0.000000 3.112960 0.000000 
#    z 0.000000 0.000000 2.974590 
# 
# 
# High freq. dielectric constant tensor:
#      x y z
#    x 1.672420 0.000000 0.000000 
#    y 0.000000 1.642760 0.000000 
#    z 0.000000 0.000000 1.628240 
# 
# From -- ./inp_files/20113.got.cif
#   From: 2010.03.12/outbox.cif.g09.slc.cpg/sg47_11_cif.got.tgz:20113.got - 2010.04.14 03:12:58.
