data_PCOD8201582
_publ_section_title
;
Structure prediction by ZEFSAII (Michael W. Deem and Ramdas Pophale) SiO2 
 PCOD8201582
Probable space group: P N N N
;
_chemical_formula_sum "Si O2"
_cell_formula_units_Z 64
_cell_length_a 17.918848
_cell_length_b 11.998077
_cell_length_c 15.178353
_cell_angle_alpha 90.000000
_cell_angle_beta 90.000000
_cell_angle_gamma 90.000000
_cell_volume 3263.220189
_symmetry_space_group_name_H-M "P N N N"
_symmetry_group_IT_number 48
_space_group.IT_coordinate_system_code '2'
_symmetry_cell_setting 'orthorhombic'
loop_
_space_group_symop_operation_xyz
x,y,z
1/2-x,1/2-y,z
x,1/2-y,1/2-z
1/2-x,y,1/2-z
-x,-y,-z
1/2+x,1/2+y,-z
-x,1/2+y,1/2+z
1/2+x,-y,1/2+z
loop_
_atom_site_type_symbol
_atom_site_label
_atom_site_fract_x
_atom_site_fract_y
_atom_site_fract_z
Si Si1 0.606636 0.708598 0.881521
Si Si2 0.326293 0.491325 0.800113
Si Si3 0.465082 0.654333 0.568162
Si Si4 0.917505 0.846654 0.314376
Si Si5 0.829271 0.226846 0.149177
Si Si6 0.664029 0.913720 0.780377
Si Si7 0.329734 0.295293 0.938769
Si Si8 0.555025 0.062559 0.879961
O O1 0.523277 0.746774 0.908316
O O2 0.658498 0.812086 0.849517
O O3 0.610633 0.615359 0.803897
O O4 0.639084 0.654294 0.970256
O O5 0.250000 0.518776 0.750000
O O6 0.384034 0.462393 0.721968
O O7 0.352769 0.596649 0.858788
O O8 0.319828 0.388924 0.866068
O O9 0.389629 0.686887 0.615566
O O10 0.500326 0.541061 0.602980
O O11 0.435972 0.635366 0.468235
O O12 0.892408 0.750000 0.250000
O O13 0.882811 0.808989 0.408816
O O14 0.007021 0.857365 0.316342
O O15 0.750000 0.250000 0.100114
O O16 0.818069 0.250000 0.250000
O O17 0.750000 0.933488 0.750000
O O18 0.631436 0.023761 0.831052
O O19 0.250000 0.250000 0.962487
#
# Coordination Sequence:
#
# PCOD8201582 Si02
#       8
#     8   8   8   8   8   8   8   8
#     4  10  20  37  58  90 120 152 195 263 319 352
#     4  11  21  36  55  90 122 160 200 235 309 378
#     4  10  22  37  62  90 118 154 210 251 307 369
#     4  10  21  35  57  85 124 156 200 247 296 370
#     4  11  23  39  58  85 124 160 193 246 305 372
#     4  10  21  38  60  87 120 153 208 259 313 362
#     4  11  20  33  58  87 125 159 195 256 306 362
#     4  10  21  40  63  86 114 164 208 256 300 368
#
# _framework density 19.612528999999999
#
# number of rings (size 3 to 8) (size 9 to 14) (size 15 to 20)
#    0.000    1.625    3.750    2.250    5.250    0.000 
#    2.250    1.875    0.000    0.000    0.000    0.000 
#    0.000    0.000    0.000    0.000    0.000    0.000 
#
# Total GULP energy -792867.950272 kJ/mol
# GULP energy per Si atom -12388.561723 kJ/mol
# Density = 1.956789 g / cm^3
# Si number density = 19.612529 Si / 1000 Ang^3
#
#
#
# Elastic Constant Matrix: (Units=GPa)
#
#
# Indices 1 2 3 4 5 6 
#
# 1 116.2119 23.3648 37.0651 0.0000 0.0000 0.0000
# 2 23.3648 55.0911 20.2290 0.0000 0.0000 0.0000
# 3 37.0651 20.2290 94.8415 0.0000 0.0000 0.0000
# 4 0.0000 0.0000 0.0000 10.6073 0.0000 0.0000
# 5 0.0000 0.0000 0.0000 0.0000 8.8102 0.0000
# 6 0.0000 0.0000 0.0000 0.0000 0.0000 29.4746
#
#
#
# Elastic Compliance Matrix: (Units=1/GPa)
#
#
# Indices 1 2 3 4 5 6 
#
# 1 0.010307 -0.003138 -0.003359 0.000000 0.000000 0.000000
# 2 -0.003138 0.020650 -0.003178 0.000000 0.000000 0.000000
# 3 -0.003359 -0.003178 0.012534 0.000000 0.000000 0.000000
# 4 0.000000 0.000000 0.000000 0.094275 0.000000 0.000000
# 5 0.000000 0.000000 0.000000 0.000000 0.113505 0.000000
# 6 0.000000 0.000000 0.000000 0.000000 0.000000 0.033928
#
#
# Mechanical properties :
#
#
# Convention : Reuss Voigt Hill
#
# Bulk Modulus (GPa) = 41.42268 47.49580 44.45924
# Shear Modulus (GPa) = 15.99513 22.14412 19.06963
#
# Velocity S-wave (km/s) = 2.85889 3.36382 3.12159
# Velocity P-wave (km/s) = 5.66251 6.27349 5.97582
#
# Compressibility (1/GPa) = 0.02414136
#
# Stress axis : x y z
#
# Youngs Moduli (GPa) = 97.01992 48.42715 79.78027
#
# Poissons Ratio (x) = 0.15197 0.26797
# Poissons Ratio (y) = 0.30445 0.25354
# Poissons Ratio (z) = 0.32587 0.15390
#
# Static dielectric constant tensor:
#      x y z
#    x 3.722890 0.000000 0.000000 
#    y 0.000000 5.182670 0.000000 
#    z 0.000000 0.000000 3.453580 
# 
# 
# High freq. dielectric constant tensor:
#      x y z
#    x 1.760210 0.000000 0.000000 
#    y 0.000000 1.744020 0.000000 
#    z 0.000000 0.000000 1.761920 
# 
# From -- ./inp_files/28053.got.cif
#   From: 2010.06.25/outbox.cif.g09.slc.cpg/sg48_15_cif.got.tgz:28053.got - 2010.06.26 18:06:46.
