data_PCOD8201983
_publ_section_title
;
Structure prediction by ZEFSAII (Michael W. Deem and Ramdas Pophale) SiO2 
 PCOD8201983
Probable space group: P N N N
;
_chemical_formula_sum "Si O2"
_cell_formula_units_Z 58
_cell_length_a 26.019611
_cell_length_b 5.289491
_cell_length_c 18.030713
_cell_angle_alpha 90.000000
_cell_angle_beta 90.000000
_cell_angle_gamma 90.000000
_cell_volume 2481.576013
_symmetry_space_group_name_H-M "P N N N"
_symmetry_group_IT_number 48
_space_group.IT_coordinate_system_code '2'
_symmetry_cell_setting 'orthorhombic'
loop_
_space_group_symop_operation_xyz
x,y,z
1/2-x,1/2-y,z
x,1/2-y,1/2-z
1/2-x,y,1/2-z
-x,-y,-z
1/2+x,1/2+y,-z
-x,1/2+y,1/2+z
1/2+x,-y,1/2+z
loop_
_atom_site_type_symbol
_atom_site_label
_atom_site_fract_x
_atom_site_fract_y
_atom_site_fract_z
Si Si1 0.683946 0.993459 0.129159
Si Si2 0.127390 0.813276 0.064495
Si Si3 0.969773 0.018061 0.573875
Si Si4 0.076060 0.382423 0.325347
Si Si5 0.029411 0.165876 0.825961
Si Si6 0.750000 0.250000 0.250000
Si Si7 0.873547 0.489837 0.404737
Si Si8 0.779467 0.498004 0.968398
O O1 0.717603 0.053092 0.200966
O O2 0.641878 0.214664 0.124515
O O3 0.720734 0.991201 0.057472
O O4 0.656957 0.719025 0.134919
O O5 0.068027 0.746034 0.054357
O O6 0.125314 0.951348 0.145370
O O7 0.163162 0.559171 0.063931
O O8 0.139480 0.997746 0.993539
O O9 0.012392 0.076191 0.635365
O O10 0.935443 0.789333 0.602948
O O11 0.000000 0.000000 0.500000
O O12 0.095563 0.250000 0.250000
O O13 0.023107 0.521620 0.304635
O O14 0.058078 0.250000 0.750000
O O15 0.066654 0.012956 0.881676
O O16 0.750000 0.250000 0.940520
O O17 0.750000 0.750000 0.937351
#
# Coordination Sequence:
#
# PCOD8201983 Si02
#       8
#     8   8   8   8   8   2   8   8
#     4  11  27  44  68  97 141 189 248 302 362 429
#     4  10  25  42  70 106 141 185 245 302 370 445
#     4  11  23  40  69  99 141 196 237 302 354 442
#     4  11  23  42  68 102 148 195 235 297 369 455
#     4  11  24  40  60  97 143 193 247 297 359 434
#     4  12  28  50  68 102 144 210 242 306 364 446
#     4  11  26  44  67 102 140 190 254 306 358 418
#     4  11  23  44  70 103 137 178 235 312 367 429
#
# _framework density 23.372244999999999
#
# number of rings (size 3 to 8) (size 9 to 14) (size 15 to 20)
#    0.000    1.103    2.069    3.310   13.517    2.759 
#    0.000    0.000    0.000    0.000    0.000    2.897 
#    2.069    0.000    0.000    0.000    0.000    0.000 
#
# Total GULP energy -718547.820768 kJ/mol
# GULP energy per Si atom -12388.755530 kJ/mol
# Density = 2.331905 g / cm^3
# Si number density = 23.372245 Si / 1000 Ang^3
#
#
#
# Elastic Constant Matrix: (Units=GPa)
#
#
# Indices 1 2 3 4 5 6 
#
# 1 89.0468 38.2085 47.8953 0.0000 0.0000 0.0000
# 2 38.2085 126.2252 45.6065 0.0000 0.0000 0.0000
# 3 47.8953 45.6065 132.6869 0.0000 0.0000 0.0000
# 4 0.0000 0.0000 0.0000 32.6446 0.0000 0.0000
# 5 0.0000 0.0000 0.0000 0.0000 33.5288 0.0000
# 6 0.0000 0.0000 0.0000 0.0000 0.0000 36.0294
#
#
#
# Elastic Compliance Matrix: (Units=1/GPa)
#
#
# Indices 1 2 3 4 5 6 
#
# 1 0.014819 -0.002915 -0.004347 0.000000 0.000000 0.000000
# 2 -0.002915 0.009619 -0.002254 0.000000 0.000000 0.000000
# 3 -0.004347 -0.002254 0.009880 0.000000 0.000000 0.000000
# 4 0.000000 0.000000 0.000000 0.030633 0.000000 0.000000
# 5 0.000000 0.000000 0.000000 0.000000 0.029825 0.000000
# 6 0.000000 0.000000 0.000000 0.000000 0.000000 0.027755
#
#
# Mechanical properties :
#
#
# Convention : Reuss Voigt Hill
#
# Bulk Modulus (GPa) = 65.41883 67.93104 66.67494
# Shear Modulus (GPa) = 34.09253 34.85715 34.47484
#
# Velocity S-wave (km/s) = 3.82340 3.86604 3.84478
# Velocity P-wave (km/s) = 6.89507 7.00402 6.94976
#
# Compressibility (1/GPa) = 0.01528612
#
# Stress axis : x y z
#
# Youngs Moduli (GPa) = 67.48066 103.95951 101.20985
#
# Poissons Ratio (x) = 0.30305 0.43998
# Poissons Ratio (y) = 0.19671 0.22813
# Poissons Ratio (z) = 0.29335 0.23433
#
# Static dielectric constant tensor:
#      x y z
#    x 4.292180 0.000000 0.000000 
#    y 0.000000 4.285960 0.000000 
#    z 0.000000 0.000000 4.041490 
# 
# 
# High freq. dielectric constant tensor:
#      x y z
#    x 1.917530 0.000000 0.000000 
#    y 0.000000 1.933020 0.000000 
#    z 0.000000 0.000000 1.907620 
# 
# From -- ./inp_files/32419.got.cif
#   From: 2010.06.25/outbox.cif.g09.slc.cpg/sg48_17_cif.got.tgz:32419.got - 2010.06.26 18:06:46.
