data_PCOD8201957
_publ_section_title
;
Structure prediction by ZEFSAII (Michael W. Deem and Ramdas Pophale) SiO2 
 PCOD8201957
Probable space group: P N N N
;
_chemical_formula_sum "Si O2"
_cell_formula_units_Z 38
_cell_length_a 8.412075
_cell_length_b 24.245789
_cell_length_c 9.315564
_cell_angle_alpha 90.000000
_cell_angle_beta 90.000000
_cell_angle_gamma 90.000000
_cell_volume 1899.978171
_symmetry_space_group_name_H-M "P N N N"
_symmetry_group_IT_number 48
_space_group.IT_coordinate_system_code '2'
_symmetry_cell_setting 'orthorhombic'
loop_
_space_group_symop_operation_xyz
x,y,z
1/2-x,1/2-y,z
x,1/2-y,1/2-z
1/2-x,y,1/2-z
-x,-y,-z
1/2+x,1/2+y,-z
-x,1/2+y,1/2+z
1/2+x,-y,1/2+z
loop_
_atom_site_type_symbol
_atom_site_label
_atom_site_fract_x
_atom_site_fract_y
_atom_site_fract_z
Si Si1 0.250000 0.978796 0.250000
Si Si2 0.435569 0.311589 0.722147
Si Si3 0.898881 0.109176 0.945700
Si Si4 0.599821 0.337577 0.435392
Si Si5 0.076710 0.083800 0.232257
Si Si6 0.250000 0.750000 0.750000
O O1 0.204562 0.941869 0.113604
O O2 0.097801 0.019204 0.278365
O O3 0.505597 0.250000 0.750000
O O4 0.250000 0.311493 0.750000
O O5 0.510226 0.359210 0.819658
O O6 0.470115 0.327379 0.558052
O O7 0.775636 0.152784 0.006395
O O8 0.020290 0.088461 0.067269
O O9 0.549529 0.389312 0.338353
O O10 0.620625 0.283753 0.340187
O O11 0.250000 0.113413 0.250000
#
# Coordination Sequence:
#
# PCOD8201957 Si02
#       6
#     4   8   8   8   8   2
#     4  10  24  42  69  93 132 178 224 270 334 376
#     4  11  25  43  68 100 134 171 215 272 337 390
#     4  12  21  46  68  97 134 172 227 267 326 403
#     4  12  23  43  68  99 129 174 217 274 322 401
#     4  10  24  42  64  95 135 170 221 270 329 381
#     4  12  24  40  72 100 132 168 228 260 346 392
#
# _framework density 20.000230999999999
#
# number of rings (size 3 to 8) (size 9 to 14) (size 15 to 20)
#    0.632    0.211    4.211    3.158    0.000    1.684 
#    0.000    0.000    0.000    0.000    0.000    0.000 
#    0.000    0.000    0.000    0.000    0.000    0.000 
#
# Total GULP energy -471073.095298 kJ/mol
# GULP energy per Si atom -12396.660403 kJ/mol
# Density = 1.995471 g / cm^3
# Si number density = 20.000231 Si / 1000 Ang^3
#
#
#
# Elastic Constant Matrix: (Units=GPa)
#
#
# Indices 1 2 3 4 5 6 
#
# 1 87.1900 34.1029 53.2827 0.0000 0.0000 0.0000
# 2 34.1029 129.7381 67.4145 0.0000 0.0000 0.0000
# 3 53.2827 67.4145 154.6362 0.0000 0.0000 0.0000
# 4 0.0000 0.0000 0.0000 -40.0451 0.0000 0.0000
# 5 0.0000 0.0000 0.0000 0.0000 46.4941 0.0000
# 6 0.0000 0.0000 0.0000 0.0000 0.0000 38.9676
#
#
#
# Elastic Compliance Matrix: (Units=1/GPa)
#
#
# Indices 1 2 3 4 5 6 
#
# 1 0.014781 -0.001602 -0.004395 0.000000 0.000000 0.000000
# 2 -0.001602 0.010139 -0.003868 0.000000 0.000000 0.000000
# 3 -0.004395 -0.003868 0.009667 0.000000 0.000000 0.000000
# 4 0.000000 0.000000 0.000000 -0.024972 0.000000 0.000000
# 5 0.000000 0.000000 0.000000 0.000000 0.021508 0.000000
# 6 0.000000 0.000000 0.000000 0.000000 0.000000 0.025662
#
#
# Mechanical properties :
#
#
# Convention : Reuss Voigt Hill
#
# Bulk Modulus (GPa) = 67.30332 75.68494 71.49413
# Shear Modulus (GPa) = 61.37316 23.53428 42.45372
#
# Velocity S-wave (km/s) = 5.54552 3.43403 4.61223
# Velocity P-wave (km/s) = 8.64454 7.32445 8.01173
#
# Compressibility (1/GPa) = 0.01485811
#
# Stress axis : x y z
#
# Youngs Moduli (GPa) = 67.65220 98.63054 103.43948
#
# Poissons Ratio (x) = 0.15798 0.45461
# Poissons Ratio (y) = 0.10836 0.40012
# Poissons Ratio (z) = 0.29733 0.38152
#
# Static dielectric constant tensor:
#      x y z
#    x 3.759280 0.000000 0.000000 
#    y 0.000000 3.729090 0.000000 
#    z 0.000000 0.000000 3.712870 
# 
# 
# High freq. dielectric constant tensor:
#      x y z
#    x 1.778490 0.000000 0.000000 
#    y 0.000000 1.787200 0.000000 
#    z 0.000000 0.000000 1.790060 
# 
# From -- ./inp_files/9045.got.cif
#   From: 2010.06.25/outbox.cif.g09.slc.cpg/sg48_5_cif.got.tgz:9045.got - 2010.06.26 18:06:46.
