data_PCOD8201385
_publ_section_title
;
Structure prediction by ZEFSAII (Michael W. Deem and Ramdas Pophale) SiO2 
 PCOD8201385
Probable space group: P N N N
;
_chemical_formula_sum "Si O2"
_cell_formula_units_Z 64
_cell_length_a 20.973128
_cell_length_b 18.073953
_cell_length_c 8.740241
_cell_angle_alpha 90.000000
_cell_angle_beta 90.000000
_cell_angle_gamma 90.000000
_cell_volume 3313.139817
_symmetry_space_group_name_H-M "P N N N"
_symmetry_group_IT_number 48
_space_group.IT_coordinate_system_code '2'
_symmetry_cell_setting 'orthorhombic'
loop_
_space_group_symop_operation_xyz
x,y,z
1/2-x,1/2-y,z
x,1/2-y,1/2-z
1/2-x,y,1/2-z
-x,-y,-z
1/2+x,1/2+y,-z
-x,1/2+y,1/2+z
1/2+x,-y,1/2+z
loop_
_atom_site_type_symbol
_atom_site_label
_atom_site_fract_x
_atom_site_fract_y
_atom_site_fract_z
Si Si1 0.569060 0.385565 0.211635
Si Si2 0.427079 0.330101 0.186454
Si Si3 0.092759 0.471815 0.142203
Si Si4 0.101679 0.671329 0.405516
Si Si5 0.665896 0.207774 0.104481
Si Si6 0.955972 0.684359 0.351633
Si Si7 0.812960 0.099733 0.651011
Si Si8 0.964364 0.538571 0.179222
O O1 0.499328 0.351772 0.220009
O O2 0.605420 0.330903 0.323113
O O3 0.576387 0.467505 0.274242
O O4 0.596350 0.390225 0.039085
O O5 0.407450 0.250000 0.250000
O O6 0.387008 0.399225 0.258397
O O7 0.416085 0.321379 0.006853
O O8 0.156189 0.519886 0.107774
O O9 0.039412 0.525374 0.220435
O O10 0.052956 0.442826 0.995443
O O11 0.144890 0.736413 0.472952
O O12 0.134784 0.642796 0.251970
O O13 0.031054 0.701167 0.370981
O O14 0.701289 0.250000 0.250000
O O15 0.705337 0.145578 0.005838
O O16 0.926472 0.750000 0.250000
O O17 0.940985 0.607055 0.274713
O O18 0.750000 0.086245 0.750000
#
# Coordination Sequence:
#
# PCOD8201385 Si02
#       8
#     8   8   8   8   8   8   8   8
#     4   9  18  33  54  81 113 148 181 229 283 346
#     4  10  20  32  53  85 116 146 182 230 289 350
#     4  10  21  35  55  79 113 148 188 234 288 342
#     4  10  21  32  55  76 111 144 190 232 277 324
#     4  10  20  38  57  78 108 151 189 234 278 334
#     4  11  20  30  51  82 117 147 181 226 285 347
#     4  12  24  39  56  80 110 150 198 243 281 324
#     4  10  19  32  56  79 112 150 185 222 287 357
#
# _framework density 19.317022999999999
#
# number of rings (size 3 to 8) (size 9 to 14) (size 15 to 20)
#    0.000    1.750    2.500    3.750    1.750    2.500 
#    0.000    4.375    0.000    0.375    0.000    0.000 
#    0.000    0.000    0.000    0.000    0.000    0.000 
#
# Total GULP energy -792930.446008 kJ/mol
# GULP energy per Si atom -12389.538219 kJ/mol
# Density = 1.927306 g / cm^3
# Si number density = 19.317023 Si / 1000 Ang^3
#
#
#
# Elastic Constant Matrix: (Units=GPa)
#
#
# Indices 1 2 3 4 5 6 
#
# 1 38.7248 18.2116 13.3703 0.0000 0.0000 0.0000
# 2 18.2116 128.7332 54.2205 0.0000 0.0000 0.0000
# 3 13.3703 54.2205 101.6992 0.0000 0.0000 0.0000
# 4 0.0000 0.0000 0.0000 40.7082 0.0000 0.0000
# 5 0.0000 0.0000 0.0000 0.0000 17.0982 0.0000
# 6 0.0000 0.0000 0.0000 0.0000 0.0000 1.9355
#
#
#
# Elastic Compliance Matrix: (Units=1/GPa)
#
#
# Indices 1 2 3 4 5 6 
#
# 1 0.027983 -0.003107 -0.002022 0.000000 0.000000 0.000000
# 2 -0.003107 0.010362 -0.005116 0.000000 0.000000 0.000000
# 3 -0.002022 -0.005116 0.012826 0.000000 0.000000 0.000000
# 4 0.000000 0.000000 0.000000 0.024565 0.000000 0.000000
# 5 0.000000 0.000000 0.000000 0.000000 0.058486 0.000000
# 6 0.000000 0.000000 0.000000 0.000000 0.000000 0.516653
#
#
# Mechanical properties :
#
#
# Convention : Reuss Voigt Hill
#
# Bulk Modulus (GPa) = 32.59397 48.97356 40.78377
# Shear Modulus (GPa) = 7.33576 24.17205 15.75390
#
# Velocity S-wave (km/s) = 1.95085 3.54126 2.85887
# Velocity P-wave (km/s) = 4.68873 6.49063 5.66182
#
# Compressibility (1/GPa) = 0.03068052
#
# Stress axis : x y z
#
# Youngs Moduli (GPa) = 35.73647 96.50290 77.96360
#
# Poissons Ratio (x) = 0.29982 0.15768
# Poissons Ratio (y) = 0.11103 0.39888
# Poissons Ratio (z) = 0.07228 0.49373
#
# Static dielectric constant tensor:
#      x y z
#    x 2.961900 0.000000 0.000000 
#    y 0.000000 3.670490 0.000000 
#    z 0.000000 0.000000 3.926400 
# 
# 
# High freq. dielectric constant tensor:
#      x y z
#    x 1.684350 0.000000 0.000000 
#    y 0.000000 1.758110 0.000000 
#    z 0.000000 0.000000 1.772900 
# 
# From -- ./inp_files/16102.got.cif
#   From: 2010.06.25/outbox.cif.g09.slc.cpg/sg48_9_cif.got.tgz:16102.got - 2010.06.26 18:06:46.
