data_PCOD8201183
_publ_section_title
;
Structure prediction by ZEFSAII (Michael W. Deem and Ramdas Pophale) SiO2 
 PCOD8201183
Probable space group: P M M M
;
_chemical_formula_sum "Si O2"
_cell_formula_units_Z 48
_cell_length_a 8.260719
_cell_length_b 23.672770
_cell_length_c 19.122295
_cell_angle_alpha 90.000000
_cell_angle_beta 90.000000
_cell_angle_gamma 90.000000
_cell_volume 3739.443206
_symmetry_space_group_name_H-M "P M M M"
_symmetry_group_IT_number 47
_symmetry_cell_setting 'orthorhombic'
loop_
_space_group_symop_operation_xyz
x,y,z
-x,-y,z
x,-y,-z
-x,y,-z
-x,-y,-z
x,y,-z
-x,y,z
x,-y,z
loop_
_atom_site_type_symbol
_atom_site_label
_atom_site_fract_x
_atom_site_fract_y
_atom_site_fract_z
Si Si1 0.189434 0.435363 0.691170
Si Si2 0.189434 0.115698 0.420637
Si Si3 0.680987 0.433546 0.841229
Si Si4 0.000000 0.432966 0.919552
Si Si5 0.310190 0.000000 0.579614
Si Si6 0.188477 0.348201 0.577804
Si Si7 0.314725 0.231246 0.418380
O O1 0.219343 0.500000 0.668894
O O2 0.288981 0.419494 0.760193
O O3 0.258990 0.396085 0.629058
O O4 0.000000 0.424512 0.706318
O O5 0.257154 0.113593 0.500000
O O6 0.259677 0.171977 0.382787
O O7 0.000000 0.120548 0.418313
O O8 0.245325 0.057340 0.382912
O O9 0.500000 0.409836 0.862174
O O10 0.679775 0.500000 0.853861
O O11 0.832743 0.408011 0.885730
O O12 0.000000 0.500000 0.908640
O O13 0.000000 0.415035 0.000000
O O14 0.500000 0.000000 0.583525
O O15 0.243895 0.000000 0.500000
O O16 0.268473 0.353456 0.500000
O O17 0.220786 0.286063 0.610759
O O18 0.000000 0.358324 0.570751
O O19 0.274091 0.226168 0.500000
O O20 0.500000 0.241670 0.401865
#
# Coordination Sequence:
#
# PCOD8201183 Si02
#       7
#     8   8   8   4   4   8   8
#     4   9  16  27  41  53  69  92 115 143 180 219
#     4   9  15  22  32  44  58  76  97 121 151 190
#     4   9  16  26  40  56  74  96 118 137 163 202
#     4   9  16  26  40  58  79  97 113 135 160 191
#     4   9  15  21  29  43  61  77  95 117 143 183
#     4   9  17  27  38  52  67  84 111 146 182 221
#     4   9  16  25  35  45  59  79 101 129 168 208
#
# _framework density 12.836135000000001
#
# number of rings (size 3 to 8) (size 9 to 14) (size 15 to 20)
#    0.000    3.000    0.833    1.250    0.000    6.333 
#    0.000    3.333    0.000    0.000    0.000    4.667 
#    0.000    0.000    0.000    0.000    0.000    0.000 
#
# Total GULP energy -594671.306255 kJ/mol
# GULP energy per Si atom -12388.985547 kJ/mol
# Density = 1.280692 g / cm^3
# Si number density = 12.836135 Si / 1000 Ang^3
#
#
#
# Elastic Constant Matrix: (Units=GPa)
#
#
# Indices 1 2 3 4 5 6 
#
# 1 57.5582 23.0464 26.7046 0.0000 0.0000 0.0000
# 2 23.0464 74.6369 29.5061 0.0000 0.0000 0.0000
# 3 26.7046 29.5061 38.9860 0.0000 0.0000 0.0000
# 4 0.0000 0.0000 0.0000 0.5641 0.0000 0.0000
# 5 0.0000 0.0000 0.0000 0.0000 7.9908 0.0000
# 6 0.0000 0.0000 0.0000 0.0000 0.0000 13.5160
#
#
#
# Elastic Compliance Matrix: (Units=1/GPa)
#
#
# Indices 1 2 3 4 5 6 
#
# 1 0.025567 -0.001386 -0.016464 0.000000 0.000000 0.000000
# 2 -0.001386 0.019194 -0.013577 0.000000 0.000000 0.000000
# 3 -0.016464 -0.013577 0.047203 0.000000 0.000000 0.000000
# 4 0.000000 0.000000 0.000000 1.772669 0.000000 0.000000
# 5 0.000000 0.000000 0.000000 0.000000 0.125144 0.000000
# 6 0.000000 0.000000 0.000000 0.000000 0.000000 0.073987
#
#
# Mechanical properties :
#
#
# Convention : Reuss Voigt Hill
#
# Bulk Modulus (GPa) = 34.35242 36.63279 35.49261
# Shear Modulus (GPa) = 2.34047 10.54245 6.44146
#
# Velocity S-wave (km/s) = 1.35178 2.86896 2.24257
# Velocity P-wave (km/s) = 5.40895 6.29089 5.86652
#
# Compressibility (1/GPa) = 0.02911003
#
# Stress axis : x y z
#
# Youngs Moduli (GPa) = 39.11246 52.10081 21.18494
#
# Poissons Ratio (x) = 0.07221 0.34879
# Poissons Ratio (y) = 0.05421 0.28763
# Poissons Ratio (z) = 0.64395 0.70738
#
# Static dielectric constant tensor:
#      x y z
#    x 2.690910 0.000000 0.000000 
#    y 0.000000 2.732320 0.000000 
#    z 0.000000 0.000000 2.262510 
# 
# 
# High freq. dielectric constant tensor:
#      x y z
#    x 1.501680 0.000000 0.000000 
#    y 0.000000 1.471250 0.000000 
#    z 0.000000 0.000000 1.418940 
# 
# From -- ./inp_files/30035.got.cif
#   From: 2010.03.12/outbox.cif.g09.slc.cpg/sg47_16_cif.got.tgz:30035.got - 2010.04.14 03:12:58.
