data_PCOD8201621
_publ_section_title
;
Structure prediction by ZEFSAII (Michael W. Deem and Ramdas Pophale) SiO2 
 PCOD8201621
Probable space group: P N N N
;
_chemical_formula_sum "Si O2"
_cell_formula_units_Z 56
_cell_length_a 13.542819
_cell_length_b 11.696623
_cell_length_c 15.380565
_cell_angle_alpha 90.000000
_cell_angle_beta 90.000000
_cell_angle_gamma 90.000000
_cell_volume 2436.362216
_symmetry_space_group_name_H-M "P N N N"
_symmetry_group_IT_number 48
_space_group.IT_coordinate_system_code '2'
_symmetry_cell_setting 'orthorhombic'
loop_
_space_group_symop_operation_xyz
x,y,z
1/2-x,1/2-y,z
x,1/2-y,1/2-z
1/2-x,y,1/2-z
-x,-y,-z
1/2+x,1/2+y,-z
-x,1/2+y,1/2+z
1/2+x,-y,1/2+z
loop_
_atom_site_type_symbol
_atom_site_label
_atom_site_fract_x
_atom_site_fract_y
_atom_site_fract_z
Si Si1 0.521448 0.903699 0.376362
Si Si2 0.804646 0.139440 0.912056
Si Si3 0.641824 0.130091 0.396375
Si Si4 0.861565 0.789122 0.462692
Si Si5 0.050172 0.081781 0.685828
Si Si6 0.882183 0.486622 0.943468
Si Si7 0.137082 0.623092 0.871993
O O1 0.403474 0.903122 0.365743
O O2 0.564701 0.820012 0.451460
O O3 0.548563 0.858773 0.279947
O O4 0.560210 0.030904 0.396212
O O5 0.750000 0.250000 0.868758
O O6 0.730788 0.031895 0.914308
O O7 0.838003 0.177424 0.007303
O O8 0.747469 0.092206 0.359558
O O9 0.607221 0.246774 0.349725
O O10 0.750000 0.750000 0.480198
O O11 0.865956 0.855816 0.371107
O O12 0.895874 0.875967 0.540395
O O13 0.948011 0.073607 0.631220
O O14 0.083876 0.950605 0.703073
O O15 0.904804 0.421701 0.034439
#
# Coordination Sequence:
#
# PCOD8201621 Si02
#       7
#     8   8   8   8   8   8   8
#     4  12  26  38  62 102 130 165 204 274 331 384
#     4  11  21  41  67  93 123 162 224 268 311 377
#     4  10  20  38  65  95 124 154 224 267 311 372
#     4  11  23  40  65  94 128 167 217 268 325 382
#     4  11  24  40  61  92 136 169 206 251 342 398
#     4  10  21  42  65  89 120 175 219 260 311 388
#     4   9  18  38  68  90 119 172 213 261 307 386
#
# _framework density 22.985087
#
# number of rings (size 3 to 8) (size 9 to 14) (size 15 to 20)
#    0.000    1.429    2.857    6.000    2.000    4.000 
#    0.000    2.143    0.000    0.000    0.000    0.000 
#    0.000    0.000    0.000    0.000    0.000    0.000 
#
# Total GULP energy -693744.334634 kJ/mol
# GULP energy per Si atom -12388.291690 kJ/mol
# Density = 2.293277 g / cm^3
# Si number density = 22.985087 Si / 1000 Ang^3
#
#
#
# Elastic Constant Matrix: (Units=GPa)
#
#
# Indices 1 2 3 4 5 6 
#
# 1 97.0527 47.0379 -0.7218 0.0000 0.0000 0.0000
# 2 47.0379 127.1500 -1.1553 0.0000 0.0000 0.0000
# 3 -0.7218 -1.1553 30.1952 0.0000 0.0000 0.0000
# 4 0.0000 0.0000 0.0000 10.2711 0.0000 0.0000
# 5 0.0000 0.0000 0.0000 0.0000 18.5224 0.0000
# 6 0.0000 0.0000 0.0000 0.0000 0.0000 32.1860
#
#
#
# Elastic Compliance Matrix: (Units=1/GPa)
#
#
# Indices 1 2 3 4 5 6 
#
# 1 0.012555 -0.004644 0.000122 0.000000 0.000000 0.000000
# 2 -0.004644 0.009585 0.000256 0.000000 0.000000 0.000000
# 3 0.000122 0.000256 0.033131 0.000000 0.000000 0.000000
# 4 0.000000 0.000000 0.000000 0.097360 0.000000 0.000000
# 5 0.000000 0.000000 0.000000 0.000000 0.053989 0.000000
# 6 0.000000 0.000000 0.000000 0.000000 0.000000 0.031069
#
#
# Mechanical properties :
#
#
# Convention : Reuss Voigt Hill
#
# Bulk Modulus (GPa) = 21.39501 38.30218 29.84860
# Shear Modulus (GPa) = 19.09857 26.14504 22.62181
#
# Velocity S-wave (km/s) = 2.88568 3.37631 3.14059
# Velocity P-wave (km/s) = 4.52010 5.64796 5.11521
#
# Compressibility (1/GPa) = 0.04673986
#
# Stress axis : x y z
#
# Youngs Moduli (GPa) = 79.64867 104.33098 30.18360
#
# Poissons Ratio (x) = 0.48446 -0.00370
# Poissons Ratio (y) = 0.36985 -0.00772
# Poissons Ratio (z) = -0.00975 -0.02668
#
# Static dielectric constant tensor:
#      x y z
#    x 4.381930 0.000000 0.000000 
#    y 0.000000 4.504170 0.000000 
#    z 0.000000 0.000000 3.891980 
# 
# 
# High freq. dielectric constant tensor:
#      x y z
#    x 1.910370 0.000000 0.000000 
#    y 0.000000 1.919440 0.000000 
#    z 0.000000 0.000000 1.869140 
# 
# From -- ./inp_files/27332.got.cif
#   From: 2010.06.25/outbox.cif.g09.slc.cpg/sg48_14_cif.got.tgz:27332.got - 2010.06.26 18:06:46.
