data_PCOD8201808
_publ_section_title
;
Structure prediction by ZEFSAII (Michael W. Deem and Ramdas Pophale) SiO2 
 PCOD8201808
Probable space group: P N N N
;
_chemical_formula_sum "Si O2"
_cell_formula_units_Z 64
_cell_length_a 12.272588
_cell_length_b 28.206241
_cell_length_c 9.156450
_cell_angle_alpha 90.000000
_cell_angle_beta 90.000000
_cell_angle_gamma 90.000000
_cell_volume 3169.629465
_symmetry_space_group_name_H-M "P N N N"
_symmetry_group_IT_number 48
_space_group.IT_coordinate_system_code '2'
_symmetry_cell_setting 'orthorhombic'
loop_
_space_group_symop_operation_xyz
x,y,z
1/2-x,1/2-y,z
x,1/2-y,1/2-z
1/2-x,y,1/2-z
-x,-y,-z
1/2+x,1/2+y,-z
-x,1/2+y,1/2+z
1/2+x,-y,1/2+z
loop_
_atom_site_type_symbol
_atom_site_label
_atom_site_fract_x
_atom_site_fract_y
_atom_site_fract_z
Si Si1 0.476748 0.057993 0.113610
Si Si2 0.628394 0.526624 0.323559
Si Si3 0.360498 0.382107 0.834962
Si Si4 0.986214 0.303526 0.769378
Si Si5 0.699182 0.301411 0.934265
Si Si6 0.356794 0.123534 0.335037
Si Si7 0.967312 0.198436 0.190203
Si Si8 0.900730 0.148301 0.467708
O O1 0.418624 0.082421 0.248914
O O2 0.549354 0.018034 0.194570
O O3 0.384449 0.038754 0.998950
O O4 0.560503 0.093723 0.031154
O O5 0.750000 0.517450 0.250000
O O6 0.581274 0.571977 0.236568
O O7 0.250000 0.369805 0.750000
O O8 0.440032 0.337390 0.828958
O O9 0.331684 0.394433 0.001789
O O10 0.029814 0.250000 0.750000
O O11 0.857042 0.307204 0.725078
O O12 0.987921 0.320803 0.937253
O O13 0.750000 0.250000 0.953494
O O14 0.596939 0.300908 0.040793
O O15 0.779013 0.345453 0.968303
O O16 0.250000 0.137116 0.250000
O O17 0.420075 0.172669 0.340318
O O18 0.993521 0.250000 0.250000
O O19 0.896221 0.168930 0.305748
#
# Coordination Sequence:
#
# PCOD8201808 Si02
#       8
#     8   8   8   8   8   8   8   8
#     4  10  23  43  68 100 129 167 215 275 334 401
#     4  10  21  43  74  96 128 171 213 267 344 400
#     4  11  24  44  68  89 126 176 218 272 329 382
#     4  12  23  40  61  95 128 172 223 262 314 393
#     4  12  22  38  60  91 131 174 214 261 325 386
#     4  11  24  42  65  93 127 168 220 270 331 387
#     4  11  22  38  58  93 125 169 218 267 318 392
#     4  11  23  36  63  88 135 168 208 265 324 388
#
# _framework density 20.191635000000002
#
# number of rings (size 3 to 8) (size 9 to 14) (size 15 to 20)
#    0.000    1.000    5.000    2.250    1.750    3.000 
#    0.000    1.250    2.750    0.000    0.000    0.000 
#    0.000    0.000    0.000    0.000    0.000    0.000 
#
# Total GULP energy -793260.419173 kJ/mol
# GULP energy per Si atom -12394.694050 kJ/mol
# Density = 2.014568 g / cm^3
# Si number density = 20.191635 Si / 1000 Ang^3
#
#
#
# Elastic Constant Matrix: (Units=GPa)
#
#
# Indices 1 2 3 4 5 6 
#
# 1 111.9776 59.8781 34.7787 0.0000 0.0000 0.0000
# 2 59.8781 114.3089 25.8945 0.0000 0.0000 0.0000
# 3 34.7787 25.8945 84.5489 0.0000 0.0000 0.0000
# 4 0.0000 0.0000 0.0000 22.2626 0.0000 0.0000
# 5 0.0000 0.0000 0.0000 0.0000 36.5125 0.0000
# 6 0.0000 0.0000 0.0000 0.0000 0.0000 27.7171
#
#
#
# Elastic Compliance Matrix: (Units=1/GPa)
#
#
# Indices 1 2 3 4 5 6 
#
# 1 0.013353 -0.006179 -0.003600 0.000000 0.000000 0.000000
# 2 -0.006179 0.012260 -0.001213 0.000000 0.000000 0.000000
# 3 -0.003600 -0.001213 0.013680 0.000000 0.000000 0.000000
# 4 0.000000 0.000000 0.000000 0.044918 0.000000 0.000000
# 5 0.000000 0.000000 0.000000 0.000000 0.027388 0.000000
# 6 0.000000 0.000000 0.000000 0.000000 0.000000 0.036079
#
#
# Mechanical properties :
#
#
# Convention : Reuss Voigt Hill
#
# Bulk Modulus (GPa) = 57.77685 61.32644 59.55165
# Shear Modulus (GPa) = 28.50128 29.98405 29.24267
#
# Velocity S-wave (km/s) = 3.76112 3.85772 3.80973
# Velocity P-wave (km/s) = 6.89476 7.09089 6.99352
#
# Compressibility (1/GPa) = 0.01730797
#
# Stress axis : x y z
#
# Youngs Moduli (GPa) = 74.89200 81.56809 73.10001
#
# Poissons Ratio (x) = 0.50400 0.26317
# Poissons Ratio (y) = 0.46275 0.08868
# Poissons Ratio (z) = 0.26962 0.09895
#
# Static dielectric constant tensor:
#      x y z
#    x 3.775520 0.000000 0.000000 
#    y 0.000000 3.689800 0.000000 
#    z 0.000000 0.000000 3.935020 
# 
# 
# High freq. dielectric constant tensor:
#      x y z
#    x 1.779450 0.000000 0.000000 
#    y 0.000000 1.783800 0.000000 
#    z 0.000000 0.000000 1.809930 
# 
# From -- ./inp_files/11570.got.cif
#   From: 2010.06.25/outbox.cif.g09.slc.cpg/sg48_6_cif.got.tgz:11570.got - 2010.06.26 18:06:46.
