data_PCOD8201538
_publ_section_title
;
Structure prediction by ZEFSAII (Michael W. Deem and Ramdas Pophale) SiO2 
 PCOD8201538
Probable space group: P N N N
;
_chemical_formula_sum "Si O2"
_cell_formula_units_Z 64
_cell_length_a 9.212730
_cell_length_b 20.714933
_cell_length_c 17.734094
_cell_angle_alpha 90.000000
_cell_angle_beta 90.000000
_cell_angle_gamma 90.000000
_cell_volume 3384.393735
_symmetry_space_group_name_H-M "P N N N"
_symmetry_group_IT_number 48
_space_group.IT_coordinate_system_code '2'
_symmetry_cell_setting 'orthorhombic'
loop_
_space_group_symop_operation_xyz
x,y,z
1/2-x,1/2-y,z
x,1/2-y,1/2-z
1/2-x,y,1/2-z
-x,-y,-z
1/2+x,1/2+y,-z
-x,1/2+y,1/2+z
1/2+x,-y,1/2+z
loop_
_atom_site_type_symbol
_atom_site_label
_atom_site_fract_x
_atom_site_fract_y
_atom_site_fract_z
Si Si1 0.153709 0.036553 0.180127
Si Si2 0.090170 0.889536 0.172014
Si Si3 0.825705 0.187234 0.586529
Si Si4 0.182146 0.547071 0.672969
Si Si5 0.679149 0.553060 0.535239
Si Si6 0.068105 0.314138 0.797819
Si Si7 0.787368 0.596793 0.380388
Si Si8 0.147064 0.579861 0.965368
O O1 0.250000 0.062404 0.250000
O O2 0.218016 0.069282 0.105016
O O3 0.988133 0.059032 0.182413
O O4 0.161503 0.959353 0.180360
O O5 0.217005 0.842452 0.147650
O O6 0.023959 0.866830 0.251596
O O7 0.958922 0.889065 0.110989
O O8 0.750000 0.250000 0.552247
O O9 0.858184 0.142949 0.515654
O O10 0.974422 0.205572 0.629095
O O11 0.250000 0.571915 0.750000
O O12 0.230438 0.473079 0.658412
O O13 0.247119 0.590777 0.605687
O O14 0.715232 0.597888 0.463099
O O15 0.514505 0.562842 0.562455
O O16 0.709281 0.478530 0.515333
O O17 0.105238 0.250000 0.750000
O O18 0.216299 0.348278 0.826928
#
# Coordination Sequence:
#
# PCOD8201538 Si02
#       8
#     8   8   8   8   8   8   8   8
#     4  11  21  34  57  85 118 150 189 241 305 370
#     4  11  23  33  55  76 113 152 200 244 289 343
#     4  12  23  39  54  81 112 157 203 248 285 342
#     4  10  21  36  59  88 116 145 191 243 308 365
#     4  10  20  35  56  83 113 154 198 237 309 356
#     4  12  23  39  54  78 115 165 209 241 284 344
#     4  10  22  37  54  80 117 155 195 247 290 354
#     4  10  21  36  58  79 115 154 192 249 297 357
#
# _framework density 18.910329999999998
#
# number of rings (size 3 to 8) (size 9 to 14) (size 15 to 20)
#    0.000    1.250    3.750    3.750    1.750    2.500 
#    0.000    0.000    0.000    0.375    0.000    0.000 
#    0.000    0.000    0.000    0.000    0.000    0.000 
#
# Total GULP energy -793724.808355 kJ/mol
# GULP energy per Si atom -12401.950131 kJ/mol
# Density = 1.886729 g / cm^3
# Si number density = 18.910330 Si / 1000 Ang^3
#
#
#
# Elastic Constant Matrix: (Units=GPa)
#
#
# Indices 1 2 3 4 5 6 
#
# 1 107.2878 7.2066 57.5687 0.0000 0.0000 0.0000
# 2 7.2066 48.2932 29.9162 0.0000 0.0000 0.0000
# 3 57.5687 29.9162 126.2980 0.0000 0.0000 0.0000
# 4 0.0000 0.0000 0.0000 28.9740 0.0000 0.0000
# 5 0.0000 0.0000 0.0000 0.0000 39.0038 0.0000
# 6 0.0000 0.0000 0.0000 0.0000 0.0000 22.3820
#
#
#
# Elastic Compliance Matrix: (Units=1/GPa)
#
#
# Indices 1 2 3 4 5 6 
#
# 1 0.012493 0.001949 -0.006156 0.000000 0.000000 0.000000
# 2 0.001949 0.024572 -0.006709 0.000000 0.000000 0.000000
# 3 -0.006156 -0.006709 0.012313 0.000000 0.000000 0.000000
# 4 0.000000 0.000000 0.000000 0.034514 0.000000 0.000000
# 5 0.000000 0.000000 0.000000 0.000000 0.025639 0.000000
# 6 0.000000 0.000000 0.000000 0.000000 0.000000 0.044679
#
#
# Mechanical properties :
#
#
# Convention : Reuss Voigt Hill
#
# Bulk Modulus (GPa) = 36.30237 52.36245 44.33241
# Shear Modulus (GPa) = 26.99447 30.55112 28.77280
#
# Velocity S-wave (km/s) = 3.78232 4.02379 3.90492
# Velocity P-wave (km/s) = 6.18978 7.02409 6.62009
#
# Compressibility (1/GPa) = 0.02754641
#
# Stress axis : x y z
#
# Youngs Moduli (GPa) = 80.04378 40.69685 81.21448
#
# Poissons Ratio (x) = -0.07933 0.49998
# Poissons Ratio (y) = -0.15603 0.54486
# Poissons Ratio (z) = 0.49278 0.27303
#
# Static dielectric constant tensor:
#      x y z
#    x 3.679250 0.000000 0.000000 
#    y 0.000000 3.125580 0.000000 
#    z 0.000000 0.000000 3.400040 
# 
# 
# High freq. dielectric constant tensor:
#      x y z
#    x 1.758030 0.000000 0.000000 
#    y 0.000000 1.687400 0.000000 
#    z 0.000000 0.000000 1.729010 
# 
# From -- ./inp_files/14572.got.cif
#   From: 2010.06.25/outbox.cif.g09.slc.cpg/sg48_8_cif.got.tgz:14572.got - 2010.06.26 18:06:46.
