data_PCOD8201932
_publ_section_title
;
Structure prediction by ZEFSAII (Michael W. Deem and Ramdas Pophale) SiO2 
 PCOD8201932
Probable space group: P N N N
;
_chemical_formula_sum "Si O2"
_cell_formula_units_Z 64
_cell_length_a 8.131705
_cell_length_b 25.164662
_cell_length_c 15.292107
_cell_angle_alpha 90.000000
_cell_angle_beta 90.000000
_cell_angle_gamma 90.000000
_cell_volume 3129.248442
_symmetry_space_group_name_H-M "P N N N"
_symmetry_group_IT_number 48
_space_group.IT_coordinate_system_code '2'
_symmetry_cell_setting 'orthorhombic'
loop_
_space_group_symop_operation_xyz
x,y,z
1/2-x,1/2-y,z
x,1/2-y,1/2-z
1/2-x,y,1/2-z
-x,-y,-z
1/2+x,1/2+y,-z
-x,1/2+y,1/2+z
1/2+x,-y,1/2+z
loop_
_atom_site_type_symbol
_atom_site_label
_atom_site_fract_x
_atom_site_fract_y
_atom_site_fract_z
Si Si1 0.434449 0.862560 0.599417
Si Si2 0.438922 0.627929 0.402137
Si Si3 0.943879 0.750000 0.849458
Si Si4 0.063863 0.066414 0.250000
Si Si5 0.250000 0.187879 0.653467
Si Si6 0.065551 0.637440 0.900583
Si Si7 0.061078 0.872071 0.097863
Si Si8 0.056925 0.950595 0.250000
O O1 0.497161 0.801976 0.598688
O O2 0.535756 0.899345 0.663900
O O3 0.250000 0.862135 0.634725
O O4 0.445360 0.888944 0.503520
O O5 0.578740 0.672667 0.393248
O O6 0.445360 0.611056 0.503520
O O7 0.250000 0.647395 0.379576
O O8 0.494747 0.579911 0.338884
O O9 0.750000 0.750000 0.847662
O O10 0.013074 0.750000 0.750000
O O11 0.002839 0.698024 0.901313
O O12 0.250000 0.049588 0.250000
O O13 0.035756 0.100655 0.336100
O O14 0.970018 0.009120 0.250000
O O15 0.250000 0.250000 0.657841
O O16 0.250000 0.162378 0.750000
O O17 0.421260 0.172667 0.606752
O O18 0.005252 0.920089 0.161116
O O19 0.250000 0.955568 0.250000
#
# Coordination Sequence:
#
# PCOD8201932 Si02
#       8
#     8   8   8   8   8   8   8   8
#     4  11  24  40  61  93 127 163 207 256 312 381
#     4  10  23  43  65  92 130 169 210 257 317 373
#     4  11  23  39  63  88 122 167 204 250 315 372
#     4  11  23  40  64  91 122 163 212 263 315 367
#     4  11  24  40  64  99 129 165 215 258 310 376
#     4  11  24  40  61  93 127 163 207 256 312 381
#     4  10  23  43  65  92 130 169 210 257 317 373
#     4   9  20  44  67  86 123 167 206 262 317 367
#
# _framework density 20.452195
#
# number of rings (size 3 to 8) (size 9 to 14) (size 15 to 20)
#    0.000    1.500    2.500    1.500    5.250    2.000 
#    4.500    1.250    0.000    0.000    0.000    0.000 
#    0.000    0.000    0.000    0.000    0.000    0.000 
#
# Total GULP energy -793198.970064 kJ/mol
# GULP energy per Si atom -12393.733907 kJ/mol
# Density = 2.040564 g / cm^3
# Si number density = 20.452195 Si / 1000 Ang^3
#
#
#
# Elastic Constant Matrix: (Units=GPa)
#
#
# Indices 1 2 3 4 5 6 
#
# 1 93.6575 23.4317 25.2334 0.0000 0.0000 0.0000
# 2 23.4317 122.7693 56.8047 0.0000 0.0000 0.0000
# 3 25.2334 56.8047 136.6482 0.0000 0.0000 0.0000
# 4 0.0000 0.0000 0.0000 11.0561 0.0000 0.0000
# 5 0.0000 0.0000 0.0000 0.0000 23.9418 0.0000
# 6 0.0000 0.0000 0.0000 0.0000 0.0000 15.0220
#
#
#
# Elastic Compliance Matrix: (Units=1/GPa)
#
#
# Indices 1 2 3 4 5 6 
#
# 1 0.011454 -0.001495 -0.001494 0.000000 0.000000 0.000000
# 2 -0.001495 0.010280 -0.003997 0.000000 0.000000 0.000000
# 3 -0.001494 -0.003997 0.009256 0.000000 0.000000 0.000000
# 4 0.000000 0.000000 0.000000 0.090448 0.000000 0.000000
# 5 0.000000 0.000000 0.000000 0.000000 0.041768 0.000000
# 6 0.000000 0.000000 0.000000 0.000000 0.000000 0.066569
#
#
# Mechanical properties :
#
#
# Convention : Reuss Voigt Hill
#
# Bulk Modulus (GPa) = 58.76291 62.66829 60.71560
# Shear Modulus (GPa) = 20.04661 26.51100 23.27881
#
# Velocity S-wave (km/s) = 3.13416 3.60424 3.37739
# Velocity P-wave (km/s) = 6.47236 6.93027 6.70523
#
# Compressibility (1/GPa) = 0.01701754
#
# Stress axis : x y z
#
# Youngs Moduli (GPa) = 87.30867 97.27349 108.04259
#
# Poissons Ratio (x) = 0.14542 0.16137
# Poissons Ratio (y) = 0.13052 0.43190
# Poissons Ratio (z) = 0.13040 0.38885
#
# Static dielectric constant tensor:
#      x y z
#    x 3.844100 0.000000 0.000000 
#    y 0.000000 3.493250 0.000000 
#    z 0.000000 0.000000 3.949650 
# 
# 
# High freq. dielectric constant tensor:
#      x y z
#    x 1.806010 0.000000 0.000000 
#    y 0.000000 1.786340 0.000000 
#    z 0.000000 0.000000 1.810270 
# 
# From -- ./inp_files/25753.got.cif
#   From: 2010.06.25/outbox.cif.g09.slc.cpg/sg48_13_cif.got.tgz:25753.got - 2010.06.26 18:06:46.
