data_PCOD8201589
_publ_section_title
;
Structure prediction by ZEFSAII (Michael W. Deem and Ramdas Pophale) SiO2 
 PCOD8201589
Probable space group: P N N N
;
_chemical_formula_sum "Si O2"
_cell_formula_units_Z 48
_cell_length_a 9.054653
_cell_length_b 12.718507
_cell_length_c 22.403264
_cell_angle_alpha 90.000000
_cell_angle_beta 90.000000
_cell_angle_gamma 90.000000
_cell_volume 2579.997241
_symmetry_space_group_name_H-M "P N N N"
_symmetry_group_IT_number 48
_space_group.IT_coordinate_system_code '2'
_symmetry_cell_setting 'orthorhombic'
loop_
_space_group_symop_operation_xyz
x,y,z
1/2-x,1/2-y,z
x,1/2-y,1/2-z
1/2-x,y,1/2-z
-x,-y,-z
1/2+x,1/2+y,-z
-x,1/2+y,1/2+z
1/2+x,-y,1/2+z
loop_
_atom_site_type_symbol
_atom_site_label
_atom_site_fract_x
_atom_site_fract_y
_atom_site_fract_z
Si Si1 0.083667 0.365505 0.613969
Si Si2 0.420813 0.045628 0.318422
Si Si3 0.083667 0.365505 0.886031
Si Si4 0.074975 0.750000 0.019068
Si Si5 0.078359 0.250000 0.106064
Si Si6 0.420813 0.454372 0.318422
O O1 0.084231 0.250000 0.645443
O O2 0.250000 0.400849 0.597619
O O3 0.014179 0.447567 0.659060
O O4 0.989517 0.354647 0.552250
O O5 0.462743 0.148612 0.355327
O O6 0.250000 0.016756 0.325860
O O7 0.461439 0.068081 0.250000
O O8 0.014179 0.447567 0.840940
O O9 0.989517 0.354648 0.947750
O O10 0.250000 0.750000 0.022752
O O11 0.024507 0.750000 0.951256
O O12 0.250000 0.250000 0.087288
O O13 0.037258 0.351388 0.144673
#
# Coordination Sequence:
#
# PCOD8201589 Si02
#       6
#     8   8   8   8   8   8
#     4   9  20  38  58  84 115 147 185 231 286 336
#     4  10  21  37  59  85 114 151 191 230 274 330
#     4   9  20  38  58  84 115 147 185 231 286 336
#     4  10  20  37  60  86 112 144 189 235 281 336
#     4  10  21  38  58  83 117 152 187 230 279 331
#     4  10  21  37  59  85 114 151 191 230 274 330
#
# _framework density 18.604672000000001
#
# number of rings (size 3 to 8) (size 9 to 14) (size 15 to 20)
#    1.000    1.333    0.000    2.500    0.000    6.000 
#    0.000    3.333    0.000    3.000    0.000    0.000 
#    0.000    0.000    0.000    0.000    0.000    0.000 
#
# Total GULP energy -594991.278085 kJ/mol
# GULP energy per Si atom -12395.651627 kJ/mol
# Density = 1.856233 g / cm^3
# Si number density = 18.604672 Si / 1000 Ang^3
#
#
#
# Elastic Constant Matrix: (Units=GPa)
#
#
# Indices 1 2 3 4 5 6 
#
# 1 116.7827 45.6047 58.7360 0.0000 0.0000 0.0000
# 2 45.6047 87.3642 32.2087 0.0000 0.0000 0.0000
# 3 58.7360 32.2087 94.6609 0.0000 0.0000 0.0000
# 4 0.0000 0.0000 0.0000 40.2916 0.0000 0.0000
# 5 0.0000 0.0000 0.0000 0.0000 34.1761 0.0000
# 6 0.0000 0.0000 0.0000 0.0000 0.0000 17.8702
#
#
#
# Elastic Compliance Matrix: (Units=1/GPa)
#
#
# Indices 1 2 3 4 5 6 
#
# 1 0.013938 -0.004674 -0.007058 0.000000 0.000000 0.000000
# 2 -0.004674 0.014655 -0.002087 0.000000 0.000000 0.000000
# 3 -0.007058 -0.002087 0.015653 0.000000 0.000000 0.000000
# 4 0.000000 0.000000 0.000000 0.024819 0.000000 0.000000
# 5 0.000000 0.000000 0.000000 0.000000 0.029260 0.000000
# 6 0.000000 0.000000 0.000000 0.000000 0.000000 0.055959
#
#
# Mechanical properties :
#
#
# Convention : Reuss Voigt Hill
#
# Bulk Modulus (GPa) = 60.20448 63.54518 61.87483
# Shear Modulus (GPa) = 26.67263 29.28481 27.97872
#
# Velocity S-wave (km/s) = 3.79047 3.97174 3.88216
# Velocity P-wave (km/s) = 7.18241 7.43388 7.30923
#
# Compressibility (1/GPa) = 0.01661006
#
# Stress axis : x y z
#
# Youngs Moduli (GPa) = 71.74711 68.23502 63.88360
#
# Poissons Ratio (x) = 0.31890 0.45090
# Poissons Ratio (y) = 0.33531 0.13330
# Poissons Ratio (z) = 0.50640 0.14238
#
# Static dielectric constant tensor:
#      x y z
#    x 3.391260 0.000000 0.000000 
#    y 0.000000 3.320080 0.000000 
#    z 0.000000 0.000000 3.277830 
# 
# 
# High freq. dielectric constant tensor:
#      x y z
#    x 1.726630 0.000000 0.000000 
#    y 0.000000 1.716150 0.000000 
#    z 0.000000 0.000000 1.716300 
# 
# From -- ./inp_files/33496.got.cif
#   From: 2010.06.25/outbox.cif.g09.slc.cpg/sg48_17_cif.got.tgz:33496.got - 2010.06.26 18:06:46.
