data_PCOD8201047
_publ_section_title
;
Structure prediction by ZEFSAII (Michael W. Deem and Ramdas Pophale) SiO2 
 PCOD8201047
Probable space group: P M M M
;
_chemical_formula_sum "Si O2"
_cell_formula_units_Z 64
_cell_length_a 9.177068
_cell_length_b 21.950549
_cell_length_c 21.336684
_cell_angle_alpha 90.000000
_cell_angle_beta 90.000000
_cell_angle_gamma 90.000000
_cell_volume 4298.097488
_symmetry_space_group_name_H-M "P M M M"
_symmetry_group_IT_number 47
_symmetry_cell_setting 'orthorhombic'
loop_
_space_group_symop_operation_xyz
x,y,z
-x,-y,z
x,-y,-z
-x,y,-z
-x,-y,-z
x,y,-z
-x,y,z
x,-y,z
loop_
_atom_site_type_symbol
_atom_site_label
_atom_site_fract_x
_atom_site_fract_y
_atom_site_fract_z
Si Si1 0.164455 0.755122 0.849297
Si Si2 0.329992 0.335137 0.928379
Si Si3 0.329573 0.166644 0.572048
Si Si4 0.670363 0.833417 0.761844
Si Si5 0.828707 0.245346 0.341196
Si Si6 0.329558 0.932936 0.669792
Si Si7 0.839138 0.652176 0.256105
Si Si8 0.671599 0.568146 0.173285
O O1 0.245228 0.726235 0.909262
O O2 0.245505 0.817015 0.826408
O O3 0.170381 0.707084 0.793205
O O4 0.000000 0.771774 0.868371
O O5 0.500000 0.322780 0.917535
O O6 0.276956 0.392665 0.886841
O O7 0.294280 0.351282 0.000000
O O8 0.299369 0.151318 0.500000
O O9 0.500000 0.179517 0.584760
O O10 0.235646 0.227207 0.590696
O O11 0.270592 0.109390 0.613049
O O12 0.500000 0.820247 0.772017
O O13 0.729449 0.792251 0.706146
O O14 0.699381 0.902754 0.738502
O O15 0.806209 0.317368 0.324286
O O16 0.000000 0.228571 0.335080
O O17 0.500000 0.940121 0.659046
O O18 0.255139 0.000000 0.667862
O O19 0.728267 0.598663 0.237735
O O20 0.000000 0.623171 0.255312
O O21 0.500000 0.566057 0.177959
O O22 0.735354 0.500000 0.166273
#
# Coordination Sequence:
#
# PCOD8201047 Si02
#       8
#     8   8   8   8   8   8   8   8
#     4   9  16  26  40  57  77 100 128 164 204 242
#     4   9  17  28  41  57  79 108 139 168 196 227
#     4   9  17  27  39  57  80 107 139 170 198 231
#     4   9  15  24  40  59  77  98 127 164 204 242
#     4   9  16  26  40  57  76  99 129 165 205 243
#     4   8  14  24  38  57  80 106 136 168 198 228
#     4   8  15  26  39  55  73  96 127 162 200 238
#     4   9  17  27  39  57  80 106 135 164 194 229
#
# _framework density 14.890307999999999
#
# number of rings (size 3 to 8) (size 9 to 14) (size 15 to 20)
#    0.000    3.250    0.000    2.625    0.000    4.750 
#    0.000    2.500    0.000    9.375    0.000    7.000 
#    0.000    1.000    0.000   11.250    0.000    6.375 
#
# Total GULP energy -792912.848931 kJ/mol
# GULP energy per Si atom -12389.263265 kJ/mol
# Density = 1.485642 g / cm^3
# Si number density = 14.890308 Si / 1000 Ang^3
#
#
#
# Elastic Constant Matrix: (Units=GPa)
#
#
# Indices 1 2 3 4 5 6 
#
# 1 54.0841 36.2628 30.3065 0.0000 0.0000 0.0000
# 2 36.2628 80.3192 61.2647 0.0000 0.0000 0.0000
# 3 30.3065 61.2647 54.2850 0.0000 0.0000 0.0000
# 4 0.0000 0.0000 0.0000 17.2176 0.0000 0.0000
# 5 0.0000 0.0000 0.0000 0.0000 17.3340 0.0000
# 6 0.0000 0.0000 0.0000 0.0000 0.0000 10.7122
#
#
#
# Elastic Compliance Matrix: (Units=1/GPa)
#
#
# Indices 1 2 3 4 5 6 
#
# 1 0.027185 -0.005009 -0.009524 0.000000 0.000000 0.000000
# 2 -0.005009 0.090390 -0.099215 0.000000 0.000000 0.000000
# 3 -0.009524 -0.099215 0.135710 0.000000 0.000000 0.000000
# 4 0.000000 0.000000 0.000000 0.058080 0.000000 0.000000
# 5 0.000000 0.000000 0.000000 0.000000 0.057690 0.000000
# 6 0.000000 0.000000 0.000000 0.000000 0.000000 0.093352
#
#
# Mechanical properties :
#
#
# Convention : Reuss Voigt Hill
#
# Bulk Modulus (GPa) = 38.77666 49.37292 44.07479
# Shear Modulus (GPa) = 7.15822 13.10971 10.13397
#
# Velocity S-wave (km/s) = 2.19493 2.97040 2.61161
# Velocity P-wave (km/s) = 5.70278 6.70777 6.22559
#
# Compressibility (1/GPa) = 0.02578871
#
# Stress axis : x y z
#
# Youngs Moduli (GPa) = 36.78493 11.06321 7.36868
#
# Poissons Ratio (x) = 0.05542 0.07018
# Poissons Ratio (y) = 0.18427 0.73108
# Poissons Ratio (z) = 0.35032 1.09763
#
# Static dielectric constant tensor:
#      x y z
#    x 2.902070 0.000000 0.000000 
#    y 0.000000 3.079600 0.000000 
#    z 0.000000 0.000000 2.882770 
# 
# 
# High freq. dielectric constant tensor:
#      x y z
#    x 1.568300 0.000000 0.000000 
#    y 0.000000 1.544710 0.000000 
#    z 0.000000 0.000000 1.540910 
# 
# From -- ./inp_files/12931.got.cif
#   From: 2010.03.12/outbox.cif.g09.slc.cpg/sg47_7_cif.got.tgz:12931.got - 2010.04.14 03:12:58.
