data_PCOD8201424
_publ_section_title
;
Structure prediction by ZEFSAII (Michael W. Deem and Ramdas Pophale) SiO2 
 PCOD8201424
Probable space group: P N N N
;
_chemical_formula_sum "Si O2"
_cell_formula_units_Z 56
_cell_length_a 19.995099
_cell_length_b 9.819460
_cell_length_c 15.336787
_cell_angle_alpha 90.000000
_cell_angle_beta 90.000000
_cell_angle_gamma 90.000000
_cell_volume 3011.241244
_symmetry_space_group_name_H-M "P N N N"
_symmetry_group_IT_number 48
_space_group.IT_coordinate_system_code '2'
_symmetry_cell_setting 'orthorhombic'
loop_
_space_group_symop_operation_xyz
x,y,z
1/2-x,1/2-y,z
x,1/2-y,1/2-z
1/2-x,y,1/2-z
-x,-y,-z
1/2+x,1/2+y,-z
-x,1/2+y,1/2+z
1/2+x,-y,1/2+z
loop_
_atom_site_type_symbol
_atom_site_label
_atom_site_fract_x
_atom_site_fract_y
_atom_site_fract_z
Si Si1 0.754725 0.911674 0.349365
Si Si2 0.004627 0.110751 0.294718
Si Si3 0.623516 0.941518 0.450050
Si Si4 0.570682 0.216434 0.518860
Si Si5 0.067958 0.290370 0.045372
Si Si6 0.108042 0.974021 0.575428
Si Si7 0.494547 0.360231 0.820121
O O1 0.750000 0.750000 0.353839
O O2 0.750000 0.963149 0.250000
O O3 0.693531 0.968556 0.404429
O O4 0.820857 0.972390 0.392668
O O5 0.983362 0.250000 0.250000
O O6 0.068722 0.141493 0.358301
O O7 0.937720 0.061287 0.342689
O O8 0.025420 0.994911 0.225386
O O9 0.625484 0.821393 0.524248
O O10 0.568830 0.901565 0.378048
O O11 0.609905 0.080359 0.498801
O O12 0.503488 0.215096 0.461039
O O13 0.615713 0.346749 0.491597
O O14 0.551849 0.212520 0.621508
O O15 0.069056 0.407489 0.973823
O O16 0.469255 0.250000 0.750000
#
# Coordination Sequence:
#
# PCOD8201424 Si02
#       7
#     8   8   8   8   8   8   8
#     4  11  24  37  57  83 110 148 189 218 258 327
#     4  11  20  32  54  85 114 142 180 232 282 319
#     4  11  21  37  54  80 117 152 181 220 270 332
#     4  10  21  35  54  79 114 147 184 226 280 326
#     4  10  19  35  55  77 110 150 184 222 271 331
#     4  11  21  38  54  80 115 153 181 220 265 334
#     4  11  20  32  56  86 112 145 179 231 281 324
#
# _framework density 18.596981
#
# number of rings (size 3 to 8) (size 9 to 14) (size 15 to 20)
#    0.000    1.286    1.429    9.429    2.000    0.571 
#    0.000    0.714    0.000    0.000    0.000   15.000 
#    0.000    0.000    0.000    0.000    0.000    0.000 
#
# Total GULP energy -694234.363284 kJ/mol
# GULP energy per Si atom -12397.042201 kJ/mol
# Density = 1.855465 g / cm^3
# Si number density = 18.596981 Si / 1000 Ang^3
#
#
#
# Elastic Constant Matrix: (Units=GPa)
#
#
# Indices 1 2 3 4 5 6 
#
# 1 79.7040 26.2581 49.6238 0.0000 0.0000 0.0000
# 2 26.2581 105.2470 35.4704 0.0000 0.0000 0.0000
# 3 49.6238 35.4704 89.6657 0.0000 0.0000 0.0000
# 4 0.0000 0.0000 0.0000 20.7771 0.0000 0.0000
# 5 0.0000 0.0000 0.0000 0.0000 17.3378 0.0000
# 6 0.0000 0.0000 0.0000 0.0000 0.0000 5.8801
#
#
#
# Elastic Compliance Matrix: (Units=1/GPa)
#
#
# Indices 1 2 3 4 5 6 
#
# 1 0.019320 -0.001404 -0.010137 0.000000 0.000000 0.000000
# 2 -0.001404 0.011065 -0.003600 0.000000 0.000000 0.000000
# 3 -0.010137 -0.003600 0.018187 0.000000 0.000000 0.000000
# 4 0.000000 0.000000 0.000000 0.048130 0.000000 0.000000
# 5 0.000000 0.000000 0.000000 0.000000 0.057677 0.000000
# 6 0.000000 0.000000 0.000000 0.000000 0.000000 0.170066
#
#
# Mechanical properties :
#
#
# Convention : Reuss Voigt Hill
#
# Bulk Modulus (GPa) = 54.67497 55.25794 54.96645
# Shear Modulus (GPa) = 13.85713 19.68328 16.77020
#
# Velocity S-wave (km/s) = 2.73266 3.25685 3.00621
# Velocity P-wave (km/s) = 6.27856 6.62727 6.45527
#
# Compressibility (1/GPa) = 0.01828990
#
# Stress axis : x y z
#
# Youngs Moduli (GPa) = 51.75909 90.37462 54.98443
#
# Poissons Ratio (x) = 0.12687 0.55738
# Poissons Ratio (y) = 0.07266 0.19796
# Poissons Ratio (z) = 0.52469 0.32537
#
# Static dielectric constant tensor:
#      x y z
#    x 3.165410 0.000000 0.000000 
#    y 0.000000 3.756790 0.000000 
#    z 0.000000 0.000000 3.779710 
# 
# 
# High freq. dielectric constant tensor:
#      x y z
#    x 1.672280 0.000000 0.000000 
#    y 0.000000 1.746100 0.000000 
#    z 0.000000 0.000000 1.728400 
# 
# From -- ./inp_files/15285.got.cif
#   From: 2010.06.25/outbox.cif.g09.slc.cpg/sg48_8_cif.got.tgz:15285.got - 2010.06.26 18:06:46.
