data_PCOD8201421
_publ_section_title
;
Structure prediction by ZEFSAII (Michael W. Deem and Ramdas Pophale) SiO2 
 PCOD8201421
Probable space group: P N N N
;
_chemical_formula_sum "Si O2"
_cell_formula_units_Z 64
_cell_length_a 27.135157
_cell_length_b 11.799513
_cell_length_c 9.892393
_cell_angle_alpha 90.000000
_cell_angle_beta 90.000000
_cell_angle_gamma 90.000000
_cell_volume 3167.362592
_symmetry_space_group_name_H-M "P N N N"
_symmetry_group_IT_number 48
_space_group.IT_coordinate_system_code '2'
_symmetry_cell_setting 'orthorhombic'
loop_
_space_group_symop_operation_xyz
x,y,z
1/2-x,1/2-y,z
x,1/2-y,1/2-z
1/2-x,y,1/2-z
-x,-y,-z
1/2+x,1/2+y,-z
-x,1/2+y,1/2+z
1/2+x,-y,1/2+z
loop_
_atom_site_type_symbol
_atom_site_label
_atom_site_fract_x
_atom_site_fract_y
_atom_site_fract_z
Si Si1 0.639674 0.866183 0.575419
Si Si2 0.469528 0.819782 0.031418
Si Si3 0.362826 0.103132 0.117176
Si Si4 0.196832 0.951300 0.585387
Si Si5 0.628553 0.242118 0.403544
Si Si6 0.969443 0.961188 0.657987
Si Si7 0.191065 0.526231 0.608288
Si Si8 0.030746 0.392522 0.457322
O O1 0.645253 0.921854 0.723799
O O2 0.646422 0.732913 0.583390
O O3 0.587937 0.899817 0.503716
O O4 0.681829 0.913076 0.477536
O O5 0.415783 0.767265 0.006714
O O6 0.509210 0.719614 0.028383
O O7 0.482503 0.914911 0.919466
O O8 0.471172 0.898887 0.168763
O O9 0.418892 0.070292 0.079183
O O10 0.324040 0.032164 0.030544
O O11 0.172635 0.828866 0.572825
O O12 0.254835 0.930483 0.568681
O O13 0.186098 0.003772 0.733260
O O14 0.608537 0.250000 0.250000
O O15 0.650421 0.118854 0.435284
O O16 0.971217 0.890259 0.795656
O O17 0.000000 0.500000 0.500000
#
# Coordination Sequence:
#
# PCOD8201421 Si02
#       8
#     8   8   8   8   8   8   8   8
#     4  10  22  39  60  84 118 158 199 246 297 357
#     4  11  20  35  61  88 114 156 201 235 284 361
#     4  10  20  41  62  82 116 160 202 244 296 358
#     4  10  21  39  63  85 118 154 198 251 304 355
#     4  10  19  34  60  90 119 154 194 239 297 363
#     4  10  21  37  58  84 117 158 201 242 289 351
#     4  10  22  39  58  91 120 150 196 255 306 352
#     4  11  22  37  55  84 124 157 190 246 299 352
#
# _framework density 20.206085000000002
#
# number of rings (size 3 to 8) (size 9 to 14) (size 15 to 20)
#    0.000    1.750    2.500    2.250    0.000    4.500 
#    0.000    4.375    0.000    1.500    0.000    0.000 
#    0.000    0.000    0.000    0.000    0.000    0.000 
#
# Total GULP energy -793425.410973 kJ/mol
# GULP energy per Si atom -12397.272046 kJ/mol
# Density = 2.016010 g / cm^3
# Si number density = 20.206085 Si / 1000 Ang^3
#
#
#
# Elastic Constant Matrix: (Units=GPa)
#
#
# Indices 1 2 3 4 5 6 
#
# 1 90.4846 25.6864 27.2794 0.0000 0.0000 0.0000
# 2 25.6864 101.1713 30.6968 0.0000 0.0000 0.0000
# 3 27.2794 30.6968 47.6055 0.0000 0.0000 0.0000
# 4 0.0000 0.0000 0.0000 30.5922 0.0000 0.0000
# 5 0.0000 0.0000 0.0000 0.0000 27.0529 0.0000
# 6 0.0000 0.0000 0.0000 0.0000 0.0000 36.1771
#
#
#
# Elastic Compliance Matrix: (Units=1/GPa)
#
#
# Indices 1 2 3 4 5 6 
#
# 1 0.013505 -0.001344 -0.006872 0.000000 0.000000 0.000000
# 2 -0.001344 0.012422 -0.007240 0.000000 0.000000 0.000000
# 3 -0.006872 -0.007240 0.029613 0.000000 0.000000 0.000000
# 4 0.000000 0.000000 0.000000 0.032688 0.000000 0.000000
# 5 0.000000 0.000000 0.000000 0.000000 0.036965 0.000000
# 6 0.000000 0.000000 0.000000 0.000000 0.000000 0.027642
#
#
# Mechanical properties :
#
#
# Convention : Reuss Voigt Hill
#
# Bulk Modulus (GPa) = 40.60491 45.17628 42.89060
# Shear Modulus (GPa) = 26.04775 29.13768 27.59272
#
# Velocity S-wave (km/s) = 3.59430 3.80152 3.69936
# Velocity P-wave (km/s) = 6.11264 6.45562 6.28647
#
# Compressibility (1/GPa) = 0.02462756
#
# Stress axis : x y z
#
# Youngs Moduli (GPa) = 74.04721 80.50180 33.76949
#
# Poissons Ratio (x) = 0.10816 0.23208
# Poissons Ratio (y) = 0.09949 0.24449
# Poissons Ratio (z) = 0.50888 0.58284
#
# Static dielectric constant tensor:
#      x y z
#    x 3.479100 0.000000 0.000000 
#    y 0.000000 3.800120 0.000000 
#    z 0.000000 0.000000 3.449610 
# 
# 
# High freq. dielectric constant tensor:
#      x y z
#    x 1.792870 0.000000 0.000000 
#    y 0.000000 1.797180 0.000000 
#    z 0.000000 0.000000 1.768580 
# 
# From -- ./inp_files/23707.got.cif
#   From: 2010.06.25/outbox.cif.g09.slc.cpg/sg48_12_cif.got.tgz:23707.got - 2010.06.26 18:06:46.
