data_PCOD8201559
_publ_section_title
;
Structure prediction by ZEFSAII (Michael W. Deem and Ramdas Pophale) SiO2 
 PCOD8201559
Probable space group: P N N N
;
_chemical_formula_sum "Si O2"
_cell_formula_units_Z 40
_cell_length_a 29.566569
_cell_length_b 12.635247
_cell_length_c 4.904004
_cell_angle_alpha 90.000000
_cell_angle_beta 90.000000
_cell_angle_gamma 90.000000
_cell_volume 1832.042239
_symmetry_space_group_name_H-M "P N N N"
_symmetry_group_IT_number 48
_space_group.IT_coordinate_system_code '2'
_symmetry_cell_setting 'orthorhombic'
loop_
_space_group_symop_operation_xyz
x,y,z
1/2-x,1/2-y,z
x,1/2-y,1/2-z
1/2-x,y,1/2-z
-x,-y,-z
1/2+x,1/2+y,-z
-x,1/2+y,1/2+z
1/2+x,-y,1/2+z
loop_
_atom_site_type_symbol
_atom_site_label
_atom_site_fract_x
_atom_site_fract_y
_atom_site_fract_z
Si Si1 0.538405 0.473327 0.234019
Si Si2 0.199806 0.125990 0.805018
Si Si3 0.086158 0.625729 0.234934
Si Si4 0.353062 0.447244 0.310045
Si Si5 0.450395 0.366760 0.336589
O O1 0.549334 0.403814 0.506448
O O2 0.485126 0.443961 0.161461
O O3 0.545103 0.596523 0.342246
O O4 0.573202 0.429175 0.018735
O O5 0.198717 0.250000 0.750000
O O6 0.250000 0.081417 0.750000
O O7 0.162762 0.072992 0.615246
O O8 0.186315 0.093903 0.111573
O O9 0.092119 0.750000 0.250000
O O10 0.135575 0.572612 0.185981
O O11 0.399193 0.383316 0.239140
O O12 0.465824 0.250000 0.250000
#
# Coordination Sequence:
#
# PCOD8201559 Si02
#       5
#     8   8   8   8   8
#     4  10  23  37  55  85 120 167 210 242 295 359
#     4  11  23  41  63  87 118 151 184 235 307 374
#     4  11  22  40  61  84 121 164 205 246 292 351
#     4  11  23  37  60  90 115 149 199 245 291 355
#     4  10  20  36  57  85 123 159 202 256 300 348
#
# _framework density 21.833558
#
# number of rings (size 3 to 8) (size 9 to 14) (size 15 to 20)
#    0.000    1.400    0.000    6.600    0.000   10.400 
#    0.000   11.000    0.000    3.600    0.000    0.000 
#    0.000    0.000    0.000    0.000    0.000    0.000 
#
# Total GULP energy -495663.755179 kJ/mol
# GULP energy per Si atom -12391.593879 kJ/mol
# Density = 2.178386 g / cm^3
# Si number density = 21.833558 Si / 1000 Ang^3
#
#
#
# Elastic Constant Matrix: (Units=GPa)
#
#
# Indices 1 2 3 4 5 6 
#
# 1 109.9115 29.6038 13.8486 0.0000 0.0000 0.0000
# 2 29.6038 161.6343 30.5649 0.0000 0.0000 0.0000
# 3 13.8486 30.5649 81.1965 0.0000 0.0000 0.0000
# 4 0.0000 0.0000 0.0000 29.9824 0.0000 0.0000
# 5 0.0000 0.0000 0.0000 0.0000 32.8812 0.0000
# 6 0.0000 0.0000 0.0000 0.0000 0.0000 28.4222
#
#
#
# Elastic Compliance Matrix: (Units=1/GPa)
#
#
# Indices 1 2 3 4 5 6 
#
# 1 0.009654 -0.001568 -0.001056 0.000000 0.000000 0.000000
# 2 -0.001568 0.006916 -0.002336 0.000000 0.000000 0.000000
# 3 -0.001056 -0.002336 0.013375 0.000000 0.000000 0.000000
# 4 0.000000 0.000000 0.000000 0.033353 0.000000 0.000000
# 5 0.000000 0.000000 0.000000 0.000000 0.030413 0.000000
# 6 0.000000 0.000000 0.000000 0.000000 0.000000 0.035184
#
#
# Mechanical properties :
#
#
# Convention : Reuss Voigt Hill
#
# Bulk Modulus (GPa) = 49.93995 55.64188 52.79092
# Shear Modulus (GPa) = 34.36682 36.83884 35.60283
#
# Velocity S-wave (km/s) = 3.97172 4.11208 4.04251
# Velocity P-wave (km/s) = 6.62989 6.93437 6.78384
#
# Compressibility (1/GPa) = 0.02002405
#
# Stress axis : x y z
#
# Youngs Moduli (GPa) = 103.58693 144.59721 74.76526
#
# Poissons Ratio (x) = 0.22679 0.07896
# Poissons Ratio (y) = 0.16247 0.17464
# Poissons Ratio (z) = 0.10940 0.33775
#
# Static dielectric constant tensor:
#      x y z
#    x 3.962190 0.000000 0.000000 
#    y 0.000000 4.011250 0.000000 
#    z 0.000000 0.000000 4.565870 
# 
# 
# High freq. dielectric constant tensor:
#      x y z
#    x 1.849040 0.000000 0.000000 
#    y 0.000000 1.845340 0.000000 
#    z 0.000000 0.000000 1.888750 
# 
# From -- ./inp_files/6290.got.cif
#   From: 2010.06.25/outbox.cif.g09.slc.cpg/sg48_4_cif.got.tgz:6290.got - 2010.06.26 18:06:46.
