data_PCOD8201375
_publ_section_title
;
Structure prediction by ZEFSAII (Michael W. Deem and Ramdas Pophale) SiO2 
 PCOD8201375
Probable space group: P N N N
;
_chemical_formula_sum "Si O2"
_cell_formula_units_Z 48
_cell_length_a 16.550561
_cell_length_b 12.747241
_cell_length_c 13.086837
_cell_angle_alpha 90.000000
_cell_angle_beta 90.000000
_cell_angle_gamma 90.000000
_cell_volume 2760.982215
_symmetry_space_group_name_H-M "P N N N"
_symmetry_group_IT_number 48
_space_group.IT_coordinate_system_code '2'
_symmetry_cell_setting 'orthorhombic'
loop_
_space_group_symop_operation_xyz
x,y,z
1/2-x,1/2-y,z
x,1/2-y,1/2-z
1/2-x,y,1/2-z
-x,-y,-z
1/2+x,1/2+y,-z
-x,1/2+y,1/2+z
1/2+x,-y,1/2+z
loop_
_atom_site_type_symbol
_atom_site_label
_atom_site_fract_x
_atom_site_fract_y
_atom_site_fract_z
Si Si1 0.428769 0.483636 0.139862
Si Si2 0.967918 0.836032 0.506700
Si Si3 0.527037 0.504178 0.335889
Si Si4 0.657179 0.133448 0.274984
Si Si5 0.157744 0.218033 0.139361
Si Si6 0.570201 0.359237 0.028508
O O1 0.459699 0.523902 0.249337
O O2 0.350069 0.408647 0.140323
O O3 0.496754 0.414961 0.085356
O O4 0.406305 0.587097 0.077527
O O5 0.951434 0.886552 0.394247
O O6 0.889730 0.772032 0.545569
O O7 0.046061 0.760272 0.502957
O O8 0.985281 0.927590 0.585050
O O9 0.607619 0.454190 0.287101
O O10 0.624953 0.250000 0.250000
O O11 0.750000 0.116364 0.250000
O O12 0.647042 0.126809 0.397325
O O13 0.250000 0.250000 0.127708
O O14 0.121349 0.250000 0.250000
#
# Coordination Sequence:
#
# PCOD8201375 Si02
#       6
#     8   8   8   8   8   8
#     4   9  18  32  52  76 102 135 171 212 262 317
#     4  10  19  32  52  76 103 138 178 219 265 316
#     4  10  19  32  52  76 103 138 178 219 265 316
#     4  10  19  32  52  76 104 137 175 222 271 316
#     4  10  19  32  52  76 104 137 175 222 271 316
#     4   9  18  32  52  76 102 135 171 212 262 317
#
# _framework density 17.385117999999999
#
# number of rings (size 3 to 8) (size 9 to 14) (size 15 to 20)
#    0.000    2.333    3.333    0.000    0.000    2.000 
#    0.000    0.000    0.000    0.000    0.000    4.667 
#    0.000    0.000    0.000    0.000    0.000    0.000 
#
# Total GULP energy -594949.768121 kJ/mol
# GULP energy per Si atom -12394.786836 kJ/mol
# Density = 1.734555 g / cm^3
# Si number density = 17.385118 Si / 1000 Ang^3
#
#
#
# Elastic Constant Matrix: (Units=GPa)
#
#
# Indices 1 2 3 4 5 6 
#
# 1 85.1462 31.9889 46.5366 0.0000 0.0000 0.0000
# 2 31.9889 65.9306 73.4480 0.0000 0.0000 0.0000
# 3 46.5366 73.4480 132.5542 0.0000 0.0000 0.0000
# 4 0.0000 0.0000 0.0000 33.3790 0.0000 0.0000
# 5 0.0000 0.0000 0.0000 0.0000 14.9875 0.0000
# 6 0.0000 0.0000 0.0000 0.0000 0.0000 15.7734
#
#
#
# Elastic Compliance Matrix: (Units=1/GPa)
#
#
# Indices 1 2 3 4 5 6 
#
# 1 0.014863 -0.003654 -0.003193 0.000000 0.000000 0.000000
# 2 -0.003654 0.040528 -0.021174 0.000000 0.000000 0.000000
# 3 -0.003193 -0.021174 0.020398 0.000000 0.000000 0.000000
# 4 0.000000 0.000000 0.000000 0.029959 0.000000 0.000000
# 5 0.000000 0.000000 0.000000 0.000000 0.066722 0.000000
# 6 0.000000 0.000000 0.000000 0.000000 0.000000 0.063398
#
#
# Mechanical properties :
#
#
# Convention : Reuss Voigt Hill
#
# Bulk Modulus (GPa) = 50.64183 65.28644 57.96413
# Shear Modulus (GPa) = 16.75087 21.60514 19.17800
#
# Velocity S-wave (km/s) = 3.10743 3.52907 3.32494
# Velocity P-wave (km/s) = 6.48594 7.36481 6.93930
#
# Compressibility (1/GPa) = 0.01974652
#
# Stress axis : x y z
#
# Youngs Moduli (GPa) = 67.28336 24.67408 49.02525
#
# Poissons Ratio (x) = 0.09015 0.15656
# Poissons Ratio (y) = 0.24583 1.03806
# Poissons Ratio (z) = 0.21486 0.52245
#
# Static dielectric constant tensor:
#      x y z
#    x 2.915520 0.000000 0.000000 
#    y 0.000000 3.384150 0.000000 
#    z 0.000000 0.000000 3.508180 
# 
# 
# High freq. dielectric constant tensor:
#      x y z
#    x 1.644910 0.000000 0.000000 
#    y 0.000000 1.668710 0.000000 
#    z 0.000000 0.000000 1.675860 
# 
# From -- ./inp_files/20045.got.cif
#   From: 2010.06.25/outbox.cif.g09.slc.cpg/sg48_11_cif.got.tgz:20045.got - 2010.06.26 18:06:46.
