data_PCOD8201598
_publ_section_title
;
Structure prediction by ZEFSAII (Michael W. Deem and Ramdas Pophale) SiO2 
 PCOD8201598
Probable space group: P N N N
;
_chemical_formula_sum "Si O2"
_cell_formula_units_Z 56
_cell_length_a 21.695018
_cell_length_b 8.517208
_cell_length_c 14.054776
_cell_angle_alpha 90.000000
_cell_angle_beta 90.000000
_cell_angle_gamma 90.000000
_cell_volume 2597.055295
_symmetry_space_group_name_H-M "P N N N"
_symmetry_group_IT_number 48
_space_group.IT_coordinate_system_code '2'
_symmetry_cell_setting 'orthorhombic'
loop_
_space_group_symop_operation_xyz
x,y,z
1/2-x,1/2-y,z
x,1/2-y,1/2-z
1/2-x,y,1/2-z
-x,-y,-z
1/2+x,1/2+y,-z
-x,1/2+y,1/2+z
1/2+x,-y,1/2+z
loop_
_atom_site_type_symbol
_atom_site_label
_atom_site_fract_x
_atom_site_fract_y
_atom_site_fract_z
Si Si1 0.144016 0.442510 0.349777
Si Si2 0.800512 0.586247 0.309471
Si Si3 0.249579 0.076983 0.475654
Si Si4 0.995434 0.433564 0.896368
Si Si5 0.074551 0.569437 0.740190
Si Si6 0.365428 0.081920 0.135972
Si Si7 0.517865 0.431624 0.899772
O O1 0.199437 0.513748 0.413858
O O2 0.164743 0.446708 0.239647
O O3 0.122273 0.267067 0.380808
O O4 0.089542 0.561260 0.375851
O O5 0.806255 0.750000 0.250000
O O6 0.750000 0.484357 0.250000
O O7 0.770537 0.591222 0.414725
O O8 0.867125 0.510068 0.310625
O O9 0.250000 0.250000 0.430050
O O10 0.180180 0.014702 0.448914
O O11 0.929719 0.489514 0.857356
O O12 0.003187 0.247376 0.891104
O O13 0.055763 0.499018 0.842009
O O14 0.000000 0.500000 0.000000
O O15 0.090843 0.750000 0.750000
O O16 0.015660 0.543077 0.675170
O O17 0.500000 0.500000 0.000000
#
# Coordination Sequence:
#
# PCOD8201598 Si02
#       7
#     8   8   8   8   8   8   8
#     4  10  20  37  65  95 134 175 226 280 336 405
#     4  11  23  41  67  98 133 182 233 282 341 416
#     4  10  20  38  64  97 131 178 228 279 336 406
#     4  12  26  42  68 100 135 182 227 286 350 417
#     4  12  26  45  70 101 136 180 233 291 349 414
#     4  10  21  38  64  97 133 176 228 280 336 412
#     4  12  24  43  67  99 138 179 227 285 350 416
#
# _framework density 21.562882999999999
#
# number of rings (size 3 to 8) (size 9 to 14) (size 15 to 20)
#    0.000    1.000    2.857    5.143    2.000    3.143 
#    0.000    0.714    3.143    1.714    0.000    0.000 
#    0.000    0.000    0.000    0.000    0.000    0.000 
#
# Total GULP energy -693861.920645 kJ/mol
# GULP energy per Si atom -12390.391440 kJ/mol
# Density = 2.151381 g / cm^3
# Si number density = 21.562883 Si / 1000 Ang^3
#
#
#
# Elastic Constant Matrix: (Units=GPa)
#
#
# Indices 1 2 3 4 5 6 
#
# 1 118.1138 19.7286 37.8878 0.0000 0.0000 0.0000
# 2 19.7286 83.0776 23.3177 0.0000 0.0000 0.0000
# 3 37.8878 23.3177 143.4787 0.0000 0.0000 0.0000
# 4 0.0000 0.0000 0.0000 22.2790 0.0000 0.0000
# 5 0.0000 0.0000 0.0000 0.0000 47.8938 0.0000
# 6 0.0000 0.0000 0.0000 0.0000 0.0000 28.6402
#
#
#
# Elastic Compliance Matrix: (Units=1/GPa)
#
#
# Indices 1 2 3 4 5 6 
#
# 1 0.009453 -0.001618 -0.002233 0.000000 0.000000 0.000000
# 2 -0.001618 0.012889 -0.001667 0.000000 0.000000 0.000000
# 3 -0.002233 -0.001667 0.007830 0.000000 0.000000 0.000000
# 4 0.000000 0.000000 0.000000 0.044885 0.000000 0.000000
# 5 0.000000 0.000000 0.000000 0.000000 0.020880 0.000000
# 6 0.000000 0.000000 0.000000 0.000000 0.000000 0.034916
#
#
# Mechanical properties :
#
#
# Convention : Reuss Voigt Hill
#
# Bulk Modulus (GPa) = 52.25984 56.28205 54.27094
# Shear Modulus (GPa) = 33.72245 37.34501 35.53373
#
# Velocity S-wave (km/s) = 3.95892 4.16614 4.06385
# Velocity P-wave (km/s) = 6.72206 7.02142 6.87337
#
# Compressibility (1/GPa) = 0.01913515
#
# Stress axis : x y z
#
# Youngs Moduli (GPa) = 105.78606 77.58442 127.70749
#
# Poissons Ratio (x) = 0.12553 0.28521
# Poissons Ratio (y) = 0.17116 0.21295
# Poissons Ratio (z) = 0.23625 0.12937
#
# Static dielectric constant tensor:
#      x y z
#    x 4.178270 0.000000 0.000000 
#    y 0.000000 3.790580 0.000000 
#    z 0.000000 0.000000 4.066400 
# 
# 
# High freq. dielectric constant tensor:
#      x y z
#    x 1.861470 0.000000 0.000000 
#    y 0.000000 1.814150 0.000000 
#    z 0.000000 0.000000 1.863520 
# 
# From -- ./inp_files/28340.got.cif
#   From: 2010.06.25/outbox.cif.g09.slc.cpg/sg48_15_cif.got.tgz:28340.got - 2010.06.26 18:06:46.
