data_PCOD8201438
_publ_section_title
;
Structure prediction by ZEFSAII (Michael W. Deem and Ramdas Pophale) SiO2 
 PCOD8201438
Probable space group: P N N N
;
_chemical_formula_sum "Si O2"
_cell_formula_units_Z 24
_cell_length_a 5.042576
_cell_length_b 7.898183
_cell_length_c 25.499082
_cell_angle_alpha 90.000000
_cell_angle_beta 90.000000
_cell_angle_gamma 90.000000
_cell_volume 1015.556734
_symmetry_space_group_name_H-M "P N N N"
_symmetry_group_IT_number 48
_space_group.IT_coordinate_system_code '2'
_symmetry_cell_setting 'orthorhombic'
loop_
_space_group_symop_operation_xyz
x,y,z
1/2-x,1/2-y,z
x,1/2-y,1/2-z
1/2-x,y,1/2-z
-x,-y,-z
1/2+x,1/2+y,-z
-x,1/2+y,1/2+z
1/2+x,-y,1/2+z
loop_
_atom_site_type_symbol
_atom_site_label
_atom_site_fract_x
_atom_site_fract_y
_atom_site_fract_z
Si Si1 0.130651 0.068519 0.394636
Si Si2 0.376865 0.434447 0.946247
Si Si3 0.497543 0.060802 0.225860
O O1 0.250000 0.250000 0.407404
O O2 0.014354 0.057005 0.336403
O O3 0.375436 0.937271 0.404859
O O4 0.873289 0.051066 0.431268
O O5 0.250000 0.250000 0.950660
O O6 0.500000 0.500000 0.000000
O O7 0.498290 0.250000 0.250000
O O8 0.250000 0.960450 0.250000
O O9 0.750000 0.964107 0.250000
#
# Coordination Sequence:
#
# PCOD8201438 Si02
#       3
#     8   8   8
#     4  12  24  43  77 112 140 193 248 307 372 432
#     4  12  28  50  70 102 152 196 252 310 378 448
#     4  10  19  35  63 109 147 170 234 301 346 425
#
# _framework density 23.632356000000001
#
# number of rings (size 3 to 8) (size 9 to 14) (size 15 to 20)
#    0.000    0.667    3.333    6.000    4.667    2.667 
#    0.000    0.000    0.000   15.000    0.000    0.000 
#    0.000    0.000    0.000    0.000    0.000    0.000 
#
# Total GULP energy -297344.450567 kJ/mol
# GULP energy per Si atom -12389.352107 kJ/mol
# Density = 2.357857 g / cm^3
# Si number density = 23.632356 Si / 1000 Ang^3
#
#
#
# Elastic Constant Matrix: (Units=GPa)
#
#
# Indices 1 2 3 4 5 6 
#
# 1 282.0122 60.6101 112.9661 0.0000 0.0000 0.0000
# 2 60.6101 78.7559 72.0816 0.0000 0.0000 0.0000
# 3 112.9661 72.0816 180.9458 0.0000 0.0000 0.0000
# 4 0.0000 0.0000 0.0000 21.5369 0.0000 0.0000
# 5 0.0000 0.0000 0.0000 0.0000 68.5565 0.0000
# 6 0.0000 0.0000 0.0000 0.0000 0.0000 21.2414
#
#
#
# Elastic Compliance Matrix: (Units=1/GPa)
#
#
# Indices 1 2 3 4 5 6 
#
# 1 0.004840 -0.001510 -0.002420 0.000000 0.000000 0.000000
# 2 -0.001510 0.020454 -0.007206 0.000000 0.000000 0.000000
# 3 -0.002420 -0.007206 0.009908 0.000000 0.000000 0.000000
# 4 0.000000 0.000000 0.000000 0.046432 0.000000 0.000000
# 5 0.000000 0.000000 0.000000 0.000000 0.014587 0.000000
# 6 0.000000 0.000000 0.000000 0.000000 0.000000 0.047078
#
#
# Mechanical properties :
#
#
# Convention : Reuss Voigt Hill
#
# Bulk Modulus (GPa) = 77.33332 114.78106 96.05719
# Shear Modulus (GPa) = 29.43255 42.00404 35.71829
#
# Velocity S-wave (km/s) = 3.53290 4.22049 3.89191
# Velocity P-wave (km/s) = 7.03110 8.51028 7.80581
#
# Compressibility (1/GPa) = 0.01293104
#
# Stress axis : x y z
#
# Youngs Moduli (GPa) = 206.61777 48.88946 100.92932
#
# Poissons Ratio (x) = 0.07381 0.24427
# Poissons Ratio (y) = 0.31192 0.72727
# Poissons Ratio (z) = 0.50005 0.35228
#
# Static dielectric constant tensor:
#      x y z
#    x 4.633300 0.000000 0.000000 
#    y 0.000000 3.893330 0.000000 
#    z 0.000000 0.000000 4.298830 
# 
# 
# High freq. dielectric constant tensor:
#      x y z
#    x 1.988960 0.000000 0.000000 
#    y 0.000000 1.894210 0.000000 
#    z 0.000000 0.000000 1.941320 
# 
# From -- ./inp_files/698.got.cif
#   From: 2010.06.25/outbox.cif.g09.slc.cpg/sg48_1_cif.got.tgz:698.got - 2010.06.26 18:06:46.
