data_PCOD8201893
_publ_section_title
;
Structure prediction by ZEFSAII (Michael W. Deem and Ramdas Pophale) SiO2 
 PCOD8201893
Probable space group: P N N N
;
_chemical_formula_sum "Si O2"
_cell_formula_units_Z 56
_cell_length_a 8.683414
_cell_length_b 14.041489
_cell_length_c 21.701171
_cell_angle_alpha 90.000000
_cell_angle_beta 90.000000
_cell_angle_gamma 90.000000
_cell_volume 2645.981727
_symmetry_space_group_name_H-M "P N N N"
_symmetry_group_IT_number 48
_space_group.IT_coordinate_system_code '2'
_symmetry_cell_setting 'orthorhombic'
loop_
_space_group_symop_operation_xyz
x,y,z
1/2-x,1/2-y,z
x,1/2-y,1/2-z
1/2-x,y,1/2-z
-x,-y,-z
1/2+x,1/2+y,-z
-x,1/2+y,1/2+z
1/2+x,-y,1/2+z
loop_
_atom_site_type_symbol
_atom_site_label
_atom_site_fract_x
_atom_site_fract_y
_atom_site_fract_z
Si Si1 0.063774 0.099452 0.981382
Si Si2 0.071588 0.102537 0.505578
Si Si3 0.088757 0.191141 0.198820
Si Si4 0.581746 0.476616 0.748415
Si Si5 0.578566 0.850323 0.345367
Si Si6 0.569880 0.258560 0.073915
Si Si7 0.059404 0.359458 0.855369
O O1 0.243731 0.107755 0.997971
O O2 0.019281 0.115667 0.911116
O O3 0.961625 0.174959 0.016700
O O4 0.000000 0.000000 0.000000
O O5 0.017326 0.140867 0.572137
O O6 0.004961 0.158267 0.446091
O O7 0.000000 0.000000 0.500000
O O8 0.250000 0.250000 0.191412
O O9 0.990891 0.250000 0.250000
O O10 0.005047 0.192644 0.133728
O O11 0.098773 0.085796 0.228801
O O12 0.750000 0.430512 0.750000
O O13 0.472031 0.423681 0.794609
O O14 0.516083 0.450938 0.679759
O O15 0.760062 0.860423 0.345936
O O16 0.510864 0.745019 0.329835
O O17 0.750000 0.250000 0.086859
#
# Coordination Sequence:
#
# PCOD8201893 Si02
#       7
#     8   8   8   8   8   8   8
#     4  11  22  43  68 101 140 181 231 285 351 420
#     4  11  24  42  70 102 135 185 232 286 350 420
#     4  11  25  50  70  92 134 188 230 287 357 421
#     4  12  25  42  67 100 132 177 232 285 348 409
#     4  10  22  44  68  96 138 185 225 278 351 419
#     4  12  26  44  70 104 137 179 232 292 350 418
#     4  10  23  44  68  97 138 183 228 277 348 424
#
# _framework density 21.164166000000002
#
# number of rings (size 3 to 8) (size 9 to 14) (size 15 to 20)
#    0.000    1.000    2.857    3.857    2.000    7.143 
#    2.571    0.000    0.000    0.000    0.000    0.000 
#    0.000    0.000    0.000    0.000    0.000    0.000 
#
# Total GULP energy -693777.506718 kJ/mol
# GULP energy per Si atom -12388.884049 kJ/mol
# Density = 2.111600 g / cm^3
# Si number density = 21.164166 Si / 1000 Ang^3
#
#
#
# Elastic Constant Matrix: (Units=GPa)
#
#
# Indices 1 2 3 4 5 6 
#
# 1 53.7403 13.6551 25.2675 0.0000 0.0000 0.0000
# 2 13.6551 116.5816 21.8633 0.0000 0.0000 0.0000
# 3 25.2675 21.8633 105.9514 0.0000 0.0000 0.0000
# 4 0.0000 0.0000 0.0000-4140.8369 0.0000 0.0000
# 5 0.0000 0.0000 0.0000 0.0000 8.6334 0.0000
# 6 0.0000 0.0000 0.0000 0.0000 0.0000 17.9349
#
#
#
# Elastic Compliance Matrix: (Units=1/GPa)
#
#
# Indices 1 2 3 4 5 6 
#
# 1 0.021241 -0.001600 -0.004735 0.000000 0.000000 0.000000
# 2 -0.001600 0.009043 -0.001485 0.000000 0.000000 0.000000
# 3 -0.004735 -0.001485 0.010874 0.000000 0.000000 0.000000
# 4 0.000000 0.000000 0.000000 -0.000241 0.000000 0.000000
# 5 0.000000 0.000000 0.000000 0.000000 0.115829 0.000000
# 6 0.000000 0.000000 0.000000 0.000000 0.000000 0.055757
#
#
# Mechanical properties :
#
#
# Convention : Reuss Voigt Hill
#
# Bulk Modulus (GPa) = 39.18710 44.20502 41.69606
# Shear Modulus (GPa) = 21.12828 -808.48790 -393.67981
#
# Velocity S-wave (km/s) = 3.16302 -19.56623 -13.65343
# Velocity P-wave (km/s) = 5.64762 22.12504 15.12650
#
# Compressibility (1/GPa) = 0.02551860
#
# Stress axis : x y z
#
# Youngs Moduli (GPa) = 47.07865 110.57676 91.96273
#
# Poissons Ratio (x) = 0.17691 0.43549
# Poissons Ratio (y) = 0.07532 0.13653
# Poissons Ratio (z) = 0.22294 0.16416
#
# Static dielectric constant tensor:
#      x y z
#    x 4.236310 0.000000 0.000000 
#    y 0.000000 4.067060 0.000000 
#    z 0.000000 0.000000 4.221150 
# 
# 
# High freq. dielectric constant tensor:
#      x y z
#    x 1.821380 0.000000 0.000000 
#    y 0.000000 1.843860 0.000000 
#    z 0.000000 0.000000 1.847410 
# 
# From -- ./inp_files/33584.got.cif
#   From: 2010.06.25/outbox.cif.g09.slc.cpg/sg48_17_cif.got.tgz:33584.got - 2010.06.26 18:06:46.
