data_PCOD8201333
_publ_section_title
;
Structure prediction by ZEFSAII (Michael W. Deem and Ramdas Pophale) SiO2 
 PCOD8201333
Probable space group: P N N N
;
_chemical_formula_sum "Si O2"
_cell_formula_units_Z 52
_cell_length_a 13.179926
_cell_length_b 24.168894
_cell_length_c 8.530415
_cell_angle_alpha 90.000000
_cell_angle_beta 90.000000
_cell_angle_gamma 90.000000
_cell_volume 2717.314515
_symmetry_space_group_name_H-M "P N N N"
_symmetry_group_IT_number 48
_space_group.IT_coordinate_system_code '2'
_symmetry_cell_setting 'orthorhombic'
loop_
_space_group_symop_operation_xyz
x,y,z
1/2-x,1/2-y,z
x,1/2-y,1/2-z
1/2-x,y,1/2-z
-x,-y,-z
1/2+x,1/2+y,-z
-x,1/2+y,1/2+z
1/2+x,-y,1/2+z
loop_
_atom_site_type_symbol
_atom_site_label
_atom_site_fract_x
_atom_site_fract_y
_atom_site_fract_z
Si Si1 0.637573 0.843746 0.229096
Si Si2 0.010994 0.750000 0.750000
Si Si3 0.621940 0.453300 0.097324
Si Si4 0.000737 0.447779 0.715239
Si Si5 0.189456 0.573288 0.094447
Si Si6 0.361895 0.251034 0.989543
Si Si7 0.352738 0.648941 0.679128
O O1 0.750000 0.870305 0.250000
O O2 0.553286 0.890428 0.242821
O O3 0.617889 0.812527 0.064490
O O4 0.628681 0.795054 0.352945
O O5 0.071605 0.800533 0.677785
O O6 0.941445 0.726377 0.613516
O O7 0.586061 0.504403 0.206529
O O8 0.613335 0.401165 0.210171
O O9 0.545385 0.442211 0.956783
O O10 0.736283 0.462071 0.024005
O O11 0.911866 0.459874 0.846006
O O12 0.250000 0.592009 0.250000
O O13 0.157851 0.628371 0.000458
O O14 0.250000 0.250000 0.063947
O O15 0.250000 0.673650 0.750000
#
# Coordination Sequence:
#
# PCOD8201333 Si02
#       7
#     8   4   8   8   8   8   8
#     4   9  18  33  53  75 102 137 178 216 254 308
#     4  12  20  32  56  76 100 138 174 208 258 322
#     4   9  20  35  53  78 110 138 169 223 272 309
#     4  10  18  34  57  79 103 141 182 213 261 325
#     4   9  19  36  56  77 107 142 175 217 269 319
#     4   9  19  34  50  75 107 135 168 217 264 302
#     4  10  21  36  52  76 107 137 172 218 267 311
#
# _framework density 19.136541000000001
#
# number of rings (size 3 to 8) (size 9 to 14) (size 15 to 20)
#    0.000    2.462    0.000    3.231    0.000    2.462 
#    0.000    3.077    0.000   12.923    0.000    0.000 
#    0.000    0.000    0.000    0.000    0.000    0.000 
#
# Total GULP energy -644298.507107 kJ/mol
# GULP energy per Si atom -12390.355906 kJ/mol
# Density = 1.909298 g / cm^3
# Si number density = 19.136541 Si / 1000 Ang^3
#
#
#
# Elastic Constant Matrix: (Units=GPa)
#
#
# Indices 1 2 3 4 5 6 
#
# 1 119.2374 62.9877 43.5297 0.0000 0.0000 0.0000
# 2 62.9877 92.6843 30.7258 0.0000 0.0000 0.0000
# 3 43.5297 30.7258 77.6427 0.0000 0.0000 0.0000
# 4 0.0000 0.0000 0.0000 12.7836 0.0000 0.0000
# 5 0.0000 0.0000 0.0000 0.0000 27.9847 0.0000
# 6 0.0000 0.0000 0.0000 0.0000 0.0000 33.1706
#
#
#
# Elastic Compliance Matrix: (Units=1/GPa)
#
#
# Indices 1 2 3 4 5 6 
#
# 1 0.014529 -0.008257 -0.004878 0.000000 0.000000 0.000000
# 2 -0.008257 0.017111 -0.002142 0.000000 0.000000 0.000000
# 3 -0.004878 -0.002142 0.016462 0.000000 0.000000 0.000000
# 4 0.000000 0.000000 0.000000 0.078225 0.000000 0.000000
# 5 0.000000 0.000000 0.000000 0.000000 0.035734 0.000000
# 6 0.000000 0.000000 0.000000 0.000000 0.000000 0.030147
#
#
# Mechanical properties :
#
#
# Convention : Reuss Voigt Hill
#
# Bulk Modulus (GPa) = 56.98729 62.67232 59.82981
# Shear Modulus (GPa) = 21.87116 24.94254 23.40685
#
# Velocity S-wave (km/s) = 3.38435 3.61418 3.50115
# Velocity P-wave (km/s) = 6.71682 7.08785 6.90483
#
# Compressibility (1/GPa) = 0.01754777
#
# Stress axis : x y z
#
# Youngs Moduli (GPa) = 68.82705 58.44287 60.74536
#
# Poissons Ratio (x) = 0.48255 0.29633
# Poissons Ratio (y) = 0.56829 0.13013
# Poissons Ratio (z) = 0.33575 0.12520
#
# Static dielectric constant tensor:
#      x y z
#    x 3.933890 0.000000 0.000000 
#    y 0.000000 3.083000 0.000000 
#    z 0.000000 0.000000 3.527530 
# 
# 
# High freq. dielectric constant tensor:
#      x y z
#    x 1.758390 0.000000 0.000000 
#    y 0.000000 1.719220 0.000000 
#    z 0.000000 0.000000 1.749610 
# 
# From -- ./inp_files/11414.got.cif
#   From: 2010.06.25/outbox.cif.g09.slc.cpg/sg48_6_cif.got.tgz:11414.got - 2010.06.26 18:06:46.
