data_PCOD8201657
_publ_section_title
;
Structure prediction by ZEFSAII (Michael W. Deem and Ramdas Pophale) SiO2 
 PCOD8201657
Probable space group: P N N N
;
_chemical_formula_sum "Si O2"
_cell_formula_units_Z 52
_cell_length_a 8.805621
_cell_length_b 15.579405
_cell_length_c 18.885703
_cell_angle_alpha 90.000000
_cell_angle_beta 90.000000
_cell_angle_gamma 90.000000
_cell_volume 2590.860394
_symmetry_space_group_name_H-M "P N N N"
_symmetry_group_IT_number 48
_space_group.IT_coordinate_system_code '2'
_symmetry_cell_setting 'orthorhombic'
loop_
_space_group_symop_operation_xyz
x,y,z
1/2-x,1/2-y,z
x,1/2-y,1/2-z
1/2-x,y,1/2-z
-x,-y,-z
1/2+x,1/2+y,-z
-x,1/2+y,1/2+z
1/2+x,-y,1/2+z
loop_
_atom_site_type_symbol
_atom_site_label
_atom_site_fract_x
_atom_site_fract_y
_atom_site_fract_z
Si Si1 0.250000 0.878742 0.750000
Si Si2 0.004540 0.697124 0.846184
Si Si3 0.797900 0.543623 0.825232
Si Si4 0.421076 0.279421 0.505945
Si Si5 0.514898 0.393231 0.146538
Si Si6 0.563991 0.065003 0.942549
Si Si7 0.169195 0.662613 0.511409
O O1 0.329177 0.823774 0.813542
O O2 0.118469 0.934156 0.789895
O O3 0.880146 0.634417 0.810694
O O4 0.990014 0.684101 0.931438
O O5 0.971488 0.796369 0.828414
O O6 0.750000 0.502828 0.750000
O O7 0.640701 0.556182 0.868509
O O8 0.913363 0.481454 0.867339
O O9 0.250000 0.250000 0.496961
O O10 0.442356 0.356594 0.562708
O O11 0.518614 0.196214 0.530478
O O12 0.615013 0.395889 0.076151
O O13 0.727509 0.104379 0.962091
O O14 0.500000 0.000000 0.000000
O O15 0.250000 0.750000 0.539177
#
# Coordination Sequence:
#
# PCOD8201657 Si02
#       7
#     4   8   8   8   8   8   8
#     4  12  21  30  48  76 114 174 207 234 261 350
#     4  11  20  34  53  82 122 165 207 233 288 364
#     4  12  25  38  52  83 128 168 193 244 308 371
#     4  10  20  41  66  89 114 153 209 266 302 362
#     4  11  21  33  54  80 118 161 212 235 281 360
#     4  11  23  39  60  88 126 158 196 256 316 353
#     4   9  20  37  59  84 114 153 203 251 295 356
#
# _framework density 20.070550999999998
#
# number of rings (size 3 to 8) (size 9 to 14) (size 15 to 20)
#    0.000    1.231    3.077    6.462    0.000    1.231 
#    0.000    0.000    0.000    4.154    0.000    1.077 
#    0.000    0.000    0.000    0.000    0.000    0.000 
#
# Total GULP energy -644239.399927 kJ/mol
# GULP energy per Si atom -12389.219229 kJ/mol
# Density = 2.002487 g / cm^3
# Si number density = 20.070551 Si / 1000 Ang^3
#
#
#
# Elastic Constant Matrix: (Units=GPa)
#
#
# Indices 1 2 3 4 5 6 
#
# 1 102.8584 26.7820 25.8500 0.0000 0.0000 0.0000
# 2 26.7820 51.1418 28.7379 0.0000 0.0000 0.0000
# 3 25.8500 28.7379 70.1893 0.0000 0.0000 0.0000
# 4 0.0000 0.0000 0.0000 19.9175 0.0000 0.0000
# 5 0.0000 0.0000 0.0000 0.0000 29.1505 0.0000
# 6 0.0000 0.0000 0.0000 0.0000 0.0000 24.6726
#
#
#
# Elastic Compliance Matrix: (Units=1/GPa)
#
#
# Indices 1 2 3 4 5 6 
#
# 1 0.011537 -0.004746 -0.002306 0.000000 0.000000 0.000000
# 2 -0.004746 0.027349 -0.009450 0.000000 0.000000 0.000000
# 3 -0.002306 -0.009450 0.018965 0.000000 0.000000 0.000000
# 4 0.000000 0.000000 0.000000 0.050207 0.000000 0.000000
# 5 0.000000 0.000000 0.000000 0.000000 0.034305 0.000000
# 6 0.000000 0.000000 0.000000 0.000000 0.000000 0.040531
#
#
# Mechanical properties :
#
#
# Convention : Reuss Voigt Hill
#
# Bulk Modulus (GPa) = 40.24401 42.99215 41.61808
# Shear Modulus (GPa) = 22.30346 24.26942 23.28644
#
# Velocity S-wave (km/s) = 3.33716 3.48114 3.40991
# Velocity P-wave (km/s) = 5.91132 6.13390 6.02364
#
# Compressibility (1/GPa) = 0.02484842
#
# Stress axis : x y z
#
# Youngs Moduli (GPa) = 86.67465 36.56453 52.72762
#
# Poissons Ratio (x) = 0.17354 0.12158
# Poissons Ratio (y) = 0.41137 0.49825
# Poissons Ratio (z) = 0.19986 0.34552
#
# Static dielectric constant tensor:
#      x y z
#    x 4.244720 0.000000 0.000000 
#    y 0.000000 3.615350 0.000000 
#    z 0.000000 0.000000 3.394890 
# 
# 
# High freq. dielectric constant tensor:
#      x y z
#    x 1.812840 0.000000 0.000000 
#    y 0.000000 1.733000 0.000000 
#    z 0.000000 0.000000 1.749050 
# 
# From -- ./inp_files/33554.got.cif
#   From: 2010.06.25/outbox.cif.g09.slc.cpg/sg48_17_cif.got.tgz:33554.got - 2010.06.26 18:06:46.
