data_PCOD8201696
_publ_section_title
;
Structure prediction by ZEFSAII (Michael W. Deem and Ramdas Pophale) SiO2 
 PCOD8201696
Probable space group: P N N N
;
_chemical_formula_sum "Si O2"
_cell_formula_units_Z 48
_cell_length_a 15.423723
_cell_length_b 10.729606
_cell_length_c 14.435346
_cell_angle_alpha 90.000000
_cell_angle_beta 90.000000
_cell_angle_gamma 90.000000
_cell_volume 2388.912206
_symmetry_space_group_name_H-M "P N N N"
_symmetry_group_IT_number 48
_space_group.IT_coordinate_system_code '2'
_symmetry_cell_setting 'orthorhombic'
loop_
_space_group_symop_operation_xyz
x,y,z
1/2-x,1/2-y,z
x,1/2-y,1/2-z
1/2-x,y,1/2-z
-x,-y,-z
1/2+x,1/2+y,-z
-x,1/2+y,1/2+z
1/2+x,-y,1/2+z
loop_
_atom_site_type_symbol
_atom_site_label
_atom_site_fract_x
_atom_site_fract_y
_atom_site_fract_z
Si Si1 0.490098 0.200528 0.495414
Si Si2 0.965417 0.346925 0.833806
Si Si3 0.456298 0.937392 0.908971
Si Si4 0.143202 0.506689 0.493785
Si Si5 0.738203 0.104458 0.141974
Si Si6 0.272468 0.886995 0.144147
O O1 0.477750 0.278082 0.589234
O O2 0.510073 0.293331 0.408475
O O3 0.569967 0.110431 0.516764
O O4 0.400541 0.127920 0.478878
O O5 0.953480 0.250000 0.750000
O O6 0.874322 0.396574 0.873271
O O7 0.014398 0.480297 0.817987
O O8 0.352367 0.936915 0.903966
O O9 0.500000 0.000000 0.000000
O O10 0.187199 0.522088 0.593829
O O11 0.217222 0.516171 0.415644
O O12 0.750000 0.250000 0.120544
O O13 0.750000 0.075998 0.250000
O O14 0.250000 0.750000 0.109444
O O15 0.250000 0.911288 0.250000
#
# Coordination Sequence:
#
# PCOD8201696 Si02
#       6
#     8   8   8   8   8   8
#     4  10  21  36  59  94 121 169 205 259 335 381
#     4  11  21  37  64  90 122 161 214 271 316 389
#     4  10  22  41  62  89 127 168 217 269 333 384
#     4  11  20  36  65  88 130 158 217 267 318 391
#     4  11  23  40  62  93 126 177 225 269 329 410
#     4  11  19  36  62  96 113 154 217 267 311 371
#
# _framework density 20.092827
#
# number of rings (size 3 to 8) (size 9 to 14) (size 15 to 20)
#    0.000    1.333    5.000    2.500    2.333    0.000 
#    0.000    7.500    0.000    1.000    0.000    0.000 
#    0.000    0.000    0.000    0.000    0.000    0.000 
#
# Total GULP energy -594665.544880 kJ/mol
# GULP energy per Si atom -12388.865518 kJ/mol
# Density = 2.004709 g / cm^3
# Si number density = 20.092827 Si / 1000 Ang^3
#
#
#
# Elastic Constant Matrix: (Units=GPa)
#
#
# Indices 1 2 3 4 5 6 
#
# 1 98.0117 50.9002 30.6461 0.0000 0.0000 0.0000
# 2 50.9002 106.5544 32.2131 0.0000 0.0000 0.0000
# 3 30.6461 32.2131 81.8938 0.0000 0.0000 0.0000
# 4 0.0000 0.0000 0.0000 24.5363 0.0000 0.0000
# 5 0.0000 0.0000 0.0000 0.0000 14.6780 0.0000
# 6 0.0000 0.0000 0.0000 0.0000 0.0000 41.8957
#
#
#
# Elastic Compliance Matrix: (Units=1/GPa)
#
#
# Indices 1 2 3 4 5 6 
#
# 1 0.014190 -0.005871 -0.003001 0.000000 0.000000 0.000000
# 2 -0.005871 0.013081 -0.002948 0.000000 0.000000 0.000000
# 3 -0.003001 -0.002948 0.014494 0.000000 0.000000 0.000000
# 4 0.000000 0.000000 0.000000 0.040756 0.000000 0.000000
# 5 0.000000 0.000000 0.000000 0.000000 0.068129 0.000000
# 6 0.000000 0.000000 0.000000 0.000000 0.000000 0.023869
#
#
# Mechanical properties :
#
#
# Convention : Reuss Voigt Hill
#
# Bulk Modulus (GPa) = 55.17537 57.10876 56.14206
# Shear Modulus (GPa) = 24.48568 27.73535 26.11052
#
# Velocity S-wave (km/s) = 3.49467 3.71935 3.60876
# Velocity P-wave (km/s) = 6.61842 6.85047 6.73544
#
# Compressibility (1/GPa) = 0.01812403
#
# Stress axis : x y z
#
# Youngs Moduli (GPa) = 70.47049 76.44722 68.99623
#
# Poissons Ratio (x) = 0.44886 0.20704
# Poissons Ratio (y) = 0.41376 0.20341
# Poissons Ratio (z) = 0.21146 0.22538
#
# Static dielectric constant tensor:
#      x y z
#    x 3.805140 0.000000 0.000000 
#    y 0.000000 4.088480 0.000000 
#    z 0.000000 0.000000 3.594180 
# 
# 
# High freq. dielectric constant tensor:
#      x y z
#    x 1.794220 0.000000 0.000000 
#    y 0.000000 1.776230 0.000000 
#    z 0.000000 0.000000 1.769170 
# 
# From -- ./inp_files/27258.got.cif
#   From: 2010.06.25/outbox.cif.g09.slc.cpg/sg48_14_cif.got.tgz:27258.got - 2010.06.26 18:06:46.
