data_PCOD8201454
_publ_section_title
;
Structure prediction by ZEFSAII (Michael W. Deem and Ramdas Pophale) SiO2 
 PCOD8201454
Probable space group: P N N N
;
_chemical_formula_sum "Si O2"
_cell_formula_units_Z 42
_cell_length_a 6.448610
_cell_length_b 18.339204
_cell_length_c 19.714714
_cell_angle_alpha 90.000000
_cell_angle_beta 90.000000
_cell_angle_gamma 90.000000
_cell_volume 2331.508886
_symmetry_space_group_name_H-M "P N N N"
_symmetry_group_IT_number 48
_space_group.IT_coordinate_system_code '2'
_symmetry_cell_setting 'orthorhombic'
loop_
_space_group_symop_operation_xyz
x,y,z
1/2-x,1/2-y,z
x,1/2-y,1/2-z
1/2-x,y,1/2-z
-x,-y,-z
1/2+x,1/2+y,-z
-x,1/2+y,1/2+z
1/2+x,-y,1/2+z
loop_
_atom_site_type_symbol
_atom_site_label
_atom_site_fract_x
_atom_site_fract_y
_atom_site_fract_z
Si Si1 0.778330 0.835394 0.532188
Si Si2 0.250000 0.750000 0.750000
Si Si3 0.067696 0.864656 0.659221
Si Si4 0.046549 0.936667 0.901243
Si Si5 0.823849 0.000193 0.679595
Si Si6 0.390248 0.456664 0.559472
O O1 0.750000 0.750000 0.518285
O O2 0.564235 0.876406 0.551128
O O3 0.858383 0.872703 0.462571
O O4 0.951808 0.846275 0.589525
O O5 0.086129 0.794113 0.705176
O O6 0.300847 0.891663 0.646961
O O7 0.940863 0.925681 0.700531
O O8 0.881660 0.982908 0.860486
O O9 0.173619 0.000117 0.938568
O O10 0.750000 0.040032 0.750000
O O11 0.981395 0.045096 0.630493
O O12 0.500000 0.500000 0.500000
#
# Coordination Sequence:
#
# PCOD8201454 Si02
#       6
#     8   2   8   8   8   8
#     4  11  22  35  54  85 113 146 188 238 282 330
#     4  12  20  32  50  72 124 166 168 216 270 308
#     4  10  21  34  49  77 113 155 196 211 259 341
#     4  10  19  36  61  76 114 155 183 231 274 322
#     4  10  21  35  56  82 108 142 194 234 274 330
#     4  11  20  38  58  83 111 144 197 230 277 346
#
# _framework density 18.014085000000001
#
# number of rings (size 3 to 8) (size 9 to 14) (size 15 to 20)
#    0.000    1.524    5.714    2.857    0.000    3.810 
#    0.000    3.810    0.000    0.000    0.000    4.000 
#    0.000    0.000    0.000    0.000    0.000    0.000 
#
# Total GULP energy -520426.111454 kJ/mol
# GULP energy per Si atom -12391.097892 kJ/mol
# Density = 1.797308 g / cm^3
# Si number density = 18.014085 Si / 1000 Ang^3
#
#
#
# Elastic Constant Matrix: (Units=GPa)
#
#
# Indices 1 2 3 4 5 6 
#
# 1 117.5635 39.4859 45.5714 0.0000 0.0000 0.0000
# 2 39.4859 90.6531 51.0082 0.0000 0.0000 0.0000
# 3 45.5714 51.0082 100.7164 0.0000 0.0000 0.0000
# 4 0.0000 0.0000 0.0000 34.0854 0.0000 0.0000
# 5 0.0000 0.0000 0.0000 0.0000 20.4221 0.0000
# 6 0.0000 0.0000 0.0000 0.0000 0.0000 13.9549
#
#
#
# Elastic Compliance Matrix: (Units=1/GPa)
#
#
# Indices 1 2 3 4 5 6 
#
# 1 0.010777 -0.002728 -0.003495 0.000000 0.000000 0.000000
# 2 -0.002728 0.016118 -0.006929 0.000000 0.000000 0.000000
# 3 -0.003495 -0.006929 0.015019 0.000000 0.000000 0.000000
# 4 0.000000 0.000000 0.000000 0.029338 0.000000 0.000000
# 5 0.000000 0.000000 0.000000 0.000000 0.048966 0.000000
# 6 0.000000 0.000000 0.000000 0.000000 0.000000 0.071659
#
#
# Mechanical properties :
#
#
# Convention : Reuss Voigt Hill
#
# Bulk Modulus (GPa) = 64.05522 64.56267 64.30895
# Shear Modulus (GPa) = 22.38298 25.21699 23.79998
#
# Velocity S-wave (km/s) = 3.52877 3.74551 3.63876
# Velocity P-wave (km/s) = 7.22763 7.39074 7.30964
#
# Compressibility (1/GPa) = 0.01561153
#
# Stress axis : x y z
#
# Youngs Moduli (GPa) = 92.79133 62.04338 66.58128
#
# Poissons Ratio (x) = 0.16923 0.23269
# Poissons Ratio (y) = 0.25310 0.46132
# Poissons Ratio (z) = 0.32429 0.42988
#
# Static dielectric constant tensor:
#      x y z
#    x 3.803450 0.000000 0.000000 
#    y 0.000000 3.385670 0.000000 
#    z 0.000000 0.000000 3.509510 
# 
# 
# High freq. dielectric constant tensor:
#      x y z
#    x 1.721650 0.000000 0.000000 
#    y 0.000000 1.664840 0.000000 
#    z 0.000000 0.000000 1.688200 
# 
# From -- ./inp_files/5168.got.cif
#   From: 2010.06.25/outbox.cif.g09.slc.cpg/sg48_3_cif.got.tgz:5168.got - 2010.06.26 18:06:46.
