data_PCOD8201235
_publ_section_title
;
Structure prediction by ZEFSAII (Michael W. Deem and Ramdas Pophale) SiO2 
 PCOD8201235
Probable space group: P M M M
;
_chemical_formula_sum "Si O2"
_cell_formula_units_Z 52
_cell_length_a 9.463060
_cell_length_b 13.032428
_cell_length_c 22.996303
_cell_angle_alpha 90.000000
_cell_angle_beta 90.000000
_cell_angle_gamma 90.000000
_cell_volume 2836.056968
_symmetry_space_group_name_H-M "P M M M"
_symmetry_group_IT_number 47
_symmetry_cell_setting 'orthorhombic'
loop_
_space_group_symop_operation_xyz
x,y,z
-x,-y,z
x,-y,-z
-x,y,-z
-x,-y,-z
x,y,-z
-x,y,z
x,-y,z
loop_
_atom_site_type_symbol
_atom_site_label
_atom_site_fract_x
_atom_site_fract_y
_atom_site_fract_z
Si Si1 0.336761 0.707347 0.936307
Si Si2 0.167545 0.885785 0.646284
Si Si3 0.162633 0.115955 0.110312
Si Si4 0.664091 0.615816 0.816450
Si Si5 0.661525 0.500000 0.430909
Si Si6 0.164472 0.697876 0.431962
Si Si7 0.835486 0.206812 0.233052
O O1 0.500000 0.735198 0.930392
O O2 0.253411 0.813562 0.931842
O O3 0.290911 0.631477 0.884219
O O4 0.305246 0.657628 0.000000
O O5 0.219174 0.801445 0.599542
O O6 0.220234 0.852238 0.710124
O O7 0.000000 0.891619 0.645340
O O8 0.228535 0.000000 0.631834
O O9 0.197442 0.135288 0.178010
O O10 0.000000 0.140133 0.097732
O O11 0.201799 0.000000 0.095235
O O12 0.500000 0.641712 0.808125
O O13 0.698934 0.500000 0.799149
O O14 0.752967 0.686305 0.773143
O O15 0.500000 0.500000 0.407222
O O16 0.662620 0.500000 0.500000
O O17 0.743738 0.398457 0.408762
O O18 0.188030 0.715673 0.500000
O O19 0.000000 0.675384 0.417918
O O20 0.000000 0.233681 0.238757
#
# Coordination Sequence:
#
# PCOD8201235 Si02
#       7
#     8   8   8   8   4   8   8
#     4   9  18  31  46  66  91 118 150 187 228 279
#     4   9  17  30  50  76 103 130 163 204 247 293
#     4   9  17  29  46  66  88 118 154 190 229 273
#     4   9  18  33  51  69  92 121 152 192 240 285
#     4   9  17  31  51  71  95 131 171 207 242 285
#     4   9  17  30  50  76 104 133 166 206 250 294
#     4   9  17  31  50  70  92 121 158 196 234 281
#
# _framework density 18.335315000000001
#
# number of rings (size 3 to 8) (size 9 to 14) (size 15 to 20)
#    0.000    3.000    0.000    0.692    0.000    4.615 
#    1.385    5.385    0.000    2.769    0.000    6.462 
#    0.000    0.000    0.000    0.000    0.000    0.000 
#
# Total GULP energy -644626.729194 kJ/mol
# GULP energy per Si atom -12396.667869 kJ/mol
# Density = 1.829358 g / cm^3
# Si number density = 18.335315 Si / 1000 Ang^3
#
#
#
# Elastic Constant Matrix: (Units=GPa)
#
#
# Indices 1 2 3 4 5 6 
#
# 1 45.0281 43.2208 19.2803 0.0000 0.0000 0.0000
# 2 43.2208 130.7487 40.2836 0.0000 0.0000 0.0000
# 3 19.2803 40.2836 60.0355 0.0000 0.0000 0.0000
# 4 0.0000 0.0000 0.0000 21.0547 0.0000 0.0000
# 5 0.0000 0.0000 0.0000 0.0000 17.2911 0.0000
# 6 0.0000 0.0000 0.0000 0.0000 0.0000 22.0879
#
#
#
# Elastic Compliance Matrix: (Units=1/GPa)
#
#
# Indices 1 2 3 4 5 6 
#
# 1 0.033340 -0.009735 -0.004175 0.000000 0.000000 0.000000
# 2 -0.009735 0.012484 -0.005250 0.000000 0.000000 0.000000
# 3 -0.004175 -0.005250 0.021521 0.000000 0.000000 0.000000
# 4 0.000000 0.000000 0.000000 0.047495 0.000000 0.000000
# 5 0.000000 0.000000 0.000000 0.000000 0.057833 0.000000
# 6 0.000000 0.000000 0.000000 0.000000 0.000000 0.045274
#
#
# Mechanical properties :
#
#
# Convention : Reuss Voigt Hill
#
# Bulk Modulus (GPa) = 34.45405 49.04242 41.74823
# Shear Modulus (GPa) = 18.80113 20.95525 19.87819
#
# Velocity S-wave (km/s) = 3.20567 3.38433 3.29621
# Velocity P-wave (km/s) = 5.70383 6.48669 6.10782
#
# Compressibility (1/GPa) = 0.02902417
#
# Stress axis : x y z
#
# Youngs Moduli (GPa) = 29.99399 80.10373 46.46707
#
# Poissons Ratio (x) = 0.77978 0.19401
# Poissons Ratio (y) = 0.29198 0.24397
# Poissons Ratio (z) = 0.12523 0.42057
#
# Static dielectric constant tensor:
#      x y z
#    x 3.207820 0.000000 0.000000 
#    y 0.000000 3.540550 0.000000 
#    z 0.000000 0.000000 3.359720 
# 
# 
# High freq. dielectric constant tensor:
#      x y z
#    x 1.685220 0.000000 0.000000 
#    y 0.000000 1.711160 0.000000 
#    z 0.000000 0.000000 1.703230 
# 
# From -- ./inp_files/29573.got.cif
#   From: 2010.03.12/outbox.cif.g09.slc.cpg/sg47_15_cif.got.tgz:29573.got - 2010.04.14 03:12:58.
