data_PCOD8201847
_publ_section_title
;
Structure prediction by ZEFSAII (Michael W. Deem and Ramdas Pophale) SiO2 
 PCOD8201847
Probable space group: P N N N
;
_chemical_formula_sum "Si O2"
_cell_formula_units_Z 32
_cell_length_a 5.171684
_cell_length_b 8.587126
_cell_length_c 29.208436
_cell_angle_alpha 90.000000
_cell_angle_beta 90.000000
_cell_angle_gamma 90.000000
_cell_volume 1297.143784
_symmetry_space_group_name_H-M "P N N N"
_symmetry_group_IT_number 48
_space_group.IT_coordinate_system_code '2'
_symmetry_cell_setting 'orthorhombic'
loop_
_space_group_symop_operation_xyz
x,y,z
1/2-x,1/2-y,z
x,1/2-y,1/2-z
1/2-x,y,1/2-z
-x,-y,-z
1/2+x,1/2+y,-z
-x,1/2+y,1/2+z
1/2+x,-y,1/2+z
loop_
_atom_site_type_symbol
_atom_site_label
_atom_site_fract_x
_atom_site_fract_y
_atom_site_fract_z
Si Si1 0.313903 0.428167 0.537294
Si Si2 0.000061 0.424442 0.770178
Si Si3 0.142369 0.919292 0.372746
Si Si4 0.506014 0.650151 0.914586
O O1 0.250000 0.250000 0.526492
O O2 0.500000 0.500000 0.500000
O O3 0.438085 0.453062 0.587472
O O4 0.057650 0.537142 0.541877
O O5 0.998721 0.250000 0.750000
O O6 0.750000 0.512821 0.750000
O O7 0.006780 0.426299 0.824866
O O8 0.250000 0.512699 0.750000
O O9 0.250000 0.750000 0.382153
O O10 0.379974 0.044007 0.373055
O O11 0.250000 0.750000 0.899720
O O12 0.750000 0.750000 0.932515
#
# Coordination Sequence:
#
# PCOD8201847 Si02
#       4
#     8   8   8   8
#     4  12  30  51  84 117 166 219 289 344 416 491
#     4  10  22  38  73 120 162 184 257 344 410 470
#     4  12  25  48  82 123 159 216 275 348 417 491
#     4  12  28  52  79 117 165 222 269 337 419 492
#
# _framework density 24.669585000000001
#
# number of rings (size 3 to 8) (size 9 to 14) (size 15 to 20)
#    0.000    0.500    7.500    0.000   10.500    2.000 
#    0.000    1.250    0.000    0.750    6.500    0.000 
#    0.000    0.000    0.000    0.000    0.000    0.000 
#
# Total GULP energy -396606.960933 kJ/mol
# GULP energy per Si atom -12393.967529 kJ/mol
# Density = 2.461344 g / cm^3
# Si number density = 24.669585 Si / 1000 Ang^3
#
#
#
# Elastic Constant Matrix: (Units=GPa)
#
#
# Indices 1 2 3 4 5 6 
#
# 1 196.2093 77.6055 61.6339 0.0000 0.0000 0.0000
# 2 77.6055 172.9891 49.2967 0.0000 0.0000 0.0000
# 3 61.6339 49.2967 183.7837 0.0000 0.0000 0.0000
# 4 0.0000 0.0000 0.0000 2.0683 0.0000 0.0000
# 5 0.0000 0.0000 0.0000 0.0000 19.2516 0.0000
# 6 0.0000 0.0000 0.0000 0.0000 0.0000 30.8412
#
#
#
# Elastic Compliance Matrix: (Units=1/GPa)
#
#
# Indices 1 2 3 4 5 6 
#
# 1 0.006571 -0.002512 -0.001530 0.000000 0.000000 0.000000
# 2 -0.002512 0.007219 -0.001094 0.000000 0.000000 0.000000
# 3 -0.001530 -0.001094 0.006248 0.000000 0.000000 0.000000
# 4 0.000000 0.000000 0.000000 0.483487 0.000000 0.000000
# 5 0.000000 0.000000 0.000000 0.000000 0.051944 0.000000
# 6 0.000000 0.000000 0.000000 0.000000 0.000000 0.032424
#
#
# Mechanical properties :
#
#
# Convention : Reuss Voigt Hill
#
# Bulk Modulus (GPa) = 102.39277 103.33937 102.86607
# Shear Modulus (GPa) = 8.31367 34.72861 21.52114
#
# Velocity S-wave (km/s) = 1.83775 3.75607 2.95680
# Velocity P-wave (km/s) = 6.78962 7.79686 7.31061
#
# Compressibility (1/GPa) = 0.00976631
#
# Stress axis : x y z
#
# Youngs Moduli (GPa) = 152.19334 138.51768 160.05923
#
# Poissons Ratio (x) = 0.34792 0.24486
# Poissons Ratio (y) = 0.38227 0.17512
# Poissons Ratio (z) = 0.23282 0.15155
#
# Static dielectric constant tensor:
#      x y z
#    x 8.626380 0.000000 0.000000 
#    y 0.000000 4.986960 0.000000 
#    z 0.000000 0.000000 4.369040 
# 
# 
# High freq. dielectric constant tensor:
#      x y z
#    x 2.012570 0.000000 0.000000 
#    y 0.000000 1.970850 0.000000 
#    z 0.000000 0.000000 1.972040 
# 
# From -- ./inp_files/6750.got.cif
#   From: 2010.06.25/outbox.cif.g09.slc.cpg/sg48_4_cif.got.tgz:6750.got - 2010.06.26 18:06:46.
