data_PCOD8201703
_publ_section_title
;
Structure prediction by ZEFSAII (Michael W. Deem and Ramdas Pophale) SiO2 
 PCOD8201703
Probable space group: P N N N
;
_chemical_formula_sum "Si O2"
_cell_formula_units_Z 64
_cell_length_a 9.213755
_cell_length_b 18.222377
_cell_length_c 18.016662
_cell_angle_alpha 90.000000
_cell_angle_beta 90.000000
_cell_angle_gamma 90.000000
_cell_volume 3024.934801
_symmetry_space_group_name_H-M "P N N N"
_symmetry_group_IT_number 48
_space_group.IT_coordinate_system_code '2'
_symmetry_cell_setting 'orthorhombic'
loop_
_space_group_symop_operation_xyz
x,y,z
1/2-x,1/2-y,z
x,1/2-y,1/2-z
1/2-x,y,1/2-z
-x,-y,-z
1/2+x,1/2+y,-z
-x,1/2+y,1/2+z
1/2+x,-y,1/2+z
loop_
_atom_site_type_symbol
_atom_site_label
_atom_site_fract_x
_atom_site_fract_y
_atom_site_fract_z
Si Si1 0.833145 0.860162 0.531499
Si Si2 0.742265 0.556225 0.670380
Si Si3 0.534151 0.785916 0.497281
Si Si4 0.979335 0.459130 0.630400
Si Si5 0.483163 0.932334 0.200480
Si Si6 0.888760 0.209311 0.622184
Si Si7 0.219470 0.880825 0.009594
Si Si8 0.799257 0.518453 0.081066
O O1 0.838532 0.890814 0.614450
O O2 0.675755 0.835020 0.504121
O O3 0.878789 0.924812 0.474814
O O4 0.943270 0.792621 0.536285
O O5 0.750000 0.596716 0.750000
O O6 0.660729 0.477947 0.680448
O O7 0.905293 0.539169 0.641780
O O8 0.503073 0.770383 0.408620
O O9 0.396881 0.828916 0.533758
O O10 0.130138 0.464366 0.588393
O O11 0.007565 0.425180 0.711719
O O12 0.868919 0.416591 0.577562
O O13 0.465560 0.847408 0.177074
O O14 0.617780 0.973840 0.159703
O O15 0.750000 0.250000 0.660117
O O16 0.842880 0.168721 0.545998
O O17 0.302783 0.936907 0.954562
#
# Coordination Sequence:
#
# PCOD8201703 Si02
#       8
#     8   8   8   8   8   8   8   8
#     4  11  20  36  63  84 117 157 201 256 300 360
#     4  10  22  39  63  89 119 152 203 255 313 365
#     4  10  22  36  54  89 122 152 199 254 301 363
#     4  11  21  38  59  90 124 156 195 255 307 364
#     4  11  23  38  59  92 127 153 201 261 302 364
#     4  10  21  37  57  83 120 158 196 237 297 361
#     4  11  21  37  63  87 117 159 207 248 303 374
#     4  12  22  36  65  89 118 158 208 252 308 356
#
# _framework density 21.157478999999999
#
# number of rings (size 3 to 8) (size 9 to 14) (size 15 to 20)
#    0.000    1.250    5.000    1.500    1.750    1.000 
#    0.000    5.625    0.000    1.500    0.000    0.000 
#    0.000    0.000    0.000    0.000    0.000    0.000 
#
# Total GULP energy -793169.209138 kJ/mol
# GULP energy per Si atom -12393.268893 kJ/mol
# Density = 2.110932 g / cm^3
# Si number density = 21.157479 Si / 1000 Ang^3
#
#
#
# Elastic Constant Matrix: (Units=GPa)
#
#
# Indices 1 2 3 4 5 6 
#
# 1 44.0550 3.9416 11.1414 0.0000 0.0000 0.0000
# 2 3.9416 78.7635 19.1036 0.0000 0.0000 0.0000
# 3 11.1414 19.1036 87.4600 0.0000 0.0000 0.0000
# 4 0.0000 0.0000 0.0000 25.2759 0.0000 0.0000
# 5 0.0000 0.0000 0.0000 0.0000 24.1584 0.0000
# 6 0.0000 0.0000 0.0000 0.0000 0.0000 30.6040
#
#
#
# Elastic Compliance Matrix: (Units=1/GPa)
#
#
# Indices 1 2 3 4 5 6 
#
# 1 0.023471 -0.000475 -0.002886 0.000000 0.000000 0.000000
# 2 -0.000475 0.013416 -0.002870 0.000000 0.000000 0.000000
# 3 -0.002886 -0.002870 0.012428 0.000000 0.000000 0.000000
# 4 0.000000 0.000000 0.000000 0.039563 0.000000 0.000000
# 5 0.000000 0.000000 0.000000 0.000000 0.041393 0.000000
# 6 0.000000 0.000000 0.000000 0.000000 0.000000 0.032675
#
#
# Mechanical properties :
#
#
# Convention : Reuss Voigt Hill
#
# Bulk Modulus (GPa) = 27.13401 30.96128 29.04764
# Shear Modulus (GPa) = 26.63905 27.74713 27.19309
#
# Velocity S-wave (km/s) = 3.55221 3.62533 3.58896
# Velocity P-wave (km/s) = 5.44765 5.67358 5.56176
#
# Compressibility (1/GPa) = 0.03685412
#
# Stress axis : x y z
#
# Youngs Moduli (GPa) = 42.60519 74.53743 80.46113
#
# Poissons Ratio (x) = 0.03537 0.23224
# Poissons Ratio (y) = 0.02022 0.23092
# Poissons Ratio (z) = 0.12297 0.21392
#
# Static dielectric constant tensor:
#      x y z
#    x 3.948050 0.000000 0.000000 
#    y 0.000000 3.991550 0.000000 
#    z 0.000000 0.000000 3.715710 
# 
# 
# High freq. dielectric constant tensor:
#      x y z
#    x 1.837250 0.000000 0.000000 
#    y 0.000000 1.827340 0.000000 
#    z 0.000000 0.000000 1.804560 
# 
# From -- ./inp_files/30591.got.cif
#   From: 2010.06.25/outbox.cif.g09.slc.cpg/sg48_16_cif.got.tgz:30591.got - 2010.06.26 18:06:46.
