data_PCOD8201916
_publ_section_title
;
Structure prediction by ZEFSAII (Michael W. Deem and Ramdas Pophale) SiO2 
 PCOD8201916
Probable space group: P N N N
;
_chemical_formula_sum "Si O2"
_cell_formula_units_Z 32
_cell_length_a 36.023249
_cell_length_b 7.589417
_cell_length_c 5.098948
_cell_angle_alpha 90.000000
_cell_angle_beta 90.000000
_cell_angle_gamma 90.000000
_cell_volume 1394.029226
_symmetry_space_group_name_H-M "P N N N"
_symmetry_group_IT_number 48
_space_group.IT_coordinate_system_code '2'
_symmetry_cell_setting 'orthorhombic'
loop_
_space_group_symop_operation_xyz
x,y,z
1/2-x,1/2-y,z
x,1/2-y,1/2-z
1/2-x,y,1/2-z
-x,-y,-z
1/2+x,1/2+y,-z
-x,1/2+y,1/2+z
1/2+x,-y,1/2+z
loop_
_atom_site_type_symbol
_atom_site_label
_atom_site_fract_x
_atom_site_fract_y
_atom_site_fract_z
Si Si1 0.113510 0.553644 0.647281
Si Si2 0.965723 0.128868 0.006167
Si Si3 0.233208 0.947342 0.497991
Si Si4 0.846128 0.558796 0.861587
O O1 0.116762 0.750000 0.750000
O O2 0.071465 0.513117 0.555354
O O3 0.138823 0.545719 0.389003
O O4 0.125084 0.426604 0.892335
O O5 0.973804 0.250000 0.250000
O O6 0.961409 0.250000 0.750000
O O7 0.000000 0.000000 0.000000
O O8 0.250000 0.750000 0.500046
O O9 0.250000 0.050276 0.250000
O O10 0.188795 0.954051 0.484416
O O11 0.250000 0.047190 0.750000
O O12 0.835679 0.750000 0.750000
#
# Coordination Sequence:
#
# PCOD8201916 Si02
#       4
#     8   8   8   8
#     4  11  25  44  71 101 138 187 234 276 350 427
#     4  11  24  45  69 106 141 187 236 286 345 418
#     4  10  23  41  66  96 126 174 233 268 351 411
#     4  12  26  44  69 105 139 175 233 301 351 407
#
# _framework density 22.955044000000001
#
# number of rings (size 3 to 8) (size 9 to 14) (size 15 to 20)
#    0.000    1.000    0.000    6.750   10.500    3.500 
#    0.000    1.250    0.000    0.000    0.000    0.000 
#    0.000    0.000    0.000    0.000    0.000    0.000 
#
# Total GULP energy -396599.319061 kJ/mol
# GULP energy per Si atom -12393.728721 kJ/mol
# Density = 2.290280 g / cm^3
# Si number density = 22.955044 Si / 1000 Ang^3
#
#
#
# Elastic Constant Matrix: (Units=GPa)
#
#
# Indices 1 2 3 4 5 6 
#
# 1 193.2190 60.8930 86.7345 0.0000 0.0000 0.0000
# 2 60.8930 62.6094 30.6426 0.0000 0.0000 0.0000
# 3 86.7345 30.6426 229.6432 0.0000 0.0000 0.0000
# 4 0.0000 0.0000 0.0000 33.4402 0.0000 0.0000
# 5 0.0000 0.0000 0.0000 0.0000 51.4005 0.0000
# 6 0.0000 0.0000 0.0000 0.0000 0.0000 30.5293
#
#
#
# Elastic Compliance Matrix: (Units=1/GPa)
#
#
# Indices 1 2 3 4 5 6 
#
# 1 0.008411 -0.007088 -0.002231 0.000000 0.000000 0.000000
# 2 -0.007088 0.023062 -0.000400 0.000000 0.000000 0.000000
# 3 -0.002231 -0.000400 0.005251 0.000000 0.000000 0.000000
# 4 0.000000 0.000000 0.000000 0.029904 0.000000 0.000000
# 5 0.000000 0.000000 0.000000 0.000000 0.019455 0.000000
# 6 0.000000 0.000000 0.000000 0.000000 0.000000 0.032755
#
#
# Mechanical properties :
#
#
# Convention : Reuss Voigt Hill
#
# Bulk Modulus (GPa) = 57.85479 93.55686 75.70583
# Shear Modulus (GPa) = 34.71308 43.55410 39.13359
#
# Velocity S-wave (km/s) = 3.89295 4.36060 4.13339
# Velocity P-wave (km/s) = 6.74277 8.13623 7.47205
#
# Compressibility (1/GPa) = 0.01728465
#
# Stress axis : x y z
#
# Youngs Moduli (GPa) = 118.89491 43.36161 190.45667
#
# Poissons Ratio (x) = 0.30736 0.42488
# Poissons Ratio (y) = 0.84277 0.07619
# Poissons Ratio (z) = 0.26524 0.01735
#
# Static dielectric constant tensor:
#      x y z
#    x 4.387490 0.000000 0.000000 
#    y 0.000000 3.717010 0.000000 
#    z 0.000000 0.000000 3.590970 
# 
# 
# High freq. dielectric constant tensor:
#      x y z
#    x 1.913120 0.000000 0.000000 
#    y 0.000000 1.881740 0.000000 
#    z 0.000000 0.000000 1.947990 
# 
# From -- ./inp_files/6817.got.cif
#   From: 2010.06.25/outbox.cif.g09.slc.cpg/sg48_4_cif.got.tgz:6817.got - 2010.06.26 18:06:46.
