data_PCOD8201398
_publ_section_title
;
Structure prediction by ZEFSAII (Michael W. Deem and Ramdas Pophale) SiO2 
 PCOD8201398
Probable space group: P N N N
;
_chemical_formula_sum "Si O2"
_cell_formula_units_Z 58
_cell_length_a 19.745695
_cell_length_b 5.011344
_cell_length_c 30.655485
_cell_angle_alpha 90.000000
_cell_angle_beta 90.000000
_cell_angle_gamma 90.000000
_cell_volume 3033.435965
_symmetry_space_group_name_H-M "P N N N"
_symmetry_group_IT_number 48
_space_group.IT_coordinate_system_code '2'
_symmetry_cell_setting 'orthorhombic'
loop_
_space_group_symop_operation_xyz
x,y,z
1/2-x,1/2-y,z
x,1/2-y,1/2-z
1/2-x,y,1/2-z
-x,-y,-z
1/2+x,1/2+y,-z
-x,1/2+y,1/2+z
1/2+x,-y,1/2+z
loop_
_atom_site_type_symbol
_atom_site_label
_atom_site_fract_x
_atom_site_fract_y
_atom_site_fract_z
Si Si1 0.204036 0.510466 0.042356
Si Si2 0.750000 0.750000 0.750000
Si Si3 0.641778 0.394955 0.630349
Si Si4 0.344773 0.106254 0.319299
Si Si5 0.462687 0.258743 0.552652
Si Si6 0.501897 0.343614 0.201199
Si Si7 0.584714 0.262271 0.005464
Si Si8 0.015073 0.341621 0.850777
O O1 0.250000 0.750000 0.058458
O O2 0.154430 0.470580 0.083199
O O3 0.250000 0.250000 0.030023
O O4 0.158239 0.627556 0.002881
O O5 0.702576 0.948989 0.722026
O O6 0.674942 0.600316 0.664139
O O7 0.562715 0.365292 0.636911
O O8 0.671940 0.104074 0.641829
O O9 0.422115 0.110733 0.303749
O O10 0.540394 0.184471 0.538714
O O11 0.453612 0.561892 0.537411
O O12 0.448250 0.255333 0.604360
O O13 0.410172 0.050023 0.529761
O O14 0.520006 0.250000 0.250000
O O15 0.533577 0.627446 0.187027
O O16 0.535260 0.129417 0.168147
#
# Coordination Sequence:
#
# PCOD8201398 Si02
#       8
#     8   2   8   8   8   8   8   8
#     4  12  24  37  54  74 104 139 171 207 266 332
#     4  12  24  38  48  62  84 122 188 210 288 294
#     4  10  22  38  48  69  92 122 168 217 267 311
#     4  10  23  34  49  61  87 121 165 223 262 312
#     4  10  19  35  56  77 100 128 171 225 268 306
#     4  10  19  34  47  71  96 129 161 210 264 320
#     4  10  21  35  53  78 104 129 169 219 269 309
#     4  10  19  33  56  71  97 126 172 212 270 315
#
# _framework density 19.120231
#
# number of rings (size 3 to 8) (size 9 to 14) (size 15 to 20)
#    0.000    1.655    2.069    2.897    2.897    1.103 
#    0.000    0.000    0.000    0.000    0.000    0.000 
#    0.000    0.000    0.000    0.000    0.000  144.828 
#
# Total GULP energy -718605.394167 kJ/mol
# GULP energy per Si atom -12389.748175 kJ/mol
# Density = 1.907671 g / cm^3
# Si number density = 19.120231 Si / 1000 Ang^3
#
#
#
# Elastic Constant Matrix: (Units=GPa)
#
#
# Indices 1 2 3 4 5 6 
#
# 1 26.0398 13.6175 14.0292 0.0000 0.0000 0.0000
# 2 13.6175 83.7039 16.0250 0.0000 0.0000 0.0000
# 3 14.0292 16.0250 92.2791 0.0000 0.0000 0.0000
# 4 0.0000 0.0000 0.0000 27.6572 0.0000 0.0000
# 5 0.0000 0.0000 0.0000 0.0000 13.1987 0.0000
# 6 0.0000 0.0000 0.0000 0.0000 0.0000 23.3154
#
#
#
# Elastic Compliance Matrix: (Units=1/GPa)
#
#
# Indices 1 2 3 4 5 6 
#
# 1 0.044719 -0.006179 -0.005726 0.000000 0.000000 0.000000
# 2 -0.006179 0.013212 -0.001355 0.000000 0.000000 0.000000
# 3 -0.005726 -0.001355 0.011942 0.000000 0.000000 0.000000
# 4 0.000000 0.000000 0.000000 0.036157 0.000000 0.000000
# 5 0.000000 0.000000 0.000000 0.000000 0.075765 0.000000
# 6 0.000000 0.000000 0.000000 0.000000 0.000000 0.042890
#
#
# Mechanical properties :
#
#
# Convention : Reuss Voigt Hill
#
# Bulk Modulus (GPa) = 23.06600 32.15180 27.60890
# Shear Modulus (GPa) = 18.82141 23.39101 21.10621
#
# Velocity S-wave (km/s) = 3.14087 3.50146 3.32606
# Velocity P-wave (km/s) = 5.02427 5.76186 5.40566
#
# Compressibility (1/GPa) = 0.04335386
#
# Stress axis : x y z
#
# Youngs Moduli (GPa) = 22.36196 75.69162 83.73505
#
# Poissons Ratio (x) = 0.46770 0.47943
# Poissons Ratio (y) = 0.13817 0.11345
# Poissons Ratio (z) = 0.12803 0.10255
#
# Static dielectric constant tensor:
#      x y z
#    x 3.062890 0.000000 0.000000 
#    y 0.000000 3.809330 0.000000 
#    z 0.000000 0.000000 3.522570 
# 
# 
# High freq. dielectric constant tensor:
#      x y z
#    x 1.673100 0.000000 0.000000 
#    y 0.000000 1.764280 0.000000 
#    z 0.000000 0.000000 1.735650 
# 
# From -- ./inp_files/39163.got.cif
#   From: 2010.06.25/outbox.cif.g09.slc.cpg/sg48_20_cif.got.tgz:39163.got - 2010.06.26 18:06:46.
