data_PCOD8201344
_publ_section_title
;
Structure prediction by ZEFSAII (Michael W. Deem and Ramdas Pophale) SiO2 
 PCOD8201344
Probable space group: P N N N
;
_chemical_formula_sum "Si O2"
_cell_formula_units_Z 42
_cell_length_a 10.250987
_cell_length_b 12.718931
_cell_length_c 16.173464
_cell_angle_alpha 90.000000
_cell_angle_beta 90.000000
_cell_angle_gamma 90.000000
_cell_volume 2108.722055
_symmetry_space_group_name_H-M "P N N N"
_symmetry_group_IT_number 48
_space_group.IT_coordinate_system_code '2'
_symmetry_cell_setting 'orthorhombic'
loop_
_space_group_symop_operation_xyz
x,y,z
1/2-x,1/2-y,z
x,1/2-y,1/2-z
1/2-x,y,1/2-z
-x,-y,-z
1/2+x,1/2+y,-z
-x,1/2+y,1/2+z
1/2+x,-y,1/2+z
loop_
_atom_site_type_symbol
_atom_site_label
_atom_site_fract_x
_atom_site_fract_y
_atom_site_fract_z
Si Si1 0.097737 0.237156 0.156091
Si Si2 0.061409 0.916863 0.565238
Si Si3 0.301566 0.860295 0.083045
Si Si4 0.864741 0.512375 0.683812
Si Si5 0.250000 0.250000 0.750000
Si Si6 0.452586 0.086824 0.812386
O O1 0.250000 0.250000 0.144493
O O2 0.049226 0.250000 0.250000
O O3 0.030777 0.319934 0.093820
O O4 0.069758 0.113441 0.139399
O O5 0.183618 0.866329 0.516694
O O6 0.107211 0.980459 0.646740
O O7 0.000000 0.000000 0.500000
O O8 0.250000 0.750000 0.113161
O O9 0.200966 0.948699 0.110359
O O10 0.441259 0.868506 0.125459
O O11 0.750000 0.544893 0.750000
O O12 0.978078 0.442551 0.725920
O O13 0.340660 0.174176 0.804758
#
# Coordination Sequence:
#
# PCOD8201344 Si02
#       6
#     8   8   8   8   2   8
#     4  11  17  32  62  93 118 156 209 254 300 372
#     4  10  21  39  55  85 130 154 190 255 324 363
#     4  10  21  40  60  87 122 161 200 251 315 371
#     4  10  18  35  66  94 114 151 222 263 294 364
#     4  12  24  40  58  82 112 148 210 246 312 366
#     4  10  21  39  61  85 116 158 198 263 304 366
#
# _framework density 19.917276999999999
#
# number of rings (size 3 to 8) (size 9 to 14) (size 15 to 20)
#    0.000    1.714    3.810    3.429    0.000    2.667 
#   17.143    0.952    0.000    0.000    0.000    0.000 
#    0.000    0.000    0.000    0.000    0.000    0.000 
#
# Total GULP energy -520326.501566 kJ/mol
# GULP energy per Si atom -12388.726228 kJ/mol
# Density = 1.987194 g / cm^3
# Si number density = 19.917277 Si / 1000 Ang^3
#
#
#
# Elastic Constant Matrix: (Units=GPa)
#
#
# Indices 1 2 3 4 5 6 
#
# 1 75.8499 63.5068 52.6136 0.0000 0.0000 0.0000
# 2 63.5068 169.3907 59.1060 0.0000 0.0000 0.0000
# 3 52.6136 59.1060 100.9622 0.0000 0.0000 0.0000
# 4 0.0000 0.0000 0.0000 28.2446 0.0000 0.0000
# 5 0.0000 0.0000 0.0000 0.0000 30.1621 0.0000
# 6 0.0000 0.0000 0.0000 0.0000 0.0000 29.3626
#
#
#
# Elastic Compliance Matrix: (Units=1/GPa)
#
#
# Indices 1 2 3 4 5 6 
#
# 1 0.024694 -0.005992 -0.009361 0.000000 0.000000 0.000000
# 2 -0.005992 0.008873 -0.002072 0.000000 0.000000 0.000000
# 3 -0.009361 -0.002072 0.015996 0.000000 0.000000 0.000000
# 4 0.000000 0.000000 0.000000 0.035405 0.000000 0.000000
# 5 0.000000 0.000000 0.000000 0.000000 0.033154 0.000000
# 6 0.000000 0.000000 0.000000 0.000000 0.000000 0.034057
#
#
# Mechanical properties :
#
#
# Convention : Reuss Voigt Hill
#
# Bulk Modulus (GPa) = 67.96491 77.40618 72.68554
# Shear Modulus (GPa) = 26.05091 28.95228 27.50159
#
# Velocity S-wave (km/s) = 3.62049 3.81678 3.71993
# Velocity P-wave (km/s) = 7.18853 7.64015 7.41778
#
# Compressibility (1/GPa) = 0.01471347
#
# Stress axis : x y z
#
# Youngs Moduli (GPa) = 40.49614 112.70291 62.51658
#
# Poissons Ratio (x) = 0.67529 0.58520
# Poissons Ratio (y) = 0.24264 0.12953
# Poissons Ratio (z) = 0.37907 0.23352
#
# Static dielectric constant tensor:
#      x y z
#    x 3.548390 0.000000 0.000000 
#    y 0.000000 3.961460 0.000000 
#    z 0.000000 0.000000 4.132920 
# 
# 
# High freq. dielectric constant tensor:
#      x y z
#    x 1.740670 0.000000 0.000000 
#    y 0.000000 1.802970 0.000000 
#    z 0.000000 0.000000 1.761580 
# 
# From -- ./inp_files/30988.got.cif
#   From: 2010.06.25/outbox.cif.g09.slc.cpg/sg48_16_cif.got.tgz:30988.got - 2010.06.26 18:06:46.
