data_PCOD8201551
_publ_section_title
;
Structure prediction by ZEFSAII (Michael W. Deem and Ramdas Pophale) SiO2 
 PCOD8201551
Probable space group: P N N N
;
_chemical_formula_sum "Si O2"
_cell_formula_units_Z 64
_cell_length_a 13.538372
_cell_length_b 10.989011
_cell_length_c 21.363770
_cell_angle_alpha 90.000000
_cell_angle_beta 90.000000
_cell_angle_gamma 90.000000
_cell_volume 3178.358966
_symmetry_space_group_name_H-M "P N N N"
_symmetry_group_IT_number 48
_space_group.IT_coordinate_system_code '2'
_symmetry_cell_setting 'orthorhombic'
loop_
_space_group_symop_operation_xyz
x,y,z
1/2-x,1/2-y,z
x,1/2-y,1/2-z
1/2-x,y,1/2-z
-x,-y,-z
1/2+x,1/2+y,-z
-x,1/2+y,1/2+z
1/2+x,-y,1/2+z
loop_
_atom_site_type_symbol
_atom_site_label
_atom_site_fract_x
_atom_site_fract_y
_atom_site_fract_z
Si Si1 0.350994 0.003136 0.721105
Si Si2 0.144057 0.689677 0.617022
Si Si3 0.036801 0.235346 0.321239
Si Si4 0.353676 0.204501 0.626650
Si Si5 0.107101 0.015110 0.975560
Si Si6 0.320696 0.007894 0.189889
Si Si7 0.810576 0.873532 0.900943
Si Si8 0.994379 0.857246 0.299335
O O1 0.250000 0.952741 0.750000
O O2 0.327788 0.134372 0.690788
O O3 0.438654 0.023352 0.771460
O O4 0.386144 0.905555 0.671011
O O5 0.250000 0.750000 0.625945
O O6 0.144963 0.616092 0.551160
O O7 0.056288 0.788842 0.630220
O O8 0.996593 0.250000 0.250000
O O9 0.114015 0.128098 0.313005
O O10 0.095565 0.347342 0.355268
O O11 0.250000 0.250000 0.598392
O O12 0.402893 0.113637 0.578629
O O13 0.431864 0.312810 0.640227
O O14 0.171235 0.069405 0.031232
O O15 0.000000 0.000000 0.000000
O O16 0.250000 0.000562 0.250000
O O17 0.249970 0.016161 0.130258
O O18 0.393629 0.892740 0.182927
O O19 0.750000 0.750000 0.911331
O O20 0.003517 0.750000 0.250000
#
# Coordination Sequence:
#
# PCOD8201551 Si02
#       8
#     8   8   8   8   8   8   8   8
#     4  10  20  35  60  91 130 162 193 249 323 388
#     4  11  26  39  61  98 132 167 205 266 327 381
#     4  11  21  38  64  94 128 164 208 257 318 394
#     4  10  20  37  65  88 119 164 215 258 311 386
#     4  11  23  45  64  83 123 171 224 264 317 382
#     4  11  23  38  63  95 131 165 210 264 316 376
#     4  10  22  41  66  91 118 171 220 261 315 378
#     4  10  22  38  61  97 130 166 205 257 322 387
#
# _framework density 20.136178000000001
#
# number of rings (size 3 to 8) (size 9 to 14) (size 15 to 20)
#    0.000    1.500    3.750    1.125    3.500    1.250 
#    2.250    0.000    0.000    3.750    0.000    0.000 
#    0.000    0.000    0.000    0.000    0.000    0.000 
#
# Total GULP energy -793006.205130 kJ/mol
# GULP energy per Si atom -12390.721955 kJ/mol
# Density = 2.009035 g / cm^3
# Si number density = 20.136178 Si / 1000 Ang^3
#
#
#
# Elastic Constant Matrix: (Units=GPa)
#
#
# Indices 1 2 3 4 5 6 
#
# 1 147.0298 40.6863 47.9215 0.0000 0.0000 0.0000
# 2 40.6863 57.4391 32.7453 0.0000 0.0000 0.0000
# 3 47.9215 32.7453 107.9972 0.0000 0.0000 0.0000
# 4 0.0000 0.0000 0.0000 24.1400 0.0000 0.0000
# 5 0.0000 0.0000 0.0000 0.0000 29.0757 0.0000
# 6 0.0000 0.0000 0.0000 0.0000 0.0000 37.6200
#
#
#
# Elastic Compliance Matrix: (Units=1/GPa)
#
#
# Indices 1 2 3 4 5 6 
#
# 1 0.008979 -0.004943 -0.002486 0.000000 0.000000 0.000000
# 2 -0.004943 0.023770 -0.005013 0.000000 0.000000 0.000000
# 3 -0.002486 -0.005013 0.011883 0.000000 0.000000 0.000000
# 4 0.000000 0.000000 0.000000 0.041425 0.000000 0.000000
# 5 0.000000 0.000000 0.000000 0.000000 0.034393 0.000000
# 6 0.000000 0.000000 0.000000 0.000000 0.000000 0.026582
#
#
# Mechanical properties :
#
#
# Convention : Reuss Voigt Hill
#
# Bulk Modulus (GPa) = 50.64200 61.68581 56.16391
# Shear Modulus (GPa) = 28.01150 30.90802 29.45976
#
# Velocity S-wave (km/s) = 3.73380 3.92209 3.82910
# Velocity P-wave (km/s) = 6.61760 7.15620 6.89217
#
# Compressibility (1/GPa) = 0.01974645
#
# Stress axis : x y z
#
# Youngs Moduli (GPa) = 111.36569 42.07071 84.15734
#
# Poissons Ratio (x) = 0.20798 0.20918
# Poissons Ratio (y) = 0.55054 0.42192
# Poissons Ratio (z) = 0.27680 0.21092
#
# Static dielectric constant tensor:
#      x y z
#    x 3.757900 0.000000 0.000000 
#    y 0.000000 3.550280 0.000000 
#    z 0.000000 0.000000 3.545450 
# 
# 
# High freq. dielectric constant tensor:
#      x y z
#    x 1.801030 0.000000 0.000000 
#    y 0.000000 1.773480 0.000000 
#    z 0.000000 0.000000 1.772350 
# 
# From -- ./inp_files/36384.got.cif
#   From: 2010.06.25/outbox.cif.g09.slc.cpg/sg48_19_cif.got.tgz:36384.got - 2010.06.26 18:06:46.
