data_PCOD8201934
_publ_section_title
;
Structure prediction by ZEFSAII (Michael W. Deem and Ramdas Pophale) SiO2 
 PCOD8201934
Probable space group: P N N N
;
_chemical_formula_sum "Si O2"
_cell_formula_units_Z 56
_cell_length_a 14.895227
_cell_length_b 9.760915
_cell_length_c 18.531446
_cell_angle_alpha 90.000000
_cell_angle_beta 90.000000
_cell_angle_gamma 90.000000
_cell_volume 2694.306293
_symmetry_space_group_name_H-M "P N N N"
_symmetry_group_IT_number 48
_space_group.IT_coordinate_system_code '2'
_symmetry_cell_setting 'orthorhombic'
loop_
_space_group_symop_operation_xyz
x,y,z
1/2-x,1/2-y,z
x,1/2-y,1/2-z
1/2-x,y,1/2-z
-x,-y,-z
1/2+x,1/2+y,-z
-x,1/2+y,1/2+z
1/2+x,-y,1/2+z
loop_
_atom_site_type_symbol
_atom_site_label
_atom_site_fract_x
_atom_site_fract_y
_atom_site_fract_z
Si Si1 0.542797 0.732598 0.332712
Si Si2 0.676407 0.143473 0.023749
Si Si3 0.834264 0.837180 0.454746
Si Si4 0.980720 0.768131 0.572114
Si Si5 0.566804 0.498810 0.856828
Si Si6 0.930991 0.529841 0.807419
Si Si7 0.736198 0.101594 0.863401
O O1 0.570922 0.750000 0.250000
O O2 0.633485 0.723599 0.378617
O O3 0.485664 0.595476 0.341729
O O4 0.484394 0.855842 0.365244
O O5 0.750000 0.250000 0.054518
O O6 0.579604 0.201558 0.044111
O O7 0.692780 0.994875 0.058738
O O8 0.684713 0.128493 0.938099
O O9 0.750000 0.750000 0.482582
O O10 0.911978 0.828386 0.514087
O O11 0.970954 0.605312 0.584223
O O12 0.958993 0.835915 0.649144
O O13 0.549668 0.555959 0.776443
O O14 0.670930 0.477027 0.875249
O O15 0.825329 0.493950 0.813191
O O16 0.750000 0.250000 0.825327
#
# Coordination Sequence:
#
# PCOD8201934 Si02
#       7
#     8   8   8   8   8   8   8
#     4  10  23  43  67  95 126 176 223 265 329 394
#     4  11  25  43  68  96 130 172 219 278 334 394
#     4  12  25  43  68  97 132 173 219 274 327 394
#     4  12  25  43  66  97 135 175 217 271 337 394
#     4  11  25  38  65 101 134 173 222 275 325 402
#     4  11  21  42  66  92 137 180 214 268 338 398
#     4  11  21  38  64  98 132 172 222 269 329 403
#
# _framework density 20.784571
#
# number of rings (size 3 to 8) (size 9 to 14) (size 15 to 20)
#    0.000    0.857    4.286    3.000    4.000    1.429 
#    0.000    1.429    0.000    1.714    0.000    0.000 
#    0.000    0.000    0.000    0.000    0.000    0.000 
#
# Total GULP energy -694683.163159 kJ/mol
# GULP energy per Si atom -12405.056485 kJ/mol
# Density = 2.073726 g / cm^3
# Si number density = 20.784571 Si / 1000 Ang^3
#
#
#
# Elastic Constant Matrix: (Units=GPa)
#
#
# Indices 1 2 3 4 5 6 
#
# 1 131.4040 45.9017 26.4059 0.0000 0.0000 0.0000
# 2 45.9017 96.4887 19.8421 0.0000 0.0000 0.0000
# 3 26.4059 19.8421 55.1419 0.0000 0.0000 0.0000
# 4 0.0000 0.0000 0.0000 20.8419 0.0000 0.0000
# 5 0.0000 0.0000 0.0000 0.0000 17.4851 0.0000
# 6 0.0000 0.0000 0.0000 0.0000 0.0000 36.4404
#
#
#
# Elastic Compliance Matrix: (Units=1/GPa)
#
#
# Indices 1 2 3 4 5 6 
#
# 1 0.009622 -0.003920 -0.003197 0.000000 0.000000 0.000000
# 2 -0.003920 0.012789 -0.002725 0.000000 0.000000 0.000000
# 3 -0.003197 -0.002725 0.020647 0.000000 0.000000 0.000000
# 4 0.000000 0.000000 0.000000 0.047980 0.000000 0.000000
# 5 0.000000 0.000000 0.000000 0.000000 0.057191 0.000000
# 6 0.000000 0.000000 0.000000 0.000000 0.000000 0.027442
#
#
# Mechanical properties :
#
#
# Convention : Reuss Voigt Hill
#
# Bulk Modulus (GPa) = 42.78304 51.92600 47.35452
# Shear Modulus (GPa) = 24.61282 27.67914 26.14598
#
# Velocity S-wave (km/s) = 3.44494 3.65323 3.55061
# Velocity P-wave (km/s) = 6.03756 6.54461 6.29619
#
# Compressibility (1/GPa) = 0.02337375
#
# Stress axis : x y z
#
# Youngs Moduli (GPa) = 103.92992 78.19214 48.43425
#
# Poissons Ratio (x) = 0.30650 0.15485
# Poissons Ratio (y) = 0.40739 0.13198
# Poissons Ratio (z) = 0.33228 0.21306
#
# Static dielectric constant tensor:
#      x y z
#    x 3.735110 0.000000 0.000000 
#    y 0.000000 3.979190 0.000000 
#    z 0.000000 0.000000 3.654410 
# 
# 
# High freq. dielectric constant tensor:
#      x y z
#    x 1.810250 0.000000 0.000000 
#    y 0.000000 1.824840 0.000000 
#    z 0.000000 0.000000 1.809020 
# 
# From -- ./inp_files/13128.got.cif
#   From: 2010.06.25/outbox.cif.g09.slc.cpg/sg48_7_cif.got.tgz:13128.got - 2010.06.26 18:06:46.
