data_PCOD8201431
_publ_section_title
;
Structure prediction by ZEFSAII (Michael W. Deem and Ramdas Pophale) SiO2 
 PCOD8201431
Probable space group: P N N N
;
_chemical_formula_sum "Si O2"
_cell_formula_units_Z 34
_cell_length_a 9.883997
_cell_length_b 18.861037
_cell_length_c 10.222739
_cell_angle_alpha 90.000000
_cell_angle_beta 90.000000
_cell_angle_gamma 90.000000
_cell_volume 1905.747878
_symmetry_space_group_name_H-M "P N N N"
_symmetry_group_IT_number 48
_space_group.IT_coordinate_system_code '2'
_symmetry_cell_setting 'orthorhombic'
loop_
_space_group_symop_operation_xyz
x,y,z
1/2-x,1/2-y,z
x,1/2-y,1/2-z
1/2-x,y,1/2-z
-x,-y,-z
1/2+x,1/2+y,-z
-x,1/2+y,1/2+z
1/2+x,-y,1/2+z
loop_
_atom_site_type_symbol
_atom_site_label
_atom_site_fract_x
_atom_site_fract_y
_atom_site_fract_z
Si Si1 0.127552 0.039859 0.150987
Si Si2 0.362213 0.046777 0.648420
Si Si3 0.750000 0.250000 0.250000
Si Si4 0.608004 0.788359 0.370500
Si Si5 0.492740 0.195100 0.352697
O O1 0.250000 0.025002 0.250000
O O2 0.072125 0.118970 0.170200
O O3 0.177704 0.027571 0.001606
O O4 0.007143 0.986150 0.185189
O O5 0.250000 0.017091 0.750000
O O6 0.372480 0.130316 0.665684
O O7 0.655450 0.196334 0.333422
O O8 0.750000 0.750000 0.391210
O O9 0.530441 0.750000 0.250000
O O10 0.524132 0.776953 0.501141
O O11 0.423509 0.250000 0.250000
#
# Coordination Sequence:
#
# PCOD8201431 Si02
#       5
#     8   8   2   8   8
#     4  10  23  38  57  87 117 154 198 238 285 348
#     4  10  21  38  59  83 120 153 188 243 289 342
#     4   8  20  36  48  84 112 144 174 248 288 328
#     4  10  19  35  59  87 111 145 191 239 286 341
#     4   9  21  34  59  82 115 144 195 238 286 335
#
# _framework density 17.840765999999999
#
# number of rings (size 3 to 8) (size 9 to 14) (size 15 to 20)
#    0.706    1.647    2.353    0.000    8.235    0.941 
#    0.000    7.647    0.000    0.000    0.000    0.000 
#    0.000    0.000    0.000    0.000    0.000    0.000 
#
# Total GULP energy -421339.677138 kJ/mol
# GULP energy per Si atom -12392.343445 kJ/mol
# Density = 1.780016 g / cm^3
# Si number density = 17.840766 Si / 1000 Ang^3
#
#
#
# Elastic Constant Matrix: (Units=GPa)
#
#
# Indices 1 2 3 4 5 6 
#
# 1 124.7199 54.8479 88.3912 0.0000 0.0000 0.0000
# 2 54.8479 89.9156 47.6154 0.0000 0.0000 0.0000
# 3 88.3912 47.6154 154.9455 0.0000 0.0000 0.0000
# 4 0.0000 0.0000 0.0000 25.5284 0.0000 0.0000
# 5 0.0000 0.0000 0.0000 0.0000 282.4516 0.0000
# 6 0.0000 0.0000 0.0000 0.0000 0.0000 -13.2108
#
#
#
# Elastic Compliance Matrix: (Units=1/GPa)
#
#
# Indices 1 2 3 4 5 6 
#
# 1 0.015597 -0.005736 -0.007135 0.000000 0.000000 0.000000
# 2 -0.005736 0.015392 -0.001458 0.000000 0.000000 0.000000
# 3 -0.007135 -0.001458 0.010972 0.000000 0.000000 0.000000
# 4 0.000000 0.000000 0.000000 0.039172 0.000000 0.000000
# 5 0.000000 0.000000 0.000000 0.000000 0.003540 0.000000
# 6 0.000000 0.000000 0.000000 0.000000 0.000000 -0.075695
#
#
# Mechanical properties :
#
#
# Convention : Reuss Voigt Hill
#
# Bulk Modulus (GPa) = 75.16493 83.47668 79.32081
# Shear Modulus (GPa) = 118.84676 70.86895 94.85785
#
# Velocity S-wave (km/s) = 8.17067 6.30946 7.29963
# Velocity P-wave (km/s) = 11.45581 9.99852 10.75189
#
# Compressibility (1/GPa) = 0.01330408
#
# Stress axis : x y z
#
# Youngs Moduli (GPa) = 64.11473 64.96692 91.13915
#
# Poissons Ratio (x) = 0.37263 0.65028
# Poissons Ratio (y) = 0.36774 0.13289
# Poissons Ratio (z) = 0.45746 0.09473
#
# Static dielectric constant tensor:
#      x y z
#    x 3.156310 0.000000 0.000000 
#    y 0.000000 3.260610 0.000000 
#    z 0.000000 0.000000 3.848410 
# 
# 
# High freq. dielectric constant tensor:
#      x y z
#    x 1.672960 0.000000 0.000000 
#    y 0.000000 1.692820 0.000000 
#    z 0.000000 0.000000 1.702600 
# 
# From -- ./inp_files/18401.got.cif
#   From: 2010.06.25/outbox.cif.g09.slc.cpg/sg48_10_cif.got.tgz:18401.got - 2010.06.26 18:06:46.
