data_PCOD8201790
_publ_section_title
;
Structure prediction by ZEFSAII (Michael W. Deem and Ramdas Pophale) SiO2 
 PCOD8201790
Probable space group: P N N N
;
_chemical_formula_sum "Si O2"
_cell_formula_units_Z 36
_cell_length_a 5.176698
_cell_length_b 12.359052
_cell_length_c 22.044239
_cell_angle_alpha 90.000000
_cell_angle_beta 90.000000
_cell_angle_gamma 90.000000
_cell_volume 1410.370125
_symmetry_space_group_name_H-M "P N N N"
_symmetry_group_IT_number 48
_space_group.IT_coordinate_system_code '2'
_symmetry_cell_setting 'orthorhombic'
loop_
_space_group_symop_operation_xyz
x,y,z
1/2-x,1/2-y,z
x,1/2-y,1/2-z
1/2-x,y,1/2-z
-x,-y,-z
1/2+x,1/2+y,-z
-x,1/2+y,1/2+z
1/2+x,-y,1/2+z
loop_
_atom_site_type_symbol
_atom_site_label
_atom_site_fract_x
_atom_site_fract_y
_atom_site_fract_z
Si Si1 0.998134 0.130827 0.277396
Si Si2 0.998134 0.130827 0.777396
Si Si3 0.527258 0.426230 0.915331
Si Si4 0.472743 0.573769 0.584669
Si Si5 0.250000 0.750000 1.000000
O O1 0.998596 0.250000 0.250000
O O2 0.250000 0.071017 0.250000
O O3 0.982176 0.128106 0.349534
O O4 0.750000 0.068832 0.250000
O O5 0.998596 0.250000 0.750000
O O6 0.750000 0.068832 0.750000
O O7 0.982172 0.128106 0.849534
O O8 0.250000 0.071018 0.750000
O O9 0.760063 0.510691 0.926227
O O10 0.559714 0.325307 0.960409
O O11 0.739936 0.510691 0.073775
O O12 0.440285 0.674692 0.539591
#
# Coordination Sequence:
#
# PCOD8201790 Si02
#       5
#     8   8   8   8   4
#     4  10  21  41  69 104 144 190 238 296 372 440
#     4  10  21  41  69 104 144 190 238 296 372 440
#     4  12  28  48  75 110 147 196 253 308 370 445
#     4  12  28  48  75 110 147 196 253 308 370 445
#     4  12  28  54  78 104 156 202 256 316 372 436
#
# _framework density 25.525217000000001
#
# number of rings (size 3 to 8) (size 9 to 14) (size 15 to 20)
#    0.000    0.889    0.000    6.667    0.000   12.444 
#    0.000    0.000    0.000    0.000    0.000    0.000 
#    0.000    0.000    0.000    0.000    0.000    0.000 
#
# Total GULP energy -446052.307463 kJ/mol
# GULP energy per Si atom -12390.341874 kJ/mol
# Density = 2.546712 g / cm^3
# Si number density = 25.525217 Si / 1000 Ang^3
#
#
#
# Elastic Constant Matrix: (Units=GPa)
#
#
# Indices 1 2 3 4 5 6 
#
# 1 210.9271 2.2920 42.3281 0.0000 0.0000 0.0000
# 2 2.2920 174.8405 73.6909 0.0000 0.0000 0.0000
# 3 42.3281 73.6909 207.6385 0.0000 0.0000 0.0000
# 4 0.0000 0.0000 0.0000 54.9543 0.0000 0.0000
# 5 0.0000 0.0000 0.0000 0.0000 13.9455 0.0000
# 6 0.0000 0.0000 0.0000 0.0000 0.0000 -712.9778
#
#
#
# Elastic Compliance Matrix: (Units=1/GPa)
#
#
# Indices 1 2 3 4 5 6 
#
# 1 0.004970 0.000426 -0.001164 0.000000 0.000000 0.000000
# 2 0.000426 0.006762 -0.002487 0.000000 0.000000 0.000000
# 3 -0.001164 -0.002487 0.005936 0.000000 0.000000 0.000000
# 4 0.000000 0.000000 0.000000 0.018197 0.000000 0.000000
# 5 0.000000 0.000000 0.000000 0.000000 0.071708 0.000000
# 6 0.000000 0.000000 0.000000 0.000000 0.000000 -0.001403
#
#
# Mechanical properties :
#
#
# Convention : Reuss Voigt Hill
#
# Bulk Modulus (GPa) = 89.14755 92.22535 90.68645
# Shear Modulus (GPa) = 42.97030 -97.14259 -27.08615
#
# Velocity S-wave (km/s) = 4.10743 -6.17577 -3.26107
# Velocity P-wave (km/s) = 7.58260 3.82674 4.62881
#
# Compressibility (1/GPa) = 0.01121736
#
# Stress axis : x y z
#
# Youngs Moduli (GPa) = 201.20839 147.88651 168.46755
#
# Poissons Ratio (x) = -0.06293 0.19612
# Poissons Ratio (y) = -0.08562 0.41890
# Poissons Ratio (z) = 0.23424 0.36773
#
# Static dielectric constant tensor:
#      x y z
#    x 5.589820 0.000000 0.000000 
#    y 0.000000 4.647690 0.000000 
#    z 0.000000 0.000000 4.754930 
# 
# 
# High freq. dielectric constant tensor:
#      x y z
#    x 2.038790 0.000000 0.000000 
#    y 0.000000 2.078780 0.000000 
#    z 0.000000 0.000000 2.021830 
# 
# From -- ./inp_files/32729.got.cif
#   From: 2010.06.25/outbox.cif.g09.slc.cpg/sg48_17_cif.got.tgz:32729.got - 2010.06.26 18:06:46.
