data_PCOD8201082
_publ_section_title
;
Structure prediction by ZEFSAII (Michael W. Deem and Ramdas Pophale) SiO2 
 PCOD8201082
Probable space group: P M M M
;
_chemical_formula_sum "Si O2"
_cell_formula_units_Z 44
_cell_length_a 28.445634
_cell_length_b 9.824778
_cell_length_c 9.400746
_cell_angle_alpha 90.000000
_cell_angle_beta 90.000000
_cell_angle_gamma 90.000000
_cell_volume 2627.245654
_symmetry_space_group_name_H-M "P M M M"
_symmetry_group_IT_number 47
_symmetry_cell_setting 'orthorhombic'
loop_
_space_group_symop_operation_xyz
x,y,z
-x,-y,z
x,-y,-z
-x,y,-z
-x,-y,-z
x,y,-z
-x,y,z
x,-y,z
loop_
_atom_site_type_symbol
_atom_site_label
_atom_site_fract_x
_atom_site_fract_y
_atom_site_fract_z
Si Si1 0.909704 0.841540 0.333741
Si Si2 0.000000 0.838423 0.839040
Si Si3 0.448357 0.161668 0.840118
Si Si4 0.277746 0.652716 0.330985
Si Si5 0.360105 0.842932 0.332789
Si Si6 0.826433 0.652229 0.331114
O O1 0.919476 0.813653 0.500000
O O2 0.864666 0.759534 0.274650
O O3 0.954180 0.786860 0.245149
O O4 0.899921 0.000000 0.305857
O O5 0.000000 0.000000 0.840572
O O6 0.000000 0.780395 0.000000
O O7 0.500000 0.214643 0.790210
O O8 0.407588 0.217119 0.737215
O O9 0.448458 0.000000 0.835302
O O10 0.438170 0.212677 0.000000
O O11 0.277818 0.659269 0.500000
O O12 0.290489 0.500000 0.280170
O O13 0.316020 0.758375 0.270531
O O14 0.225615 0.692864 0.274688
O O15 0.365782 0.823222 0.500000
O O16 0.351586 0.000000 0.292089
O O17 0.825878 0.655421 0.500000
O O18 0.839427 0.500000 0.278320
#
# Coordination Sequence:
#
# PCOD8201082 Si02
#       6
#     8   4   8   8   8   8
#     4   9  16  26  43  66  86 104 133 173 206 230
#     4   9  17  29  44  61  84 114 140 161 196 248
#     4   8  14  25  40  57  79 108 137 163 198 245
#     4   8  14  25  40  58  83 113 137 158 195 247
#     4   9  16  24  38  63  87 103 128 170 207 231
#     4   8  14  25  41  61  84 109 136 165 199 240
#
# _framework density 16.747577
#
# number of rings (size 3 to 8) (size 9 to 14) (size 15 to 20)
#    0.000    3.545    0.000    1.909    0.000    2.182 
#    0.000    5.909    0.000    5.455    0.000   11.455 
#    0.000    0.000    0.000    0.000    0.000    0.000 
#
# Total GULP energy -545258.473517 kJ/mol
# GULP energy per Si atom -12392.238034 kJ/mol
# Density = 1.670946 g / cm^3
# Si number density = 16.747577 Si / 1000 Ang^3
#
#
#
# Elastic Constant Matrix: (Units=GPa)
#
#
# Indices 1 2 3 4 5 6 
#
# 1 184.5136 75.4072 49.6632 0.0000 0.0000 0.0000
# 2 75.4072 62.1188 25.0287 0.0000 0.0000 0.0000
# 3 49.6632 25.0287 39.1874 0.0000 0.0000 0.0000
# 4 0.0000 0.0000 0.0000 6.8763 0.0000 0.0000
# 5 0.0000 0.0000 0.0000 0.0000 5.0157 0.0000
# 6 0.0000 0.0000 0.0000 0.0000 0.0000 11.7819
#
#
#
# Elastic Compliance Matrix: (Units=1/GPa)
#
#
# Indices 1 2 3 4 5 6 
#
# 1 0.012468 -0.011808 -0.008260 0.000000 0.000000 0.000000
# 2 -0.011808 0.032858 -0.006022 0.000000 0.000000 0.000000
# 3 -0.008260 -0.006022 0.039833 0.000000 0.000000 0.000000
# 4 0.000000 0.000000 0.000000 0.145428 0.000000 0.000000
# 5 0.000000 0.000000 0.000000 0.000000 0.199375 0.000000
# 6 0.000000 0.000000 0.000000 0.000000 0.000000 0.084876
#
#
# Mechanical properties :
#
#
# Convention : Reuss Voigt Hill
#
# Bulk Modulus (GPa) = 30.32171 65.11312 47.71741
# Shear Modulus (GPa) = 8.65035 13.78281 11.21658
#
# Velocity S-wave (km/s) = 2.27516 2.87186 2.59075
# Velocity P-wave (km/s) = 5.00462 7.06826 6.12399
#
# Compressibility (1/GPa) = 0.03297967
#
# Stress axis : x y z
#
# Youngs Moduli (GPa) = 80.20237 30.43400 25.10476
#
# Poissons Ratio (x) = 0.35935 0.20737
# Poissons Ratio (y) = 0.94699 0.15119
# Poissons Ratio (z) = 0.66249 0.18328
#
# Static dielectric constant tensor:
#      x y z
#    x 3.657700 0.000000 0.000000 
#    y 0.000000 2.996760 0.000000 
#    z 0.000000 0.000000 2.835470 
# 
# 
# High freq. dielectric constant tensor:
#      x y z
#    x 1.661160 0.000000 0.000000 
#    y 0.000000 1.613810 0.000000 
#    z 0.000000 0.000000 1.602220 
# 
# From -- ./inp_files/2299.got.cif
#   From: 2010.03.12/outbox.cif.g09.slc.cpg/sg47_2_cif.got.tgz:2299.got - 2010.04.14 03:12:58.
