data_PCOD8201175
_publ_section_title
;
Structure prediction by ZEFSAII (Michael W. Deem and Ramdas Pophale) SiO2 
 PCOD8201175
Probable space group: P M M M
;
_chemical_formula_sum "Si O2"
_cell_formula_units_Z 36
_cell_length_a 10.059214
_cell_length_b 19.048706
_cell_length_c 12.308014
_cell_angle_alpha 90.000000
_cell_angle_beta 90.000000
_cell_angle_gamma 90.000000
_cell_volume 2358.400227
_symmetry_space_group_name_H-M "P M M M"
_symmetry_group_IT_number 47
_symmetry_cell_setting 'orthorhombic'
loop_
_space_group_symop_operation_xyz
x,y,z
-x,-y,z
x,-y,-z
-x,y,-z
-x,-y,-z
x,y,-z
-x,y,z
x,-y,z
loop_
_atom_site_type_symbol
_atom_site_label
_atom_site_fract_x
_atom_site_fract_y
_atom_site_fract_z
Si Si1 0.347534 0.081852 0.691009
Si Si2 0.653941 0.189019 0.877083
Si Si3 0.500000 0.578553 0.870131
Si Si4 0.252179 0.337059 0.129262
Si Si5 0.000000 0.579906 0.129748
Si Si6 0.846831 0.083195 0.500000
O O1 0.500000 0.096163 0.651088
O O2 0.316400 0.122377 0.802171
O O3 0.238960 0.108588 0.603767
O O4 0.328424 0.000000 0.715677
O O5 0.500000 0.211637 0.873056
O O6 0.739376 0.255644 0.834360
O O7 0.694424 0.168307 0.000000
O O8 0.500000 0.500000 0.823871
O O9 0.373620 0.618837 0.822611
O O10 0.500000 0.577805 0.000000
O O11 0.123449 0.376046 0.175617
O O12 0.255506 0.339301 0.000000
O O13 0.000000 0.500000 0.174718
O O14 0.000000 0.577507 0.000000
O O15 0.000000 0.112858 0.500000
O O16 0.853116 0.000000 0.500000
#
# Coordination Sequence:
#
# PCOD8201175 Si02
#       6
#     8   8   4   8   4   4
#     4   9  17  29  47  68  87 112 146 181 217 256
#     4   9  16  27  42  61  88 120 150 179 210 249
#     4   9  14  20  34  52  69  98 141 178 205 240
#     4   9  15  24  35  50  75 108 142 174 209 248
#     4   9  16  24  34  50  73 102 141 184 215 242
#     4   9  17  31  49  67  87 107 134 179 230 269
#
# _framework density 15.264585
#
# number of rings (size 3 to 8) (size 9 to 14) (size 15 to 20)
#    0.000    3.000    1.111    1.000    0.000    4.444 
#    2.000    2.222    0.000    0.000    0.000    3.111 
#    0.000    0.000    0.000    6.000    0.000    2.778 
#
# Total GULP energy -446126.744964 kJ/mol
# GULP energy per Si atom -12392.409582 kJ/mol
# Density = 1.522984 g / cm^3
# Si number density = 15.264585 Si / 1000 Ang^3
#
#
#
# Elastic Constant Matrix: (Units=GPa)
#
#
# Indices 1 2 3 4 5 6 
#
# 1 116.9378 52.5442 36.7419 0.0000 0.0000 0.0000
# 2 52.5442 92.2208 41.4360 0.0000 0.0000 0.0000
# 3 36.7419 41.4360 56.1792 0.0000 0.0000 0.0000
# 4 0.0000 0.0000 0.0000 1.8688 0.0000 0.0000
# 5 0.0000 0.0000 0.0000 0.0000 10.6046 0.0000
# 6 0.0000 0.0000 0.0000 0.0000 0.0000 24.0604
#
#
#
# Elastic Compliance Matrix: (Units=1/GPa)
#
#
# Indices 1 2 3 4 5 6 
#
# 1 0.012135 -0.005008 -0.004243 0.000000 0.000000 0.000000
# 2 -0.005008 0.018285 -0.010211 0.000000 0.000000 0.000000
# 3 -0.004243 -0.010211 0.028107 0.000000 0.000000 0.000000
# 4 0.000000 0.000000 0.000000 0.535107 0.000000 0.000000
# 5 0.000000 0.000000 0.000000 0.000000 0.094299 0.000000
# 6 0.000000 0.000000 0.000000 0.000000 0.000000 0.041562
#
#
# Mechanical properties :
#
#
# Convention : Reuss Voigt Hill
#
# Bulk Modulus (GPa) = 51.01336 58.53136 54.77236
# Shear Modulus (GPa) = 6.45202 16.28113 11.36657
#
# Velocity S-wave (km/s) = 2.05815 3.26942 2.73176
# Velocity P-wave (km/s) = 6.25619 7.25809 6.77569
#
# Compressibility (1/GPa) = 0.01960271
#
# Stress axis : x y z
#
# Youngs Moduli (GPa) = 82.40803 54.69042 35.57892
#
# Poissons Ratio (x) = 0.27387 0.15096
# Poissons Ratio (y) = 0.41267 0.36330
# Poissons Ratio (z) = 0.34964 0.55846
#
# Static dielectric constant tensor:
#      x y z
#    x 3.165980 0.000000 0.000000 
#    y 0.000000 2.927510 0.000000 
#    z 0.000000 0.000000 2.473980 
# 
# 
# High freq. dielectric constant tensor:
#      x y z
#    x 1.588650 0.000000 0.000000 
#    y 0.000000 1.584650 0.000000 
#    z 0.000000 0.000000 1.520010 
# 
# From -- ./inp_files/10609.got.cif
#   From: 2010.03.12/outbox.cif.g09.slc.cpg/sg47_6_cif.got.tgz:10609.got - 2010.04.14 03:12:58.
