data_PCOD8201899
_publ_section_title
;
Structure prediction by ZEFSAII (Michael W. Deem and Ramdas Pophale) SiO2 
 PCOD8201899
Probable space group: P N N N
;
_chemical_formula_sum "Si O2"
_cell_formula_units_Z 48
_cell_length_a 8.375125
_cell_length_b 29.972410
_cell_length_c 8.834523
_cell_angle_alpha 90.000000
_cell_angle_beta 90.000000
_cell_angle_gamma 90.000000
_cell_volume 2217.665643
_symmetry_space_group_name_H-M "P N N N"
_symmetry_group_IT_number 48
_space_group.IT_coordinate_system_code '2'
_symmetry_cell_setting 'orthorhombic'
loop_
_space_group_symop_operation_xyz
x,y,z
1/2-x,1/2-y,z
x,1/2-y,1/2-z
1/2-x,y,1/2-z
-x,-y,-z
1/2+x,1/2+y,-z
-x,1/2+y,1/2+z
1/2+x,-y,1/2+z
loop_
_atom_site_type_symbol
_atom_site_label
_atom_site_fract_x
_atom_site_fract_y
_atom_site_fract_z
Si Si1 0.250000 0.907181 0.250000
Si Si2 0.492341 0.639786 0.054220
Si Si3 0.563873 0.385354 0.267027
Si Si4 0.009435 0.448671 0.961010
Si Si5 0.250000 0.405880 0.750000
Si Si6 0.075574 0.292551 0.171465
Si Si7 0.066460 0.741942 0.426276
O O1 0.174944 0.874633 0.125884
O O2 0.370410 0.938405 0.158571
O O3 0.628390 0.627665 0.171860
O O4 0.488299 0.692378 0.021746
O O5 0.519398 0.612159 0.898187
O O6 0.750000 0.393928 0.250000
O O7 0.493573 0.421428 0.382236
O O8 0.531105 0.336246 0.329104
O O9 0.174444 0.437760 0.876970
O O10 0.000000 0.500000 0.000000
O O11 0.988536 0.250000 0.250000
O O12 0.250000 0.299872 0.250000
O O13 0.064519 0.276613 0.996511
O O14 0.250000 0.750000 0.478952
O O15 0.051864 0.750000 0.250000
#
# Coordination Sequence:
#
# PCOD8201899 Si02
#       7
#     4   8   8   8   4   8   8
#     4  10  22  46  69 102 144 174 233 284 350 424
#     4  11  23  44  69 105 142 186 234 289 349 427
#     4  12  25  43  73 100 135 185 235 285 354 418
#     4  11  27  47  75 103 141 181 233 295 359 431
#     4  10  28  44  71 106 140 182 227 296 364 412
#     4  11  26  43  63 101 143 182 233 290 340 414
#     4  11  24  41  71 102 140 189 241 283 344 418
#
# _framework density 21.644380999999999
#
# number of rings (size 3 to 8) (size 9 to 14) (size 15 to 20)
#    0.000    1.000    3.333    2.000    8.167    1.333 
#    0.000    3.333    0.000    0.000    0.000    0.000 
#    0.000    0.000    0.000    0.000    0.000    0.000 
#
# Total GULP energy -594976.845055 kJ/mol
# GULP energy per Si atom -12395.350939 kJ/mol
# Density = 2.159512 g / cm^3
# Si number density = 21.644381 Si / 1000 Ang^3
#
#
#
# Elastic Constant Matrix: (Units=GPa)
#
#
# Indices 1 2 3 4 5 6 
#
# 1 77.5182 29.6300 35.2117 0.0000 0.0000 0.0000
# 2 29.6300 131.2496 54.3317 0.0000 0.0000 0.0000
# 3 35.2117 54.3317 142.6316 0.0000 0.0000 0.0000
# 4 0.0000 0.0000 0.0000 41.0111 0.0000 0.0000
# 5 0.0000 0.0000 0.0000 0.0000 31.4693 0.0000
# 6 0.0000 0.0000 0.0000 0.0000 0.0000 17.7961
#
#
#
# Elastic Compliance Matrix: (Units=1/GPa)
#
#
# Indices 1 2 3 4 5 6 
#
# 1 0.015050 -0.002208 -0.002874 0.000000 0.000000 0.000000
# 2 -0.002208 0.009369 -0.003024 0.000000 0.000000 0.000000
# 3 -0.002874 -0.003024 0.008873 0.000000 0.000000 0.000000
# 4 0.000000 0.000000 0.000000 0.024384 0.000000 0.000000
# 5 0.000000 0.000000 0.000000 0.000000 0.031777 0.000000
# 6 0.000000 0.000000 0.000000 0.000000 0.000000 0.056192
#
#
# Mechanical properties :
#
#
# Convention : Reuss Voigt Hill
#
# Bulk Modulus (GPa) = 58.54968 65.52735 62.03852
# Shear Modulus (GPa) = 29.84194 33.53704 31.68949
#
# Velocity S-wave (km/s) = 3.71716 3.94058 3.83050
# Velocity P-wave (km/s) = 6.74778 7.14455 6.94900
#
# Compressibility (1/GPa) = 0.01707951
#
# Stress axis : x y z
#
# Youngs Moduli (GPa) = 66.44658 106.73228 112.70688
#
# Poissons Ratio (x) = 0.23563 0.32396
# Poissons Ratio (y) = 0.14669 0.34082
# Poissons Ratio (z) = 0.19099 0.32275
#
# Static dielectric constant tensor:
#      x y z
#    x 4.283860 0.000000 0.000000 
#    y 0.000000 3.825500 0.000000 
#    z 0.000000 0.000000 3.802520 
# 
# 
# High freq. dielectric constant tensor:
#      x y z
#    x 1.846680 0.000000 0.000000 
#    y 0.000000 1.839280 0.000000 
#    z 0.000000 0.000000 1.878240 
# 
# From -- ./inp_files/9534.got.cif
#   From: 2010.06.25/outbox.cif.g09.slc.cpg/sg48_5_cif.got.tgz:9534.got - 2010.06.26 18:06:46.
