data_PCOD8201701
_publ_section_title
;
Structure prediction by ZEFSAII (Michael W. Deem and Ramdas Pophale) SiO2 
 PCOD8201701
Probable space group: P N N N
;
_chemical_formula_sum "Si O2"
_cell_formula_units_Z 48
_cell_length_a 12.018793
_cell_length_b 14.763423
_cell_length_c 13.153815
_cell_angle_alpha 90.000000
_cell_angle_beta 90.000000
_cell_angle_gamma 90.000000
_cell_volume 2333.993532
_symmetry_space_group_name_H-M "P N N N"
_symmetry_group_IT_number 48
_space_group.IT_coordinate_system_code '2'
_symmetry_cell_setting 'orthorhombic'
loop_
_space_group_symop_operation_xyz
x,y,z
1/2-x,1/2-y,z
x,1/2-y,1/2-z
1/2-x,y,1/2-z
-x,-y,-z
1/2+x,1/2+y,-z
-x,1/2+y,1/2+z
1/2+x,-y,1/2+z
loop_
_atom_site_type_symbol
_atom_site_label
_atom_site_fract_x
_atom_site_fract_y
_atom_site_fract_z
Si Si1 0.128571 0.766195 0.489284
Si Si2 0.888178 0.959582 0.946537
Si Si3 0.845880 0.907162 0.521111
Si Si4 0.542448 0.429196 0.618902
Si Si5 0.641167 0.124864 0.686118
Si Si6 0.570651 0.737681 0.869843
O O1 0.250000 0.750000 0.533108
O O2 0.125625 0.867774 0.447915
O O3 0.100027 0.699847 0.394248
O O4 0.051022 0.756749 0.586282
O O5 0.778795 0.936429 0.014657
O O6 0.911329 0.867905 0.887728
O O7 0.835297 0.031243 0.869779
O O8 0.000000 0.000000 0.000000
O O9 0.844486 0.806008 0.571413
O O10 0.916344 0.913753 0.417615
O O11 0.909756 0.969680 0.604925
O O12 0.541441 0.396005 0.735439
O O13 0.750000 0.156029 0.750000
O O14 0.577590 0.750000 0.750000
#
# Coordination Sequence:
#
# PCOD8201701 Si02
#       6
#     8   8   8   8   8   8
#     4  11  21  37  62  97 132 160 212 281 329 387
#     4  12  24  42  64  95 134 168 225 282 322 390
#     4  10  22  42  62  91 129 172 216 265 329 399
#     4  10  21  36  64  93 124 165 213 263 329 393
#     4  12  21  37  66 100 122 165 222 276 330 388
#     4  11  25  41  64  93 132 179 218 267 335 403
#
# _framework density 20.56561
#
# number of rings (size 3 to 8) (size 9 to 14) (size 15 to 20)
#    0.000    1.000    5.000    2.000    0.000    1.000 
#    0.000    0.833    3.667    0.000    0.000    0.000 
#    0.000    0.000    0.000    0.000    0.000    0.000 
#
# Total GULP energy -594717.754584 kJ/mol
# GULP energy per Si atom -12389.953220 kJ/mol
# Density = 2.051880 g / cm^3
# Si number density = 20.565610 Si / 1000 Ang^3
#
#
#
# Elastic Constant Matrix: (Units=GPa)
#
#
# Indices 1 2 3 4 5 6 
#
# 1 123.6657 26.5048 42.1439 0.0000 0.0000 0.0000
# 2 26.5048 118.9903 17.2121 0.0000 0.0000 0.0000
# 3 42.1439 17.2121 73.3823 0.0000 0.0000 0.0000
# 4 0.0000 0.0000 0.0000 23.2637 0.0000 0.0000
# 5 0.0000 0.0000 0.0000 0.0000 14.2093 0.0000
# 6 0.0000 0.0000 0.0000 0.0000 0.0000 31.5554
#
#
#
# Elastic Compliance Matrix: (Units=1/GPa)
#
#
# Indices 1 2 3 4 5 6 
#
# 1 0.010303 -0.001490 -0.005568 0.000000 0.000000 0.000000
# 2 -0.001490 0.008915 -0.001235 0.000000 0.000000 0.000000
# 3 -0.005568 -0.001235 0.017115 0.000000 0.000000 0.000000
# 4 0.000000 0.000000 0.000000 0.042985 0.000000 0.000000
# 5 0.000000 0.000000 0.000000 0.000000 0.070376 0.000000
# 6 0.000000 0.000000 0.000000 0.000000 0.000000 0.031690
#
#
# Mechanical properties :
#
#
# Convention : Reuss Voigt Hill
#
# Bulk Modulus (GPa) = 50.64143 54.19554 52.41849
# Shear Modulus (GPa) = 24.44370 29.15086 26.79728
#
# Velocity S-wave (km/s) = 3.45131 3.76900 3.61364
# Velocity P-wave (km/s) = 6.36866 6.73425 6.55401
#
# Compressibility (1/GPa) = 0.01974668
#
# Stress axis : x y z
#
# Youngs Moduli (GPa) = 97.05932 112.17600 58.42969
#
# Poissons Ratio (x) = 0.16710 0.32532
# Poissons Ratio (y) = 0.14458 0.07219
# Poissons Ratio (z) = 0.54039 0.13859
#
# Static dielectric constant tensor:
#      x y z
#    x 4.047310 0.000000 0.000000 
#    y 0.000000 4.144360 0.000000 
#    z 0.000000 0.000000 4.451380 
# 
# 
# High freq. dielectric constant tensor:
#      x y z
#    x 1.801290 0.000000 0.000000 
#    y 0.000000 1.834470 0.000000 
#    z 0.000000 0.000000 1.775660 
# 
# From -- ./inp_files/26465.got.cif
#   From: 2010.06.25/outbox.cif.g09.slc.cpg/sg48_14_cif.got.tgz:26465.got - 2010.06.26 18:06:46.
