data_PCOD8201563
_publ_section_title
;
Structure prediction by ZEFSAII (Michael W. Deem and Ramdas Pophale) SiO2 
 PCOD8201563
Probable space group: P N N N
;
_chemical_formula_sum "Si O2"
_cell_formula_units_Z 64
_cell_length_a 25.419720
_cell_length_b 14.478918
_cell_length_c 9.051471
_cell_angle_alpha 90.000000
_cell_angle_beta 90.000000
_cell_angle_gamma 90.000000
_cell_volume 3331.394277
_symmetry_space_group_name_H-M "P N N N"
_symmetry_group_IT_number 48
_space_group.IT_coordinate_system_code '2'
_symmetry_cell_setting 'orthorhombic'
loop_
_space_group_symop_operation_xyz
x,y,z
1/2-x,1/2-y,z
x,1/2-y,1/2-z
1/2-x,y,1/2-z
-x,-y,-z
1/2+x,1/2+y,-z
-x,1/2+y,1/2+z
1/2+x,-y,1/2+z
loop_
_atom_site_type_symbol
_atom_site_label
_atom_site_fract_x
_atom_site_fract_y
_atom_site_fract_z
Si Si1 0.842550 0.907018 0.096213
Si Si2 0.070502 0.983073 0.003394
Si Si3 0.576049 0.750617 0.423141
Si Si4 0.540566 0.276418 0.920902
Si Si5 0.506101 0.989313 0.754851
Si Si6 0.061961 0.909536 0.512210
Si Si7 0.361578 0.423867 0.561909
Si Si8 0.756927 0.858345 0.579395
O O1 0.878277 0.823146 0.032293
O O2 0.839780 0.908971 0.272991
O O3 0.869035 0.001377 0.037526
O O4 0.784950 0.906827 0.027428
O O5 0.035900 0.027403 0.868142
O O6 0.064030 0.875213 0.037939
O O7 0.055535 0.041154 0.152967
O O8 0.570878 0.750000 0.250000
O O9 0.518667 0.773578 0.488598
O O10 0.592413 0.648445 0.477945
O O11 0.541920 0.250000 0.750000
O O12 0.577347 0.197997 0.998944
O O13 0.525673 0.067435 0.868970
O O14 0.475886 0.910910 0.844242
O O15 0.113128 0.974892 0.531920
O O16 0.313235 0.402158 0.455824
O O17 0.750000 0.750000 0.547970
O O18 0.750000 0.882124 0.750000
#
# Coordination Sequence:
#
# PCOD8201563 Si02
#       8
#     8   8   8   8   8   8   8   8
#     4  11  22  40  63  87 120 167 206 249 305 363
#     4  11  22  37  58  90 125 165 208 254 300 364
#     4   9  18  31  57  86 118 162 204 236 287 359
#     4  11  22  37  56  89 128 172 209 242 298 369
#     4  10  20  36  58  86 126 162 208 252 298 358
#     4  11  22  37  58  90 125 165 208 254 300 364
#     4  11  22  40  63  87 120 167 206 249 305 363
#     4  11  25  43  61  94 123 148 203 265 310 362
#
# _framework density 19.211175999999998
#
# number of rings (size 3 to 8) (size 9 to 14) (size 15 to 20)
#    0.000    1.375    3.750    3.375    5.250    1.000 
#    0.000    1.250    0.000    0.750    0.000    3.500 
#    0.000    0.000    0.000    0.000    0.000    0.000 
#
# Total GULP energy -792914.497154 kJ/mol
# GULP energy per Si atom -12389.289018 kJ/mol
# Density = 1.916745 g / cm^3
# Si number density = 19.211176 Si / 1000 Ang^3
#
#
#
# Elastic Constant Matrix: (Units=GPa)
#
#
# Indices 1 2 3 4 5 6 
#
# 1 88.9771 53.7945 35.8049 0.0000 0.0000 0.0000
# 2 53.7945 95.0877 29.7307 0.0000 0.0000 0.0000
# 3 35.8049 29.7307 105.9161 0.0000 0.0000 0.0000
# 4 0.0000 0.0000 0.0000 20.5996 0.0000 0.0000
# 5 0.0000 0.0000 0.0000 0.0000 25.7746 0.0000
# 6 0.0000 0.0000 0.0000 0.0000 0.0000 22.6374
#
#
#
# Elastic Compliance Matrix: (Units=1/GPa)
#
#
# Indices 1 2 3 4 5 6 
#
# 1 0.018244 -0.009200 -0.003585 0.000000 0.000000 0.000000
# 2 -0.009200 0.016168 -0.001428 0.000000 0.000000 0.000000
# 3 -0.003585 -0.001428 0.011054 0.000000 0.000000 0.000000
# 4 0.000000 0.000000 0.000000 0.048545 0.000000 0.000000
# 5 0.000000 0.000000 0.000000 0.000000 0.038798 0.000000
# 6 0.000000 0.000000 0.000000 0.000000 0.000000 0.044175
#
#
# Mechanical properties :
#
#
# Convention : Reuss Voigt Hill
#
# Bulk Modulus (GPa) = 58.68742 58.73788 58.71265
# Shear Modulus (GPa) = 23.68661 25.17904 24.43283
#
# Velocity S-wave (km/s) = 3.51516 3.62421 3.57010
# Velocity P-wave (km/s) = 6.86222 6.93934 6.90089
#
# Compressibility (1/GPa) = 0.01703943
#
# Stress axis : x y z
#
# Youngs Moduli (GPa) = 54.81322 61.85012 90.46366
#
# Poissons Ratio (x) = 0.56904 0.32429
# Poissons Ratio (y) = 0.50430 0.12920
# Poissons Ratio (z) = 0.19649 0.08834
#
# Static dielectric constant tensor:
#      x y z
#    x 3.356530 0.000000 0.000000 
#    y 0.000000 3.435250 0.000000 
#    z 0.000000 0.000000 3.751140 
# 
# 
# High freq. dielectric constant tensor:
#      x y z
#    x 1.719000 0.000000 0.000000 
#    y 0.000000 1.731410 0.000000 
#    z 0.000000 0.000000 1.757500 
# 
# From -- ./inp_files/16048.got.cif
#   From: 2010.06.25/outbox.cif.g09.slc.cpg/sg48_9_cif.got.tgz:16048.got - 2010.06.26 18:06:46.
