data_PCOD8201496
_publ_section_title
;
Structure prediction by ZEFSAII (Michael W. Deem and Ramdas Pophale) SiO2 
 PCOD8201496
Probable space group: P N N N
;
_chemical_formula_sum "Si O2"
_cell_formula_units_Z 28
_cell_length_a 12.518328
_cell_length_b 12.516450
_cell_length_c 8.168126
_cell_angle_alpha 90.000000
_cell_angle_beta 90.000000
_cell_angle_gamma 90.000000
_cell_volume 1279.823039
_symmetry_space_group_name_H-M "P N N N"
_symmetry_group_IT_number 48
_space_group.IT_coordinate_system_code '2'
_symmetry_cell_setting 'orthorhombic'
loop_
_space_group_symop_operation_xyz
x,y,z
1/2-x,1/2-y,z
x,1/2-y,1/2-z
1/2-x,y,1/2-z
-x,-y,-z
1/2+x,1/2+y,-z
-x,1/2+y,1/2+z
1/2+x,-y,1/2+z
loop_
_atom_site_type_symbol
_atom_site_label
_atom_site_fract_x
_atom_site_fract_y
_atom_site_fract_z
Si Si1 0.667131 0.661020 0.559547
Si Si2 0.405993 0.250000 0.750000
Si Si3 0.477015 0.750000 0.750000
Si Si4 0.250000 0.529957 0.250000
Si Si5 0.060118 0.609922 0.461516
O O1 0.750000 0.750000 0.626649
O O2 0.663883 0.669791 0.361991
O O3 0.551355 0.673020 0.641316
O O4 0.706053 0.542651 0.602857
O O5 0.472201 0.181161 0.623892
O O6 0.406723 0.827039 0.629902
O O7 0.159895 0.601735 0.337369
O O8 0.000000 0.500000 0.500000
#
# Coordination Sequence:
#
# PCOD8201496 Si02
#       5
#     8   4   4   4   8
#     4  11  18  37  66 100 126 169 228 296 330 400
#     4  10  25  39  66  96 138 170 226 283 355 402
#     4  10  19  40  66  97 134 170 220 285 353 400
#     4  12  21  37  72  96 138 178 238 274 352 426
#     4  11  23  43  69  98 133 184 224 287 352 412
#
# _framework density 21.878025000000001
#
# number of rings (size 3 to 8) (size 9 to 14) (size 15 to 20)
#    0.000    1.143    5.714    2.143    0.000    1.714 
#    0.000    0.000    6.286    0.000    0.000    0.000 
#    0.000    0.000    0.000    0.000    0.000    0.000 
#
# Total GULP energy -346995.893255 kJ/mol
# GULP energy per Si atom -12392.710473 kJ/mol
# Density = 2.182823 g / cm^3
# Si number density = 21.878025 Si / 1000 Ang^3
#
#
#
# Elastic Constant Matrix: (Units=GPa)
#
#
# Indices 1 2 3 4 5 6 
#
# 1 70.9475 19.4619 42.1415 0.0000 0.0000 0.0000
# 2 19.4619 85.7487 50.0949 0.0000 0.0000 0.0000
# 3 42.1415 50.0949 170.3239 0.0000 0.0000 0.0000
# 4 0.0000 0.0000 0.0000 117.8689 0.0000 0.0000
# 5 0.0000 0.0000 0.0000 0.0000 37.8379 0.0000
# 6 0.0000 0.0000 0.0000 0.0000 0.0000 15.6160
#
#
#
# Elastic Compliance Matrix: (Units=1/GPa)
#
#
# Indices 1 2 3 4 5 6 
#
# 1 0.016718 -0.001664 -0.003647 0.000000 0.000000 0.000000
# 2 -0.001664 0.014247 -0.003779 0.000000 0.000000 0.000000
# 3 -0.003647 -0.003779 0.007885 0.000000 0.000000 0.000000
# 4 0.000000 0.000000 0.000000 0.008484 0.000000 0.000000
# 5 0.000000 0.000000 0.000000 0.000000 0.026428 0.000000
# 6 0.000000 0.000000 0.000000 0.000000 0.000000 0.064037
#
#
# Mechanical properties :
#
#
# Convention : Reuss Voigt Hill
#
# Bulk Modulus (GPa) = 48.37726 61.15740 54.76733
# Shear Modulus (GPa) = 30.69975 48.61936 39.65956
#
# Velocity S-wave (km/s) = 3.75003 4.71923 4.26227
# Velocity P-wave (km/s) = 6.39613 7.59667 7.02210
#
# Compressibility (1/GPa) = 0.02067087
#
# Stress axis : x y z
#
# Youngs Moduli (GPa) = 59.81753 70.18972 126.82563
#
# Poissons Ratio (x) = 0.11678 0.46252
# Poissons Ratio (y) = 0.09952 0.47923
# Poissons Ratio (z) = 0.21815 0.26522
#
# Static dielectric constant tensor:
#      x y z
#    x 3.763270 0.000000 0.000000 
#    y 0.000000 3.696190 0.000000 
#    z 0.000000 0.000000 4.389140 
# 
# 
# High freq. dielectric constant tensor:
#      x y z
#    x 1.834230 0.000000 0.000000 
#    y 0.000000 1.841360 0.000000 
#    z 0.000000 0.000000 1.889680 
# 
# From -- ./inp_files/10047.got.cif
#   From: 2010.06.25/outbox.cif.g09.slc.cpg/sg48_6_cif.got.tgz:10047.got - 2010.06.26 18:06:46.
