data_PCOD8201012
_publ_section_title
;
Structure prediction by ZEFSAII (Michael W. Deem and Ramdas Pophale) SiO2 
 PCOD8201012
Probable space group: P M M M
;
_chemical_formula_sum "Si O2"
_cell_formula_units_Z 56
_cell_length_a 20.982631
_cell_length_b 9.761002
_cell_length_c 18.231111
_cell_angle_alpha 90.000000
_cell_angle_beta 90.000000
_cell_angle_gamma 90.000000
_cell_volume 3733.941248
_symmetry_space_group_name_H-M "P M M M"
_symmetry_group_IT_number 47
_symmetry_cell_setting 'orthorhombic'
loop_
_space_group_symop_operation_xyz
x,y,z
-x,-y,z
x,-y,-z
-x,y,-z
-x,-y,-z
x,y,-z
-x,y,z
x,-y,z
loop_
_atom_site_type_symbol
_atom_site_label
_atom_site_fract_x
_atom_site_fract_y
_atom_site_fract_z
Si Si1 0.255200 0.848610 0.195379
Si Si2 0.798246 0.836972 0.581349
Si Si3 0.672891 0.838744 0.662931
Si Si4 0.805723 0.660124 0.916001
Si Si5 0.125358 0.152499 0.285276
Si Si6 0.574347 0.342997 0.583814
Si Si7 0.929186 0.343525 0.827774
O O1 0.312070 0.808095 0.251186
O O2 0.248668 0.740163 0.129344
O O3 0.191029 0.852173 0.241679
O O4 0.267877 0.000000 0.162081
O O5 0.809154 0.776587 0.500000
O O6 0.731003 0.783681 0.612717
O O7 0.857558 0.791913 0.633093
O O8 0.795716 0.000000 0.581042
O O9 0.610557 0.755599 0.640091
O O10 0.661058 0.000000 0.650818
O O11 0.792233 0.500000 0.906359
O O12 0.876839 0.699221 0.888238
O O13 0.801252 0.706296 0.000000
O O14 0.076288 0.253958 0.245984
O O15 0.095143 0.000000 0.288074
O O16 0.590810 0.302774 0.500000
O O17 0.500000 0.322374 0.598743
O O18 0.594061 0.500000 0.598602
O O19 0.918526 0.500000 0.804030
O O20 0.000000 0.321703 0.861331
#
# Coordination Sequence:
#
# PCOD8201012 Si02
#       7
#     8   8   8   8   8   8   8
#     4   8  15  27  41  59  82 105 129 160 201 242
#     4   8  13  22  38  59  79  97 121 160 207 243
#     4   9  16  26  42  62  81 104 138 174 202 235
#     4   9  17  28  42  61  83 105 130 159 191 233
#     4   8  14  25  40  56  74  97 125 158 195 235
#     4   9  18  30  40  54  83 120 150 175 205 237
#     4   9  17  28  41  56  75 101 130 159 193 231
#
# _framework density 14.997557
#
# number of rings (size 3 to 8) (size 9 to 14) (size 15 to 20)
#    0.000    3.429    0.000    2.571    0.000    2.571 
#    0.000    4.286    0.000    1.714    0.000    7.000 
#    0.000    0.571    0.000    6.286    0.000    4.571 
#
# Total GULP energy -694025.060142 kJ/mol
# GULP energy per Si atom -12393.304645 kJ/mol
# Density = 1.496342 g / cm^3
# Si number density = 14.997557 Si / 1000 Ang^3
#
#
#
# Elastic Constant Matrix: (Units=GPa)
#
#
# Indices 1 2 3 4 5 6 
#
# 1 50.7757 35.7019 38.9511 0.0000 0.0000 0.0000
# 2 35.7019 60.8315 51.1957 0.0000 0.0000 0.0000
# 3 38.9511 51.1957 112.1380 0.0000 0.0000 0.0000
# 4 0.0000 0.0000 0.0000 22.9522 0.0000 0.0000
# 5 0.0000 0.0000 0.0000 0.0000 19.2192 0.0000
# 6 0.0000 0.0000 0.0000 0.0000 0.0000 22.2441
#
#
#
# Elastic Compliance Matrix: (Units=1/GPa)
#
#
# Indices 1 2 3 4 5 6 
#
# 1 0.034875 -0.016683 -0.004497 0.000000 0.000000 0.000000
# 2 -0.016683 0.034677 -0.010037 0.000000 0.000000 0.000000
# 3 -0.004497 -0.010037 0.015062 0.000000 0.000000 0.000000
# 4 0.000000 0.000000 0.000000 0.043569 0.000000 0.000000
# 5 0.000000 0.000000 0.000000 0.000000 0.052031 0.000000
# 6 0.000000 0.000000 0.000000 0.000000 0.000000 0.044956
#
#
# Mechanical properties :
#
#
# Convention : Reuss Voigt Hill
#
# Bulk Modulus (GPa) = 45.08630 52.82696 48.95663
# Shear Modulus (GPa) = 16.94938 19.40954 18.17946
#
# Velocity S-wave (km/s) = 3.36541 3.60137 3.48539
# Velocity P-wave (km/s) = 6.72525 7.25213 6.99365
#
# Compressibility (1/GPa) = 0.02217969
#
# Stress axis : x y z
#
# Youngs Moduli (GPa) = 28.67413 28.83763 66.39300
#
# Poissons Ratio (x) = 0.48110 0.29858
# Poissons Ratio (y) = 0.47837 0.66636
# Poissons Ratio (z) = 0.12895 0.28943
#
# Static dielectric constant tensor:
#      x y z
#    x 2.662830 0.000000 0.000000 
#    y 0.000000 2.868800 0.000000 
#    z 0.000000 0.000000 3.032260 
# 
# 
# High freq. dielectric constant tensor:
#      x y z
#    x 1.542600 0.000000 0.000000 
#    y 0.000000 1.564400 0.000000 
#    z 0.000000 0.000000 1.562720 
# 
# From -- ./inp_files/9836.got.cif
#   From: 2010.03.12/outbox.cif.g09.slc.cpg/sg47_5_cif.got.tgz:9836.got - 2010.04.14 03:12:58.
