data_PCOD8201481
_publ_section_title
;
Structure prediction by ZEFSAII (Michael W. Deem and Ramdas Pophale) SiO2 
 PCOD8201481
Probable space group: P N N N
;
_chemical_formula_sum "Si O2"
_cell_formula_units_Z 64
_cell_length_a 14.412124
_cell_length_b 9.030353
_cell_length_c 24.014994
_cell_angle_alpha 90.000000
_cell_angle_beta 90.000000
_cell_angle_gamma 90.000000
_cell_volume 3125.469030
_symmetry_space_group_name_H-M "P N N N"
_symmetry_group_IT_number 48
_space_group.IT_coordinate_system_code '2'
_symmetry_cell_setting 'orthorhombic'
loop_
_space_group_symop_operation_xyz
x,y,z
1/2-x,1/2-y,z
x,1/2-y,1/2-z
1/2-x,y,1/2-z
-x,-y,-z
1/2+x,1/2+y,-z
-x,1/2+y,1/2+z
1/2+x,-y,1/2+z
loop_
_atom_site_type_symbol
_atom_site_label
_atom_site_fract_x
_atom_site_fract_y
_atom_site_fract_z
Si Si1 0.262461 0.923574 0.594476
Si Si2 0.787166 0.022377 0.971424
Si Si3 0.492695 0.699945 0.307117
Si Si4 0.462113 0.032742 0.615462
Si Si5 0.039285 0.726667 0.474656
Si Si6 0.197302 0.097043 0.695274
Si Si7 0.888452 0.037015 0.599770
Si Si8 0.919230 0.792068 0.922557
O O1 0.250000 0.750000 0.590764
O O2 0.241744 0.994520 0.533270
O O3 0.363406 0.957551 0.618647
O O4 0.195058 0.992263 0.640998
O O5 0.858131 0.158386 0.974957
O O6 0.714489 0.068572 0.923410
O O7 0.832659 0.864374 0.955190
O O8 0.443548 0.750000 0.250000
O O9 0.523407 0.848003 0.337686
O O10 0.587856 0.613730 0.292097
O O11 0.414303 0.607171 0.340371
O O12 0.470648 0.110124 0.555022
O O13 0.542311 0.908390 0.622761
O O14 0.040117 0.886048 0.443777
O O15 0.004242 0.748359 0.536662
O O16 0.250000 0.250000 0.680211
O O17 0.250000 0.029250 0.750000
O O18 0.894114 0.860809 0.606665
#
# Coordination Sequence:
#
# PCOD8201481 Si02
#       8
#     8   8   8   8   8   8   8   8
#     4  12  23  34  60  93 132 170 215 257 315 390
#     4  11  22  40  58  91 136 178 207 253 331 389
#     4  11  23  45  66  88 121 167 222 274 326 386
#     4  10  20  37  59  88 119 174 202 253 320 371
#     4  10  19  38  61  84 132 171 210 246 310 386
#     4  11  22  41  64  89 124 167 217 268 323 382
#     4  11  25  35  63  96 125 165 220 269 312 389
#     4  11  21  39  59  90 137 168 207 257 322 384
#
# _framework density 20.476928000000001
#
# number of rings (size 3 to 8) (size 9 to 14) (size 15 to 20)
#    0.000    1.125    5.000    2.625    1.750    3.250 
#    0.000    0.625    0.000   13.500    0.000    7.000 
#    0.000    0.000    0.000    0.000    0.000    0.000 
#
# Total GULP energy -793316.854673 kJ/mol
# GULP energy per Si atom -12395.575854 kJ/mol
# Density = 2.043032 g / cm^3
# Si number density = 20.476928 Si / 1000 Ang^3
#
#
#
# Elastic Constant Matrix: (Units=GPa)
#
#
# Indices 1 2 3 4 5 6 
#
# 1 77.2938 27.5000 49.1925 0.0000 0.0000 0.0000
# 2 27.5000 102.2721 38.3618 0.0000 0.0000 0.0000
# 3 49.1925 38.3618 130.8723 0.0000 0.0000 0.0000
# 4 0.0000 0.0000 0.0000 21.5650 0.0000 0.0000
# 5 0.0000 0.0000 0.0000 0.0000 32.7623 0.0000
# 6 0.0000 0.0000 0.0000 0.0000 0.0000 23.6768
#
#
#
# Elastic Compliance Matrix: (Units=1/GPa)
#
#
# Indices 1 2 3 4 5 6 
#
# 1 0.017567 -0.002524 -0.005863 0.000000 0.000000 0.000000
# 2 -0.002524 0.011348 -0.002378 0.000000 0.000000 0.000000
# 3 -0.005863 -0.002378 0.010542 0.000000 0.000000 0.000000
# 4 0.000000 0.000000 0.000000 0.046372 0.000000 0.000000
# 5 0.000000 0.000000 0.000000 0.000000 0.030523 0.000000
# 6 0.000000 0.000000 0.000000 0.000000 0.000000 0.042235
#
#
# Mechanical properties :
#
#
# Convention : Reuss Voigt Hill
#
# Bulk Modulus (GPa) = 55.78155 60.06076 57.92115
# Shear Modulus (GPa) = 26.86814 28.62641 27.74728
#
# Velocity S-wave (km/s) = 3.62625 3.74302 3.68509
# Velocity P-wave (km/s) = 6.69576 6.93360 6.81572
#
# Compressibility (1/GPa) = 0.01792708
#
# Stress axis : x y z
#
# Youngs Moduli (GPa) = 56.92355 88.11767 94.85977
#
# Poissons Ratio (x) = 0.22245 0.55619
# Poissons Ratio (y) = 0.14370 0.22554
# Poissons Ratio (z) = 0.33376 0.20951
#
# Static dielectric constant tensor:
#      x y z
#    x 3.704830 0.000000 0.000000 
#    y 0.000000 3.778260 0.000000 
#    z 0.000000 0.000000 3.752240 
# 
# 
# High freq. dielectric constant tensor:
#      x y z
#    x 1.792750 0.000000 0.000000 
#    y 0.000000 1.802270 0.000000 
#    z 0.000000 0.000000 1.779130 
# 
# From -- ./inp_files/36582.got.cif
#   From: 2010.06.25/outbox.cif.g09.slc.cpg/sg48_19_cif.got.tgz:36582.got - 2010.06.26 18:06:46.
