data_PCOD8201483
_publ_section_title
;
Structure prediction by ZEFSAII (Michael W. Deem and Ramdas Pophale) SiO2 
 PCOD8201483
Probable space group: P N N N
;
_chemical_formula_sum "Si O2"
_cell_formula_units_Z 48
_cell_length_a 10.034397
_cell_length_b 8.697571
_cell_length_c 27.652150
_cell_angle_alpha 90.000000
_cell_angle_beta 90.000000
_cell_angle_gamma 90.000000
_cell_volume 2413.338083
_symmetry_space_group_name_H-M "P N N N"
_symmetry_group_IT_number 48
_space_group.IT_coordinate_system_code '2'
_symmetry_cell_setting 'orthorhombic'
loop_
_space_group_symop_operation_xyz
x,y,z
1/2-x,1/2-y,z
x,1/2-y,1/2-z
1/2-x,y,1/2-z
-x,-y,-z
1/2+x,1/2+y,-z
-x,1/2+y,1/2+z
1/2+x,-y,1/2+z
loop_
_atom_site_type_symbol
_atom_site_label
_atom_site_fract_x
_atom_site_fract_y
_atom_site_fract_z
Si Si1 0.842968 0.107191 0.955481
Si Si2 0.009648 0.056683 0.797725
Si Si3 0.475058 0.087825 0.814945
Si Si4 0.254795 0.929841 0.350343
Si Si5 0.774246 0.072482 0.137880
Si Si6 0.648486 0.889719 0.455211
O O1 0.750000 0.250000 0.969581
O O2 0.796723 0.031509 0.905004
O O3 0.995309 0.168037 0.952245
O O4 0.825774 0.973517 0.994253
O O5 0.033284 0.227662 0.819167
O O6 0.030522 0.043084 0.740934
O O7 0.861724 0.999893 0.812679
O O8 0.115132 0.942048 0.820883
O O9 0.607045 0.010613 0.838190
O O10 0.355548 0.018517 0.845351
O O11 0.250000 0.750000 0.340985
O O12 0.750000 0.250000 0.129285
O O13 0.827369 0.008050 0.087638
O O14 0.750000 0.750000 0.450662
#
# Coordination Sequence:
#
# PCOD8201483 Si02
#       6
#     8   8   8   8   8   8
#     4  10  22  42  65  96 126 156 199 251 304 360
#     4  10  19  38  63  90 123 156 205 252 300 363
#     4  10  21  36  63  93 119 160 205 248 305 362
#     4   9  18  36  62  93 121 155 196 252 300 357
#     4  12  25  40  58  87 124 165 206 253 302 354
#     4  11  24  43  67  92 124 160 201 249 304 365
#
# _framework density 19.889462000000002
#
# number of rings (size 3 to 8) (size 9 to 14) (size 15 to 20)
#    0.000    1.667    1.667    3.000    4.667    5.333 
#    6.000    0.833    0.000    2.000    0.000    0.000 
#    0.000    0.000    0.000    0.000    0.000    0.000 
#
# Total GULP energy -595280.345854 kJ/mol
# GULP energy per Si atom -12401.673872 kJ/mol
# Density = 1.984419 g / cm^3
# Si number density = 19.889462 Si / 1000 Ang^3
#
#
#
# Elastic Constant Matrix: (Units=GPa)
#
#
# Indices 1 2 3 4 5 6 
#
# 1 146.5760 43.1231 42.3564 0.0000 0.0000 0.0000
# 2 43.1231 71.0909 30.2488 0.0000 0.0000 0.0000
# 3 42.3564 30.2488 65.4400 0.0000 0.0000 0.0000
# 4 0.0000 0.0000 0.0000 20.7234 0.0000 0.0000
# 5 0.0000 0.0000 0.0000 0.0000 43.2979 0.0000
# 6 0.0000 0.0000 0.0000 0.0000 0.0000 7.7862
#
#
#
# Elastic Compliance Matrix: (Units=1/GPa)
#
#
# Indices 1 2 3 4 5 6 
#
# 1 0.009136 -0.003767 -0.004172 0.000000 0.000000 0.000000
# 2 -0.003767 0.019063 -0.006374 0.000000 0.000000 0.000000
# 3 -0.004172 -0.006374 0.020928 0.000000 0.000000 0.000000
# 4 0.000000 0.000000 0.000000 0.048255 0.000000 0.000000
# 5 0.000000 0.000000 0.000000 0.000000 0.023096 0.000000
# 6 0.000000 0.000000 0.000000 0.000000 0.000000 0.128432
#
#
# Mechanical properties :
#
#
# Convention : Reuss Voigt Hill
#
# Bulk Modulus (GPa) = 48.77600 57.17370 52.97485
# Shear Modulus (GPa) = 17.58278 25.52011 21.55144
#
# Velocity S-wave (km/s) = 2.97648 3.58592 3.29532
# Velocity P-wave (km/s) = 6.03236 6.77888 6.41649
#
# Compressibility (1/GPa) = 0.02050189
#
# Stress axis : x y z
#
# Youngs Moduli (GPa) = 109.45391 52.45679 47.78292
#
# Poissons Ratio (x) = 0.19759 0.19937
# Poissons Ratio (y) = 0.41227 0.30456
# Poissons Ratio (z) = 0.45669 0.33435
#
# Static dielectric constant tensor:
#      x y z
#    x 4.047630 0.000000 0.000000 
#    y 0.000000 2.973230 0.000000 
#    z 0.000000 0.000000 3.736510 
# 
# 
# High freq. dielectric constant tensor:
#      x y z
#    x 1.799190 0.000000 0.000000 
#    y 0.000000 1.737610 0.000000 
#    z 0.000000 0.000000 1.793620 
# 
# From -- ./inp_files/38675.got.cif
#   From: 2010.06.25/outbox.cif.g09.slc.cpg/sg48_20_cif.got.tgz:38675.got - 2010.06.26 18:06:46.
