data_PCOD8201382
_publ_section_title
;
Structure prediction by ZEFSAII (Michael W. Deem and Ramdas Pophale) SiO2 
 PCOD8201382
Probable space group: P N N N
;
_chemical_formula_sum "Si O2"
_cell_formula_units_Z 56
_cell_length_a 19.820894
_cell_length_b 13.534685
_cell_length_c 11.922697
_cell_angle_alpha 90.000000
_cell_angle_beta 90.000000
_cell_angle_gamma 90.000000
_cell_volume 3198.496639
_symmetry_space_group_name_H-M "P N N N"
_symmetry_group_IT_number 48
_space_group.IT_coordinate_system_code '2'
_symmetry_cell_setting 'orthorhombic'
loop_
_space_group_symop_operation_xyz
x,y,z
1/2-x,1/2-y,z
x,1/2-y,1/2-z
1/2-x,y,1/2-z
-x,-y,-z
1/2+x,1/2+y,-z
-x,1/2+y,1/2+z
1/2+x,-y,1/2+z
loop_
_atom_site_type_symbol
_atom_site_label
_atom_site_fract_x
_atom_site_fract_y
_atom_site_fract_z
Si Si1 0.494257 0.542301 0.166346
Si Si2 0.143472 0.500489 0.937404
Si Si3 0.957991 0.959782 0.604966
Si Si4 0.623191 0.637443 0.231748
Si Si5 0.917313 0.108657 0.043304
Si Si6 0.437149 0.692569 0.635328
Si Si7 0.284654 0.980452 0.635018
O O1 0.461039 0.530976 0.287838
O O2 0.550637 0.629044 0.169268
O O3 0.533130 0.440809 0.135097
O O4 0.434382 0.564951 0.079060
O O5 0.118622 0.418570 0.849626
O O6 0.115186 0.604839 0.890811
O O7 0.223914 0.505832 0.952507
O O8 0.118535 0.464320 0.060066
O O9 0.986451 0.851148 0.636472
O O10 0.000000 0.000000 0.500000
O O11 0.643299 0.750000 0.250000
O O12 0.681342 0.586984 0.156916
O O13 0.931165 0.225618 0.037753
O O14 0.839694 0.092172 0.080232
O O15 0.418984 0.750000 0.750000
O O16 0.250000 0.938665 0.750000
#
# Coordination Sequence:
#
# PCOD8201382 Si02
#       7
#     8   8   8   8   8   8   8
#     4  10  19  36  52  81 115 134 184 236 272 332
#     4  10  21  34  52  77 112 145 186 222 280 339
#     4  10  19  34  53  78 111 146 178 223 280 337
#     4  10  19  32  55  77 105 147 184 232 285 330
#     4  10  21  33  56  83 108 143 180 230 288 321
#     4  11  18  33  56  82 110 141 180 230 283 338
#     4   9  19  37  51  76 112 145 184 233 271 337
#
# _framework density 17.508226000000001
#
# number of rings (size 3 to 8) (size 9 to 14) (size 15 to 20)
#    0.000    2.000    4.286    1.714    2.000    3.143 
#    0.000    3.571    0.000    0.000    0.000    4.000 
#    0.000    0.000    0.000    0.000    0.000    0.000 
#
# Total GULP energy -694043.169633 kJ/mol
# GULP energy per Si atom -12393.628029 kJ/mol
# Density = 1.746838 g / cm^3
# Si number density = 17.508226 Si / 1000 Ang^3
#
#
#
# Elastic Constant Matrix: (Units=GPa)
#
#
# Indices 1 2 3 4 5 6 
#
# 1 128.5379 36.5289 56.3633 0.0000 0.0000 0.0000
# 2 36.5289 111.7937 29.1263 0.0000 0.0000 0.0000
# 3 56.3633 29.1263 95.5163 0.0000 0.0000 0.0000
# 4 0.0000 0.0000 0.0000 16.0863 0.0000 0.0000
# 5 0.0000 0.0000 0.0000 0.0000 36.7982 0.0000
# 6 0.0000 0.0000 0.0000 0.0000 0.0000 12.6691
#
#
#
# Elastic Compliance Matrix: (Units=1/GPa)
#
#
# Indices 1 2 3 4 5 6 
#
# 1 0.010912 -0.002051 -0.005814 0.000000 0.000000 0.000000
# 2 -0.002051 0.010102 -0.001870 0.000000 0.000000 0.000000
# 3 -0.005814 -0.001870 0.014470 0.000000 0.000000 0.000000
# 4 0.000000 0.000000 0.000000 0.062165 0.000000 0.000000
# 5 0.000000 0.000000 0.000000 0.000000 0.027175 0.000000
# 6 0.000000 0.000000 0.000000 0.000000 0.000000 0.078932
#
#
# Mechanical properties :
#
#
# Convention : Reuss Voigt Hill
#
# Bulk Modulus (GPa) = 62.44173 64.43165 63.43669
# Shear Modulus (GPa) = 21.87566 27.36603 24.62084
#
# Velocity S-wave (km/s) = 3.53859 3.95782 3.75406
# Velocity P-wave (km/s) = 7.24135 7.60042 7.42306
#
# Compressibility (1/GPa) = 0.01601493
#
# Stress axis : x y z
#
# Youngs Moduli (GPa) = 91.64328 98.98571 69.10687
#
# Poissons Ratio (x) = 0.20300 0.40176
# Poissons Ratio (y) = 0.18794 0.12926
# Poissons Ratio (z) = 0.53278 0.18515
#
# Static dielectric constant tensor:
#      x y z
#    x 3.565500 0.000000 0.000000 
#    y 0.000000 3.325760 0.000000 
#    z 0.000000 0.000000 3.309440 
# 
# 
# High freq. dielectric constant tensor:
#      x y z
#    x 1.666680 0.000000 0.000000 
#    y 0.000000 1.668770 0.000000 
#    z 0.000000 0.000000 1.661170 
# 
# From -- ./inp_files/22887.got.cif
#   From: 2010.06.25/outbox.cif.g09.slc.cpg/sg48_12_cif.got.tgz:22887.got - 2010.06.26 18:06:46.
