data_PCOD8201835
_publ_section_title
;
Structure prediction by ZEFSAII (Michael W. Deem and Ramdas Pophale) SiO2 
 PCOD8201835
Probable space group: P N N N
;
_chemical_formula_sum "Si O2"
_cell_formula_units_Z 64
_cell_length_a 23.820290
_cell_length_b 14.994695
_cell_length_c 8.915811
_cell_angle_alpha 90.000000
_cell_angle_beta 90.000000
_cell_angle_gamma 90.000000
_cell_volume 3184.531393
_symmetry_space_group_name_H-M "P N N N"
_symmetry_group_IT_number 48
_space_group.IT_coordinate_system_code '2'
_symmetry_cell_setting 'orthorhombic'
loop_
_space_group_symop_operation_xyz
x,y,z
1/2-x,1/2-y,z
x,1/2-y,1/2-z
1/2-x,y,1/2-z
-x,-y,-z
1/2+x,1/2+y,-z
-x,1/2+y,1/2+z
1/2+x,-y,1/2+z
loop_
_atom_site_type_symbol
_atom_site_label
_atom_site_fract_x
_atom_site_fract_y
_atom_site_fract_z
Si Si1 0.869092 0.077769 0.920569
Si Si2 0.225664 0.159124 0.588558
Si Si3 0.539551 0.751276 0.583846
Si Si4 0.250780 0.986883 0.419788
Si Si5 0.903402 0.599408 0.104557
Si Si6 0.870546 0.071565 0.571673
Si Si7 0.909059 0.252295 0.084233
Si Si8 0.553770 0.558357 0.061302
O O1 0.802446 0.079823 0.949305
O O2 0.885367 0.070487 0.746732
O O3 0.896334 0.164372 0.990947
O O4 0.891080 0.990145 0.002880
O O5 0.250000 0.250000 0.508945
O O6 0.250000 0.161011 0.750000
O O7 0.158386 0.145454 0.607138
O O8 0.255963 0.077801 0.508834
O O9 0.567924 0.750000 0.750000
O O10 0.559152 0.671078 0.479780
O O11 0.474406 0.736444 0.603875
O O12 0.552335 0.844548 0.507652
O O13 0.250000 0.018943 0.250000
O O14 0.195340 0.933439 0.462625
O O15 0.935271 0.572629 0.259970
O O16 0.902834 0.509068 0.008056
O O17 0.887040 0.165438 0.507550
O O18 0.881068 0.250000 0.250000
O O19 0.500000 0.500000 0.000000
#
# Coordination Sequence:
#
# PCOD8201835 Si02
#       8
#     8   8   8   8   8   8   8   8
#     4  11  22  41  67  92 128 170 210 266 322 385
#     4  10  22  38  61  94 125 167 210 262 326 382
#     4  11  26  44  64  93 129 168 217 265 324 387
#     4   9  21  41  62  92 123 164 211 262 318 384
#     4  11  25  43  66  96 132 170 216 270 322 391
#     4  10  23  42  66  93 129 165 216 261 326 381
#     4  11  24  42  63  92 128 167 216 268 318 387
#     4  12  25  41  66  97 129 169 214 265 326 389
#
# _framework density 20.097147
#
# number of rings (size 3 to 8) (size 9 to 14) (size 15 to 20)
#    0.000    1.375    1.250    3.000    8.750    3.250 
#    0.000    2.500    0.000    0.000    0.000    0.000 
#    0.000    0.000    0.000    0.000    0.000    0.000 
#
# Total GULP energy -793168.866942 kJ/mol
# GULP energy per Si atom -12393.263546 kJ/mol
# Density = 2.005140 g / cm^3
# Si number density = 20.097147 Si / 1000 Ang^3
#
#
#
# Elastic Constant Matrix: (Units=GPa)
#
#
# Indices 1 2 3 4 5 6 
#
# 1 71.1297 50.2638 49.2941 0.0000 0.0000 0.0000
# 2 50.2638 199.0858 83.9288 0.0000 0.0000 0.0000
# 3 49.2941 83.9288 148.8631 0.0000 0.0000 0.0000
# 4 0.0000 0.0000 0.0000 48.3531 0.0000 0.0000
# 5 0.0000 0.0000 0.0000 0.0000 32.7432 0.0000
# 6 0.0000 0.0000 0.0000 0.0000 0.0000 38.9235
#
#
#
# Elastic Compliance Matrix: (Units=1/GPa)
#
#
# Indices 1 2 3 4 5 6 
#
# 1 0.019425 -0.002876 -0.004811 0.000000 0.000000 0.000000
# 2 -0.002876 0.007015 -0.003003 0.000000 0.000000 0.000000
# 3 -0.004811 -0.003003 0.010003 0.000000 0.000000 0.000000
# 4 0.000000 0.000000 0.000000 0.020681 0.000000 0.000000
# 5 0.000000 0.000000 0.000000 0.000000 0.030541 0.000000
# 6 0.000000 0.000000 0.000000 0.000000 0.000000 0.025691
#
#
# Mechanical properties :
#
#
# Convention : Reuss Voigt Hill
#
# Bulk Modulus (GPa) = 66.38160 87.33911 76.86035
# Shear Modulus (GPa) = 35.77620 39.71010 37.74315
#
# Velocity S-wave (km/s) = 4.22378 4.44994 4.33833
# Velocity P-wave (km/s) = 7.54249 8.36394 7.96381
#
# Compressibility (1/GPa) = 0.01506442
#
# Stress axis : x y z
#
# Youngs Moduli (GPa) = 51.47927 142.55297 99.96543
#
# Poissons Ratio (x) = 0.41002 0.48091
# Poissons Ratio (y) = 0.14807 0.30015
# Poissons Ratio (z) = 0.24766 0.42803
#
# Static dielectric constant tensor:
#      x y z
#    x 4.045850 0.000000 0.000000 
#    y 0.000000 3.992620 0.000000 
#    z 0.000000 0.000000 3.951190 
# 
# 
# High freq. dielectric constant tensor:
#      x y z
#    x 1.790480 0.000000 0.000000 
#    y 0.000000 1.798420 0.000000 
#    z 0.000000 0.000000 1.799750 
# 
# From -- ./inp_files/16036.got.cif
#   From: 2010.06.25/outbox.cif.g09.slc.cpg/sg48_9_cif.got.tgz:16036.got - 2010.06.26 18:06:46.
