data_PCOD8201304
_publ_section_title
;
Structure prediction by ZEFSAII (Michael W. Deem and Ramdas Pophale) SiO2 
 PCOD8201304
Probable space group: P N N N
;
_chemical_formula_sum "Si O2"
_cell_formula_units_Z 44
_cell_length_a 9.911787
_cell_length_b 8.192430
_cell_length_c 25.663742
_cell_angle_alpha 90.000000
_cell_angle_beta 90.000000
_cell_angle_gamma 90.000000
_cell_volume 2083.937456
_symmetry_space_group_name_H-M "P N N N"
_symmetry_group_IT_number 48
_space_group.IT_coordinate_system_code '2'
_symmetry_cell_setting 'orthorhombic'
loop_
_space_group_symop_operation_xyz
x,y,z
1/2-x,1/2-y,z
x,1/2-y,1/2-z
1/2-x,y,1/2-z
-x,-y,-z
1/2+x,1/2+y,-z
-x,1/2+y,1/2+z
1/2+x,-y,1/2+z
loop_
_atom_site_type_symbol
_atom_site_label
_atom_site_fract_x
_atom_site_fract_y
_atom_site_fract_z
Si Si1 0.750000 0.750000 0.492899
Si Si2 0.405015 0.539458 0.952378
Si Si3 0.412156 0.567324 0.140271
Si Si4 0.397519 0.554532 0.359921
Si Si5 0.590240 0.567463 0.750256
Si Si6 0.997849 0.130756 0.454743
O O1 0.774213 0.583601 0.456961
O O2 0.871549 0.762047 0.532877
O O3 0.483046 0.517528 0.898050
O O4 0.373649 0.736822 0.955178
O O5 0.500000 0.500000 0.000000
O O6 0.414795 0.757076 0.127069
O O7 0.259049 0.500618 0.133271
O O8 0.461477 0.530887 0.199211
O O9 0.455474 0.524128 0.302139
O O10 0.491946 0.453729 0.398823
O O11 0.529921 0.750000 0.750000
O O12 0.750000 0.572708 0.750000
O O13 0.000000 0.000000 0.500000
#
# Coordination Sequence:
#
# PCOD8201304 Si02
#       6
#     4   8   8   8   8   8
#     4  10  22  38  54  76 110 142 182 228 268 324
#     4  10  20  35  52  73 103 141 180 220 269 321
#     4  10  19  31  49  75 107 143 178 216 266 327
#     4  10  18  30  49  75 109 141 175 219 267 323
#     4   9  17  28  45  71 104 140 174 213 265 322
#     4  11  22  35  54  80 107 141 180 220 272 328
#
# _framework density 21.113878
#
# number of rings (size 3 to 8) (size 9 to 14) (size 15 to 20)
#    0.000    2.000    0.000    6.000    0.000    7.273 
#    0.000    0.000    0.000    0.000    0.000   10.182 
#    0.000   14.545    0.000    0.000    0.000    0.000 
#
# Total GULP energy -545135.105275 kJ/mol
# GULP energy per Si atom -12389.434211 kJ/mol
# Density = 2.106582 g / cm^3
# Si number density = 21.113878 Si / 1000 Ang^3
#
#
#
# Elastic Constant Matrix: (Units=GPa)
#
#
# Indices 1 2 3 4 5 6 
#
# 1 32.5936 13.2243 18.0752 0.0000 0.0000 0.0000
# 2 13.2243 140.0815 41.5130 0.0000 0.0000 0.0000
# 3 18.0752 41.5130 144.7342 0.0000 0.0000 0.0000
# 4 0.0000 0.0000 0.0000 44.3184 0.0000 0.0000
# 5 0.0000 0.0000 0.0000 0.0000 25.3913 0.0000
# 6 0.0000 0.0000 0.0000 0.0000 0.0000 25.2931
#
#
#
# Elastic Compliance Matrix: (Units=1/GPa)
#
#
# Indices 1 2 3 4 5 6 
#
# 1 0.033521 -0.002103 -0.003583 0.000000 0.000000 0.000000
# 2 -0.002103 0.007934 -0.002013 0.000000 0.000000 0.000000
# 3 -0.003583 -0.002013 0.007934 0.000000 0.000000 0.000000
# 4 0.000000 0.000000 0.000000 0.022564 0.000000 0.000000
# 5 0.000000 0.000000 0.000000 0.000000 0.039384 0.000000
# 6 0.000000 0.000000 0.000000 0.000000 0.000000 0.039537
#
#
# Mechanical properties :
#
#
# Convention : Reuss Voigt Hill
#
# Bulk Modulus (GPa) = 29.41940 51.44826 40.43383
# Shear Modulus (GPa) = 28.15297 35.30700 31.72999
#
# Velocity S-wave (km/s) = 3.65552 4.09371 3.88081
# Velocity P-wave (km/s) = 5.63747 6.83846 6.26680
#
# Compressibility (1/GPa) = 0.03399118
#
# Stress axis : x y z
#
# Youngs Moduli (GPa) = 29.83199 126.04382 126.03859
#
# Poissons Ratio (x) = 0.26503 0.45162
# Poissons Ratio (y) = 0.06273 0.25371
# Poissons Ratio (z) = 0.10689 0.25372
#
# Static dielectric constant tensor:
#      x y z
#    x 3.892930 0.000000 0.000000 
#    y 0.000000 4.936180 0.000000 
#    z 0.000000 0.000000 5.945470 
# 
# 
# High freq. dielectric constant tensor:
#      x y z
#    x 1.769630 0.000000 0.000000 
#    y 0.000000 1.853720 0.000000 
#    z 0.000000 0.000000 1.832010 
# 
# From -- ./inp_files/36272.got.cif
#   From: 2010.06.25/outbox.cif.g09.slc.cpg/sg48_19_cif.got.tgz:36272.got - 2010.06.26 18:06:46.
