data_PCOD8201792
_publ_section_title
;
Structure prediction by ZEFSAII (Michael W. Deem and Ramdas Pophale) SiO2 
 PCOD8201792
Probable space group: P N N N
;
_chemical_formula_sum "Si O2"
_cell_formula_units_Z 34
_cell_length_a 5.343912
_cell_length_b 10.970176
_cell_length_c 22.690723
_cell_angle_alpha 90.000000
_cell_angle_beta 90.000000
_cell_angle_gamma 90.000000
_cell_volume 1330.213121
_symmetry_space_group_name_H-M "P N N N"
_symmetry_group_IT_number 48
_space_group.IT_coordinate_system_code '2'
_symmetry_cell_setting 'orthorhombic'
loop_
_space_group_symop_operation_xyz
x,y,z
1/2-x,1/2-y,z
x,1/2-y,1/2-z
1/2-x,y,1/2-z
-x,-y,-z
1/2+x,1/2+y,-z
-x,1/2+y,1/2+z
1/2+x,-y,1/2+z
loop_
_atom_site_type_symbol
_atom_site_label
_atom_site_fract_x
_atom_site_fract_y
_atom_site_fract_z
Si Si1 0.911089 0.909158 0.148546
Si Si2 0.463845 0.322692 0.461837
Si Si3 0.250000 0.250000 0.750000
Si Si4 0.890158 0.082935 0.580513
Si Si5 0.488515 0.809074 0.654256
O O1 0.920727 0.835918 0.209389
O O2 0.649070 0.884283 0.114117
O O3 0.146235 0.859653 0.111041
O O4 0.967635 0.047978 0.164894
O O5 0.250000 0.250000 0.497533
O O6 0.645425 0.369877 0.513091
O O7 0.370977 0.435784 0.421306
O O8 0.555376 0.219274 0.415678
O O9 0.250000 0.750000 0.688317
O O10 0.750000 0.750000 0.677317
#
# Coordination Sequence:
#
# PCOD8201792 Si02
#       5
#     8   8   2   8   8
#     4  12  26  54  72 107 149 208 266 330 380 451
#     4  10  21  41  71 124 162 203 231 297 383 504
#     4  12  36  58  82 102 148 214 292 344 400 452
#     4  11  25  42  76 114 162 198 244 301 391 474
#     4  11  20  42  75 111 155 189 244 313 385 465
#
# _framework density 25.559811
#
# number of rings (size 3 to 8) (size 9 to 14) (size 15 to 20)
#    0.000    0.941    7.059    0.000    1.647   10.353 
#    0.000    0.588    0.000    2.824    0.000    0.000 
#    0.000    0.000    0.000    0.000    0.000    0.000 
#
# Total GULP energy -421245.248387 kJ/mol
# GULP energy per Si atom -12389.566129 kJ/mol
# Density = 2.550164 g / cm^3
# Si number density = 25.559811 Si / 1000 Ang^3
#
#
#
# Elastic Constant Matrix: (Units=GPa)
#
#
# Indices 1 2 3 4 5 6 
#
# 1 217.7030 44.9181 52.5122 0.0000 0.0000 0.0000
# 2 44.9181 119.9791 71.2921 0.0000 0.0000 0.0000
# 3 52.5122 71.2921 120.2568 0.0000 0.0000 0.0000
# 4 0.0000 0.0000 0.0000 38.4378 0.0000 0.0000
# 5 0.0000 0.0000 0.0000 0.0000 35.5042 0.0000
# 6 0.0000 0.0000 0.0000 0.0000 0.0000 42.3629
#
#
#
# Elastic Compliance Matrix: (Units=1/GPa)
#
#
# Indices 1 2 3 4 5 6 
#
# 1 0.005199 -0.000922 -0.001724 0.000000 0.000000 0.000000
# 2 -0.000922 0.013031 -0.007323 0.000000 0.000000 0.000000
# 3 -0.001724 -0.007323 0.013409 0.000000 0.000000 0.000000
# 4 0.000000 0.000000 0.000000 0.026016 0.000000 0.000000
# 5 0.000000 0.000000 0.000000 0.000000 0.028166 0.000000
# 6 0.000000 0.000000 0.000000 0.000000 0.000000 0.023606
#
#
# Mechanical properties :
#
#
# Convention : Reuss Voigt Hill
#
# Bulk Modulus (GPa) = 85.44968 88.37595 86.91282
# Shear Modulus (GPa) = 37.51917 42.54209 40.03063
#
# Velocity S-wave (km/s) = 3.83547 4.08415 3.96176
# Velocity P-wave (km/s) = 7.28823 7.54265 7.41653
#
# Compressibility (1/GPa) = 0.01170279
#
# Stress axis : x y z
#
# Youngs Moduli (GPa) = 192.32669 76.73890 74.57561
#
# Poissons Ratio (x) = 0.07079 0.12854
# Poissons Ratio (y) = 0.17741 0.54608
# Poissons Ratio (z) = 0.33149 0.56192
#
# Static dielectric constant tensor:
#      x y z
#    x 5.467070 0.000000 0.000000 
#    y 0.000000 4.994880 0.000000 
#    z 0.000000 0.000000 4.138590 
# 
# 
# High freq. dielectric constant tensor:
#      x y z
#    x 2.036060 0.000000 0.000000 
#    y 0.000000 2.049370 0.000000 
#    z 0.000000 0.000000 1.986720 
# 
# From -- ./inp_files/35221.got.cif
#   From: 2010.06.25/outbox.cif.g09.slc.cpg/sg48_18_cif.got.tgz:35221.got - 2010.06.26 18:06:46.
