data_PCOD8201118
_publ_section_title
;
Structure prediction by ZEFSAII (Michael W. Deem and Ramdas Pophale) SiO2 
 PCOD8201118
Probable space group: P M M M
;
_chemical_formula_sum "Si O2"
_cell_formula_units_Z 44
_cell_length_a 28.608317
_cell_length_b 9.501135
_cell_length_c 9.158474
_cell_angle_alpha 90.000000
_cell_angle_beta 90.000000
_cell_angle_gamma 90.000000
_cell_volume 2489.378390
_symmetry_space_group_name_H-M "P M M M"
_symmetry_group_IT_number 47
_symmetry_cell_setting 'orthorhombic'
loop_
_space_group_symop_operation_xyz
x,y,z
-x,-y,z
x,-y,-z
-x,y,-z
-x,-y,-z
x,y,-z
-x,y,z
x,-y,z
loop_
_atom_site_type_symbol
_atom_site_label
_atom_site_fract_x
_atom_site_fract_y
_atom_site_fract_z
Si Si1 0.319180 0.167392 0.835468
Si Si2 0.770641 0.167739 0.335053
Si Si3 0.137654 0.836221 0.170224
Si Si4 0.588243 0.837181 0.328748
Si Si5 0.500000 0.340491 0.673501
Si Si6 0.948570 0.341785 0.173520
O O1 0.274334 0.228580 0.750067
O O2 0.365956 0.217693 0.754436
O O3 0.316916 0.000000 0.836139
O O4 0.318962 0.226894 0.000000
O O5 0.769825 0.225434 0.500000
O O6 0.817304 0.222240 0.255451
O O7 0.769389 0.000000 0.332965
O O8 0.091842 0.759350 0.234916
O O9 0.130019 0.000000 0.199182
O O10 0.145531 0.803956 0.000000
O O11 0.597079 0.816709 0.500000
O O12 0.545560 0.742571 0.270443
O O13 0.577018 0.000000 0.293046
O O14 0.500000 0.500000 0.735066
O O15 0.500000 0.341137 0.500000
O O16 0.938628 0.500000 0.228142
O O17 0.000000 0.292367 0.229224
O O18 0.948101 0.336405 0.000000
#
# Coordination Sequence:
#
# PCOD8201118 Si02
#       6
#     8   8   8   8   4   8
#     4   9  16  26  42  65  91 116 143 178 218 256
#     4   9  16  26  41  62  89 118 144 172 212 261
#     4   9  16  25  40  64  90 113 140 177 216 251
#     4   9  16  27  45  68  91 115 146 182 216 251
#     4   9  17  29  46  67  90 118 150 181 214 254
#     4   8  14  25  41  61  85 113 144 177 214 256
#
# _framework density 17.675096
#
# number of rings (size 3 to 8) (size 9 to 14) (size 15 to 20)
#    0.000    3.182    0.000    1.909    0.000    5.818 
#    0.000    2.273    0.000    5.455    0.000    3.818 
#    0.000    0.000    0.000    0.000    0.000    0.000 
#
# Total GULP energy -545448.591040 kJ/mol
# GULP energy per Si atom -12396.558887 kJ/mol
# Density = 1.763487 g / cm^3
# Si number density = 17.675096 Si / 1000 Ang^3
#
#
#
# Elastic Constant Matrix: (Units=GPa)
#
#
# Indices 1 2 3 4 5 6 
#
# 1 208.2739 62.8052 70.6301 0.0000 0.0000 0.0000
# 2 62.8052 50.1671 26.6756 0.0000 0.0000 0.0000
# 3 70.6301 26.6756 76.9916 0.0000 0.0000 0.0000
# 4 0.0000 0.0000 0.0000 7.0471 0.0000 0.0000
# 5 0.0000 0.0000 0.0000 0.0000 24.1951 0.0000
# 6 0.0000 0.0000 0.0000 0.0000 0.0000 5.7037
#
#
#
# Elastic Compliance Matrix: (Units=1/GPa)
#
#
# Indices 1 2 3 4 5 6 
#
# 1 0.009296 -0.008707 -0.005511 0.000000 0.000000 0.000000
# 2 -0.008707 0.032591 -0.003304 0.000000 0.000000 0.000000
# 3 -0.005511 -0.003304 0.019189 0.000000 0.000000 0.000000
# 4 0.000000 0.000000 0.000000 0.141903 0.000000 0.000000
# 5 0.000000 0.000000 0.000000 0.000000 0.041331 0.000000
# 6 0.000000 0.000000 0.000000 0.000000 0.000000 0.175326
#
#
# Mechanical properties :
#
#
# Convention : Reuss Voigt Hill
#
# Bulk Modulus (GPa) = 38.41555 72.85049 55.63302
# Shear Modulus (GPa) = 10.79079 19.07729 14.93404
#
# Velocity S-wave (km/s) = 2.47353 3.28888 2.90990
# Velocity P-wave (km/s) = 5.47168 7.46514 6.54475
#
# Compressibility (1/GPa) = 0.02603113
#
# Stress axis : x y z
#
# Youngs Moduli (GPa) = 107.57302 30.68305 52.11356
#
# Poissons Ratio (x) = 0.26717 0.28720
# Poissons Ratio (y) = 0.93669 0.17219
# Poissons Ratio (z) = 0.59284 0.10138
#
# Static dielectric constant tensor:
#      x y z
#    x 3.634610 0.000000 0.000000 
#    y 0.000000 2.946000 0.000000 
#    z 0.000000 0.000000 3.086410 
# 
# 
# High freq. dielectric constant tensor:
#      x y z
#    x 1.703080 0.000000 0.000000 
#    y 0.000000 1.634540 0.000000 
#    z 0.000000 0.000000 1.655850 
# 
# From -- ./inp_files/13549.got.cif
#   From: 2010.03.12/outbox.cif.g09.slc.cpg/sg47_7_cif.got.tgz:13549.got - 2010.04.14 03:12:58.
