data_PCOD8201756
_publ_section_title
;
Structure prediction by ZEFSAII (Michael W. Deem and Ramdas Pophale) SiO2 
 PCOD8201756
Probable space group: P N N N
;
_chemical_formula_sum "Si O2"
_cell_formula_units_Z 40
_cell_length_a 7.634556
_cell_length_b 18.704948
_cell_length_c 11.779648
_cell_angle_alpha 90.000000
_cell_angle_beta 90.000000
_cell_angle_gamma 90.000000
_cell_volume 1682.180535
_symmetry_space_group_name_H-M "P N N N"
_symmetry_group_IT_number 48
_space_group.IT_coordinate_system_code '2'
_symmetry_cell_setting 'orthorhombic'
loop_
_space_group_symop_operation_xyz
x,y,z
1/2-x,1/2-y,z
x,1/2-y,1/2-z
1/2-x,y,1/2-z
-x,-y,-z
1/2+x,1/2+y,-z
-x,1/2+y,1/2+z
1/2+x,-y,1/2+z
loop_
_atom_site_type_symbol
_atom_site_label
_atom_site_fract_x
_atom_site_fract_y
_atom_site_fract_z
Si Si1 0.577483 0.295855 0.530763
Si Si2 0.353274 0.040407 0.929805
Si Si3 0.056467 0.883963 0.253672
Si Si4 0.717294 0.398118 0.119076
Si Si5 0.095280 0.158568 0.987727
O O1 0.750000 0.250000 0.513270
O O2 0.555799 0.316584 0.661631
O O3 0.615487 0.364920 0.450998
O O4 0.406404 0.246029 0.499648
O O5 0.426534 0.056948 0.804343
O O6 0.282774 0.115985 0.987555
O O7 0.200782 0.982630 0.910232
O O8 0.500000 0.000000 0.000000
O O9 0.250000 0.917864 0.250000
O O10 0.998442 0.859272 0.130703
O O11 0.750000 0.381465 0.250000
O O12 0.525392 0.369083 0.089665
#
# Coordination Sequence:
#
# PCOD8201756 Si02
#       5
#     8   8   8   8   8
#     4  10  21  39  68 100 137 174 229 286 363 427
#     4  12  25  44  64 101 145 183 240 294 356 432
#     4  12  21  41  70 102 138 172 225 294 369 429
#     4  11  23  43  68  98 141 192 239 288 356 436
#     4  11  24  40  69 102 134 183 233 294 355 430
#
# _framework density 23.778661
#
# number of rings (size 3 to 8) (size 9 to 14) (size 15 to 20)
#    0.000    0.800    6.000    3.000    0.000    6.000 
#    0.000    2.000    0.000    0.000   10.400    0.000 
#    0.000    0.000    0.000    0.000    0.000    0.000 
#
# Total GULP energy -495595.909984 kJ/mol
# GULP energy per Si atom -12389.897750 kJ/mol
# Density = 2.372454 g / cm^3
# Si number density = 23.778661 Si / 1000 Ang^3
#
#
#
# Elastic Constant Matrix: (Units=GPa)
#
#
# Indices 1 2 3 4 5 6 
#
# 1 86.3313 13.3816 5.5602 0.0000 0.0000 0.0000
# 2 13.3816 138.6427 15.5518 0.0000 0.0000 0.0000
# 3 5.5602 15.5518 96.5483 0.0000 0.0000 0.0000
# 4 0.0000 0.0000 0.0000 27.5808 0.0000 0.0000
# 5 0.0000 0.0000 0.0000 0.0000 32.6432 0.0000
# 6 0.0000 0.0000 0.0000 0.0000 0.0000 17.9585
#
#
#
# Elastic Compliance Matrix: (Units=1/GPa)
#
#
# Indices 1 2 3 4 5 6 
#
# 1 0.011783 -0.001081 -0.000505 0.000000 0.000000 0.000000
# 2 -0.001081 0.007445 -0.001137 0.000000 0.000000 0.000000
# 3 -0.000505 -0.001137 0.010570 0.000000 0.000000 0.000000
# 4 0.000000 0.000000 0.000000 0.036257 0.000000 0.000000
# 5 0.000000 0.000000 0.000000 0.000000 0.030634 0.000000
# 6 0.000000 0.000000 0.000000 0.000000 0.000000 0.055684
#
#
# Mechanical properties :
#
#
# Convention : Reuss Voigt Hill
#
# Bulk Modulus (GPa) = 41.06220 43.38994 42.22607
# Shear Modulus (GPa) = 30.13231 34.77177 32.45204
#
# Velocity S-wave (km/s) = 3.56364 3.82816 3.69827
# Velocity P-wave (km/s) = 5.85138 6.15035 6.00273
#
# Compressibility (1/GPa) = 0.02435330
#
# Stress axis : x y z
#
# Youngs Moduli (GPa) = 84.86595 134.32508 94.61011
#
# Poissons Ratio (x) = 0.14517 0.04773
# Poissons Ratio (y) = 0.09172 0.10757
# Poissons Ratio (z) = 0.04282 0.15272
#
# Static dielectric constant tensor:
#      x y z
#    x 2.277800 0.000000 0.000000 
#    y 0.000000 6.686870 0.000000 
#    z 0.000000 0.000000 4.081660 
# 
# 
# High freq. dielectric constant tensor:
#      x y z
#    x 1.947000 0.000000 0.000000 
#    y 0.000000 1.964780 0.000000 
#    z 0.000000 0.000000 1.920680 
# 
# From -- ./inp_files/18447.got.cif
#   From: 2010.06.25/outbox.cif.g09.slc.cpg/sg48_10_cif.got.tgz:18447.got - 2010.06.26 18:06:46.
