data_PCOD8201624
_publ_section_title
;
Structure prediction by ZEFSAII (Michael W. Deem and Ramdas Pophale) SiO2 
 PCOD8201624
Probable space group: P N N N
;
_chemical_formula_sum "Si O2"
_cell_formula_units_Z 36
_cell_length_a 8.198974
_cell_length_b 15.325341
_cell_length_c 12.520663
_cell_angle_alpha 90.000000
_cell_angle_beta 90.000000
_cell_angle_gamma 90.000000
_cell_volume 1573.247254
_symmetry_space_group_name_H-M "P N N N"
_symmetry_group_IT_number 48
_space_group.IT_coordinate_system_code '2'
_symmetry_cell_setting 'orthorhombic'
loop_
_space_group_symop_operation_xyz
x,y,z
1/2-x,1/2-y,z
x,1/2-y,1/2-z
1/2-x,y,1/2-z
-x,-y,-z
1/2+x,1/2+y,-z
-x,1/2+y,1/2+z
1/2+x,-y,1/2+z
loop_
_atom_site_type_symbol
_atom_site_label
_atom_site_fract_x
_atom_site_fract_y
_atom_site_fract_z
Si Si1 0.640348 0.829958 0.451577
Si Si2 0.125206 0.024510 0.591310
Si Si3 0.750000 0.108305 0.250000
Si Si4 0.923446 0.426609 0.710030
Si Si5 0.409708 0.369760 0.181083
O O1 0.750000 0.750000 0.407229
O O2 0.752623 0.913160 0.468225
O O3 0.490663 0.855043 0.373901
O O4 0.581067 0.813582 0.572361
O O5 0.041782 0.074690 0.688842
O O6 0.232024 0.946189 0.639814
O O7 0.000000 0.000000 0.500000
O O8 0.578319 0.160109 0.259633
O O9 0.750000 0.391873 0.750000
O O10 0.910319 0.525002 0.663273
O O11 0.250000 0.342891 0.250000
#
# Coordination Sequence:
#
# PCOD8201624 Si02
#       5
#     8   8   4   8   8
#     4  12  24  40  64  98 141 175 215 279 364 410
#     4  11  21  38  64  95 128 173 228 276 337 400
#     4  10  20  38  67  97 122 170 234 298 316 384
#     4  10  21  39  66  97 125 174 230 283 327 402
#     4  10  21  40  67 101 125 175 234 285 334 398
#
# _framework density 22.882607
#
# number of rings (size 3 to 8) (size 9 to 14) (size 15 to 20)
#    0.000    1.333    4.444    4.667    3.111    2.222 
#    0.000    2.222    0.000    5.333    0.000    0.000 
#    0.000    0.000    0.000    0.000    0.000    0.000 
#
# Total GULP energy -446096.332106 kJ/mol
# GULP energy per Si atom -12391.564781 kJ/mol
# Density = 2.283053 g / cm^3
# Si number density = 22.882607 Si / 1000 Ang^3
#
#
#
# Elastic Constant Matrix: (Units=GPa)
#
#
# Indices 1 2 3 4 5 6 
#
# 1 188.5743 17.7473 50.1779 0.0000 0.0000 0.0000
# 2 17.7473 47.5981 21.8713 0.0000 0.0000 0.0000
# 3 50.1779 21.8713 125.3376 0.0000 0.0000 0.0000
# 4 0.0000 0.0000 0.0000 16.9922 0.0000 0.0000
# 5 0.0000 0.0000 0.0000 0.0000 54.1139 0.0000
# 6 0.0000 0.0000 0.0000 0.0000 0.0000 6.9860
#
#
#
# Elastic Compliance Matrix: (Units=1/GPa)
#
#
# Indices 1 2 3 4 5 6 
#
# 1 0.006001 -0.001232 -0.002187 0.000000 0.000000 0.000000
# 2 -0.001232 0.023094 -0.003536 0.000000 0.000000 0.000000
# 3 -0.002187 -0.003536 0.009471 0.000000 0.000000 0.000000
# 4 0.000000 0.000000 0.000000 0.058851 0.000000 0.000000
# 5 0.000000 0.000000 0.000000 0.000000 0.018480 0.000000
# 6 0.000000 0.000000 0.000000 0.000000 0.000000 0.143143
#
#
# Mechanical properties :
#
#
# Convention : Reuss Voigt Hill
#
# Bulk Modulus (GPa) = 40.56221 60.12256 50.34239
# Shear Modulus (GPa) = 17.78286 33.73264 25.75775
#
# Velocity S-wave (km/s) = 2.79074 3.84365 3.35871
# Velocity P-wave (km/s) = 5.30556 6.78451 6.09010
#
# Compressibility (1/GPa) = 0.02465349
#
# Stress axis : x y z
#
# Youngs Moduli (GPa) = 166.63946 43.30176 105.58248
#
# Poissons Ratio (x) = 0.05337 0.23095
# Poissons Ratio (y) = 0.20537 0.37339
# Poissons Ratio (z) = 0.36451 0.15313
#
# Static dielectric constant tensor:
#      x y z
#    x 4.528790 0.000000 0.000000 
#    y 0.000000 3.677090 0.000000 
#    z 0.000000 0.000000 3.831790 
# 
# 
# High freq. dielectric constant tensor:
#      x y z
#    x 1.926640 0.000000 0.000000 
#    y 0.000000 1.859670 0.000000 
#    z 0.000000 0.000000 1.908400 
# 
# From -- ./inp_files/18432.got.cif
#   From: 2010.06.25/outbox.cif.g09.slc.cpg/sg48_10_cif.got.tgz:18432.got - 2010.06.26 18:06:46.
