data_PCOD8201848
_publ_section_title
;
Structure prediction by ZEFSAII (Michael W. Deem and Ramdas Pophale) SiO2 
 PCOD8201848
Probable space group: P N N N
;
_chemical_formula_sum "Si O2"
_cell_formula_units_Z 34
_cell_length_a 6.057460
_cell_length_b 12.714338
_cell_length_c 19.295272
_cell_angle_alpha 90.000000
_cell_angle_beta 90.000000
_cell_angle_gamma 90.000000
_cell_volume 1486.056127
_symmetry_space_group_name_H-M "P N N N"
_symmetry_group_IT_number 48
_space_group.IT_coordinate_system_code '2'
_symmetry_cell_setting 'orthorhombic'
loop_
_space_group_symop_operation_xyz
x,y,z
1/2-x,1/2-y,z
x,1/2-y,1/2-z
1/2-x,y,1/2-z
-x,-y,-z
1/2+x,1/2+y,-z
-x,1/2+y,1/2+z
1/2+x,-y,1/2+z
loop_
_atom_site_type_symbol
_atom_site_label
_atom_site_fract_x
_atom_site_fract_y
_atom_site_fract_z
Si Si1 0.250000 0.750000 0.132764
Si Si2 0.054459 0.323600 0.521818
Si Si3 0.750000 0.750000 0.750000
Si Si4 0.250000 0.582814 0.250000
Si Si5 0.294244 0.533105 0.548353
Si Si6 0.059922 0.913837 0.701315
O O1 0.466816 0.750027 0.084271
O O2 0.261637 0.647772 0.179718
O O3 0.250000 0.250000 0.486435
O O4 0.138836 0.432534 0.553206
O O5 0.844879 0.361707 0.474515
O O6 0.617072 0.678702 0.695878
O O7 0.469039 0.513610 0.255955
O O8 0.500000 0.500000 0.500000
O O9 0.379047 0.557118 0.624171
O O10 0.250000 0.868379 0.750000
#
# Coordination Sequence:
#
# PCOD8201848 Si02
#       6
#     4   8   2   4   8   8
#     4  11  22  42  66 108 135 178 226 290 363 426
#     4  11  23  42  67 103 140 183 235 293 357 430
#     4  10  26  46  68  96 132 182 236 286 340 420
#     4  10  22  38  74 100 136 174 226 288 354 432
#     4  11  25  46  70 100 143 191 236 297 363 424
#     4  11  23  47  68  97 137 182 233 289 351 423
#
# _framework density 22.879352000000001
#
# number of rings (size 3 to 8) (size 9 to 14) (size 15 to 20)
#    0.000    1.176    0.000    6.000    0.000    5.647 
#   21.176    2.353    0.000    0.000    0.000    0.000 
#    0.000    0.000    0.000    0.000    0.000    0.000 
#
# Total GULP energy -421327.321373 kJ/mol
# GULP energy per Si atom -12391.980040 kJ/mol
# Density = 2.282728 g / cm^3
# Si number density = 22.879352 Si / 1000 Ang^3
#
#
#
# Elastic Constant Matrix: (Units=GPa)
#
#
# Indices 1 2 3 4 5 6 
#
# 1 131.6853 53.8954 67.5950 0.0000 0.0000 0.0000
# 2 53.8954 130.5494 53.2744 0.0000 0.0000 0.0000
# 3 67.5950 53.2744 144.3307 0.0000 0.0000 0.0000
# 4 0.0000 0.0000 0.0000 2.3814 0.0000 0.0000
# 5 0.0000 0.0000 0.0000 0.0000 33.9011 0.0000
# 6 0.0000 0.0000 0.0000 0.0000 0.0000 17.0565
#
#
#
# Elastic Compliance Matrix: (Units=1/GPa)
#
#
# Indices 1 2 3 4 5 6 
#
# 1 0.010814 -0.002823 -0.004023 0.000000 0.000000 0.000000
# 2 -0.002823 0.009755 -0.002279 0.000000 0.000000 0.000000
# 3 -0.004023 -0.002279 0.009654 0.000000 0.000000 0.000000
# 4 0.000000 0.000000 0.000000 0.419926 0.000000 0.000000
# 5 0.000000 0.000000 0.000000 0.000000 0.029498 0.000000
# 6 0.000000 0.000000 0.000000 0.000000 0.000000 0.058629
#
#
# Mechanical properties :
#
#
# Convention : Reuss Voigt Hill
#
# Bulk Modulus (GPa) = 83.51168 84.01055 83.76111
# Shear Modulus (GPa) = 8.92037 26.12117 17.52077
#
# Velocity S-wave (km/s) = 1.97670 3.38256 2.77029
# Velocity P-wave (km/s) = 6.46451 7.21486 6.84997
#
# Compressibility (1/GPa) = 0.01197437
#
# Stress axis : x y z
#
# Youngs Moduli (GPa) = 92.47242 102.50925 103.58847
#
# Poissons Ratio (x) = 0.28937 0.41670
# Poissons Ratio (y) = 0.26104 0.23605
# Poissons Ratio (z) = 0.37198 0.23359
#
# Static dielectric constant tensor:
#      x y z
#    x 9.456590 0.000000 0.000000 
#    y 0.000000 4.456870 0.000000 
#    z 0.000000 0.000000 3.876400 
# 
# 
# High freq. dielectric constant tensor:
#      x y z
#    x 1.918330 0.000000 0.000000 
#    y 0.000000 1.926200 0.000000 
#    z 0.000000 0.000000 1.889540 
# 
# From -- ./inp_files/29229.got.cif
#   From: 2010.06.25/outbox.cif.g09.slc.cpg/sg48_15_cif.got.tgz:29229.got - 2010.06.26 18:06:46.
