data_PCOD8201675
_publ_section_title
;
Structure prediction by ZEFSAII (Michael W. Deem and Ramdas Pophale) SiO2 
 PCOD8201675
Probable space group: P N N N
;
_chemical_formula_sum "Si O2"
_cell_formula_units_Z 64
_cell_length_a 14.602028
_cell_length_b 8.608757
_cell_length_c 23.008635
_cell_angle_alpha 90.000000
_cell_angle_beta 90.000000
_cell_angle_gamma 90.000000
_cell_volume 2892.307613
_symmetry_space_group_name_H-M "P N N N"
_symmetry_group_IT_number 48
_space_group.IT_coordinate_system_code '2'
_symmetry_cell_setting 'orthorhombic'
loop_
_space_group_symop_operation_xyz
x,y,z
1/2-x,1/2-y,z
x,1/2-y,1/2-z
1/2-x,y,1/2-z
-x,-y,-z
1/2+x,1/2+y,-z
-x,1/2+y,1/2+z
1/2+x,-y,1/2+z
loop_
_atom_site_type_symbol
_atom_site_label
_atom_site_fract_x
_atom_site_fract_y
_atom_site_fract_z
Si Si1 0.130476 0.107739 0.976941
Si Si2 0.499964 0.131185 0.422961
Si Si3 0.853215 0.724804 0.143727
Si Si4 0.706299 0.409132 0.505847
Si Si5 0.033836 0.886794 0.174216
Si Si6 0.566524 0.046406 0.090597
Si Si7 0.885676 0.407273 0.878155
Si Si8 0.353659 0.428456 0.264941
O O1 0.135400 0.223589 0.923113
O O2 0.079800 0.948075 0.960208
O O3 0.079453 0.185992 0.032066
O O4 0.232291 0.060528 0.994971
O O5 0.539652 0.280257 0.388725
O O6 0.459455 0.013772 0.376124
O O7 0.750000 0.750000 0.168200
O O8 0.870273 0.537902 0.140262
O O9 0.929384 0.818323 0.182066
O O10 0.750000 0.250000 0.481484
O O11 0.612237 0.440846 0.472363
O O12 0.694346 0.392667 0.574975
O O13 0.104781 0.752226 0.157378
O O14 0.070434 0.962883 0.233549
O O15 0.477554 0.938229 0.085282
O O16 0.865772 0.548000 0.833812
O O17 0.372785 0.250000 0.250000
O O18 0.250000 0.477833 0.250000
#
# Coordination Sequence:
#
# PCOD8201675 Si02
#       8
#     8   8   8   8   8   8   8   8
#     4  10  21  34  54  86 132 173 217 267 318 390
#     4  10  21  36  58  89 128 178 217 266 330 394
#     4  10  21  38  61  99 132 178 222 277 334 401
#     4  12  23  37  61  98 133 175 225 265 325 402
#     4  10  23  43  68  94 132 175 222 281 341 396
#     4  11  23  39  60  91 135 173 219 268 332 397
#     4  11  26  41  66  95 130 177 217 274 332 408
#     4  11  26  49  71  99 129 169 228 288 345 406
#
# _framework density 22.127659000000001
#
# number of rings (size 3 to 8) (size 9 to 14) (size 15 to 20)
#    0.000    1.375    2.500    2.250   10.500    0.500 
#    0.000    0.000    0.000    6.000    0.000    3.500 
#    0.000    0.000    0.000    0.000    0.000    0.000 
#
# Total GULP energy -793576.957029 kJ/mol
# GULP energy per Si atom -12399.639954 kJ/mol
# Density = 2.207730 g / cm^3
# Si number density = 22.127659 Si / 1000 Ang^3
#
#
#
# Elastic Constant Matrix: (Units=GPa)
#
#
# Indices 1 2 3 4 5 6 
#
# 1 99.7276 30.9077 39.3883 0.0000 0.0000 0.0000
# 2 30.9077 113.6145 22.3596 0.0000 0.0000 0.0000
# 3 39.3883 22.3596 75.7796 0.0000 0.0000 0.0000
# 4 0.0000 0.0000 0.0000 30.1475 0.0000 0.0000
# 5 0.0000 0.0000 0.0000 0.0000 25.1854 0.0000
# 6 0.0000 0.0000 0.0000 0.0000 0.0000 31.4555
#
#
#
# Elastic Compliance Matrix: (Units=1/GPa)
#
#
# Indices 1 2 3 4 5 6 
#
# 1 0.013196 -0.002378 -0.006157 0.000000 0.000000 0.000000
# 2 -0.002378 0.009773 -0.001648 0.000000 0.000000 0.000000
# 3 -0.006157 -0.001648 0.016883 0.000000 0.000000 0.000000
# 4 0.000000 0.000000 0.000000 0.033170 0.000000 0.000000
# 5 0.000000 0.000000 0.000000 0.000000 0.039706 0.000000
# 6 0.000000 0.000000 0.000000 0.000000 0.000000 0.031791
#
#
# Mechanical properties :
#
#
# Convention : Reuss Voigt Hill
#
# Bulk Modulus (GPa) = 51.31935 52.71477 52.01706
# Shear Modulus (GPa) = 29.17496 30.45542 29.81519
#
# Velocity S-wave (km/s) = 3.63503 3.71394 3.67470
# Velocity P-wave (km/s) = 6.39224 6.50122 6.44696
#
# Compressibility (1/GPa) = 0.01948583
#
# Stress axis : x y z
#
# Youngs Moduli (GPa) = 75.77905 102.32408 59.23219
#
# Poissons Ratio (x) = 0.24334 0.36471
# Poissons Ratio (y) = 0.18021 0.09759
# Poissons Ratio (z) = 0.46660 0.16858
#
# Static dielectric constant tensor:
#      x y z
#    x 4.117760 0.000000 0.000000 
#    y 0.000000 4.064940 0.000000 
#    z 0.000000 0.000000 3.635830 
# 
# 
# High freq. dielectric constant tensor:
#      x y z
#    x 1.875350 0.000000 0.000000 
#    y 0.000000 1.881950 0.000000 
#    z 0.000000 0.000000 1.840270 
# 
# From -- ./inp_files/36575.got.cif
#   From: 2010.06.25/outbox.cif.g09.slc.cpg/sg48_19_cif.got.tgz:36575.got - 2010.06.26 18:06:46.
