data_PCOD8201476
_publ_section_title
;
Structure prediction by ZEFSAII (Michael W. Deem and Ramdas Pophale) SiO2 
 PCOD8201476
Probable space group: P N N N
;
_chemical_formula_sum "Si O2"
_cell_formula_units_Z 48
_cell_length_a 10.739513
_cell_length_b 12.841535
_cell_length_c 17.402827
_cell_angle_alpha 90.000000
_cell_angle_beta 90.000000
_cell_angle_gamma 90.000000
_cell_volume 2400.055755
_symmetry_space_group_name_H-M "P N N N"
_symmetry_group_IT_number 48
_space_group.IT_coordinate_system_code '2'
_symmetry_cell_setting 'orthorhombic'
loop_
_space_group_symop_operation_xyz
x,y,z
1/2-x,1/2-y,z
x,1/2-y,1/2-z
1/2-x,y,1/2-z
-x,-y,-z
1/2+x,1/2+y,-z
-x,1/2+y,1/2+z
1/2+x,-y,1/2+z
loop_
_atom_site_type_symbol
_atom_site_label
_atom_site_fract_x
_atom_site_fract_y
_atom_site_fract_z
Si Si1 0.879964 0.526419 0.771351
Si Si2 0.830857 0.148631 0.608161
Si Si3 0.486280 0.430868 0.118460
Si Si4 0.891695 0.716511 0.870061
Si Si5 0.063103 0.391998 0.976347
Si Si6 0.301208 0.996923 0.511071
O O1 0.750000 0.580768 0.750000
O O2 0.841485 0.422757 0.816973
O O3 0.959426 0.497852 0.694314
O O4 0.942598 0.615192 0.824005
O O5 0.750000 0.250000 0.629918
O O6 0.764828 0.096918 0.534357
O O7 0.976381 0.168557 0.585586
O O8 0.480615 0.313333 0.150847
O O9 0.619952 0.454937 0.082759
O O10 0.382385 0.442642 0.052364
O O11 0.750000 0.750000 0.853885
O O12 0.916045 0.691308 0.957907
O O13 0.202091 0.424786 0.949097
O O14 0.000000 0.500000 0.000000
#
# Coordination Sequence:
#
# PCOD8201476 Si02
#       6
#     8   8   8   8   8   8
#     4  12  21  37  56  93 124 154 204 266 319 365
#     4  11  22  39  63  85 120 170 212 256 314 379
#     4  11  22  34  59  92 127 153 202 260 315 379
#     4  12  19  34  62  92 116 155 203 259 318 373
#     4  10  19  38  60  87 124 159 206 258 308 368
#     4  10  20  39  57  88 122 161 207 255 306 372
#
# _framework density 19.999535999999999
#
# number of rings (size 3 to 8) (size 9 to 14) (size 15 to 20)
#    0.000    1.000    8.333    1.500    0.000    0.333 
#    0.000    0.833    0.000    0.000    8.667    0.000 
#    0.000    0.000    0.000    0.000    0.000    0.000 
#
# Total GULP energy -594649.637356 kJ/mol
# GULP energy per Si atom -12388.534112 kJ/mol
# Density = 1.995402 g / cm^3
# Si number density = 19.999536 Si / 1000 Ang^3
#
#
#
# Elastic Constant Matrix: (Units=GPa)
#
#
# Indices 1 2 3 4 5 6 
#
# 1 113.4698 40.9669 57.5599 0.0000 0.0000 0.0000
# 2 40.9669 99.2464 53.2837 0.0000 0.0000 0.0000
# 3 57.5599 53.2837 113.0843 0.0000 0.0000 0.0000
# 4 0.0000 0.0000 0.0000 25.6950 0.0000 0.0000
# 5 0.0000 0.0000 0.0000 0.0000 31.4197 0.0000
# 6 0.0000 0.0000 0.0000 0.0000 0.0000 21.7344
#
#
#
# Elastic Compliance Matrix: (Units=1/GPa)
#
#
# Indices 1 2 3 4 5 6 
#
# 1 0.012257 -0.002289 -0.005160 0.000000 0.000000 0.000000
# 2 -0.002289 0.013915 -0.005392 0.000000 0.000000 0.000000
# 3 -0.005160 -0.005392 0.014010 0.000000 0.000000 0.000000
# 4 0.000000 0.000000 0.000000 0.038918 0.000000 0.000000
# 5 0.000000 0.000000 0.000000 0.000000 0.031827 0.000000
# 6 0.000000 0.000000 0.000000 0.000000 0.000000 0.046010
#
#
# Mechanical properties :
#
#
# Convention : Reuss Voigt Hill
#
# Bulk Modulus (GPa) = 68.96256 69.93573 69.44915
# Shear Modulus (GPa) = 26.67331 27.36913 27.02122
#
# Velocity S-wave (km/s) = 3.65594 3.70332 3.67971
# Velocity P-wave (km/s) = 7.23728 7.30279 7.27011
#
# Compressibility (1/GPa) = 0.01450062
#
# Stress axis : x y z
#
# Youngs Moduli (GPa) = 81.58618 71.86243 71.37742
#
# Poissons Ratio (x) = 0.16449 0.36833
# Poissons Ratio (y) = 0.18675 0.38485
# Poissons Ratio (z) = 0.42101 0.38746
#
# Static dielectric constant tensor:
#      x y z
#    x 4.001770 0.000000 0.000000 
#    y 0.000000 3.560710 0.000000 
#    z 0.000000 0.000000 3.705670 
# 
# 
# High freq. dielectric constant tensor:
#      x y z
#    x 1.764980 0.000000 0.000000 
#    y 0.000000 1.775010 0.000000 
#    z 0.000000 0.000000 1.769270 
# 
# From -- ./inp_files/26456.got.cif
#   From: 2010.06.25/outbox.cif.g09.slc.cpg/sg48_14_cif.got.tgz:26456.got - 2010.06.26 18:06:46.
