data_PCOD8201321
_publ_section_title
;
Structure prediction by ZEFSAII (Michael W. Deem and Ramdas Pophale) SiO2 
 PCOD8201321
Probable space group: P N N N
;
_chemical_formula_sum "Si O2"
_cell_formula_units_Z 40
_cell_length_a 15.953594
_cell_length_b 22.144036
_cell_length_c 4.976322
_cell_angle_alpha 90.000000
_cell_angle_beta 90.000000
_cell_angle_gamma 90.000000
_cell_volume 1758.019907
_symmetry_space_group_name_H-M "P N N N"
_symmetry_group_IT_number 48
_space_group.IT_coordinate_system_code '2'
_symmetry_cell_setting 'orthorhombic'
loop_
_space_group_symop_operation_xyz
x,y,z
1/2-x,1/2-y,z
x,1/2-y,1/2-z
1/2-x,y,1/2-z
-x,-y,-z
1/2+x,1/2+y,-z
-x,1/2+y,1/2+z
1/2+x,-y,1/2+z
loop_
_atom_site_type_symbol
_atom_site_label
_atom_site_fract_x
_atom_site_fract_y
_atom_site_fract_z
Si Si1 0.911467 0.188889 0.345488
Si Si2 0.840434 0.516917 0.637482
Si Si3 0.091212 0.610520 0.321088
Si Si4 0.407816 0.419958 0.620088
Si Si5 0.400404 0.287588 0.495372
O O1 0.862194 0.250000 0.250000
O O2 0.865681 0.152565 0.588568
O O3 0.999557 0.210529 0.466186
O O4 0.925481 0.146279 0.092524
O O5 0.750000 0.534751 0.750000
O O6 0.847999 0.444785 0.607532
O O7 0.852666 0.548788 0.351123
O O8 0.909284 0.538985 0.853214
O O9 0.002683 0.586463 0.215513
O O10 0.366751 0.355788 0.532866
O O11 0.359570 0.250000 0.250000
O O12 0.373196 0.250000 0.750000
#
# Coordination Sequence:
#
# PCOD8201321 Si02
#       5
#     8   8   8   8   8
#     4  10  18  32  56  89 119 142 180 235 288 335
#     4  12  25  40  57  81 118 155 192 236 286 335
#     4  11  21  36  60  87 115 148 190 236 279 335
#     4  11  21  38  61  86 112 148 193 234 279 339
#     4  10  18  32  56  89 118 141 179 235 290 334
#
# _framework density 22.752869
#
# number of rings (size 3 to 8) (size 9 to 14) (size 15 to 20)
#    0.000    1.200    0.000   12.000    0.000    0.000 
#    0.000    0.000    0.000   12.600    0.000    1.400 
#    0.000    0.000    0.000    0.000    0.000    0.000 
#
# Total GULP energy -495934.245855 kJ/mol
# GULP energy per Si atom -12398.356146 kJ/mol
# Density = 2.270108 g / cm^3
# Si number density = 22.752869 Si / 1000 Ang^3
#
#
#
# Elastic Constant Matrix: (Units=GPa)
#
#
# Indices 1 2 3 4 5 6 
#
# 1 15.0383 13.9190 1.4210 0.0000 0.0000 0.0000
# 2 13.9190 157.7397 58.6787 0.0000 0.0000 0.0000
# 3 1.4210 58.6787 145.6828 0.0000 0.0000 0.0000
# 4 0.0000 0.0000 0.0000 57.8067 0.0000 0.0000
# 5 0.0000 0.0000 0.0000 0.0000 12.6170 0.0000
# 6 0.0000 0.0000 0.0000 0.0000 0.0000 6.2387
#
#
#
# Elastic Compliance Matrix: (Units=1/GPa)
#
#
# Indices 1 2 3 4 5 6 
#
# 1 0.073013 -0.007267 0.002215 0.000000 0.000000 0.000000
# 2 -0.007267 0.008180 -0.003224 0.000000 0.000000 0.000000
# 3 0.002215 -0.003224 0.008141 0.000000 0.000000 0.000000
# 4 0.000000 0.000000 0.000000 0.017299 0.000000 0.000000
# 5 0.000000 0.000000 0.000000 0.000000 0.079258 0.000000
# 6 0.000000 0.000000 0.000000 0.000000 0.000000 0.160289
#
#
# Mechanical properties :
#
#
# Convention : Reuss Voigt Hill
#
# Bulk Modulus (GPa) = 13.73949 51.83314 32.78631
# Shear Modulus (GPa) = 12.92010 31.62861 22.27435
#
# Velocity S-wave (km/s) = 2.38553 3.73244 3.13224
# Velocity P-wave (km/s) = 3.69315 6.43469 5.24617
#
# Compressibility (1/GPa) = 0.07278293
#
# Stress axis : x y z
#
# Youngs Moduli (GPa) = 13.69613 122.24863 122.83249
#
# Poissons Ratio (x) = 0.88833 -0.27204
# Poissons Ratio (y) = 0.09952 0.39600
# Poissons Ratio (z) = -0.03033 0.39412
#
# Static dielectric constant tensor:
#      x y z
#    x 3.326010 0.000000 0.000000 
#    y 0.000000 4.945460 0.000000 
#    z 0.000000 0.000000 4.527120 
# 
# 
# High freq. dielectric constant tensor:
#      x y z
#    x 1.827810 0.000000 0.000000 
#    y 0.000000 1.924890 0.000000 
#    z 0.000000 0.000000 1.923320 
# 
# From -- ./inp_files/5086.got.cif
#   From: 2010.06.25/outbox.cif.g09.slc.cpg/sg48_3_cif.got.tgz:5086.got - 2010.06.26 18:06:46.
