data_PCOD8201205
_publ_section_title
;
Structure prediction by ZEFSAII (Michael W. Deem and Ramdas Pophale) SiO2 
 PCOD8201205
Probable space group: P M M M
;
_chemical_formula_sum "Si O2"
_cell_formula_units_Z 52
_cell_length_a 28.524037
_cell_length_b 13.883019
_cell_length_c 7.979073
_cell_angle_alpha 90.000000
_cell_angle_beta 90.000000
_cell_angle_gamma 90.000000
_cell_volume 3159.710894
_symmetry_space_group_name_H-M "P M M M"
_symmetry_group_IT_number 47
_symmetry_cell_setting 'orthorhombic'
loop_
_space_group_symop_operation_xyz
x,y,z
-x,-y,z
x,-y,-z
-x,y,-z
-x,-y,-z
x,y,-z
-x,y,z
x,-y,z
loop_
_atom_site_type_symbol
_atom_site_label
_atom_site_fract_x
_atom_site_fract_y
_atom_site_fract_z
Si Si1 0.891675 0.107149 0.696438
Si Si2 0.446937 0.885020 0.000000
Si Si3 0.286927 0.110072 0.199433
Si Si4 0.612438 0.114433 0.313296
Si Si5 0.858445 0.605810 0.803442
Si Si6 0.195733 0.213234 0.806694
Si Si7 0.947883 0.289289 0.301818
O O1 0.882354 0.115806 0.500000
O O2 0.842844 0.129973 0.787415
O O3 0.931493 0.182343 0.754246
O O4 0.908211 0.000000 0.747355
O O5 0.421895 0.844431 0.831384
O O6 0.500000 0.846598 0.000000
O O7 0.445368 0.000000 0.000000
O O8 0.334743 0.150556 0.279632
O O9 0.244750 0.176559 0.271844
O O10 0.277623 0.000000 0.255345
O O11 0.291139 0.115722 0.000000
O O12 0.596428 0.148627 0.500000
O O13 0.611733 0.000000 0.302286
O O14 0.847589 0.500000 0.726197
O O15 0.823832 0.687062 0.722710
O O16 0.912656 0.631246 0.770235
O O17 0.850225 0.603315 0.000000
O O18 0.204912 0.232726 0.000000
O O19 0.948257 0.297986 0.500000
O O20 0.000000 0.307271 0.229028
#
# Coordination Sequence:
#
# PCOD8201205 Si02
#       7
#     8   4   8   8   8   8   8
#     4   9  17  28  41  58  81 104 126 158 197 239
#     4   9  16  26  38  52  76 110 149 193 228 253
#     4   9  15  24  38  55  78 105 133 169 209 248
#     4   9  16  25  37  54  77 107 144 184 223 258
#     4   9  18  32  47  62  81 103 129 164 203 244
#     4   9  17  28  43  61  79 104 135 163 198 245
#     4   9  18  31  45  61  79 100 129 162 197 242
#
# _framework density 16.457201999999999
#
# number of rings (size 3 to 8) (size 9 to 14) (size 15 to 20)
#    0.000    3.000    0.769    0.462    0.000    3.077 
#    0.000    6.154    0.000    0.000    0.000    4.308 
#    0.000    0.000    0.000    0.000    0.000    1.538 
#
# Total GULP energy -644404.857578 kJ/mol
# GULP energy per Si atom -12392.401107 kJ/mol
# Density = 1.641974 g / cm^3
# Si number density = 16.457202 Si / 1000 Ang^3
#
#
#
# Elastic Constant Matrix: (Units=GPa)
#
#
# Indices 1 2 3 4 5 6 
#
# 1 124.0234 38.0790 37.7146 0.0000 0.0000 0.0000
# 2 38.0790 79.8977 14.9601 0.0000 0.0000 0.0000
# 3 37.7146 14.9601 46.1613 0.0000 0.0000 0.0000
# 4 0.0000 0.0000 0.0000 10.9902 0.0000 0.0000
# 5 0.0000 0.0000 0.0000 0.0000 14.6844 0.0000
# 6 0.0000 0.0000 0.0000 0.0000 0.0000 14.0414
#
#
#
# Elastic Compliance Matrix: (Units=1/GPa)
#
#
# Indices 1 2 3 4 5 6 
#
# 1 0.011862 -0.004087 -0.008367 0.000000 0.000000 0.000000
# 2 -0.004087 0.014733 -0.001436 0.000000 0.000000 0.000000
# 3 -0.008367 -0.001436 0.028964 0.000000 0.000000 0.000000
# 4 0.000000 0.000000 0.000000 0.090990 0.000000 0.000000
# 5 0.000000 0.000000 0.000000 0.000000 0.068099 0.000000
# 6 0.000000 0.000000 0.000000 0.000000 0.000000 0.071218
#
#
# Mechanical properties :
#
#
# Convention : Reuss Voigt Hill
#
# Bulk Modulus (GPa) = 35.99689 47.95442 41.97565
# Shear Modulus (GPa) = 15.48440 18.56513 17.02476
#
# Velocity S-wave (km/s) = 3.07072 3.36234 3.21983
# Velocity P-wave (km/s) = 5.87307 6.65401 6.27570
#
# Compressibility (1/GPa) = 0.02778017
#
# Stress axis : x y z
#
# Youngs Moduli (GPa) = 84.30192 67.87690 34.52508
#
# Poissons Ratio (x) = 0.27740 0.28887
# Poissons Ratio (y) = 0.34452 0.04956
# Poissons Ratio (z) = 0.70536 0.09744
#
# Static dielectric constant tensor:
#      x y z
#    x 3.209130 0.000000 0.000000 
#    y 0.000000 3.099970 0.000000 
#    z 0.000000 0.000000 3.063050 
# 
# 
# High freq. dielectric constant tensor:
#      x y z
#    x 1.621430 0.000000 0.000000 
#    y 0.000000 1.587490 0.000000 
#    z 0.000000 0.000000 1.629680 
# 
# From -- ./inp_files/13392.got.cif
#   From: 2010.03.12/outbox.cif.g09.slc.cpg/sg47_7_cif.got.tgz:13392.got - 2010.04.14 03:12:58.
