data_PCOD8201527
_publ_section_title
;
Structure prediction by ZEFSAII (Michael W. Deem and Ramdas Pophale) SiO2 
 PCOD8201527
Probable space group: P N N N
;
_chemical_formula_sum "Si O2"
_cell_formula_units_Z 48
_cell_length_a 16.457668
_cell_length_b 15.235828
_cell_length_c 8.432392
_cell_angle_alpha 90.000000
_cell_angle_beta 90.000000
_cell_angle_gamma 90.000000
_cell_volume 2114.390242
_symmetry_space_group_name_H-M "P N N N"
_symmetry_group_IT_number 48
_space_group.IT_coordinate_system_code '2'
_symmetry_cell_setting 'orthorhombic'
loop_
_space_group_symop_operation_xyz
x,y,z
1/2-x,1/2-y,z
x,1/2-y,1/2-z
1/2-x,y,1/2-z
-x,-y,-z
1/2+x,1/2+y,-z
-x,1/2+y,1/2+z
1/2+x,-y,1/2+z
loop_
_atom_site_type_symbol
_atom_site_label
_atom_site_fract_x
_atom_site_fract_y
_atom_site_fract_z
Si Si1 0.132549 0.747433 0.933812
Si Si2 0.599276 0.425284 0.575302
Si Si3 0.417502 0.093026 0.920080
Si Si4 0.083209 0.046708 0.947231
Si Si5 0.557479 0.766875 0.568075
Si Si6 0.322030 0.909725 0.378366
O O1 0.155396 0.750000 0.750000
O O2 0.038650 0.770023 0.967762
O O3 0.155435 0.650088 0.995741
O O4 0.186943 0.817218 0.030795
O O5 0.508811 0.413295 0.509974
O O6 0.633656 0.521053 0.521603
O O7 0.598181 0.411606 0.765033
O O8 0.411936 0.065504 0.738846
O O9 0.394631 0.194037 0.959931
O O10 0.095031 0.138940 0.033177
O O11 0.161357 0.986564 0.993502
O O12 0.000000 0.000000 0.000000
O O13 0.575540 0.750000 0.750000
O O14 0.250000 0.927919 0.250000
#
# Coordination Sequence:
#
# PCOD8201527 Si02
#       6
#     8   8   8   8   8   8
#     4  10  20  36  59  90 125 169 219 267 325 402
#     4  10  20  35  59  88 126 164 211 270 333 387
#     4  10  20  35  62  95 123 158 219 286 332 385
#     4  12  21  37  62  90 126 173 222 278 339 394
#     4  10  20  34  62  97 128 156 214 289 351 389
#     4  12  25  40  58  90 131 178 221 268 331 407
#
# _framework density 22.70158
#
# number of rings (size 3 to 8) (size 9 to 14) (size 15 to 20)
#    0.000    1.333    3.333    3.000    4.667    4.000 
#    0.000    4.167    0.000    4.500    0.000    4.667 
#    0.000    0.000    0.000    0.000    0.000    0.000 
#
# Total GULP energy -594893.274620 kJ/mol
# GULP energy per Si atom -12393.609888 kJ/mol
# Density = 2.264991 g / cm^3
# Si number density = 22.701580 Si / 1000 Ang^3
#
#
#
# Elastic Constant Matrix: (Units=GPa)
#
#
# Indices 1 2 3 4 5 6 
#
# 1 45.8646 32.8724 16.0472 0.0000 0.0000 0.0000
# 2 32.8724 215.3052 73.7138 0.0000 0.0000 0.0000
# 3 16.0472 73.7138 155.7156 0.0000 0.0000 0.0000
# 4 0.0000 0.0000 0.0000 54.5751 0.0000 0.0000
# 5 0.0000 0.0000 0.0000 0.0000 24.3692 0.0000
# 6 0.0000 0.0000 0.0000 0.0000 0.0000 9.1621
#
#
#
# Elastic Compliance Matrix: (Units=1/GPa)
#
#
# Indices 1 2 3 4 5 6 
#
# 1 0.024588 -0.003445 -0.000903 0.000000 0.000000 0.000000
# 2 -0.003445 0.006026 -0.002497 0.000000 0.000000 0.000000
# 3 -0.000903 -0.002497 0.007697 0.000000 0.000000 0.000000
# 4 0.000000 0.000000 0.000000 0.018323 0.000000 0.000000
# 5 0.000000 0.000000 0.000000 0.000000 0.041035 0.000000
# 6 0.000000 0.000000 0.000000 0.000000 0.000000 0.109146
#
#
# Mechanical properties :
#
#
# Convention : Reuss Voigt Hill
#
# Bulk Modulus (GPa) = 40.61696 73.57247 57.09472
# Shear Modulus (GPa) = 21.86144 37.23808 29.54976
#
# Velocity S-wave (km/s) = 3.10658 4.05449 3.61177
# Velocity P-wave (km/s) = 5.54962 7.37546 6.52670
#
# Compressibility (1/GPa) = 0.02462025
#
# Stress axis : x y z
#
# Youngs Moduli (GPa) = 40.66966 165.95947 129.91596
#
# Poissons Ratio (x) = 0.57171 0.11734
# Poissons Ratio (y) = 0.14010 0.32445
# Poissons Ratio (z) = 0.03673 0.41447
#
# Static dielectric constant tensor:
#      x y z
#    x 3.782890 0.000000 0.000000 
#    y 0.000000 4.561850 0.000000 
#    z 0.000000 0.000000 4.143090 
# 
# 
# High freq. dielectric constant tensor:
#      x y z
#    x 1.844150 0.000000 0.000000 
#    y 0.000000 1.915800 0.000000 
#    z 0.000000 0.000000 1.908960 
# 
# From -- ./inp_files/14131.got.cif
#   From: 2010.06.25/outbox.cif.g09.slc.cpg/sg48_8_cif.got.tgz:14131.got - 2010.06.26 18:06:46.
