data_PCOD8201580
_publ_section_title
;
Structure prediction by ZEFSAII (Michael W. Deem and Ramdas Pophale) SiO2 
 PCOD8201580
Probable space group: P N N N
;
_chemical_formula_sum "Si O2"
_cell_formula_units_Z 52
_cell_length_a 10.828059
_cell_length_b 16.253368
_cell_length_c 15.257035
_cell_angle_alpha 90.000000
_cell_angle_beta 90.000000
_cell_angle_gamma 90.000000
_cell_volume 2685.122628
_symmetry_space_group_name_H-M "P N N N"
_symmetry_group_IT_number 48
_space_group.IT_coordinate_system_code '2'
_symmetry_cell_setting 'orthorhombic'
loop_
_space_group_symop_operation_xyz
x,y,z
1/2-x,1/2-y,z
x,1/2-y,1/2-z
1/2-x,y,1/2-z
-x,-y,-z
1/2+x,1/2+y,-z
-x,1/2+y,1/2+z
1/2+x,-y,1/2+z
loop_
_atom_site_type_symbol
_atom_site_label
_atom_site_fract_x
_atom_site_fract_y
_atom_site_fract_z
Si Si1 0.363888 0.896097 0.539109
Si Si2 0.388456 0.141891 0.554343
Si Si3 0.199853 0.032734 0.487499
Si Si4 0.994140 0.278962 0.849757
Si Si5 0.995396 0.525536 0.133522
Si Si6 0.372332 0.002475 0.696868
Si Si7 0.250000 0.750000 0.453136
O O1 0.500896 0.868690 0.514621
O O2 0.260719 0.827424 0.518181
O O3 0.322019 0.975888 0.482910
O O4 0.360489 0.917749 0.642599
O O5 0.256897 0.124643 0.504030
O O6 0.395437 0.233806 0.595673
O O7 0.405940 0.077752 0.633704
O O8 0.119015 0.002505 0.570748
O O9 0.118971 0.020601 0.400428
O O10 0.003788 0.250000 0.750000
O O11 0.865844 0.248634 0.889005
O O12 0.998566 0.376069 0.862870
O O13 0.979524 0.490476 0.231016
O O14 0.250000 0.026142 0.750000
#
# Coordination Sequence:
#
# PCOD8201580 Si02
#       7
#     8   8   8   8   8   8   4
#     4  10  20  37  58  77 115 151 195 232 286 338
#     4  10  21  36  55  82 119 153 187 230 291 348
#     4  10  20  37  54  81 113 155 191 229 291 348
#     4  11  21  34  54  86 120 151 191 237 297 350
#     4  11  21  34  58  83 116 151 192 242 287 345
#     4  11  19  35  56  83 112 149 194 242 271 342
#     4  10  21  38  53  78 116 158 188 238 289 351
#
# _framework density 19.365970000000001
#
# number of rings (size 3 to 8) (size 9 to 14) (size 15 to 20)
#    0.000    1.538    6.154    2.077    0.000    0.615 
#    0.000    5.000    0.000    0.000    0.000    0.000 
#    0.000   10.462    0.000    0.000    0.000    0.000 
#
# Total GULP energy -644419.372299 kJ/mol
# GULP energy per Si atom -12392.680237 kJ/mol
# Density = 1.932189 g / cm^3
# Si number density = 19.365970 Si / 1000 Ang^3
#
#
#
# Elastic Constant Matrix: (Units=GPa)
#
#
# Indices 1 2 3 4 5 6 
#
# 1 77.6760 28.8848 35.2358 0.0000 0.0000 0.0000
# 2 28.8848 79.6704 43.1578 0.0000 0.0000 0.0000
# 3 35.2358 43.1578 92.5941 0.0000 0.0000 0.0000
# 4 0.0000 0.0000 0.0000 27.6075 0.0000 0.0000
# 5 0.0000 0.0000 0.0000 0.0000 30.4117 0.0000
# 6 0.0000 0.0000 0.0000 0.0000 0.0000 31.0018
#
#
#
# Elastic Compliance Matrix: (Units=1/GPa)
#
#
# Indices 1 2 3 4 5 6 
#
# 1 0.016218 -0.003394 -0.004590 0.000000 0.000000 0.000000
# 2 -0.003394 0.017501 -0.006866 0.000000 0.000000 0.000000
# 3 -0.004590 -0.006866 0.015747 0.000000 0.000000 0.000000
# 4 0.000000 0.000000 0.000000 0.036222 0.000000 0.000000
# 5 0.000000 0.000000 0.000000 0.000000 0.032882 0.000000
# 6 0.000000 0.000000 0.000000 0.000000 0.000000 0.032256
#
#
# Mechanical properties :
#
#
# Convention : Reuss Voigt Hill
#
# Bulk Modulus (GPa) = 50.58864 51.61080 51.09972
# Shear Modulus (GPa) = 26.72166 27.31502 27.01834
#
# Velocity S-wave (km/s) = 3.71863 3.75969 3.73922
# Velocity P-wave (km/s) = 6.67958 6.74945 6.71461
#
# Compressibility (1/GPa) = 0.01976728
#
# Stress axis : x y z
#
# Youngs Moduli (GPa) = 61.65984 57.13836 63.50548
#
# Poissons Ratio (x) = 0.19390 0.29148
# Poissons Ratio (y) = 0.20924 0.43603
# Poissons Ratio (z) = 0.28301 0.39231
#
# Static dielectric constant tensor:
#      x y z
#    x 3.619350 0.000000 0.000000 
#    y 0.000000 3.638100 0.000000 
#    z 0.000000 0.000000 3.699930 
# 
# 
# High freq. dielectric constant tensor:
#      x y z
#    x 1.759140 0.000000 0.000000 
#    y 0.000000 1.737060 0.000000 
#    z 0.000000 0.000000 1.744810 
# 
# From -- ./inp_files/26643.got.cif
#   From: 2010.06.25/outbox.cif.g09.slc.cpg/sg48_14_cif.got.tgz:26643.got - 2010.06.26 18:06:46.
