data_PCOD8201353
_publ_section_title
;
Structure prediction by ZEFSAII (Michael W. Deem and Ramdas Pophale) SiO2 
 PCOD8201353
Probable space group: P N N N
;
_chemical_formula_sum "Si O2"
_cell_formula_units_Z 44
_cell_length_a 14.548974
_cell_length_b 18.291895
_cell_length_c 8.139084
_cell_angle_alpha 90.000000
_cell_angle_beta 90.000000
_cell_angle_gamma 90.000000
_cell_volume 2166.040627
_symmetry_space_group_name_H-M "P N N N"
_symmetry_group_IT_number 48
_space_group.IT_coordinate_system_code '2'
_symmetry_cell_setting 'orthorhombic'
loop_
_space_group_symop_operation_xyz
x,y,z
1/2-x,1/2-y,z
x,1/2-y,1/2-z
1/2-x,y,1/2-z
-x,-y,-z
1/2+x,1/2+y,-z
-x,1/2+y,1/2+z
1/2+x,-y,1/2+z
loop_
_atom_site_type_symbol
_atom_site_label
_atom_site_fract_x
_atom_site_fract_y
_atom_site_fract_z
Si Si1 0.750000 0.931510 0.750000
Si Si2 0.550935 0.250000 0.750000
Si Si3 0.355525 0.990423 0.984214
Si Si4 0.603860 0.300898 0.090122
Si Si5 0.927086 0.667243 0.738430
Si Si6 0.487636 0.111783 0.917734
Si Si7 0.750000 0.392483 0.250000
O O1 0.660392 0.883868 0.704723
O O2 0.770775 0.983541 0.595845
O O3 0.613080 0.239583 0.586050
O O4 0.490944 0.176248 0.780915
O O5 0.325887 0.940402 0.836113
O O6 0.398080 0.061719 0.895387
O O7 0.425824 0.943502 0.096173
O O8 0.599976 0.250000 0.250000
O O9 0.504605 0.343014 0.094772
O O10 0.696639 0.347418 0.109198
O O11 0.889582 0.750000 0.750000
O O12 0.981691 0.648842 0.904585
#
# Coordination Sequence:
#
# PCOD8201353 Si02
#       7
#     4   4   8   8   8   8   4
#     4  10  23  36  66  91 122 182 222 254 330 393
#     4  12  22  40  73  99 120 172 224 270 335 393
#     4  10  23  41  60  89 135 168 215 266 327 393
#     4  11  23  41  66  97 133 163 214 272 334 384
#     4  10  18  41  63  90 128 168 213 275 325 384
#     4  10  21  41  63  91 127 170 211 276 324 390
#     4  12  23  42  60  91 134 172 208 272 318 389
#
# _framework density 20.313562000000001
#
# number of rings (size 3 to 8) (size 9 to 14) (size 15 to 20)
#    0.000    1.455    5.455    0.545    2.545    1.455 
#    0.000    5.455    0.000    1.091    0.000    0.000 
#    0.000    0.000    0.000    0.000    0.000    0.000 
#
# Total GULP energy -545312.793830 kJ/mol
# GULP energy per Si atom -12393.472587 kJ/mol
# Density = 2.026733 g / cm^3
# Si number density = 20.313562 Si / 1000 Ang^3
#
#
#
# Elastic Constant Matrix: (Units=GPa)
#
#
# Indices 1 2 3 4 5 6 
#
# 1 84.0794 39.5422 41.7323 0.0000 0.0000 0.0000
# 2 39.5422 113.8461 48.5449 0.0000 0.0000 0.0000
# 3 41.7323 48.5449 116.9200 0.0000 0.0000 0.0000
# 4 0.0000 0.0000 0.0000 27.8809 0.0000 0.0000
# 5 0.0000 0.0000 0.0000 0.0000 20.5735 0.0000
# 6 0.0000 0.0000 0.0000 0.0000 0.0000 4.1093
#
#
#
# Elastic Compliance Matrix: (Units=1/GPa)
#
#
# Indices 1 2 3 4 5 6 
#
# 1 0.015645 -0.003710 -0.004044 0.000000 0.000000 0.000000
# 2 -0.003710 0.011553 -0.003473 0.000000 0.000000 0.000000
# 3 -0.004044 -0.003473 0.011438 0.000000 0.000000 0.000000
# 4 0.000000 0.000000 0.000000 0.035867 0.000000 0.000000
# 5 0.000000 0.000000 0.000000 0.000000 0.048606 0.000000
# 6 0.000000 0.000000 0.000000 0.000000 0.000000 0.243349
#
#
# Mechanical properties :
#
#
# Convention : Reuss Voigt Hill
#
# Bulk Modulus (GPa) = 61.79050 63.83157 62.81103
# Shear Modulus (GPa) = 12.68051 22.84782 17.76417
#
# Velocity S-wave (km/s) = 2.50119 3.35738 2.96040
# Velocity P-wave (km/s) = 6.23102 6.82061 6.53247
#
# Compressibility (1/GPa) = 0.01618372
#
# Stress axis : x y z
#
# Youngs Moduli (GPa) = 63.91640 86.55711 87.42661
#
# Poissons Ratio (x) = 0.32110 0.35356
# Poissons Ratio (y) = 0.23711 0.30361
# Poissons Ratio (z) = 0.25848 0.30059
#
# Static dielectric constant tensor:
#      x y z
#    x 3.904530 0.000000 0.000000 
#    y 0.000000 4.032440 0.000000 
#    z 0.000000 0.000000 3.434010 
# 
# 
# High freq. dielectric constant tensor:
#      x y z
#    x 1.790710 0.000000 0.000000 
#    y 0.000000 1.806970 0.000000 
#    z 0.000000 0.000000 1.772460 
# 
# From -- ./inp_files/12707.got.cif
#   From: 2010.06.25/outbox.cif.g09.slc.cpg/sg48_7_cif.got.tgz:12707.got - 2010.06.26 18:06:46.
