data_PCOD8201143
_publ_section_title
;
Structure prediction by ZEFSAII (Michael W. Deem and Ramdas Pophale) SiO2 
 PCOD8201143
Probable space group: P M M M
;
_chemical_formula_sum "Si O2"
_cell_formula_units_Z 52
_cell_length_a 17.613717
_cell_length_b 9.105688
_cell_length_c 17.744328
_cell_angle_alpha 90.000000
_cell_angle_beta 90.000000
_cell_angle_gamma 90.000000
_cell_volume 2845.924251
_symmetry_space_group_name_H-M "P M M M"
_symmetry_group_IT_number 47
_symmetry_cell_setting 'orthorhombic'
loop_
_space_group_symop_operation_xyz
x,y,z
-x,-y,z
x,-y,-z
-x,y,-z
-x,-y,-z
x,y,-z
-x,y,z
x,-y,z
loop_
_atom_site_type_symbol
_atom_site_label
_atom_site_fract_x
_atom_site_fract_y
_atom_site_fract_z
Si Si1 0.880001 0.166154 0.500000
Si Si2 0.584242 0.825605 0.916327
Si Si3 0.000000 0.173648 0.915378
Si Si4 0.300720 0.665049 0.354842
Si Si5 0.301189 0.165723 0.500000
Si Si6 0.120395 0.334573 0.646737
Si Si7 0.124186 0.172455 0.797493
Si Si8 0.701673 0.172976 0.794556
O O1 0.789419 0.166462 0.500000
O O2 0.911879 0.248166 0.425793
O O3 0.910986 0.000000 0.500000
O O4 0.500000 0.775758 0.889735
O O5 0.648716 0.764010 0.860958
O O6 0.588444 0.000000 0.917907
O O7 0.600630 0.763810 0.000000
O O8 0.074921 0.224286 0.869492
O O9 0.000000 0.000000 0.923007
O O10 0.000000 0.243012 0.000000
O O11 0.333195 0.500000 0.354937
O O12 0.333394 0.750904 0.426884
O O13 0.210482 0.663708 0.357745
O O14 0.327882 0.748681 0.280486
O O15 0.332369 0.000000 0.500000
O O16 0.087921 0.500000 0.646247
O O17 0.093710 0.254722 0.723162
O O18 0.211512 0.213381 0.814485
O O19 0.114319 0.000000 0.782211
O O20 0.692359 0.000000 0.782473
#
# Coordination Sequence:
#
# PCOD8201143 Si02
#       8
#     4   8   4   8   4   8   8   8
#     4   9  15  23  39  64  92 120 150 184 222 265
#     4   8  14  25  42  66  94 119 144 180 226 270
#     4   9  18  32  49  68  89 114 147 189 234 275
#     4   9  16  25  38  59  89 122 153 185 223 266
#     4   9  15  23  37  59  89 121 153 190 225 258
#     4   9  16  26  41  62  89 120 152 185 223 266
#     4   9  17  29  45  65  89 117 150 188 228 267
#     4   9  16  26  43  67  91 116 150 188 222 262
#
# _framework density 18.271744000000002
#
# number of rings (size 3 to 8) (size 9 to 14) (size 15 to 20)
#    0.000    3.154    0.000    1.846    0.000    6.154 
#    0.000    3.462    0.000    2.308    0.000    9.154 
#    0.000    4.308    0.000    0.000    0.000    0.000 
#
# Total GULP energy -644596.032047 kJ/mol
# GULP energy per Si atom -12396.077539 kJ/mol
# Density = 1.823016 g / cm^3
# Si number density = 18.271744 Si / 1000 Ang^3
#
#
#
# Elastic Constant Matrix: (Units=GPa)
#
#
# Indices 1 2 3 4 5 6 
#
# 1 65.8763 25.5230 65.6465 0.0000 0.0000 0.0000
# 2 25.5230 85.9991 64.1602 0.0000 0.0000 0.0000
# 3 65.6465 64.1602 191.3821 0.0000 0.0000 0.0000
# 4 0.0000 0.0000 0.0000 7.5578 0.0000 0.0000
# 5 0.0000 0.0000 0.0000 0.0000 -1.7530 0.0000
# 6 0.0000 0.0000 0.0000 0.0000 0.0000 3.4448
#
#
#
# Elastic Compliance Matrix: (Units=1/GPa)
#
#
# Indices 1 2 3 4 5 6 
#
# 1 0.023166 -0.001263 -0.007523 0.000000 0.000000 0.000000
# 2 -0.001263 0.015575 -0.004788 0.000000 0.000000 0.000000
# 3 -0.007523 -0.004788 0.009411 0.000000 0.000000 0.000000
# 4 0.000000 0.000000 0.000000 0.132314 0.000000 0.000000
# 5 0.000000 0.000000 0.000000 0.000000 -0.570453 0.000000
# 6 0.000000 0.000000 0.000000 0.000000 0.000000 0.290292
#
#
# Mechanical properties :
#
#
# Convention : Reuss Voigt Hill
#
# Bulk Modulus (GPa) = 47.61014 72.65745 60.13379
# Shear Modulus (GPa) = -76.28231 14.37844 -30.95194
#
# Velocity S-wave (km/s) = -6.46834 2.80826 -4.12026
# Velocity P-wave (km/s) = 5.44726 7.09692 3.21665
#
# Compressibility (1/GPa) = 0.02100393
#
# Stress axis : x y z
#
# Youngs Moduli (GPa) = 43.16712 64.20460 106.26005
#
# Poissons Ratio (x) = 0.08107 0.79938
# Poissons Ratio (y) = 0.05451 0.50882
# Poissons Ratio (z) = 0.32474 0.30744
#
# Static dielectric constant tensor:
#      x y z
#    x 3.059060 0.000000 0.000000 
#    y 0.000000 3.250400 0.000000 
#    z 0.000000 0.000000 3.659590 
# 
# 
# High freq. dielectric constant tensor:
#      x y z
#    x 1.666630 0.000000 0.000000 
#    y 0.000000 1.686690 0.000000 
#    z 0.000000 0.000000 1.717170 
# 
# From -- ./inp_files/25086.got.cif
#   From: 2010.03.12/outbox.cif.g09.slc.cpg/sg47_13_cif.got.tgz:25086.got - 2010.04.14 03:12:58.
