data_PCOD8201969
_publ_section_title
;
Structure prediction by ZEFSAII (Michael W. Deem and Ramdas Pophale) SiO2 
 PCOD8201969
Probable space group: P N N N
;
_chemical_formula_sum "Si O2"
_cell_formula_units_Z 38
_cell_length_a 6.765166
_cell_length_b 20.263220
_cell_length_c 12.246755
_cell_angle_alpha 90.000000
_cell_angle_beta 90.000000
_cell_angle_gamma 90.000000
_cell_volume 1678.834738
_symmetry_space_group_name_H-M "P N N N"
_symmetry_group_IT_number 48
_space_group.IT_coordinate_system_code '2'
_symmetry_cell_setting 'orthorhombic'
loop_
_space_group_symop_operation_xyz
x,y,z
1/2-x,1/2-y,z
x,1/2-y,1/2-z
1/2-x,y,1/2-z
-x,-y,-z
1/2+x,1/2+y,-z
-x,1/2+y,1/2+z
1/2+x,-y,1/2+z
loop_
_atom_site_type_symbol
_atom_site_label
_atom_site_fract_x
_atom_site_fract_y
_atom_site_fract_z
Si Si1 0.415136 0.659620 0.426448
Si Si2 0.793955 0.921479 0.022990
Si Si3 0.676830 0.460621 0.873027
Si Si4 0.630528 0.686629 0.854641
Si Si5 0.250000 0.750000 0.892089
Si Si6 0.250000 0.750000 0.250000
O O1 0.613418 0.615730 0.419142
O O2 0.236590 0.608863 0.423410
O O3 0.392048 0.703125 0.534840
O O4 0.401118 0.706583 0.321232
O O5 0.900683 0.867263 0.947496
O O6 0.725527 0.980205 0.942390
O O7 0.937751 0.955442 0.113570
O O8 0.750000 0.469768 0.750000
O O9 0.750000 0.750000 0.900142
O O10 0.750000 0.658161 0.750000
O O11 0.406081 0.707805 0.819710
#
# Coordination Sequence:
#
# PCOD8201969 Si02
#       6
#     8   8   8   8   4   2
#     4  11  22  44  69 100 140 180 228 289 365 413
#     4  11  24  44  72  98 139 189 227 292 358 419
#     4  11  24  45  69 101 139 180 242 288 347 435
#     4  11  23  41  67  99 134 181 233 283 349 427
#     4  11  22  42  67  98 140 176 227 299 357 415
#     4  10  24  44  72 108 140 180 232 298 348 450
#
# _framework density 22.634746
#
# number of rings (size 3 to 8) (size 9 to 14) (size 15 to 20)
#    0.000    1.053    5.263    1.263    0.000    2.526 
#    0.000    1.053    0.000    0.000    0.000    0.000 
#    0.000    0.000    0.000    0.000    0.000    0.000 
#
# Total GULP energy -470925.403146 kJ/mol
# GULP energy per Si atom -12392.773767 kJ/mol
# Density = 2.258323 g / cm^3
# Si number density = 22.634746 Si / 1000 Ang^3
#
#
#
# Elastic Constant Matrix: (Units=GPa)
#
#
# Indices 1 2 3 4 5 6 
#
# 1 125.2047 24.8495 57.2163 0.0000 0.0000 0.0000
# 2 24.8495 112.6969 38.7177 0.0000 0.0000 0.0000
# 3 57.2163 38.7177 123.6812 0.0000 0.0000 0.0000
# 4 0.0000 0.0000 0.0000 18.9969 0.0000 0.0000
# 5 0.0000 0.0000 0.0000 0.0000 -152.1279 0.0000
# 6 0.0000 0.0000 0.0000 0.0000 0.0000 33.4164
#
#
#
# Elastic Compliance Matrix: (Units=1/GPa)
#
#
# Indices 1 2 3 4 5 6 
#
# 1 0.010177 -0.000702 -0.004488 0.000000 0.000000 0.000000
# 2 -0.000702 0.009991 -0.002803 0.000000 0.000000 0.000000
# 3 -0.004488 -0.002803 0.011039 0.000000 0.000000 0.000000
# 4 0.000000 0.000000 0.000000 0.052640 0.000000 0.000000
# 5 0.000000 0.000000 0.000000 0.000000 -0.006573 0.000000
# 6 0.000000 0.000000 0.000000 0.000000 0.000000 0.029925
#
#
# Mechanical properties :
#
#
# Convention : Reuss Voigt Hill
#
# Bulk Modulus (GPa) = 65.69908 67.01665 66.35786
# Shear Modulus (GPa) = 38.98330 -3.88963 17.54684
#
# Velocity S-wave (km/s) = 4.15453 -1.31231 2.78729
# Velocity P-wave (km/s) = 7.21819 5.23220 6.30390
#
# Compressibility (1/GPa) = 0.01522091
#
# Stress axis : x y z
#
# Youngs Moduli (GPa) = 98.25717 100.08893 90.58700
#
# Poissons Ratio (x) = 0.07027 0.40659
# Poissons Ratio (y) = 0.06898 0.25390
# Poissons Ratio (z) = 0.44102 0.28054
#
# Static dielectric constant tensor:
#      x y z
#    x 6.108230 0.000000 0.000000 
#    y 0.000000 4.283660 0.000000 
#    z 0.000000 0.000000 3.828710 
# 
# 
# High freq. dielectric constant tensor:
#      x y z
#    x 1.893940 0.000000 0.000000 
#    y 0.000000 1.904800 0.000000 
#    z 0.000000 0.000000 1.881520 
# 
# From -- ./inp_files/24318.got.cif
#   From: 2010.06.25/outbox.cif.g09.slc.cpg/sg48_13_cif.got.tgz:24318.got - 2010.06.26 18:06:46.
