data_PCOD8201046
_publ_section_title
;
Structure prediction by ZEFSAII (Michael W. Deem and Ramdas Pophale) SiO2 
 PCOD8201046
Probable space group: P M M M
;
_chemical_formula_sum "Si O2"
_cell_formula_units_Z 64
_cell_length_a 21.274301
_cell_length_b 9.333876
_cell_length_c 21.973321
_cell_angle_alpha 90.000000
_cell_angle_beta 90.000000
_cell_angle_gamma 90.000000
_cell_volume 4363.279431
_symmetry_space_group_name_H-M "P M M M"
_symmetry_group_IT_number 47
_symmetry_cell_setting 'orthorhombic'
loop_
_space_group_symop_operation_xyz
x,y,z
-x,-y,z
x,-y,-z
-x,y,-z
-x,-y,-z
x,y,-z
-x,y,z
x,-y,z
loop_
_atom_site_type_symbol
_atom_site_label
_atom_site_fract_x
_atom_site_fract_y
_atom_site_fract_z
Si Si1 0.264131 0.666048 0.832071
Si Si2 0.326513 0.668130 0.431689
Si Si3 0.571994 0.666302 0.666174
Si Si4 0.168866 0.666409 0.930646
Si Si5 0.831879 0.836464 0.755746
Si Si6 0.070426 0.834749 0.850260
Si Si7 0.755075 0.842272 0.349887
Si Si8 0.650443 0.162190 0.245739
O O1 0.279743 0.500000 0.820307
O O2 0.237695 0.693442 0.900261
O O3 0.207954 0.714582 0.788601
O O4 0.326565 0.758529 0.816297
O O5 0.335951 0.727102 0.500000
O O6 0.317648 0.500000 0.432072
O O7 0.387022 0.715025 0.392257
O O8 0.262405 0.731824 0.402956
O O9 0.500000 0.697395 0.649452
O O10 0.583909 0.500000 0.680777
O O11 0.590465 0.756193 0.725988
O O12 0.150947 0.500000 0.925397
O O13 0.113295 0.753285 0.898664
O O14 0.174164 0.717781 0.000000
O O15 0.902805 0.818888 0.780892
O O16 0.823259 0.812213 0.682358
O O17 0.807859 0.000000 0.770831
O O18 0.000000 0.771107 0.850928
O O19 0.070013 0.000000 0.869918
O O20 0.706026 0.830498 0.294551
O O21 0.753290 0.000000 0.379385
O O22 0.630973 0.000000 0.229855
#
# Coordination Sequence:
#
# PCOD8201046 Si02
#       8
#     8   8   8   8   8   8   8   8
#     4   9  15  24  40  58  74  95 126 162 198 234
#     4   9  17  27  38  54  77 104 132 161 192 225
#     4   9  17  28  41  57  78 105 136 165 189 219
#     4   9  18  30  41  55  78 108 138 166 196 229
#     4   8  14  25  39  55  75  97 123 158 200 239
#     4   9  17  28  41  57  78 105 136 167 197 231
#     4   8  14  24  38  54  71  94 123 156 195 235
#     4   9  16  26  40  57  77  99 124 158 200 239
#
# _framework density 14.667868
#
# number of rings (size 3 to 8) (size 9 to 14) (size 15 to 20)
#    0.000    3.250    0.000    1.500    0.000    5.000 
#    0.000    2.500    0.000    0.000    0.000    3.500 
#    0.000    1.000    0.000   12.000    0.000    3.125 
#
# Total GULP energy -792890.750506 kJ/mol
# GULP energy per Si atom -12388.917977 kJ/mol
# Density = 1.463448 g / cm^3
# Si number density = 14.667868 Si / 1000 Ang^3
#
#
#
# Elastic Constant Matrix: (Units=GPa)
#
#
# Indices 1 2 3 4 5 6 
#
# 1 52.1867 32.6272 63.1711 0.0000 0.0000 0.0000
# 2 32.6272 57.8635 41.9055 0.0000 0.0000 0.0000
# 3 63.1711 41.9055 86.2881 0.0000 0.0000 0.0000
# 4 0.0000 0.0000 0.0000 18.6299 0.0000 0.0000
# 5 0.0000 0.0000 0.0000 0.0000 17.3880 0.0000
# 6 0.0000 0.0000 0.0000 0.0000 0.0000 18.5807
#
#
#
# Elastic Compliance Matrix: (Units=1/GPa)
#
#
# Indices 1 2 3 4 5 6 
#
# 1 0.171285 -0.008897 -0.121077 0.000000 0.000000 0.000000
# 2 -0.008897 0.027120 -0.006658 0.000000 0.000000 0.000000
# 3 -0.121077 -0.006658 0.103462 0.000000 0.000000 0.000000
# 4 0.000000 0.000000 0.000000 0.053677 0.000000 0.000000
# 5 0.000000 0.000000 0.000000 0.000000 0.057511 0.000000
# 6 0.000000 0.000000 0.000000 0.000000 0.000000 0.053819
#
#
# Mechanical properties :
#
#
# Convention : Reuss Voigt Hill
#
# Bulk Modulus (GPa) = 34.95797 52.41623 43.68710
# Shear Modulus (GPa) = 6.66958 14.82867 10.74912
#
# Velocity S-wave (km/s) = 2.13470 3.18301 2.71003
# Velocity P-wave (km/s) = 5.47364 7.02294 6.29613
#
# Compressibility (1/GPa) = 0.02860578
#
# Stress axis : x y z
#
# Youngs Moduli (GPa) = 5.83821 36.87303 9.66538
#
# Poissons Ratio (x) = 0.32804 1.17025
# Poissons Ratio (y) = 0.05194 0.06435
# Poissons Ratio (z) = 0.70687 0.24549
#
# Static dielectric constant tensor:
#      x y z
#    x 2.805180 0.000000 0.000000 
#    y 0.000000 2.919950 0.000000 
#    z 0.000000 0.000000 2.930380 
# 
# 
# High freq. dielectric constant tensor:
#      x y z
#    x 1.529490 0.000000 0.000000 
#    y 0.000000 1.568600 0.000000 
#    z 0.000000 0.000000 1.537320 
# 
# From -- ./inp_files/10176.got.cif
#   From: 2010.03.12/outbox.cif.g09.slc.cpg/sg47_6_cif.got.tgz:10176.got - 2010.04.14 03:12:58.
