data_PCOD8201387
_publ_section_title
;
Structure prediction by ZEFSAII (Michael W. Deem and Ramdas Pophale) SiO2 
 PCOD8201387
Probable space group: P N N N
;
_chemical_formula_sum "Si O2"
_cell_formula_units_Z 48
_cell_length_a 32.574158
_cell_length_b 8.966642
_cell_length_c 8.507531
_cell_angle_alpha 90.000000
_cell_angle_beta 90.000000
_cell_angle_gamma 90.000000
_cell_volume 2484.886573
_symmetry_space_group_name_H-M "P N N N"
_symmetry_group_IT_number 48
_space_group.IT_coordinate_system_code '2'
_symmetry_cell_setting 'orthorhombic'
loop_
_space_group_symop_operation_xyz
x,y,z
1/2-x,1/2-y,z
x,1/2-y,1/2-z
1/2-x,y,1/2-z
-x,-y,-z
1/2+x,1/2+y,-z
-x,1/2+y,1/2+z
1/2+x,-y,1/2+z
loop_
_atom_site_type_symbol
_atom_site_label
_atom_site_fract_x
_atom_site_fract_y
_atom_site_fract_z
Si Si1 0.292563 0.917883 0.302612
Si Si2 0.111668 0.423638 0.776368
Si Si3 0.335935 0.842167 0.596457
Si Si4 0.543415 0.095028 0.825197
Si Si5 0.866886 0.064930 0.592194
Si Si6 0.969792 0.089151 0.312357
O O1 0.288783 0.750000 0.250000
O O2 0.250000 0.000135 0.250000
O O3 0.299260 0.917191 0.492739
O O4 0.330611 0.990186 0.207398
O O5 0.117666 0.250000 0.750000
O O6 0.135484 0.521975 0.648107
O O7 0.064178 0.468454 0.761473
O O8 0.130094 0.450778 0.948986
O O9 0.319611 0.750000 0.750000
O O10 0.360651 0.731795 0.478615
O O11 0.531287 0.250000 0.750000
O O12 0.591542 0.059574 0.804600
O O13 0.514444 0.965687 0.749304
O O14 0.530104 0.107849 0.003238
O O15 0.957445 0.250000 0.250000
#
# Coordination Sequence:
#
# PCOD8201387 Si02
#       6
#     8   8   8   8   8   8
#     4   9  17  32  55  83 110 135 170 218 266 313
#     4  10  19  34  54  75 102 138 180 221 261 313
#     4   9  17  32  56  80 104 139 175 214 263 313
#     4  10  19  33  51  73 103 138 174 214 261 317
#     4   9  18  34  53  76 106 137 173 217 267 317
#     4  10  21  35  51  75 105 136 174 220 266 310
#
# _framework density 19.316779
#
# number of rings (size 3 to 8) (size 9 to 14) (size 15 to 20)
#    0.000    2.500    0.000    4.500    0.000    0.667 
#    0.000   25.000    0.000    3.000    0.000    0.000 
#    0.000    0.000    0.000    0.000    0.000    0.000 
#
# Total GULP energy -594833.277940 kJ/mol
# GULP energy per Si atom -12392.359957 kJ/mol
# Density = 1.927281 g / cm^3
# Si number density = 19.316779 Si / 1000 Ang^3
#
#
#
# Elastic Constant Matrix: (Units=GPa)
#
#
# Indices 1 2 3 4 5 6 
#
# 1 154.6067 37.3754 64.7593 0.0000 0.0000 0.0000
# 2 37.3754 98.2382 31.7308 0.0000 0.0000 0.0000
# 3 64.7593 31.7308 81.1384 0.0000 0.0000 0.0000
# 4 0.0000 0.0000 0.0000 15.0861 0.0000 0.0000
# 5 0.0000 0.0000 0.0000 0.0000 26.0479 0.0000
# 6 0.0000 0.0000 0.0000 0.0000 0.0000 14.6255
#
#
#
# Elastic Compliance Matrix: (Units=1/GPa)
#
#
# Indices 1 2 3 4 5 6 
#
# 1 0.009879 -0.001387 -0.007342 0.000000 0.000000 0.000000
# 2 -0.001387 0.011846 -0.003526 0.000000 0.000000 0.000000
# 3 -0.007342 -0.003526 0.019563 0.000000 0.000000 0.000000
# 4 0.000000 0.000000 0.000000 0.066286 0.000000 0.000000
# 5 0.000000 0.000000 0.000000 0.000000 0.038391 0.000000
# 6 0.000000 0.000000 0.000000 0.000000 0.000000 0.068374
#
#
# Mechanical properties :
#
#
# Convention : Reuss Voigt Hill
#
# Bulk Modulus (GPa) = 59.59984 66.85713 63.22849
# Shear Modulus (GPa) = 20.45490 24.49310 22.47400
#
# Velocity S-wave (km/s) = 3.25763 3.56472 3.41463
# Velocity P-wave (km/s) = 6.71345 7.18533 6.95340
#
# Compressibility (1/GPa) = 0.01677857
#
# Stress axis : x y z
#
# Youngs Moduli (GPa) = 101.22835 84.41844 51.11597
#
# Poissons Ratio (x) = 0.11708 0.37530
# Poissons Ratio (y) = 0.14039 0.18021
# Poissons Ratio (z) = 0.74323 0.29762
#
# Static dielectric constant tensor:
#      x y z
#    x 4.239260 0.000000 0.000000 
#    y 0.000000 3.568610 0.000000 
#    z 0.000000 0.000000 3.734540 
# 
# 
# High freq. dielectric constant tensor:
#      x y z
#    x 1.751240 0.000000 0.000000 
#    y 0.000000 1.717360 0.000000 
#    z 0.000000 0.000000 1.754530 
# 
# From -- ./inp_files/9455.got.cif
#   From: 2010.06.25/outbox.cif.g09.slc.cpg/sg48_5_cif.got.tgz:9455.got - 2010.06.26 18:06:46.
