data_PCOD8201725
_publ_section_title
;
Structure prediction by ZEFSAII (Michael W. Deem and Ramdas Pophale) SiO2 
 PCOD8201725
Probable space group: P N N N
;
_chemical_formula_sum "Si O2"
_cell_formula_units_Z 64
_cell_length_a 19.923111
_cell_length_b 9.272126
_cell_length_c 16.016756
_cell_angle_alpha 90.000000
_cell_angle_beta 90.000000
_cell_angle_gamma 90.000000
_cell_volume 2958.768857
_symmetry_space_group_name_H-M "P N N N"
_symmetry_group_IT_number 48
_space_group.IT_coordinate_system_code '2'
_symmetry_cell_setting 'orthorhombic'
loop_
_space_group_symop_operation_xyz
x,y,z
1/2-x,1/2-y,z
x,1/2-y,1/2-z
1/2-x,y,1/2-z
-x,-y,-z
1/2+x,1/2+y,-z
-x,1/2+y,1/2+z
1/2+x,-y,1/2+z
loop_
_atom_site_type_symbol
_atom_site_label
_atom_site_fract_x
_atom_site_fract_y
_atom_site_fract_z
Si Si1 0.047548 0.948751 0.686299
Si Si2 0.090716 0.527374 0.126357
Si Si3 0.877463 0.726555 0.580370
Si Si4 0.824289 0.956760 0.785201
Si Si5 0.175785 0.698934 0.417614
Si Si6 0.363527 0.494663 0.945462
Si Si7 0.674730 0.919663 0.260137
Si Si8 0.020698 0.637707 0.631384
O O1 0.055202 0.794812 0.641381
O O2 0.019112 0.939340 0.779452
O O3 0.121945 0.018802 0.691298
O O4 0.990631 0.041640 0.635537
O O5 0.111509 0.396271 0.063853
O O6 0.121134 0.473729 0.213432
O O7 0.121706 0.672261 0.089120
O O8 0.829962 0.693823 0.661835
O O9 0.850192 0.654422 0.495387
O O10 0.945888 0.645733 0.600048
O O11 0.750000 0.973664 0.750000
O O12 0.843886 0.083354 0.848623
O O13 0.250000 0.750000 0.397304
O O14 0.175205 0.625664 0.508704
O O15 0.339815 0.474745 0.852087
O O16 0.440973 0.543266 0.938157
O O17 0.670784 0.750000 0.250000
O O18 0.750000 0.978017 0.250000
#
# Coordination Sequence:
#
# PCOD8201725 Si02
#       8
#     8   8   8   8   8   8   8   8
#     4   9  19  37  66  97 123 163 216 272 311 381
#     4  11  21  38  62  96 132 170 220 260 305 386
#     4  10  21  38  61  96 129 174 210 264 326 374
#     4  11  21  37  59  88 132 179 222 254 302 382
#     4  11  24  41  57  93 135 175 213 263 326 383
#     4  10  23  43  64  91 127 171 209 268 338 395
#     4  10  23  47  70  97 120 160 221 279 334 383
#     4   9  17  38  64  91 129 163 214 262 319 386
#
# _framework density 21.630618999999999
#
# number of rings (size 3 to 8) (size 9 to 14) (size 15 to 20)
#    0.000    1.875    2.500    1.125    0.000    3.000 
#   11.250    5.625    0.000    0.000    0.000    0.000 
#    0.000    0.000    0.000    0.000    0.000    0.000 
#
# Total GULP energy -793234.529028 kJ/mol
# GULP energy per Si atom -12394.289516 kJ/mol
# Density = 2.158139 g / cm^3
# Si number density = 21.630619 Si / 1000 Ang^3
#
#
#
# Elastic Constant Matrix: (Units=GPa)
#
#
# Indices 1 2 3 4 5 6 
#
# 1 118.4971 43.2121 16.0510 0.0000 0.0000 0.0000
# 2 43.2121 92.0631 24.4624 0.0000 0.0000 0.0000
# 3 16.0510 24.4624 61.0405 0.0000 0.0000 0.0000
# 4 0.0000 0.0000 0.0000 15.0540 0.0000 0.0000
# 5 0.0000 0.0000 0.0000 0.0000 19.0231 0.0000
# 6 0.0000 0.0000 0.0000 0.0000 0.0000 33.5058
#
#
#
# Elastic Compliance Matrix: (Units=1/GPa)
#
#
# Indices 1 2 3 4 5 6 
#
# 1 0.010222 -0.004570 -0.000856 0.000000 0.000000 0.000000
# 2 -0.004570 0.014200 -0.004489 0.000000 0.000000 0.000000
# 3 -0.000856 -0.004489 0.018407 0.000000 0.000000 0.000000
# 4 0.000000 0.000000 0.000000 0.066427 0.000000 0.000000
# 5 0.000000 0.000000 0.000000 0.000000 0.052568 0.000000
# 6 0.000000 0.000000 0.000000 0.000000 0.000000 0.029846
#
#
# Mechanical properties :
#
#
# Convention : Reuss Voigt Hill
#
# Bulk Modulus (GPa) = 43.48325 48.78352 46.13338
# Shear Modulus (GPa) = 22.81376 26.04159 24.42767
#
# Velocity S-wave (km/s) = 3.25113 3.47352 3.36417
# Velocity P-wave (km/s) = 5.85145 6.22006 6.03857
#
# Compressibility (1/GPa) = 0.02299736
#
# Stress axis : x y z
#
# Youngs Moduli (GPa) = 97.83169 70.42223 54.32800
#
# Poissons Ratio (x) = 0.32185 0.04652
# Poissons Ratio (y) = 0.44712 0.24388
# Poissons Ratio (z) = 0.08377 0.31612
#
# Static dielectric constant tensor:
#      x y z
#    x 4.102840 0.000000 0.000000 
#    y 0.000000 3.962320 0.000000 
#    z 0.000000 0.000000 3.847230 
# 
# 
# High freq. dielectric constant tensor:
#      x y z
#    x 1.850490 0.000000 0.000000 
#    y 0.000000 1.848870 0.000000 
#    z 0.000000 0.000000 1.840580 
# 
# From -- ./inp_files/32221.got.cif
#   From: 2010.06.25/outbox.cif.g09.slc.cpg/sg48_17_cif.got.tgz:32221.got - 2010.06.26 18:06:46.
