data_PCOD8201423
_publ_section_title
;
Structure prediction by ZEFSAII (Michael W. Deem and Ramdas Pophale) SiO2 
 PCOD8201423
Probable space group: P N N N
;
_chemical_formula_sum "Si O2"
_cell_formula_units_Z 52
_cell_length_a 21.022813
_cell_length_b 17.771805
_cell_length_c 7.833841
_cell_angle_alpha 90.000000
_cell_angle_beta 90.000000
_cell_angle_gamma 90.000000
_cell_volume 2926.827448
_symmetry_space_group_name_H-M "P N N N"
_symmetry_group_IT_number 48
_space_group.IT_coordinate_system_code '2'
_symmetry_cell_setting 'orthorhombic'
loop_
_space_group_symop_operation_xyz
x,y,z
1/2-x,1/2-y,z
x,1/2-y,1/2-z
1/2-x,y,1/2-z
-x,-y,-z
1/2+x,1/2+y,-z
-x,1/2+y,1/2+z
1/2+x,-y,1/2+z
loop_
_atom_site_type_symbol
_atom_site_label
_atom_site_fract_x
_atom_site_fract_y
_atom_site_fract_z
Si Si1 0.465342 0.092812 0.178116
Si Si2 0.523690 0.250000 0.250000
Si Si3 0.883065 0.252172 0.942111
Si Si4 0.073819 0.018313 0.000534
Si Si5 0.676835 0.401491 0.924446
Si Si6 0.914964 0.517115 0.138402
Si Si7 0.817379 0.089203 0.531842
O O1 0.479376 0.179713 0.206651
O O2 0.416490 0.067926 0.329606
O O3 0.529122 0.043701 0.165906
O O4 0.429874 0.081766 0.998234
O O5 0.564277 0.231556 0.418279
O O6 0.913596 0.250000 0.750000
O O7 0.829766 0.188003 0.940458
O O8 0.849422 0.329474 0.997485
O O9 0.093139 0.059257 0.821913
O O10 0.116592 0.943036 0.993716
O O11 0.000000 0.000000 0.000000
O O12 0.678120 0.429972 0.730672
O O13 0.743302 0.416595 0.021555
O O14 0.852477 0.472483 0.081749
#
# Coordination Sequence:
#
# PCOD8201423 Si02
#       7
#     8   4   8   8   8   8   8
#     4  10  21  35  54  76 110 136 191 230 280 322
#     4  12  22  36  57  84 105 154 190 230 272 338
#     4  10  21  34  51  76 117 151 186 222 264 324
#     4  10  20  34  53  76 104 142 186 233 272 322
#     4  10  20  34  54  80 114 152 188 227 270 328
#     4  10  19  35  55  75 105 150 179 232 277 325
#     4  10  19  35  54  79 114 153 188 223 275 327
#
# _framework density 17.766677999999999
#
# number of rings (size 3 to 8) (size 9 to 14) (size 15 to 20)
#    0.000    1.846    3.077    2.308    0.000    3.692 
#    0.000    0.769    0.000    0.000    0.000    2.154 
#    0.000    2.462    0.000    0.000    0.000    0.000 
#
# Total GULP energy -644343.883638 kJ/mol
# GULP energy per Si atom -12391.228531 kJ/mol
# Density = 1.772624 g / cm^3
# Si number density = 17.766678 Si / 1000 Ang^3
#
#
#
# Elastic Constant Matrix: (Units=GPa)
#
#
# Indices 1 2 3 4 5 6 
#
# 1 80.8750 42.7446 41.0095 0.0000 0.0000 0.0000
# 2 42.7446 76.9222 41.8381 0.0000 0.0000 0.0000
# 3 41.0095 41.8381 135.7678 0.0000 0.0000 0.0000
# 4 0.0000 0.0000 0.0000 17.5566 0.0000 0.0000
# 5 0.0000 0.0000 0.0000 0.0000 21.1088 0.0000
# 6 0.0000 0.0000 0.0000 0.0000 0.0000 21.6511
#
#
#
# Elastic Compliance Matrix: (Units=1/GPa)
#
#
# Indices 1 2 3 4 5 6 
#
# 1 0.018406 -0.008654 -0.002893 0.000000 0.000000 0.000000
# 2 -0.008654 0.019687 -0.003453 0.000000 0.000000 0.000000
# 3 -0.002893 -0.003453 0.009303 0.000000 0.000000 0.000000
# 4 0.000000 0.000000 0.000000 0.056958 0.000000 0.000000
# 5 0.000000 0.000000 0.000000 0.000000 0.047374 0.000000
# 6 0.000000 0.000000 0.000000 0.000000 0.000000 0.046187
#
#
# Mechanical properties :
#
#
# Convention : Reuss Voigt Hill
#
# Bulk Modulus (GPa) = 57.48236 60.52770 59.00503
# Shear Modulus (GPa) = 21.39373 23.26150 22.32762
#
# Velocity S-wave (km/s) = 3.47385 3.62232 3.54886
# Velocity P-wave (km/s) = 6.96523 7.18589 7.07642
#
# Compressibility (1/GPa) = 0.01739664
#
# Stress axis : x y z
#
# Youngs Moduli (GPa) = 54.33121 50.79438 107.48978
#
# Poissons Ratio (x) = 0.43960 0.31092
# Poissons Ratio (y) = 0.47021 0.37113
# Poissons Ratio (z) = 0.15716 0.17538
#
# Static dielectric constant tensor:
#      x y z
#    x 3.182480 0.000000 0.000000 
#    y 0.000000 2.986770 0.000000 
#    z 0.000000 0.000000 4.118960 
# 
# 
# High freq. dielectric constant tensor:
#      x y z
#    x 1.663630 0.000000 0.000000 
#    y 0.000000 1.649160 0.000000 
#    z 0.000000 0.000000 1.714010 
# 
# From -- ./inp_files/15216.got.cif
#   From: 2010.06.25/outbox.cif.g09.slc.cpg/sg48_8_cif.got.tgz:15216.got - 2010.06.26 18:06:46.
