data_PCOD8201009
_publ_section_title
;
Structure prediction by ZEFSAII (Michael W. Deem and Ramdas Pophale) SiO2 
 PCOD8201009
Probable space group: P M M M
;
_chemical_formula_sum "Si O2"
_cell_formula_units_Z 52
_cell_length_a 7.943538
_cell_length_b 28.632527
_cell_length_c 13.935792
_cell_angle_alpha 90.000000
_cell_angle_beta 90.000000
_cell_angle_gamma 90.000000
_cell_volume 3169.606231
_symmetry_space_group_name_H-M "P M M M"
_symmetry_group_IT_number 47
_symmetry_cell_setting 'orthorhombic'
loop_
_space_group_symop_operation_xyz
x,y,z
-x,-y,z
x,-y,-z
-x,y,-z
-x,-y,-z
x,y,-z
-x,y,z
x,-y,z
loop_
_atom_site_type_symbol
_atom_site_label
_atom_site_fract_x
_atom_site_fract_y
_atom_site_fract_z
Si Si1 0.311952 0.612990 0.885700
Si Si2 0.198874 0.051926 0.286782
Si Si3 0.000000 0.447173 0.114467
Si Si4 0.197279 0.890501 0.892863
Si Si5 0.693419 0.195648 0.216406
Si Si6 0.302771 0.140350 0.605477
Si Si7 0.301004 0.716919 0.893168
O O1 0.500000 0.599320 0.847388
O O2 0.261033 0.665261 0.852262
O O3 0.169651 0.577716 0.845912
O O4 0.316690 0.612091 0.000000
O O5 0.253471 0.068925 0.180455
O O6 0.271336 0.086555 0.366819
O O7 0.000000 0.051255 0.296299
O O8 0.273025 0.000000 0.303124
O O9 0.000000 0.500000 0.152990
O O10 0.000000 0.445661 0.000000
O O11 0.291084 0.842499 0.867484
O O12 0.000000 0.880680 0.884474
O O13 0.248798 0.906131 0.000000
O O14 0.500000 0.205353 0.238840
O O15 0.779053 0.175372 0.314634
O O16 0.777021 0.244202 0.179309
O O17 0.223886 0.150175 0.500000
O O18 0.500000 0.148936 0.602005
O O19 0.500000 0.723872 0.901043
O O20 0.222547 0.723111 0.000000
#
# Coordination Sequence:
#
# PCOD8201009 Si02
#       7
#     8   8   4   8   8   8   8
#     4   8  14  24  35  49  72 100 133 174 212 243
#     4   9  18  31  45  60  76  97 127 157 187 230
#     4   9  16  24  34  50  72 102 143 181 210 241
#     4   9  17  28  40  57  81 101 120 152 191 231
#     4   9  16  27  43  59  76 101 131 158 188 234
#     4   9  18  31  45  61  80 100 123 156 197 237
#     4   8  13  22  37  55  74  97 126 159 193 230
#
# _framework density 16.405823000000002
#
# number of rings (size 3 to 8) (size 9 to 14) (size 15 to 20)
#    0.000    3.308    0.000    1.385    0.000    2.462 
#    1.385    4.615    0.000    0.000    0.000    4.308 
#    0.000    0.000    0.000    0.000    0.000    1.538 
#
# Total GULP energy -644298.435161 kJ/mol
# GULP energy per Si atom -12390.354522 kJ/mol
# Density = 1.636848 g / cm^3
# Si number density = 16.405823 Si / 1000 Ang^3
#
#
#
# Elastic Constant Matrix: (Units=GPa)
#
#
# Indices 1 2 3 4 5 6 
#
# 1 39.4203 34.9877 13.9340 0.0000 0.0000 0.0000
# 2 34.9877 132.1654 44.3113 0.0000 0.0000 0.0000
# 3 13.9340 44.3113 85.7244 0.0000 0.0000 0.0000
# 4 0.0000 0.0000 0.0000 14.5065 0.0000 0.0000
# 5 0.0000 0.0000 0.0000 0.0000 10.5786 0.0000
# 6 0.0000 0.0000 0.0000 0.0000 0.0000 18.8412
#
#
#
# Elastic Compliance Matrix: (Units=1/GPa)
#
#
# Indices 1 2 3 4 5 6 
#
# 1 0.033234 -0.008451 -0.001033 0.000000 0.000000 0.000000
# 2 -0.008451 0.011302 -0.004468 0.000000 0.000000 0.000000
# 3 -0.001033 -0.004468 0.014143 0.000000 0.000000 0.000000
# 4 0.000000 0.000000 0.000000 0.068935 0.000000 0.000000
# 5 0.000000 0.000000 0.000000 0.000000 0.094530 0.000000
# 6 0.000000 0.000000 0.000000 0.000000 0.000000 0.053075
#
#
# Mechanical properties :
#
#
# Convention : Reuss Voigt Hill
#
# Bulk Modulus (GPa) = 32.49647 49.30844 40.90245
# Shear Modulus (GPa) = 15.95496 19.72373 17.83935
#
# Velocity S-wave (km/s) = 3.12191 3.47109 3.30112
# Velocity P-wave (km/s) = 5.73114 6.79598 6.28615
#
# Compressibility (1/GPa) = 0.03077257
#
# Stress axis : x y z
#
# Youngs Moduli (GPa) = 30.08960 88.48269 70.70709
#
# Poissons Ratio (x) = 0.74781 0.07307
# Poissons Ratio (y) = 0.25430 0.31593
# Poissons Ratio (z) = 0.03109 0.39535
#
# Static dielectric constant tensor:
#      x y z
#    x 3.003960 0.000000 0.000000 
#    y 0.000000 3.258920 0.000000 
#    z 0.000000 0.000000 3.131200 
# 
# 
# High freq. dielectric constant tensor:
#      x y z
#    x 1.619800 0.000000 0.000000 
#    y 0.000000 1.619670 0.000000 
#    z 0.000000 0.000000 1.586230 
# 
# From -- ./inp_files/21996.got.cif
#   From: 2010.03.12/outbox.cif.g09.slc.cpg/sg47_11_cif.got.tgz:21996.got - 2010.04.14 03:12:58.
