data_PCOD8201783
_publ_section_title
;
Structure prediction by ZEFSAII (Michael W. Deem and Ramdas Pophale) SiO2 
 PCOD8201783
Probable space group: P N N N
;
_chemical_formula_sum "Si O2"
_cell_formula_units_Z 48
_cell_length_a 10.455409
_cell_length_b 7.396436
_cell_length_c 30.627517
_cell_angle_alpha 90.000000
_cell_angle_beta 90.000000
_cell_angle_gamma 90.000000
_cell_volume 2368.510529
_symmetry_space_group_name_H-M "P N N N"
_symmetry_group_IT_number 48
_space_group.IT_coordinate_system_code '2'
_symmetry_cell_setting 'orthorhombic'
loop_
_space_group_symop_operation_xyz
x,y,z
1/2-x,1/2-y,z
x,1/2-y,1/2-z
1/2-x,y,1/2-z
-x,-y,-z
1/2+x,1/2+y,-z
-x,1/2+y,1/2+z
1/2+x,-y,1/2+z
loop_
_atom_site_type_symbol
_atom_site_label
_atom_site_fract_x
_atom_site_fract_y
_atom_site_fract_z
Si Si1 0.861283 0.617651 0.951964
Si Si2 0.250000 0.750000 0.825864
Si Si3 0.640258 0.111503 0.870512
Si Si4 0.151576 0.406473 0.881416
Si Si5 0.139171 0.886119 0.534002
Si Si6 0.626145 0.444303 0.728452
Si Si7 0.566588 0.250000 0.250000
O O1 0.750000 0.750000 0.966585
O O2 0.843646 0.561683 0.901733
O O3 0.001148 0.709295 0.957712
O O4 0.853231 0.444549 0.983674
O O5 0.190602 0.588777 0.855158
O O6 0.357065 0.676250 0.792275
O O7 0.750000 0.250000 0.886940
O O8 0.490609 0.172013 0.871331
O O9 0.670602 0.065281 0.821224
O O10 0.250000 0.250000 0.868693
O O11 0.154477 0.444484 0.933258
O O12 0.250000 0.750000 0.545800
O O13 0.594277 0.250000 0.750000
O O14 0.750000 0.533942 0.750000
O O15 0.508334 0.575572 0.733960
#
# Coordination Sequence:
#
# PCOD8201783 Si02
#       7
#     8   4   8   8   8   8   4
#     4  10  23  39  63  96 129 170 213 261 322 377
#     4  11  24  42  62  96 126 164 220 270 317 392
#     4  11  23  44  62  93 129 164 219 267 316 390
#     4  11  24  42  68  96 131 174 213 265 328 383
#     4  10  21  41  64  93 135 167 212 264 311 388
#     4  11  23  42  63  89 125 168 213 266 327 388
#     4  11  25  40  64  92 125 163 218 272 324 383
#
# _framework density 20.265899000000001
#
# number of rings (size 3 to 8) (size 9 to 14) (size 15 to 20)
#    0.000    1.333    4.167    1.250    2.333    3.333 
#    0.000    1.667    0.000    0.000    0.000    0.000 
#    0.000    0.000    0.000    0.000    0.000    0.000 
#
# Total GULP energy -594894.507939 kJ/mol
# GULP energy per Si atom -12393.635582 kJ/mol
# Density = 2.021977 g / cm^3
# Si number density = 20.265899 Si / 1000 Ang^3
#
#
#
# Elastic Constant Matrix: (Units=GPa)
#
#
# Indices 1 2 3 4 5 6 
#
# 1 172.1335 60.8037 32.5279 0.0000 0.0000 0.0000
# 2 60.8037 66.2858 22.4124 0.0000 0.0000 0.0000
# 3 32.5279 22.4124 121.8243 0.0000 0.0000 0.0000
# 4 0.0000 0.0000 0.0000 14.7695 0.0000 0.0000
# 5 0.0000 0.0000 0.0000 0.0000 29.8416 0.0000
# 6 0.0000 0.0000 0.0000 0.0000 0.0000 37.5231
#
#
#
# Elastic Compliance Matrix: (Units=1/GPa)
#
#
# Indices 1 2 3 4 5 6 
#
# 1 0.008688 -0.007661 -0.000910 0.000000 0.000000 0.000000
# 2 -0.007661 0.022843 -0.002157 0.000000 0.000000 0.000000
# 3 -0.000910 -0.002157 0.008848 0.000000 0.000000 0.000000
# 4 0.000000 0.000000 0.000000 0.067707 0.000000 0.000000
# 5 0.000000 0.000000 0.000000 0.000000 0.033510 0.000000
# 6 0.000000 0.000000 0.000000 0.000000 0.000000 0.026650
#
#
# Mechanical properties :
#
#
# Convention : Reuss Voigt Hill
#
# Bulk Modulus (GPa) = 52.84759 65.74793 59.29776
# Shear Modulus (GPa) = 25.50867 32.72682 29.11774
#
# Velocity S-wave (km/s) = 3.55166 4.02291 3.79461
# Velocity P-wave (km/s) = 6.55384 7.35469 6.96578
#
# Compressibility (1/GPa) = 0.01892234
#
# Stress axis : x y z
#
# Youngs Moduli (GPa) = 115.10465 43.77648 113.01506
#
# Poissons Ratio (x) = 0.33539 0.10286
# Poissons Ratio (y) = 0.88187 0.24376
# Poissons Ratio (z) = 0.10477 0.09442
#
# Static dielectric constant tensor:
#      x y z
#    x 4.021640 0.000000 0.000000 
#    y 0.000000 3.434640 0.000000 
#    z 0.000000 0.000000 3.822930 
# 
# 
# High freq. dielectric constant tensor:
#      x y z
#    x 1.813490 0.000000 0.000000 
#    y 0.000000 1.754880 0.000000 
#    z 0.000000 0.000000 1.816510 
# 
# From -- ./inp_files/38738.got.cif
#   From: 2010.06.25/outbox.cif.g09.slc.cpg/sg48_20_cif.got.tgz:38738.got - 2010.06.26 18:06:46.
