data_PCOD8201824
_publ_section_title
;
Structure prediction by ZEFSAII (Michael W. Deem and Ramdas Pophale) SiO2 
 PCOD8201824
Probable space group: P N N N
;
_chemical_formula_sum "Si O2"
_cell_formula_units_Z 34
_cell_length_a 9.127584
_cell_length_b 8.242550
_cell_length_c 22.304808
_cell_angle_alpha 90.000000
_cell_angle_beta 90.000000
_cell_angle_gamma 90.000000
_cell_volume 1678.092583
_symmetry_space_group_name_H-M "P N N N"
_symmetry_group_IT_number 48
_space_group.IT_coordinate_system_code '2'
_symmetry_cell_setting 'orthorhombic'
loop_
_space_group_symop_operation_xyz
x,y,z
1/2-x,1/2-y,z
x,1/2-y,1/2-z
1/2-x,y,1/2-z
-x,-y,-z
1/2+x,1/2+y,-z
-x,1/2+y,1/2+z
1/2+x,-y,1/2+z
loop_
_atom_site_type_symbol
_atom_site_label
_atom_site_fract_x
_atom_site_fract_y
_atom_site_fract_z
Si Si1 0.527688 0.667577 0.691855
Si Si2 0.916000 0.714682 0.449162
Si Si3 0.250000 0.750000 0.750000
Si Si4 0.075069 0.101724 0.079506
Si Si5 0.842338 0.095377 0.617560
O O1 0.605596 0.750000 0.750000
O O2 0.355065 0.640136 0.707456
O O3 0.546084 0.788207 0.636510
O O4 0.598417 0.494050 0.677102
O O5 0.750000 0.750000 0.430400
O O6 0.939094 0.711531 0.520577
O O7 0.955559 0.541076 0.420483
O O8 0.022231 0.855096 0.424501
O O9 0.238619 0.026555 0.080225
O O10 0.750000 0.250000 0.639753
#
# Coordination Sequence:
#
# PCOD8201824 Si02
#       5
#     8   8   2   8   8
#     4  10  22  41  65  86 123 159 214 252 313 375
#     4  10  22  37  61  91 126 165 204 258 314 371
#     4   8  24  40  62 102 112 164 212 260 306 376
#     4  10  22  40  59  92 125 163 208 254 317 376
#     4  10  22  41  62  93 126 161 209 258 315 377
#
# _framework density 20.261099999999999
#
# number of rings (size 3 to 8) (size 9 to 14) (size 15 to 20)
#    0.706    1.412    0.000    2.118    3.294    5.647 
#    6.353    8.235    0.000    7.059    0.000    0.000 
#    0.000    0.000    0.000    0.000    0.000    0.000 
#
# Total GULP energy -421485.910105 kJ/mol
# GULP energy per Si atom -12396.644415 kJ/mol
# Density = 2.021498 g / cm^3
# Si number density = 20.261100 Si / 1000 Ang^3
#
#
#
# Elastic Constant Matrix: (Units=GPa)
#
#
# Indices 1 2 3 4 5 6 
#
# 1 169.7270 68.0785 59.0589 0.0000 0.0000 0.0000
# 2 68.0785 103.4653 83.3856 0.0000 0.0000 0.0000
# 3 59.0589 83.3856 143.2307 0.0000 0.0000 0.0000
# 4 0.0000 0.0000 0.0000 35.5022 0.0000 0.0000
# 5 0.0000 0.0000 0.0000 0.0000 32.1950 0.0000
# 6 0.0000 0.0000 0.0000 0.0000 0.0000 27.6095
#
#
#
# Elastic Compliance Matrix: (Units=1/GPa)
#
#
# Indices 1 2 3 4 5 6 
#
# 1 0.008019 -0.004920 -0.000442 0.000000 0.000000 0.000000
# 2 -0.004920 0.021227 -0.010329 0.000000 0.000000 0.000000
# 3 -0.000442 -0.010329 0.013177 0.000000 0.000000 0.000000
# 4 0.000000 0.000000 0.000000 0.028167 0.000000 0.000000
# 5 0.000000 0.000000 0.000000 0.000000 0.031061 0.000000
# 6 0.000000 0.000000 0.000000 0.000000 0.000000 0.036219
#
#
# Mechanical properties :
#
#
# Convention : Reuss Voigt Hill
#
# Bulk Modulus (GPa) = 90.57372 93.05209 91.81291
# Shear Modulus (GPa) = 28.91276 32.78801 30.85038
#
# Velocity S-wave (km/s) = 3.78167 4.02714 3.90634
# Velocity P-wave (km/s) = 7.99177 8.22496 8.10920
#
# Compressibility (1/GPa) = 0.01104073
#
# Stress axis : x y z
#
# Youngs Moduli (GPa) = 124.70120 47.10992 75.88720
#
# Poissons Ratio (x) = 0.23179 0.03356
# Poissons Ratio (y) = 0.61354 0.78385
# Poissons Ratio (z) = 0.05514 0.48660
#
# Static dielectric constant tensor:
#      x y z
#    x 3.864680 0.000000 0.000000 
#    y 0.000000 3.760940 0.000000 
#    z 0.000000 0.000000 3.534380 
# 
# 
# High freq. dielectric constant tensor:
#      x y z
#    x 1.804460 0.000000 0.000000 
#    y 0.000000 1.788000 0.000000 
#    z 0.000000 0.000000 1.781470 
# 
# From -- ./inp_files/33231.got.cif
#   From: 2010.06.25/outbox.cif.g09.slc.cpg/sg48_17_cif.got.tgz:33231.got - 2010.06.26 18:06:46.
