data_PCOD8201153
_publ_section_title
;
Structure prediction by ZEFSAII (Michael W. Deem and Ramdas Pophale) SiO2 
 PCOD8201153
Probable space group: P M M M
;
_chemical_formula_sum "Si O2"
_cell_formula_units_Z 40
_cell_length_a 16.929359
_cell_length_b 8.095756
_cell_length_c 13.523826
_cell_angle_alpha 90.000000
_cell_angle_beta 90.000000
_cell_angle_gamma 90.000000
_cell_volume 1853.520951
_symmetry_space_group_name_H-M "P M M M"
_symmetry_group_IT_number 47
_symmetry_cell_setting 'orthorhombic'
loop_
_space_group_symop_operation_xyz
x,y,z
-x,-y,z
x,-y,-z
-x,y,-z
-x,-y,-z
x,y,-z
-x,y,z
x,-y,z
loop_
_atom_site_type_symbol
_atom_site_label
_atom_site_fract_x
_atom_site_fract_y
_atom_site_fract_z
Si Si1 0.500000 0.801962 0.887780
Si Si2 0.251259 0.191758 0.391502
Si Si3 0.820060 0.816971 0.884986
Si Si4 0.341862 0.192614 0.207955
Si Si5 0.090020 0.500000 0.882255
Si Si6 0.085595 0.685953 0.382135
O O1 0.423005 0.727796 0.831923
O O2 0.500000 0.000000 0.887951
O O3 0.500000 0.736530 0.000000
O O4 0.260650 0.276736 0.500000
O O5 0.314489 0.268657 0.314232
O O6 0.162674 0.213066 0.346042
O O7 0.267611 0.000000 0.402205
O O8 0.727697 0.775489 0.870671
O O9 0.871972 0.668685 0.836852
O O10 0.839564 0.000000 0.839117
O O11 0.838884 0.823550 0.000000
O O12 0.357036 0.000000 0.221941
O O13 0.000000 0.500000 0.850134
O O14 0.102218 0.500000 0.000000
O O15 0.087475 0.683577 0.500000
O O16 0.092366 0.500000 0.340040
O O17 0.000000 0.761778 0.348228
#
# Coordination Sequence:
#
# PCOD8201153 Si02
#       6
#     4   8   8   8   4   8
#     4   9  16  28  51  80 104 127 162 211 262 315
#     4   9  17  29  45  67  99 136 168 202 251 308
#     4   9  17  31  52  75 101 135 173 217 268 317
#     4   9  17  30  48  73 102 130 167 211 256 314
#     4   9  18  32  50  75 106 140 179 217 258 318
#     4   8  14  26  44  65  89 120 164 214 252 284
#
# _framework density 21.580551
#
# number of rings (size 3 to 8) (size 9 to 14) (size 15 to 20)
#    0.000    3.200    0.000    1.200    0.000    3.200 
#    1.800    5.500    0.000    7.200    0.000    2.800 
#    0.000    3.200    0.000    0.000    0.000    0.000 
#
# Total GULP energy -495527.796810 kJ/mol
# GULP energy per Si atom -12388.194920 kJ/mol
# Density = 2.153143 g / cm^3
# Si number density = 21.580551 Si / 1000 Ang^3
#
#
#
# Elastic Constant Matrix: (Units=GPa)
#
#
# Indices 1 2 3 4 5 6 
#
# 1 192.9949 49.1888 59.8997 0.0000 0.0000 0.0000
# 2 49.1888 75.1102 16.9359 0.0000 0.0000 0.0000
# 3 59.8997 16.9359 75.9444 0.0000 0.0000 0.0000
# 4 0.0000 0.0000 0.0000 15.3328 0.0000 0.0000
# 5 0.0000 0.0000 0.0000 0.0000 25.5860 0.0000
# 6 0.0000 0.0000 0.0000 0.0000 0.0000 5.2133
#
#
#
# Elastic Compliance Matrix: (Units=1/GPa)
#
#
# Indices 1 2 3 4 5 6 
#
# 1 0.007828 -0.003932 -0.005297 0.000000 0.000000 0.000000
# 2 -0.003932 0.015994 -0.000465 0.000000 0.000000 0.000000
# 3 -0.005297 -0.000465 0.017449 0.000000 0.000000 0.000000
# 4 0.000000 0.000000 0.000000 0.065219 0.000000 0.000000
# 5 0.000000 0.000000 0.000000 0.000000 0.039084 0.000000
# 6 0.000000 0.000000 0.000000 0.000000 0.000000 0.191816
#
#
# Mechanical properties :
#
#
# Convention : Reuss Voigt Hill
#
# Bulk Modulus (GPa) = 45.70009 66.23315 55.96662
# Shear Modulus (GPa) = 13.73352 23.76144 18.74748
#
# Velocity S-wave (km/s) = 2.52540 3.32182 2.95060
# Velocity P-wave (km/s) = 5.45216 6.74317 6.13174
#
# Compressibility (1/GPa) = 0.02188179
#
# Stress axis : x y z
#
# Youngs Moduli (GPa) = 127.75208 62.52477 57.30885
#
# Poissons Ratio (x) = 0.24584 0.30357
# Poissons Ratio (y) = 0.50230 0.02667
# Poissons Ratio (z) = 0.67672 0.02910
#
# Static dielectric constant tensor:
#      x y z
#    x 4.155780 0.000000 0.000000 
#    y 0.000000 3.706230 0.000000 
#    z 0.000000 0.000000 4.161720 
# 
# 
# High freq. dielectric constant tensor:
#      x y z
#    x 1.833130 0.000000 0.000000 
#    y 0.000000 1.806110 0.000000 
#    z 0.000000 0.000000 1.857180 
# 
# From -- ./inp_files/23368.got.cif
#   From: 2010.03.12/outbox.cif.g09.slc.cpg/sg47_12_cif.got.tgz:23368.got - 2010.04.14 03:12:58.
