data_PCOD8201311
_publ_section_title
;
Structure prediction by ZEFSAII (Michael W. Deem and Ramdas Pophale) SiO2 
 PCOD8201311
Probable space group: P N N N
;
_chemical_formula_sum "Si O2"
_cell_formula_units_Z 52
_cell_length_a 16.520841
_cell_length_b 9.338704
_cell_length_c 16.578419
_cell_angle_alpha 90.000000
_cell_angle_beta 90.000000
_cell_angle_gamma 90.000000
_cell_volume 2557.772263
_symmetry_space_group_name_H-M "P N N N"
_symmetry_group_IT_number 48
_space_group.IT_coordinate_system_code '2'
_symmetry_cell_setting 'orthorhombic'
loop_
_space_group_symop_operation_xyz
x,y,z
1/2-x,1/2-y,z
x,1/2-y,1/2-z
1/2-x,y,1/2-z
-x,-y,-z
1/2+x,1/2+y,-z
-x,1/2+y,1/2+z
1/2+x,-y,1/2+z
loop_
_atom_site_type_symbol
_atom_site_label
_atom_site_fract_x
_atom_site_fract_y
_atom_site_fract_z
Si Si1 0.455905 0.385802 0.856328
Si Si2 0.643001 0.145573 0.626162
Si Si3 0.836606 0.417585 0.456427
Si Si4 0.750000 0.492304 0.750000
Si Si5 0.956619 0.560871 0.174663
Si Si6 0.657189 0.410518 0.442076
Si Si7 0.136627 0.974976 0.382494
O O1 0.548442 0.387261 0.882732
O O2 0.400596 0.470838 0.920020
O O3 0.431258 0.220042 0.852182
O O4 0.446655 0.460308 0.769884
O O5 0.681038 0.055065 0.551803
O O6 0.675709 0.094894 0.711874
O O7 0.667941 0.311696 0.622934
O O8 0.749964 0.430138 0.413286
O O9 0.869211 0.254552 0.454598
O O10 0.700146 0.568741 0.674954
O O11 0.894353 0.456093 0.133736
O O12 0.045936 0.511389 0.149290
O O13 0.638817 0.509559 0.521511
#
# Coordination Sequence:
#
# PCOD8201311 Si02
#       7
#     8   8   8   4   8   8   8
#     4  10  21  36  55  81 110 142 182 223 267 320
#     4  10  18  31  54  85 114 138 171 221 278 327
#     4  10  21  36  55  81 110 142 182 223 267 320
#     4  12  17  28  60  92 113 134 169 228 281 318
#     4  10  21  36  55  81 110 142 182 223 267 320
#     4  10  21  36  55  81 110 142 182 223 267 320
#     4  10  18  31  54  85 114 138 171 221 278 327
#
# _framework density 20.330192
#
# number of rings (size 3 to 8) (size 9 to 14) (size 15 to 20)
#    0.000    1.846    3.077    2.308    0.000    1.846 
#    0.000    3.077    0.000    0.000    0.000    4.308 
#    0.000    0.000    0.000    0.000    0.000    0.000 
#
# Total GULP energy -644222.729387 kJ/mol
# GULP energy per Si atom -12388.898642 kJ/mol
# Density = 2.028392 g / cm^3
# Si number density = 20.330192 Si / 1000 Ang^3
#
#
#
# Elastic Constant Matrix: (Units=GPa)
#
#
# Indices 1 2 3 4 5 6 
#
# 1 63.0480 11.0523 13.7632 0.0000 0.0000 0.0000
# 2 11.0523 23.2777 7.8936 0.0000 0.0000 0.0000
# 3 13.7632 7.8936 68.9655 0.0000 0.0000 0.0000
# 4 0.0000 0.0000 0.0000 90.5886 0.0000 0.0000
# 5 0.0000 0.0000 0.0000 0.0000 45.7068 0.0000
# 6 0.0000 0.0000 0.0000 0.0000 0.0000 18.7370
#
#
#
# Elastic Compliance Matrix: (Units=1/GPa)
#
#
# Indices 1 2 3 4 5 6 
#
# 1 0.017766 -0.007525 -0.002684 0.000000 0.000000 0.000000
# 2 -0.007525 0.047882 -0.003979 0.000000 0.000000 0.000000
# 3 -0.002684 -0.003979 0.015491 0.000000 0.000000 0.000000
# 4 0.000000 0.000000 0.000000 0.011039 0.000000 0.000000
# 5 0.000000 0.000000 0.000000 0.000000 0.021879 0.000000
# 6 0.000000 0.000000 0.000000 0.000000 0.000000 0.053370
#
#
# Mechanical properties :
#
#
# Convention : Reuss Voigt Hill
#
# Bulk Modulus (GPa) = 18.95271 24.52327 21.73799
# Shear Modulus (GPa) = 23.43124 39.17862 31.30493
#
# Velocity S-wave (km/s) = 3.39858 4.39465 3.92832
# Velocity P-wave (km/s) = 4.97425 6.15137 5.59386
#
# Compressibility (1/GPa) = 0.05276291
#
# Stress axis : x y z
#
# Youngs Moduli (GPa) = 56.28720 20.88478 64.55332
#
# Poissons Ratio (x) = 0.15716 0.17327
# Poissons Ratio (y) = 0.42357 0.25684
# Poissons Ratio (z) = 0.15109 0.08309
#
# Static dielectric constant tensor:
#      x y z
#    x 3.704280 0.000000 0.000000 
#    y 0.000000 3.140220 0.000000 
#    z 0.000000 0.000000 3.870540 
# 
# 
# High freq. dielectric constant tensor:
#      x y z
#    x 1.810370 0.000000 0.000000 
#    y 0.000000 1.729940 0.000000 
#    z 0.000000 0.000000 1.813090 
# 
# From -- ./inp_files/31654.got.cif
#   From: 2010.06.25/outbox.cif.g09.slc.cpg/sg48_16_cif.got.tgz:31654.got - 2010.06.26 18:06:46.
