data_PCOD8201227
_publ_section_title
;
Structure prediction by ZEFSAII (Michael W. Deem and Ramdas Pophale) SiO2 
 PCOD8201227
Probable space group: P M M M
;
_chemical_formula_sum "Si O2"
_cell_formula_units_Z 60
_cell_length_a 22.987446
_cell_length_b 9.388858
_cell_length_c 17.334644
_cell_angle_alpha 90.000000
_cell_angle_beta 90.000000
_cell_angle_gamma 90.000000
_cell_volume 3741.264558
_symmetry_space_group_name_H-M "P M M M"
_symmetry_group_IT_number 47
_symmetry_cell_setting 'orthorhombic'
loop_
_space_group_symop_operation_xyz
x,y,z
-x,-y,z
x,-y,-z
-x,y,-z
-x,-y,-z
x,y,-z
-x,y,z
x,-y,z
loop_
_atom_site_type_symbol
_atom_site_label
_atom_site_fract_x
_atom_site_fract_y
_atom_site_fract_z
Si Si1 0.235650 0.335771 0.587571
Si Si2 0.431152 0.158299 0.500000
Si Si3 0.150197 0.161385 0.680824
Si Si4 0.153588 0.336072 0.912502
Si Si5 0.565644 0.663416 0.354385
Si Si6 0.760772 0.839496 0.821262
Si Si7 0.933126 0.334506 0.221667
Si Si8 0.679645 0.662515 0.725251
O O1 0.254899 0.300456 0.500000
O O2 0.217133 0.500000 0.596225
O O3 0.179282 0.241098 0.608445
O O4 0.289374 0.299595 0.643905
O O5 0.500000 0.150604 0.500000
O O6 0.410811 0.241190 0.424236
O O7 0.403735 0.000000 0.500000
O O8 0.195039 0.165184 0.750771
O O9 0.092003 0.243243 0.707197
O O10 0.134385 0.000000 0.657284
O O11 0.171351 0.500000 0.900703
O O12 0.210341 0.242421 0.892928
O O13 0.099356 0.295600 0.858089
O O14 0.134340 0.304500 0.000000
O O15 0.500000 0.704935 0.328183
O O16 0.567699 0.500000 0.382417
O O17 0.610282 0.687481 0.283804
O O18 0.701517 0.762125 0.794669
O O19 0.745872 0.000000 0.846561
O O20 0.924972 0.500000 0.242218
O O21 0.000000 0.293277 0.209908
O O22 0.693575 0.500000 0.748005
#
# Coordination Sequence:
#
# PCOD8201227 Si02
#       8
#     8   4   8   8   8   8   8   8
#     4   9  17  28  43  62  82 106 139 180 224 266
#     4   9  17  27  37  51  75 109 145 179 216 257
#     4   9  17  29  44  61  83 111 142 177 217 257
#     4   9  17  29  46  68  94 121 146 172 204 243
#     4   9  17  28  42  59  81 112 148 184 221 262
#     4   9  17  29  44  62  86 114 146 179 214 254
#     4   9  17  29  46  67  90 117 147 174 202 242
#     4   9  17  28  44  62  84 112 145 183 219 260
#
# _framework density 16.037358999999999
#
# number of rings (size 3 to 8) (size 9 to 14) (size 15 to 20)
#    0.000    3.000    0.000    1.000    0.933    5.600 
#    0.000    1.333    0.000    0.400    0.000    6.533 
#    0.000    0.533    0.000    6.133    0.000    1.733 
#
# Total GULP energy -743856.920597 kJ/mol
# GULP energy per Si atom -12397.615343 kJ/mol
# Density = 1.600086 g / cm^3
# Si number density = 16.037359 Si / 1000 Ang^3
#
#
#
# Elastic Constant Matrix: (Units=GPa)
#
#
# Indices 1 2 3 4 5 6 
#
# 1 91.2241 44.2461 29.5489 0.0000 0.0000 0.0000
# 2 44.2461 78.6685 20.5493 0.0000 0.0000 0.0000
# 3 29.5489 20.5493 33.9405 0.0000 0.0000 0.0000
# 4 0.0000 0.0000 0.0000 14.5451 0.0000 0.0000
# 5 0.0000 0.0000 0.0000 0.0000 18.3414 0.0000
# 6 0.0000 0.0000 0.0000 0.0000 0.0000 16.0927
#
#
#
# Elastic Compliance Matrix: (Units=1/GPa)
#
#
# Indices 1 2 3 4 5 6 
#
# 1 0.018179 -0.007234 -0.011446 0.000000 0.000000 0.000000
# 2 -0.007234 0.017979 -0.004587 0.000000 0.000000 0.000000
# 3 -0.011446 -0.004587 0.042206 0.000000 0.000000 0.000000
# 4 0.000000 0.000000 0.000000 0.068751 0.000000 0.000000
# 5 0.000000 0.000000 0.000000 0.000000 0.054522 0.000000
# 6 0.000000 0.000000 0.000000 0.000000 0.000000 0.062140
#
#
# Mechanical properties :
#
#
# Convention : Reuss Voigt Hill
#
# Bulk Modulus (GPa) = 31.41912 43.61352 37.51632
# Shear Modulus (GPa) = 15.58019 17.09509 16.33764
#
# Velocity S-wave (km/s) = 3.12026 3.26844 3.19521
# Velocity P-wave (km/s) = 5.71096 6.44186 6.08739
#
# Compressibility (1/GPa) = 0.03182775
#
# Stress axis : x y z
#
# Youngs Moduli (GPa) = 55.00994 55.62170 23.69344
#
# Poissons Ratio (x) = 0.40239 0.27120
# Poissons Ratio (y) = 0.39796 0.10868
# Poissons Ratio (z) = 0.62966 0.25513
#
# Static dielectric constant tensor:
#      x y z
#    x 2.962100 0.000000 0.000000 
#    y 0.000000 3.209430 0.000000 
#    z 0.000000 0.000000 2.783770 
# 
# 
# High freq. dielectric constant tensor:
#      x y z
#    x 1.599370 0.000000 0.000000 
#    y 0.000000 1.621790 0.000000 
#    z 0.000000 0.000000 1.578900 
# 
# From -- ./inp_files/28930.got.cif
#   From: 2010.03.12/outbox.cif.g09.slc.cpg/sg47_15_cif.got.tgz:28930.got - 2010.04.14 03:12:58.
