data_PCOD8201133
_publ_section_title
;
Structure prediction by ZEFSAII (Michael W. Deem and Ramdas Pophale) SiO2 
 PCOD8201133
Probable space group: P M M M
;
_chemical_formula_sum "Si O2"
_cell_formula_units_Z 36
_cell_length_a 9.205110
_cell_length_b 23.391448
_cell_length_c 9.484079
_cell_angle_alpha 90.000000
_cell_angle_beta 90.000000
_cell_angle_gamma 90.000000
_cell_volume 2042.119970
_symmetry_space_group_name_H-M "P M M M"
_symmetry_group_IT_number 47
_symmetry_cell_setting 'orthorhombic'
loop_
_space_group_symop_operation_xyz
x,y,z
-x,-y,z
x,-y,-z
-x,y,-z
-x,-y,-z
x,y,-z
-x,y,z
x,-y,z
loop_
_atom_site_type_symbol
_atom_site_label
_atom_site_fract_x
_atom_site_fract_y
_atom_site_fract_z
Si Si1 0.672632 0.437104 0.158508
Si Si2 0.330772 0.668693 0.664471
Si Si3 0.329594 0.108277 0.663382
Si Si4 0.327396 0.000000 0.840217
Si Si5 0.163863 0.779561 0.667599
O O1 0.500000 0.436653 0.163827
O O2 0.728283 0.500000 0.207832
O O3 0.733523 0.387732 0.260141
O O4 0.726903 0.424829 0.000000
O O5 0.302530 0.660192 0.500000
O O6 0.500000 0.678169 0.697656
O O7 0.245710 0.723487 0.725280
O O8 0.293741 0.095201 0.500000
O O9 0.500000 0.118956 0.683939
O O10 0.246949 0.164091 0.720534
O O11 0.271665 0.055696 0.756916
O O12 0.500000 0.000000 0.841086
O O13 0.266061 0.000000 0.000000
O O14 0.166548 0.778432 0.500000
O O15 0.000000 0.780234 0.726287
#
# Coordination Sequence:
#
# PCOD8201133 Si02
#       5
#     8   8   8   4   8
#     4   8  14  25  41  62  88 115 142 175 216 259
#     4   9  16  26  43  67  90 111 140 179 218 254
#     4   9  16  28  48  70  89 112 145 180 211 249
#     4   9  17  29  46  69  94 116 140 175 218 258
#     4   9  17  29  45  65  89 116 145 178 216 256
#
# _framework density 17.628740000000001
#
# number of rings (size 3 to 8) (size 9 to 14) (size 15 to 20)
#    0.000    3.222    0.000    1.667    0.000    4.444 
#    0.000    3.889    0.000   12.000    0.000    4.667 
#    0.000    0.000    0.000    0.000    0.000    0.000 
#
# Total GULP energy -446263.954332 kJ/mol
# GULP energy per Si atom -12396.220954 kJ/mol
# Density = 1.758862 g / cm^3
# Si number density = 17.628740 Si / 1000 Ang^3
#
#
#
# Elastic Constant Matrix: (Units=GPa)
#
#
# Indices 1 2 3 4 5 6 
#
# 1 53.2562 58.7670 27.9351 0.0000 0.0000 0.0000
# 2 58.7670 207.9874 74.4887 0.0000 0.0000 0.0000
# 3 27.9351 74.4887 65.6802 0.0000 0.0000 0.0000
# 4 0.0000 0.0000 0.0000 11.4278 0.0000 0.0000
# 5 0.0000 0.0000 0.0000 0.0000 7.6476 0.0000
# 6 0.0000 0.0000 0.0000 0.0000 0.0000 4.1432
#
#
#
# Elastic Compliance Matrix: (Units=1/GPa)
#
#
# Indices 1 2 3 4 5 6 
#
# 1 0.028221 -0.006189 -0.004984 0.000000 0.000000 0.000000
# 2 -0.006189 0.009454 -0.008089 0.000000 0.000000 0.000000
# 3 -0.004984 -0.008089 0.026519 0.000000 0.000000 0.000000
# 4 0.000000 0.000000 0.000000 0.087506 0.000000 0.000000
# 5 0.000000 0.000000 0.000000 0.000000 0.130760 0.000000
# 6 0.000000 0.000000 0.000000 0.000000 0.000000 0.241359
#
#
# Mechanical properties :
#
#
# Convention : Reuss Voigt Hill
#
# Bulk Modulus (GPa) = 38.95692 72.14504 55.55098
# Shear Modulus (GPa) = 8.75809 15.69257 12.22533
#
# Velocity S-wave (km/s) = 2.23134 2.98681 2.63627
# Velocity P-wave (km/s) = 5.36516 7.27380 6.39113
#
# Compressibility (1/GPa) = 0.02566938
#
# Stress axis : x y z
#
# Youngs Moduli (GPa) = 35.43495 105.77766 37.70821
#
# Poissons Ratio (x) = 0.65464 0.18794
# Poissons Ratio (y) = 0.21930 0.30504
# Poissons Ratio (z) = 0.17661 0.85568
#
# Static dielectric constant tensor:
#      x y z
#    x 2.960200 0.000000 0.000000 
#    y 0.000000 3.663190 0.000000 
#    z 0.000000 0.000000 3.111030 
# 
# 
# High freq. dielectric constant tensor:
#      x y z
#    x 1.640650 0.000000 0.000000 
#    y 0.000000 1.700310 0.000000 
#    z 0.000000 0.000000 1.651620 
# 
# From -- ./inp_files/1430.got.cif
#   From: 2010.03.12/outbox.cif.g09.slc.cpg/sg47_1_cif.got.tgz:1430.got - 2010.04.14 03:12:58.
