data_PCOD8201963
_publ_section_title
;
Structure prediction by ZEFSAII (Michael W. Deem and Ramdas Pophale) SiO2 
 PCOD8201963
Probable space group: P N N N
;
_chemical_formula_sum "Si O2"
_cell_formula_units_Z 38
_cell_length_a 10.711616
_cell_length_b 9.550179
_cell_length_c 17.679183
_cell_angle_alpha 90.000000
_cell_angle_beta 90.000000
_cell_angle_gamma 90.000000
_cell_volume 1808.542414
_symmetry_space_group_name_H-M "P N N N"
_symmetry_group_IT_number 48
_space_group.IT_coordinate_system_code '2'
_symmetry_cell_setting 'orthorhombic'
loop_
_space_group_symop_operation_xyz
x,y,z
1/2-x,1/2-y,z
x,1/2-y,1/2-z
1/2-x,y,1/2-z
-x,-y,-z
1/2+x,1/2+y,-z
-x,1/2+y,1/2+z
1/2+x,-y,1/2+z
loop_
_atom_site_type_symbol
_atom_site_label
_atom_site_fract_x
_atom_site_fract_y
_atom_site_fract_z
Si Si1 0.010223 0.632430 0.447081
Si Si2 0.392010 0.230600 0.077645
Si Si3 0.136479 0.493615 0.198877
Si Si4 0.048385 0.942305 0.823836
Si Si5 0.750000 0.250000 0.250000
Si Si6 0.250000 0.750000 0.376725
O O1 0.154806 0.659750 0.427148
O O2 0.000000 0.500000 0.500000
O O3 0.960320 0.766437 0.495104
O O4 0.928387 0.584859 0.373161
O O5 0.250000 0.250000 0.056929
O O6 0.445234 0.350206 0.132638
O O7 0.399193 0.084508 0.121435
O O8 0.250000 0.427823 0.250000
O O9 0.169661 0.651190 0.177383
O O10 0.008891 0.493286 0.245294
O O11 0.170208 0.849210 0.806155
#
# Coordination Sequence:
#
# PCOD8201963 Si02
#       6
#     8   8   8   8   2   4
#     4  10  24  43  63  97 141 181 225 285 355 420
#     4  11  21  40  67  99 135 183 233 283 340 428
#     4  12  21  39  73 105 127 175 245 299 341 414
#     4  11  23  41  68 101 136 178 234 289 352 419
#     4  12  24  42  70 104 140 188 222 292 352 426
#     4  12  25  43  74  99 141 182 232 304 355 409
#
# _framework density 21.011395
#
# number of rings (size 3 to 8) (size 9 to 14) (size 15 to 20)
#    0.000    0.842    6.316    1.579    0.000    4.211 
#    3.789    0.000    0.000    0.000    0.000    0.000 
#    0.000    0.000    0.000    0.000    0.000    0.000 
#
# Total GULP energy -470797.974739 kJ/mol
# GULP energy per Si atom -12389.420388 kJ/mol
# Density = 2.096357 g / cm^3
# Si number density = 21.011395 Si / 1000 Ang^3
#
#
#
# Elastic Constant Matrix: (Units=GPa)
#
#
# Indices 1 2 3 4 5 6 
#
# 1 116.5145 43.3424 64.9942 0.0000 0.0000 0.0000
# 2 43.3424 101.0512 62.6278 0.0000 0.0000 0.0000
# 3 64.9942 62.6278 117.1101 0.0000 0.0000 0.0000
# 4 0.0000 0.0000 0.0000 26.1065 0.0000 0.0000
# 5 0.0000 0.0000 0.0000 0.0000 30.0187 0.0000
# 6 0.0000 0.0000 0.0000 0.0000 0.0000 44.8904
#
#
#
# Elastic Compliance Matrix: (Units=1/GPa)
#
#
# Indices 1 2 3 4 5 6 
#
# 1 0.012602 -0.001601 -0.006137 0.000000 0.000000 0.000000
# 2 -0.001601 0.015005 -0.007136 0.000000 0.000000 0.000000
# 3 -0.006137 -0.007136 0.015761 0.000000 0.000000 0.000000
# 4 0.000000 0.000000 0.000000 0.038305 0.000000 0.000000
# 5 0.000000 0.000000 0.000000 0.000000 0.033313 0.000000
# 6 0.000000 0.000000 0.000000 0.000000 0.000000 0.022276
#
#
# Mechanical properties :
#
#
# Convention : Reuss Voigt Hill
#
# Bulk Modulus (GPa) = 73.42564 75.17828 74.30196
# Shear Modulus (GPa) = 29.14584 31.11722 30.13153
#
# Velocity S-wave (km/s) = 3.72848 3.85251 3.79100
# Velocity P-wave (km/s) = 7.31826 7.45966 7.38930
#
# Compressibility (1/GPa) = 0.01361922
#
# Stress axis : x y z
#
# Youngs Moduli (GPa) = 79.35291 66.64313 63.44689
#
# Poissons Ratio (x) = 0.10672 0.38940
# Poissons Ratio (y) = 0.12707 0.45274
# Poissons Ratio (z) = 0.48703 0.47555
#
# Static dielectric constant tensor:
#      x y z
#    x 3.746310 0.000000 0.000000 
#    y 0.000000 4.010450 0.000000 
#    z 0.000000 0.000000 4.734150 
# 
# 
# High freq. dielectric constant tensor:
#      x y z
#    x 1.803870 0.000000 0.000000 
#    y 0.000000 1.812340 0.000000 
#    z 0.000000 0.000000 1.838140 
# 
# From -- ./inp_files/10761.got.cif
#   From: 2010.06.25/outbox.cif.g09.slc.cpg/sg48_6_cif.got.tgz:10761.got - 2010.06.26 18:06:46.
