data_PCOD8201310
_publ_section_title
;
Structure prediction by ZEFSAII (Michael W. Deem and Ramdas Pophale) SiO2 
 PCOD8201310
Probable space group: P N N N
;
_chemical_formula_sum "Si O2"
_cell_formula_units_Z 64
_cell_length_a 12.117966
_cell_length_b 10.839273
_cell_length_c 26.103409
_cell_angle_alpha 90.000000
_cell_angle_beta 90.000000
_cell_angle_gamma 90.000000
_cell_volume 3428.681250
_symmetry_space_group_name_H-M "P N N N"
_symmetry_group_IT_number 48
_space_group.IT_coordinate_system_code '2'
_symmetry_cell_setting 'orthorhombic'
loop_
_space_group_symop_operation_xyz
x,y,z
1/2-x,1/2-y,z
x,1/2-y,1/2-z
1/2-x,y,1/2-z
-x,-y,-z
1/2+x,1/2+y,-z
-x,1/2+y,1/2+z
1/2+x,-y,1/2+z
loop_
_atom_site_type_symbol
_atom_site_label
_atom_site_fract_x
_atom_site_fract_y
_atom_site_fract_z
Si Si1 0.880560 0.250000 0.329169
Si Si2 0.121007 0.750000 0.037308
Si Si3 0.471987 0.000846 0.806864
Si Si4 0.971986 0.500845 0.306864
Si Si5 0.497773 0.250000 0.431014
Si Si6 0.750000 0.612987 0.310876
Si Si7 0.879584 0.497955 0.599207
Si Si8 0.879584 0.497954 0.900792
O O1 0.750000 0.250000 0.318375
O O2 0.943211 0.358937 0.300825
O O3 0.903071 0.250000 0.390036
O O4 0.943211 0.141062 0.300825
O O5 0.250000 0.750000 0.023827
O O6 0.089356 0.624769 0.067461
O O7 0.089356 0.875232 0.067460
O O8 0.049578 0.749999 0.986566
O O9 0.361917 0.056429 0.833486
O O10 0.575408 0.024685 0.843447
O O11 0.497483 0.056107 0.750000
O O12 0.861916 0.556429 0.333487
O O13 0.075408 0.524685 0.343447
O O14 0.427029 0.124210 0.425070
O O15 0.427029 0.375791 0.425069
O O16 0.750000 0.750000 0.330248
O O17 0.750000 0.595977 0.250000
O O18 0.750000 0.515110 0.603465
#
# Coordination Sequence:
#
# PCOD8201310 Si02
#       8
#     8   8   8   8   8   8   8   8
#     4  10  18  31  52  82 108 134 179 229 278 326
#     4  10  21  39  61  83 109 142 182 231 281 325
#     4  10  20  33  54  80 111 148 184 224 270 322
#     4  10  20  33  54  80 111 148 184 224 270 322
#     4  10  20  37  61  81 108 141 184 227 279 328
#     4   9  18  31  49  73 107 148 183 223 271 311
#     4  10  22  38  58  83 114 148 183 223 271 329
#     4  10  22  38  58  83 114 148 183 223 271 329
#
# _framework density 18.666069
#
# number of rings (size 3 to 8) (size 9 to 14) (size 15 to 20)
#    0.000    2.125    1.250    1.875    1.750    1.000 
#    0.000    0.000    5.500    6.750    0.000    0.000 
#    0.000    0.000    0.000    0.000    0.000    0.000 
#
# Total GULP energy -793170.805629 kJ/mol
# GULP energy per Si atom -12393.293838 kJ/mol
# Density = 1.862358 g / cm^3
# Si number density = 18.666069 Si / 1000 Ang^3
#
#
#
# Elastic Constant Matrix: (Units=GPa)
#
#
# Indices 1 2 3 4 5 6 
#
# 1 79.8553 36.2488 62.4109 0.0000 0.0000 0.0000
# 2 36.2488 129.0771 39.1669 0.0000 0.0000 0.0000
# 3 62.4109 39.1669 119.8682 0.0000 0.0000 0.0000
# 4 0.0000 0.0000 0.0000 32.9295 0.0000 0.0000
# 5 0.0000 0.0000 0.0000 0.0000 5.6620 0.0000
# 6 0.0000 0.0000 0.0000 0.0000 0.0000 -107.7350
#
#
#
# Elastic Compliance Matrix: (Units=1/GPa)
#
#
# Indices 1 2 3 4 5 6 
#
# 1 0.022125 -0.003017 -0.010534 0.000000 0.000000 0.000000
# 2 -0.003017 0.009011 -0.001374 0.000000 0.000000 0.000000
# 3 -0.010534 -0.001374 0.014276 0.000000 0.000000 0.000000
# 4 0.000000 0.000000 0.000000 0.030368 0.000000 0.000000
# 5 0.000000 0.000000 0.000000 0.000000 0.176616 0.000000
# 6 0.000000 0.000000 0.000000 0.000000 0.000000 -0.009282
#
#
# Mechanical properties :
#
#
# Convention : Reuss Voigt Hill
#
# Bulk Modulus (GPa) = 64.25373 67.16152 65.70763
# Shear Modulus (GPa) = 17.97591 -1.09711 8.43940
#
# Velocity S-wave (km/s) = 3.10663 -0.76748 2.12863
# Velocity P-wave (km/s) = 6.88227 5.93913 6.42802
#
# Compressibility (1/GPa) = 0.01556330
#
# Stress axis : x y z
#
# Youngs Moduli (GPa) = 45.19815 110.97076 70.04828
#
# Poissons Ratio (x) = 0.33480 0.73787
# Poissons Ratio (y) = 0.13636 0.09622
# Poissons Ratio (z) = 0.47611 0.15243
#
# Static dielectric constant tensor:
#      x y z
#    x 3.416640 0.000000 0.000000 
#    y 0.000000 3.685450 0.000000 
#    z 0.000000 0.000000 3.276260 
# 
# 
# High freq. dielectric constant tensor:
#      x y z
#    x 1.721230 0.000000 0.000000 
#    y 0.000000 1.742540 0.000000 
#    z 0.000000 0.000000 1.712270 
# 
# From -- ./inp_files/36396.got.cif
#   From: 2010.06.25/outbox.cif.g09.slc.cpg/sg48_19_cif.got.tgz:36396.got - 2010.06.26 18:06:46.
