data_PCOD8201487
_publ_section_title
;
Structure prediction by ZEFSAII (Michael W. Deem and Ramdas Pophale) SiO2 
 PCOD8201487
Probable space group: P N N N
;
_chemical_formula_sum "Si O2"
_cell_formula_units_Z 58
_cell_length_a 18.246524
_cell_length_b 8.693216
_cell_length_c 16.652400
_cell_angle_alpha 90.000000
_cell_angle_beta 90.000000
_cell_angle_gamma 90.000000
_cell_volume 2641.419914
_symmetry_space_group_name_H-M "P N N N"
_symmetry_group_IT_number 48
_space_group.IT_coordinate_system_code '2'
_symmetry_cell_setting 'orthorhombic'
loop_
_space_group_symop_operation_xyz
x,y,z
1/2-x,1/2-y,z
x,1/2-y,1/2-z
1/2-x,y,1/2-z
-x,-y,-z
1/2+x,1/2+y,-z
-x,1/2+y,1/2+z
1/2+x,-y,1/2+z
loop_
_atom_site_type_symbol
_atom_site_label
_atom_site_fract_x
_atom_site_fract_y
_atom_site_fract_z
Si Si1 0.474968 0.432878 0.584371
Si Si2 0.722927 0.078020 0.876069
Si Si3 0.637172 0.641381 0.865858
Si Si4 0.401738 0.037640 0.204962
Si Si5 0.170540 0.926416 0.544978
Si Si6 0.250000 0.750000 0.750000
Si Si7 0.677662 0.094794 0.391100
Si Si8 0.061853 0.393137 0.533744
O O1 0.500000 0.500000 0.500000
O O2 0.523759 0.490745 0.659222
O O3 0.391598 0.487683 0.596641
O O4 0.476466 0.248933 0.578504
O O5 0.750000 0.250000 0.891128
O O6 0.786231 0.950656 0.864840
O O7 0.664946 0.085517 0.802330
O O8 0.669939 0.032213 0.951109
O O9 0.640113 0.815245 0.834186
O O10 0.582174 0.558566 0.800449
O O11 0.609780 0.651347 0.956718
O O12 0.248460 0.985521 0.577590
O O13 0.159802 0.743480 0.554890
O O14 0.306246 0.854686 0.699802
O O15 0.610635 0.977309 0.398528
O O16 0.000000 0.500000 0.500000
#
# Coordination Sequence:
#
# PCOD8201487 Si02
#       8
#     8   8   8   8   8   2   8   8
#     4  12  23  40  66  99 137 182 229 287 344 408
#     4  12  21  38  67  97 136 177 222 279 336 400
#     4  11  24  45  64  95 132 184 229 275 336 411
#     4  11  26  43  63  96 140 181 227 282 338 406
#     4  10  19  38  67  95 126 175 225 274 337 405
#     4   8  20  44  76 102 124 178 224 292 356 396
#     4  10  21  43  70  99 131 169 233 285 335 427
#     4  12  25  42  68  99 133 177 232 280 341 414
#
# _framework density 21.957886999999999
#
# number of rings (size 3 to 8) (size 9 to 14) (size 15 to 20)
#    0.000    1.103    5.517    1.655    1.931    2.759 
#    4.966    0.000    0.000    3.310    0.000    0.000 
#    0.000    0.000    0.000    0.000    0.000    0.000 
#
# Total GULP energy -718706.516094 kJ/mol
# GULP energy per Si atom -12391.491657 kJ/mol
# Density = 2.190791 g / cm^3
# Si number density = 21.957887 Si / 1000 Ang^3
#
#
#
# Elastic Constant Matrix: (Units=GPa)
#
#
# Indices 1 2 3 4 5 6 
#
# 1 104.8212 53.6532 14.4951 0.0000 0.0000 0.0000
# 2 53.6532 106.0168 25.5534 0.0000 0.0000 0.0000
# 3 14.4951 25.5534 108.6859 0.0000 0.0000 0.0000
# 4 0.0000 0.0000 0.0000 28.2736 0.0000 0.0000
# 5 0.0000 0.0000 0.0000 0.0000 29.2674 0.0000
# 6 0.0000 0.0000 0.0000 0.0000 0.0000 41.3914
#
#
#
# Elastic Compliance Matrix: (Units=1/GPa)
#
#
# Indices 1 2 3 4 5 6 
#
# 1 0.012879 -0.006471 -0.000196 0.000000 0.000000 0.000000
# 2 -0.006471 0.013250 -0.002252 0.000000 0.000000 0.000000
# 3 -0.000196 -0.002252 0.009757 0.000000 0.000000 0.000000
# 4 0.000000 0.000000 0.000000 0.035369 0.000000 0.000000
# 5 0.000000 0.000000 0.000000 0.000000 0.034168 0.000000
# 6 0.000000 0.000000 0.000000 0.000000 0.000000 0.024160
#
#
# Mechanical properties :
#
#
# Convention : Reuss Voigt Hill
#
# Bulk Modulus (GPa) = 55.40992 56.32525 55.86759
# Shear Modulus (GPa) = 32.58688 34.84129 33.71409
#
# Velocity S-wave (km/s) = 3.85653 3.98770 3.92267
# Velocity P-wave (km/s) = 6.71713 6.84905 6.78341
#
# Compressibility (1/GPa) = 0.01804731
#
# Stress axis : x y z
#
# Youngs Moduli (GPa) = 77.64451 75.47172 102.49529
#
# Poissons Ratio (x) = 0.48835 0.02012
# Poissons Ratio (y) = 0.50241 0.23085
# Poissons Ratio (z) = 0.01524 0.16998
#
# Static dielectric constant tensor:
#      x y z
#    x 3.522600 0.000000 0.000000 
#    y 0.000000 3.987300 0.000000 
#    z 0.000000 0.000000 14.717230 
# 
# 
# High freq. dielectric constant tensor:
#      x y z
#    x 1.865840 0.000000 0.000000 
#    y 0.000000 1.859120 0.000000 
#    z 0.000000 0.000000 1.860330 
# 
# From -- ./inp_files/32017.got.cif
#   From: 2010.06.25/outbox.cif.g09.slc.cpg/sg48_17_cif.got.tgz:32017.got - 2010.06.26 18:06:46.
