data_PCOD8201952
_publ_section_title
;
Structure prediction by ZEFSAII (Michael W. Deem and Ramdas Pophale) SiO2 
 PCOD8201952
Probable space group: P N N N
;
_chemical_formula_sum "Si O2"
_cell_formula_units_Z 52
_cell_length_a 11.282402
_cell_length_b 9.171173
_cell_length_c 27.545505
_cell_angle_alpha 90.000000
_cell_angle_beta 90.000000
_cell_angle_gamma 90.000000
_cell_volume 2850.212199
_symmetry_space_group_name_H-M "P N N N"
_symmetry_group_IT_number 48
_space_group.IT_coordinate_system_code '2'
_symmetry_cell_setting 'orthorhombic'
loop_
_space_group_symop_operation_xyz
x,y,z
1/2-x,1/2-y,z
x,1/2-y,1/2-z
1/2-x,y,1/2-z
-x,-y,-z
1/2+x,1/2+y,-z
-x,1/2+y,1/2+z
1/2+x,-y,1/2+z
loop_
_atom_site_type_symbol
_atom_site_label
_atom_site_fract_x
_atom_site_fract_y
_atom_site_fract_z
Si Si1 0.907198 0.537904 0.581683
Si Si2 0.250000 0.250000 0.670060
Si Si3 0.621049 0.732806 0.664949
Si Si4 0.955169 0.754150 0.092297
Si Si5 0.250000 0.497174 0.750000
Si Si6 0.562136 0.250000 0.250000
Si Si7 0.640725 0.011895 0.912091
Si Si8 0.616632 0.718615 0.514405
O O1 0.902517 0.633002 0.629784
O O2 0.778996 0.459677 0.575158
O O3 0.950101 0.638964 0.536114
O O4 0.011091 0.422035 0.587729
O O5 0.133384 0.235305 0.637066
O O6 0.247867 0.395666 0.702412
O O7 0.750000 0.750000 0.690243
O O8 0.517416 0.731373 0.703203
O O9 0.621647 0.582281 0.635944
O O10 0.075382 0.663071 0.098956
O O11 0.892720 0.700714 0.042950
O O12 0.363398 0.601591 0.753084
O O13 0.578436 0.930232 0.958155
O O14 0.750000 0.750000 0.531762
#
# Coordination Sequence:
#
# PCOD8201952 Si02
#       8
#     8   4   8   8   4   4   8   8
#     4   9  19  33  52  74 107 132 164 210 265 301
#     4  11  24  38  52  74 108 140 174 209 262 302
#     4   9  18  34  54  81 102 129 161 213 262 310
#     4  12  19  32  53  76  97 137 181 208 241 309
#     4  10  24  40  52  74 106 140 170 218 256 302
#     4  11  19  36  62  78  97 133 182 210 254 305
#     4   9  19  33  52  74 107 132 164 210 265 301
#     4   9  18  34  49  74 103 136 169 212 255 298
#
# _framework density 18.244256
#
# number of rings (size 3 to 8) (size 9 to 14) (size 15 to 20)
#    0.000    2.154    0.769    5.308    0.000    0.000 
#    0.000    0.000    0.000    0.000    0.000   12.923 
#    0.000    0.000    0.000    0.000    0.000    0.000 
#
# Total GULP energy -644585.275235 kJ/mol
# GULP energy per Si atom -12395.870678 kJ/mol
# Density = 1.820273 g / cm^3
# Si number density = 18.244256 Si / 1000 Ang^3
#
#
#
# Elastic Constant Matrix: (Units=GPa)
#
#
# Indices 1 2 3 4 5 6 
#
# 1 60.7925 18.7299 38.0919 0.0000 0.0000 0.0000
# 2 18.7299 77.4798 28.9293 0.0000 0.0000 0.0000
# 3 38.0919 28.9293 110.2549 0.0000 0.0000 0.0000
# 4 0.0000 0.0000 0.0000 8.7850 0.0000 0.0000
# 5 0.0000 0.0000 0.0000 0.0000 61.4067 0.0000
# 6 0.0000 0.0000 0.0000 0.0000 0.0000 25.5441
#
#
#
# Elastic Compliance Matrix: (Units=1/GPa)
#
#
# Indices 1 2 3 4 5 6 
#
# 1 0.021487 -0.002686 -0.006719 0.000000 0.000000 0.000000
# 2 -0.002686 0.014644 -0.002915 0.000000 0.000000 0.000000
# 3 -0.006719 -0.002915 0.012156 0.000000 0.000000 0.000000
# 4 0.000000 0.000000 0.000000 0.113830 0.000000 0.000000
# 5 0.000000 0.000000 0.000000 0.000000 0.016285 0.000000
# 6 0.000000 0.000000 0.000000 0.000000 0.000000 0.039148
#
#
# Mechanical properties :
#
#
# Convention : Reuss Voigt Hill
#
# Bulk Modulus (GPa) = 42.28530 46.66993 44.47762
# Shear Modulus (GPa) = 19.99436 29.99889 24.99662
#
# Velocity S-wave (km/s) = 3.31407 4.05939 3.70551
# Velocity P-wave (km/s) = 6.15400 6.89983 6.53756
#
# Compressibility (1/GPa) = 0.02364888
#
# Stress axis : x y z
#
# Youngs Moduli (GPa) = 46.54046 68.28729 82.26462
#
# Poissons Ratio (x) = 0.18339 0.55272
# Poissons Ratio (y) = 0.12499 0.23977
# Poissons Ratio (z) = 0.31269 0.19903
#
# Static dielectric constant tensor:
#      x y z
#    x 3.286280 0.000000 0.000000 
#    y 0.000000 3.352160 0.000000 
#    z 0.000000 0.000000 3.286000 
# 
# 
# High freq. dielectric constant tensor:
#      x y z
#    x 1.701310 0.000000 0.000000 
#    y 0.000000 1.712680 0.000000 
#    z 0.000000 0.000000 1.707140 
# 
# From -- ./inp_files/11436.got.cif
#   From: 2010.06.25/outbox.cif.g09.slc.cpg/sg48_6_cif.got.tgz:11436.got - 2010.06.26 18:06:46.
