data_PCOD8201377
_publ_section_title
;
Structure prediction by ZEFSAII (Michael W. Deem and Ramdas Pophale) SiO2 
 PCOD8201377
Probable space group: P N N N
;
_chemical_formula_sum "Si O2"
_cell_formula_units_Z 48
_cell_length_a 14.888389
_cell_length_b 13.385720
_cell_length_c 13.267627
_cell_angle_alpha 90.000000
_cell_angle_beta 90.000000
_cell_angle_gamma 90.000000
_cell_volume 2644.129352
_symmetry_space_group_name_H-M "P N N N"
_symmetry_group_IT_number 48
_space_group.IT_coordinate_system_code '2'
_symmetry_cell_setting 'orthorhombic'
loop_
_space_group_symop_operation_xyz
x,y,z
1/2-x,1/2-y,z
x,1/2-y,1/2-z
1/2-x,y,1/2-z
-x,-y,-z
1/2+x,1/2+y,-z
-x,1/2+y,1/2+z
1/2+x,-y,1/2+z
loop_
_atom_site_type_symbol
_atom_site_label
_atom_site_fract_x
_atom_site_fract_y
_atom_site_fract_z
Si Si1 0.574434 0.688826 0.852982
Si Si2 0.273830 0.027361 0.361334
Si Si3 0.253045 0.636364 0.515456
Si Si4 0.584707 0.462608 0.389908
Si Si5 0.899690 0.619352 0.956848
Si Si6 0.621912 0.145087 0.303530
O O1 0.593317 0.750000 0.750000
O O2 0.636880 0.593215 0.860232
O O3 0.591455 0.760920 0.949644
O O4 0.472302 0.652740 0.860839
O O5 0.250000 0.990103 0.250000
O O6 0.193843 0.092902 0.405616
O O7 0.291950 0.929817 0.428487
O O8 0.250000 0.750000 0.479032
O O9 0.356732 0.605649 0.533394
O O10 0.199931 0.618726 0.619162
O O11 0.595912 0.577904 0.427648
O O12 0.481034 0.430224 0.393706
O O13 0.618718 0.446194 0.276332
O O14 0.644974 0.250000 0.250000
#
# Coordination Sequence:
#
# PCOD8201377 Si02
#       6
#     8   8   8   8   8   8
#     4  11  19  34  57  81 106 142 185 234 273 324
#     4  11  22  34  53  79 109 145 181 227 279 331
#     4  11  22  34  53  79 109 145 181 227 279 331
#     4  10  19  32  52  80 109 139 179 224 278 333
#     4  10  19  32  52  80 109 139 179 224 278 333
#     4  11  19  34  57  81 106 142 185 234 273 324
#
# _framework density 18.153424000000001
#
# number of rings (size 3 to 8) (size 9 to 14) (size 15 to 20)
#    0.000    1.333    6.667    1.000    0.000    1.000 
#    0.000    0.000    0.000    1.000    0.000    4.667 
#    0.000    0.000    0.000    0.000    0.000    0.000 
#
# Total GULP energy -595149.749527 kJ/mol
# GULP energy per Si atom -12398.953115 kJ/mol
# Density = 1.811211 g / cm^3
# Si number density = 18.153424 Si / 1000 Ang^3
#
#
#
# Elastic Constant Matrix: (Units=GPa)
#
#
# Indices 1 2 3 4 5 6 
#
# 1 77.5912 19.5187 11.9373 0.0000 0.0000 0.0000
# 2 19.5187 92.0442 46.2081 0.0000 0.0000 0.0000
# 3 11.9373 46.2081 80.5992 0.0000 0.0000 0.0000
# 4 0.0000 0.0000 0.0000 34.5209 0.0000 0.0000
# 5 0.0000 0.0000 0.0000 0.0000 20.8480 0.0000
# 6 0.0000 0.0000 0.0000 0.0000 0.0000 21.7880
#
#
#
# Elastic Compliance Matrix: (Units=1/GPa)
#
#
# Indices 1 2 3 4 5 6 
#
# 1 0.013629 -0.002635 -0.000508 0.000000 0.000000 0.000000
# 2 -0.002635 0.015764 -0.008648 0.000000 0.000000 0.000000
# 3 -0.000508 -0.008648 0.017440 0.000000 0.000000 0.000000
# 4 0.000000 0.000000 0.000000 0.028968 0.000000 0.000000
# 5 0.000000 0.000000 0.000000 0.000000 0.047966 0.000000
# 6 0.000000 0.000000 0.000000 0.000000 0.000000 0.045897
#
#
# Mechanical properties :
#
#
# Convention : Reuss Voigt Hill
#
# Bulk Modulus (GPa) = 43.00637 45.06253 44.03445
# Shear Modulus (GPa) = 24.87605 26.93607 25.90606
#
# Velocity S-wave (km/s) = 3.70580 3.85619 3.78175
# Velocity P-wave (km/s) = 6.48479 6.68611 6.58622
#
# Compressibility (1/GPa) = 0.02325237
#
# Stress axis : x y z
#
# Youngs Moduli (GPa) = 73.37246 63.43396 57.33953
#
# Poissons Ratio (x) = 0.16716 0.02911
# Poissons Ratio (y) = 0.19336 0.49585
# Poissons Ratio (z) = 0.03725 0.54855
#
# Static dielectric constant tensor:
#      x y z
#    x 3.504650 0.000000 0.000000 
#    y 0.000000 3.370470 0.000000 
#    z 0.000000 0.000000 3.416370 
# 
# 
# High freq. dielectric constant tensor:
#      x y z
#    x 1.725630 0.000000 0.000000 
#    y 0.000000 1.681450 0.000000 
#    z 0.000000 0.000000 1.680160 
# 
# From -- ./inp_files/21232.got.cif
#   From: 2010.06.25/outbox.cif.g09.slc.cpg/sg48_11_cif.got.tgz:21232.got - 2010.06.26 18:06:46.
