data_PCOD8201367
_publ_section_title
;
Structure prediction by ZEFSAII (Michael W. Deem and Ramdas Pophale) SiO2 
 PCOD8201367
Probable space group: P N N N
;
_chemical_formula_sum "Si O2"
_cell_formula_units_Z 58
_cell_length_a 8.884346
_cell_length_b 28.088393
_cell_length_c 12.337840
_cell_angle_alpha 90.000000
_cell_angle_beta 90.000000
_cell_angle_gamma 90.000000
_cell_volume 3078.870983
_symmetry_space_group_name_H-M "P N N N"
_symmetry_group_IT_number 48
_space_group.IT_coordinate_system_code '2'
_symmetry_cell_setting 'orthorhombic'
loop_
_space_group_symop_operation_xyz
x,y,z
1/2-x,1/2-y,z
x,1/2-y,1/2-z
1/2-x,y,1/2-z
-x,-y,-z
1/2+x,1/2+y,-z
-x,1/2+y,1/2+z
1/2+x,-y,1/2+z
loop_
_atom_site_type_symbol
_atom_site_label
_atom_site_fract_x
_atom_site_fract_y
_atom_site_fract_z
Si Si1 0.528552 0.191564 0.283435
Si Si2 0.053210 0.608750 0.009434
Si Si3 0.395197 0.441627 0.686403
Si Si4 0.750000 0.750000 0.750000
Si Si5 0.744849 0.017686 0.470532
Si Si6 0.202549 0.701853 0.928268
Si Si7 0.950422 0.990251 0.838526
Si Si8 0.596719 0.899414 0.796113
O O1 0.365800 0.215154 0.316002
O O2 0.595938 0.218449 0.174726
O O3 0.637502 0.184547 0.384276
O O4 0.528059 0.136638 0.246517
O O5 0.176064 0.568243 0.985819
O O6 0.126638 0.661520 0.003191
O O7 0.914540 0.601839 0.926270
O O8 0.979548 0.602021 0.127778
O O9 0.250000 0.422004 0.750000
O O10 0.351159 0.482107 0.597740
O O11 0.510120 0.461075 0.776797
O O12 0.590112 0.028057 0.408898
O O13 0.699882 0.995910 0.588226
O O14 0.250000 0.750000 0.994630
O O15 0.922843 0.952469 0.745376
O O16 0.750000 0.877807 0.750000
#
# Coordination Sequence:
#
# PCOD8201367 Si02
#       8
#     8   8   8   2   8   8   8   8
#     4  10  19  31  51  77 115 154 190 222 283 346
#     4  11  22  34  55  78 111 153 195 230 288 350
#     4  10  21  37  53  76 113 149 187 241 285 334
#     4  12  16  30  48  76 112 150 194 216 272 358
#     4  10  20  36  52  80 109 147 197 224 277 343
#     4  10  19  35  53  77 112 151 193 239 282 343
#     4  10  21  33  53  75 113 149 182 234 276 329
#     4  11  21  30  48  80 111 152 186 229 271 337
#
# _framework density 18.838075
#
# number of rings (size 3 to 8) (size 9 to 14) (size 15 to 20)
#    0.000    1.655    3.448    2.483    1.931    1.103 
#    0.000    0.000    0.000    0.000    0.000    1.931 
#    0.000    7.724    0.000    0.000    0.000    0.000 
#
# Total GULP energy -718569.569298 kJ/mol
# GULP energy per Si atom -12389.130505 kJ/mol
# Density = 1.879520 g / cm^3
# Si number density = 18.838075 Si / 1000 Ang^3
#
#
#
# Elastic Constant Matrix: (Units=GPa)
#
#
# Indices 1 2 3 4 5 6 
#
# 1 87.8133 31.2248 37.5284 0.0000 0.0000 0.0000
# 2 31.2248 90.5129 39.6048 0.0000 0.0000 0.0000
# 3 37.5284 39.6048 82.5886 0.0000 0.0000 0.0000
# 4 0.0000 0.0000 0.0000 14.3177 0.0000 0.0000
# 5 0.0000 0.0000 0.0000 0.0000 26.5062 0.0000
# 6 0.0000 0.0000 0.0000 0.0000 0.0000 27.7525
#
#
#
# Elastic Compliance Matrix: (Units=1/GPa)
#
#
# Indices 1 2 3 4 5 6 
#
# 1 0.014638 -0.002707 -0.005353 0.000000 0.000000 0.000000
# 2 -0.002707 0.014483 -0.005715 0.000000 0.000000 0.000000
# 3 -0.005353 -0.005715 0.017281 0.000000 0.000000 0.000000
# 4 0.000000 0.000000 0.000000 0.069844 0.000000 0.000000
# 5 0.000000 0.000000 0.000000 0.000000 0.037727 0.000000
# 6 0.000000 0.000000 0.000000 0.000000 0.000000 0.036033
#
#
# Mechanical properties :
#
#
# Convention : Reuss Voigt Hill
#
# Bulk Modulus (GPa) = 53.04730 53.07009 53.05870
# Shear Modulus (GPa) = 22.33730 23.88573 23.11152
#
# Velocity S-wave (km/s) = 3.44721 3.56469 3.50644
# Velocity P-wave (km/s) = 6.63816 6.72128 6.67985
#
# Compressibility (1/GPa) = 0.01885110
#
# Stress axis : x y z
#
# Youngs Moduli (GPa) = 68.31366 69.04770 57.86607
#
# Poissons Ratio (x) = 0.18694 0.30978
# Poissons Ratio (y) = 0.18496 0.33069
# Poissons Ratio (z) = 0.36571 0.39459
#
# Static dielectric constant tensor:
#      x y z
#    x 3.765910 0.000000 0.000000 
#    y 0.000000 3.399250 0.000000 
#    z 0.000000 0.000000 3.300350 
# 
# 
# High freq. dielectric constant tensor:
#      x y z
#    x 1.747440 0.000000 0.000000 
#    y 0.000000 1.724780 0.000000 
#    z 0.000000 0.000000 1.690920 
# 
# From -- ./inp_files/19035.got.cif
#   From: 2010.06.25/outbox.cif.g09.slc.cpg/sg48_10_cif.got.tgz:19035.got - 2010.06.26 18:06:46.
