data_PCOD8201193
_publ_section_title
;
Structure prediction by ZEFSAII (Michael W. Deem and Ramdas Pophale) SiO2 
 PCOD8201193
Probable space group: P M M M
;
_chemical_formula_sum "Si O2"
_cell_formula_units_Z 56
_cell_length_a 29.778469
_cell_length_b 9.404828
_cell_length_c 12.786746
_cell_angle_alpha 90.000000
_cell_angle_beta 90.000000
_cell_angle_gamma 90.000000
_cell_volume 3581.073718
_symmetry_space_group_name_H-M "P M M M"
_symmetry_group_IT_number 47
_symmetry_cell_setting 'orthorhombic'
loop_
_space_group_symop_operation_xyz
x,y,z
-x,-y,z
x,-y,-z
-x,y,-z
-x,-y,-z
x,y,-z
-x,y,z
x,-y,z
loop_
_atom_site_type_symbol
_atom_site_label
_atom_site_fract_x
_atom_site_fract_y
_atom_site_fract_z
Si Si1 0.914884 0.339577 0.624775
Si Si2 0.000000 0.838409 0.375547
Si Si3 0.358752 0.832858 0.381447
Si Si4 0.833228 0.842485 0.621248
Si Si5 0.737741 0.166669 0.303736
Si Si6 0.289429 0.338564 0.117908
Si Si7 0.610693 0.664380 0.190353
Si Si8 0.449023 0.330847 0.000000
O O1 0.914876 0.344822 0.500000
O O2 0.918372 0.500000 0.669365
O O3 0.869258 0.267355 0.669412
O O4 0.956442 0.245684 0.666066
O O5 0.000000 0.842253 0.500000
O O6 0.000000 0.000000 0.331726
O O7 0.372999 0.793463 0.500000
O O8 0.306822 0.784063 0.366218
O O9 0.391035 0.751632 0.299433
O O10 0.363895 0.000000 0.361087
O O11 0.843613 0.855828 0.500000
O O12 0.782502 0.785120 0.635597
O O13 0.838756 0.000000 0.672329
O O14 0.740025 0.237502 0.190301
O O15 0.736438 0.000000 0.287892
O O16 0.276874 0.500000 0.144710
O O17 0.341976 0.312726 0.134564
O O18 0.276920 0.299608 0.000000
O O19 0.601540 0.500000 0.217784
O O20 0.574358 0.724514 0.106989
O O21 0.445184 0.500000 0.000000
O O22 0.500000 0.276059 0.000000
#
# Coordination Sequence:
#
# PCOD8201193 Si02
#       8
#     8   4   8   8   8   8   8   4
#     4   9  16  24  34  49  69  94 126 166 207 243
#     4   9  15  23  35  49  65  89 126 167 206 249
#     4   9  17  29  44  63  88 117 147 178 213 251
#     4   9  16  26  38  51  72 103 135 165 199 239
#     4   9  17  27  40  59  80 106 140 174 204 238
#     4   9  16  27  42  59  82 109 133 162 204 250
#     4   9  16  28  46  67  89 112 141 176 214 257
#     4   9  16  28  49  73  93 113 139 177 225 268
#
# _framework density 15.637767
#
# number of rings (size 3 to 8) (size 9 to 14) (size 15 to 20)
#    0.000    3.000    0.714    1.071    0.000    5.429 
#    0.000    0.357    0.000    3.857    0.000    3.000 
#    0.000    0.000    0.000    0.643    0.000   12.071 
#
# Total GULP energy -694117.284160 kJ/mol
# GULP energy per Si atom -12394.951503 kJ/mol
# Density = 1.560217 g / cm^3
# Si number density = 15.637767 Si / 1000 Ang^3
#
#
#
# Elastic Constant Matrix: (Units=GPa)
#
#
# Indices 1 2 3 4 5 6 
#
# 1 78.6036 43.0682 37.8237 0.0000 0.0000 0.0000
# 2 43.0682 61.2622 33.2157 0.0000 0.0000 0.0000
# 3 37.8237 33.2157 71.5066 0.0000 0.0000 0.0000
# 4 0.0000 0.0000 0.0000 22.6882 0.0000 0.0000
# 5 0.0000 0.0000 0.0000 0.0000 12.3610 0.0000
# 6 0.0000 0.0000 0.0000 0.0000 0.0000 17.9679
#
#
#
# Elastic Compliance Matrix: (Units=1/GPa)
#
#
# Indices 1 2 3 4 5 6 
#
# 1 0.022517 -0.012527 -0.006092 0.000000 0.000000 0.000000
# 2 -0.012527 0.028788 -0.006746 0.000000 0.000000 0.000000
# 3 -0.006092 -0.006746 0.020340 0.000000 0.000000 0.000000
# 4 0.000000 0.000000 0.000000 0.044076 0.000000 0.000000
# 5 0.000000 0.000000 0.000000 0.000000 0.080900 0.000000
# 6 0.000000 0.000000 0.000000 0.000000 0.000000 0.055655
#
#
# Mechanical properties :
#
#
# Convention : Reuss Voigt Hill
#
# Bulk Modulus (GPa) = 47.81024 48.84306 48.32665
# Shear Modulus (GPa) = 16.13026 17.08774 16.60900
#
# Velocity S-wave (km/s) = 3.21517 3.30922 3.26254
# Velocity P-wave (km/s) = 6.66506 6.77518 6.72035
#
# Compressibility (1/GPa) = 0.02091602
#
# Stress axis : x y z
#
# Youngs Moduli (GPa) = 44.41077 34.73720 49.16319
#
# Poissons Ratio (x) = 0.43516 0.29948
# Poissons Ratio (y) = 0.55634 0.33165
# Poissons Ratio (z) = 0.27053 0.23433
#
# Static dielectric constant tensor:
#      x y z
#    x 2.974690 0.000000 0.000000 
#    y 0.000000 3.049430 0.000000 
#    z 0.000000 0.000000 2.791150 
# 
# 
# High freq. dielectric constant tensor:
#      x y z
#    x 1.586370 0.000000 0.000000 
#    y 0.000000 1.597370 0.000000 
#    z 0.000000 0.000000 1.559020 
# 
# From -- ./inp_files/25830.got.cif
#   From: 2010.03.12/outbox.cif.g09.slc.cpg/sg47_13_cif.got.tgz:25830.got - 2010.04.14 03:12:58.
