data_PCOD8201049
_publ_section_title
;
Structure prediction by ZEFSAII (Michael W. Deem and Ramdas Pophale) SiO2 
 PCOD8201049
Probable space group: P M M M
;
_chemical_formula_sum "Si O2"
_cell_formula_units_Z 56
_cell_length_a 9.312046
_cell_length_b 17.860820
_cell_length_c 28.143720
_cell_angle_alpha 90.000000
_cell_angle_beta 90.000000
_cell_angle_gamma 90.000000
_cell_volume 4680.885390
_symmetry_space_group_name_H-M "P M M M"
_symmetry_group_IT_number 47
_symmetry_cell_setting 'orthorhombic'
loop_
_space_group_symop_operation_xyz
x,y,z
-x,-y,z
x,-y,-z
-x,y,-z
-x,-y,-z
x,y,-z
-x,y,z
x,-y,z
loop_
_atom_site_type_symbol
_atom_site_label
_atom_site_fract_x
_atom_site_fract_y
_atom_site_fract_z
Si Si1 0.840730 0.638672 0.056453
Si Si2 0.339404 0.500000 0.943230
Si Si3 0.830432 0.195009 0.945753
Si Si4 0.663084 0.910806 0.591221
Si Si5 0.163367 0.910794 0.500000
Si Si6 0.659527 0.911016 0.229794
Si Si7 0.161856 0.089301 0.318042
Si Si8 0.331249 0.085771 0.123836
O O1 0.737142 0.574466 0.077014
O O2 0.784671 0.721275 0.070828
O O3 0.000000 0.624759 0.077212
O O4 0.847889 0.634027 0.000000
O O5 0.500000 0.500000 0.923291
O O6 0.336824 0.500000 0.000000
O O7 0.752284 0.135234 0.913542
O O8 0.000000 0.185392 0.940533
O O9 0.782744 0.181093 0.000000
O O10 0.500000 0.879775 0.589742
O O11 0.751963 0.880633 0.546051
O O12 0.742634 0.880722 0.638283
O O13 0.660275 0.000000 0.590941
O O14 0.000000 0.879866 0.500000
O O15 0.160258 0.000000 0.500000
O O16 0.500000 0.879219 0.240472
O O17 0.769761 0.879622 0.269072
O O18 0.710406 0.887221 0.177079
O O19 0.652570 0.000000 0.232179
O O20 0.000000 0.120460 0.322685
O O21 0.160339 0.000000 0.318139
O O22 0.500000 0.094997 0.115674
O O23 0.284410 0.000000 0.116089
#
# Coordination Sequence:
#
# PCOD8201049 Si02
#       8
#     8   4   8   8   4   8   8   8
#     4   8  14  25  38  50  67  90 109 123 144 175
#     4   9  15  21  33  55  75  87 103 125 145 167
#     4   9  18  30  41  53  68  86 108 131 154 183
#     4   9  15  21  28  37  50  69  89 106 129 164
#     4   9  15  21  27  35  49  67  87 111 133 155
#     4   8  14  25  37  46  57  72  90 114 146 184
#     4   9  15  21  30  44  57  67  83 109 140 171
#     4   9  18  30  41  52  65  82 104 130 162 197
#
# _framework density 11.963549
#
# number of rings (size 3 to 8) (size 9 to 14) (size 15 to 20)
#    0.000    3.286    0.000    3.000    0.000    7.143 
#    0.000    4.286    0.000    0.000    0.000    0.000 
#    0.000    0.000    0.000    0.000    0.000    0.000 
#
# Total GULP energy -694050.459959 kJ/mol
# GULP energy per Si atom -12393.758214 kJ/mol
# Density = 1.193632 g / cm^3
# Si number density = 11.963549 Si / 1000 Ang^3
#
#
#
# Elastic Constant Matrix: (Units=GPa)
#
#
# Indices 1 2 3 4 5 6 
#
# 1 91.0381 30.7200 51.8883 0.0000 0.0000 0.0000
# 2 30.7200 41.2090 29.5280 0.0000 0.0000 0.0000
# 3 51.8883 29.5280 81.9701 0.0000 0.0000 0.0000
# 4 0.0000 0.0000 0.0000 -0.3193 0.0000 0.0000
# 5 0.0000 0.0000 0.0000 0.0000 21.1061 0.0000
# 6 0.0000 0.0000 0.0000 0.0000 0.0000 9.8133
#
#
#
# Elastic Compliance Matrix: (Units=1/GPa)
#
#
# Indices 1 2 3 4 5 6 
#
# 1 0.018706 -0.007360 -0.009190 0.000000 0.000000 0.000000
# 2 -0.007360 0.035605 -0.008167 0.000000 0.000000 0.000000
# 3 -0.009190 -0.008167 0.020959 0.000000 0.000000 0.000000
# 4 0.000000 0.000000 0.000000 -3.132021 0.000000 0.000000
# 5 0.000000 0.000000 0.000000 0.000000 0.047380 0.000000
# 6 0.000000 0.000000 0.000000 0.000000 0.000000 0.101903
#
#
# Mechanical properties :
#
#
# Convention : Reuss Voigt Hill
#
# Bulk Modulus (GPa) = 38.70515 48.72110 43.71313
# Shear Modulus (GPa) = -1.75474 12.92541 5.58534
#
# Velocity S-wave (km/s) = -1.21240 3.29051 2.16304
# Velocity P-wave (km/s) = 5.51932 7.43301 6.54647
#
# Compressibility (1/GPa) = 0.02583635
#
# Stress axis : x y z
#
# Youngs Moduli (GPa) = 53.45960 28.08589 47.71220
#
# Poissons Ratio (x) = 0.20670 0.43847
# Poissons Ratio (y) = 0.39344 0.38968
# Poissons Ratio (z) = 0.49129 0.22938
#
# Static dielectric constant tensor:
#      x y z
#    x 2.653180 0.000000 0.000000 
#    y 0.000000 2.141890 0.000000 
#    z 0.000000 0.000000 2.480890 
# 
# 
# High freq. dielectric constant tensor:
#      x y z
#    x 1.467040 0.000000 0.000000 
#    y 0.000000 1.388610 0.000000 
#    z 0.000000 0.000000 1.438400 
# 
# From -- ./inp_files/34394.got.cif
#   From: 2010.03.12/outbox.cif.g09.slc.cpg/sg47_18_cif.got.tgz:34394.got - 2010.04.14 03:12:58.
