data_PCOD8201098
_publ_section_title
;
Structure prediction by ZEFSAII (Michael W. Deem and Ramdas Pophale) SiO2 
 PCOD8201098
Probable space group: P M M M
;
_chemical_formula_sum "Si O2"
_cell_formula_units_Z 44
_cell_length_a 9.509896
_cell_length_b 30.355240
_cell_length_c 7.698932
_cell_angle_alpha 90.000000
_cell_angle_beta 90.000000
_cell_angle_gamma 90.000000
_cell_volume 2222.490546
_symmetry_space_group_name_H-M "P M M M"
_symmetry_group_IT_number 47
_symmetry_cell_setting 'orthorhombic'
loop_
_space_group_symop_operation_xyz
x,y,z
-x,-y,z
x,-y,-z
-x,y,-z
-x,-y,-z
x,y,-z
-x,y,z
x,-y,z
loop_
_atom_site_type_symbol
_atom_site_label
_atom_site_fract_x
_atom_site_fract_y
_atom_site_fract_z
Si Si1 0.656521 0.126780 0.295093
Si Si2 0.342504 0.777805 0.796617
Si Si3 0.665874 0.451225 0.500000
Si Si4 0.157366 0.048487 0.706529
Si Si5 0.664193 0.386311 0.800031
Si Si6 0.158047 0.698551 0.205690
O O1 0.652816 0.121656 0.500000
O O2 0.500000 0.123570 0.215884
O O3 0.722202 0.174092 0.244573
O O4 0.746775 0.087044 0.212005
O O5 0.500000 0.773792 0.715047
O O6 0.239247 0.740991 0.715411
O O7 0.352729 0.769934 0.000000
O O8 0.734844 0.500000 0.500000
O O9 0.500000 0.455743 0.500000
O O10 0.712760 0.426104 0.675473
O O11 0.156993 0.051682 0.500000
O O12 0.000000 0.055199 0.777875
O O13 0.213521 0.000000 0.763318
O O14 0.500000 0.374589 0.774375
O O15 0.754861 0.344500 0.740660
O O16 0.694501 0.399704 0.000000
O O17 0.000000 0.696312 0.283618
O O18 0.149806 0.702384 0.000000
#
# Coordination Sequence:
#
# PCOD8201098 Si02
#       6
#     8   8   4   8   8   8
#     4   9  17  28  42  63  88 110 139 183 228 269
#     4   9  17  30  47  65  89 122 154 184 227 284
#     4   9  18  32  51  79 109 133 167 213 252 291
#     4   8  14  25  41  60  82 110 143 179 222 271
#     4   9  17  31  52  75 100 133 169 205 249 296
#     4   9  17  30  49  71  94 122 159 200 236 277
#
# _framework density 19.797609000000001
#
# number of rings (size 3 to 8) (size 9 to 14) (size 15 to 20)
#    0.000    3.182    0.000    1.091    0.000    3.636 
#    1.636    4.091    0.000    1.636    0.000    6.364 
#    0.000    0.000    0.000    0.000    0.000    0.000 
#
# Total GULP energy -545346.319592 kJ/mol
# GULP energy per Si atom -12394.234536 kJ/mol
# Density = 1.975255 g / cm^3
# Si number density = 19.797609 Si / 1000 Ang^3
#
#
#
# Elastic Constant Matrix: (Units=GPa)
#
#
# Indices 1 2 3 4 5 6 
#
# 1 99.2354 92.3045 19.2167 0.0000 0.0000 0.0000
# 2 92.3045 215.4572 36.3516 0.0000 0.0000 0.0000
# 3 19.2167 36.3516 42.0647 0.0000 0.0000 0.0000
# 4 0.0000 0.0000 0.0000 27.1558 0.0000 0.0000
# 5 0.0000 0.0000 0.0000 0.0000 7.2536 0.0000
# 6 0.0000 0.0000 0.0000 0.0000 0.0000 15.8872
#
#
#
# Elastic Compliance Matrix: (Units=1/GPa)
#
#
# Indices 1 2 3 4 5 6 
#
# 1 0.016857 -0.006933 -0.001709 0.000000 0.000000 0.000000
# 2 -0.006933 0.008285 -0.003993 0.000000 0.000000 0.000000
# 3 -0.001709 -0.003993 0.028004 0.000000 0.000000 0.000000
# 4 0.000000 0.000000 0.000000 0.036825 0.000000 0.000000
# 5 0.000000 0.000000 0.000000 0.000000 0.137862 0.000000
# 6 0.000000 0.000000 0.000000 0.000000 0.000000 0.062944
#
#
# Mechanical properties :
#
#
# Convention : Reuss Voigt Hill
#
# Bulk Modulus (GPa) = 35.87299 72.50030 54.18665
# Shear Modulus (GPa) = 15.36855 23.98495 19.67675
#
# Velocity S-wave (km/s) = 2.78921 3.48445 3.15603
# Velocity P-wave (km/s) = 5.34155 7.27246 6.38047
#
# Compressibility (1/GPa) = 0.02787613
#
# Stress axis : x y z
#
# Youngs Moduli (GPa) = 59.32161 120.69575 35.70913
#
# Poissons Ratio (x) = 0.83684 0.06103
# Poissons Ratio (y) = 0.41131 0.14257
# Poissons Ratio (z) = 0.10139 0.48188
#
# Static dielectric constant tensor:
#      x y z
#    x 3.772400 0.000000 0.000000 
#    y 0.000000 3.867720 0.000000 
#    z 0.000000 0.000000 3.222200 
# 
# 
# High freq. dielectric constant tensor:
#      x y z
#    x 1.750400 0.000000 0.000000 
#    y 0.000000 1.776430 0.000000 
#    z 0.000000 0.000000 1.744790 
# 
# From -- ./inp_files/2025.got.cif
#   From: 2010.03.12/outbox.cif.g09.slc.cpg/sg47_2_cif.got.tgz:2025.got - 2010.04.14 03:12:58.
