data_PCOD8201868
_publ_section_title
;
Structure prediction by ZEFSAII (Michael W. Deem and Ramdas Pophale) SiO2 
 PCOD8201868
Probable space group: P N N N
;
_chemical_formula_sum "Si O2"
_cell_formula_units_Z 32
_cell_length_a 36.105116
_cell_length_b 7.568791
_cell_length_c 5.065922
_cell_angle_alpha 90.000000
_cell_angle_beta 90.000000
_cell_angle_gamma 90.000000
_cell_volume 1384.375027
_symmetry_space_group_name_H-M "P N N N"
_symmetry_group_IT_number 48
_space_group.IT_coordinate_system_code '2'
_symmetry_cell_setting 'orthorhombic'
loop_
_space_group_symop_operation_xyz
x,y,z
1/2-x,1/2-y,z
x,1/2-y,1/2-z
1/2-x,y,1/2-z
-x,-y,-z
1/2+x,1/2+y,-z
-x,1/2+y,1/2+z
1/2+x,-y,1/2+z
loop_
_atom_site_type_symbol
_atom_site_label
_atom_site_fract_x
_atom_site_fract_y
_atom_site_fract_z
Si Si1 0.733109 0.448871 0.498880
Si Si2 0.577073 0.939053 0.876167
Si Si3 0.658805 0.626760 0.505761
Si Si4 0.461231 0.936914 0.613986
O O1 0.750000 0.250000 0.498287
O O2 0.750000 0.551821 0.250000
O O3 0.688593 0.466610 0.486800
O O4 0.750000 0.549078 0.750000
O O5 0.569702 0.750000 0.750000
O O6 0.566100 0.075264 0.640560
O O7 0.619744 0.970681 0.951976
O O8 0.553364 0.941265 0.146030
O O9 0.657515 0.750000 0.250000
O O10 0.669235 0.750000 0.750000
O O11 0.465747 0.750000 0.750000
O O12 0.500000 0.000000 0.500000
#
# Coordination Sequence:
#
# PCOD8201868 Si02
#       4
#     8   8   8   8
#     4  10  22  41  61  94 133 177 225 277 357 401
#     4  11  24  46  71 102 141 188 233 292 355 415
#     4  11  23  41  69  99 134 179 235 287 346 415
#     4  12  26  46  70 106 142 186 236 289 349 423
#
# _framework density 23.115126
#
# number of rings (size 3 to 8) (size 9 to 14) (size 15 to 20)
#    0.000    1.000    0.000    7.500    0.000    5.000 
#   13.500    0.000    0.000    0.000    0.000    0.000 
#    0.000    0.000    0.000    0.000    0.000    0.000 
#
# Total GULP energy -396499.221884 kJ/mol
# GULP energy per Si atom -12390.600684 kJ/mol
# Density = 2.306252 g / cm^3
# Si number density = 23.115126 Si / 1000 Ang^3
#
#
#
# Elastic Constant Matrix: (Units=GPa)
#
#
# Indices 1 2 3 4 5 6 
#
# 1 233.3179 79.7875 109.3620 0.0000 0.0000 0.0000
# 2 79.7875 82.1508 42.2912 0.0000 0.0000 0.0000
# 3 109.3620 42.2912 240.1976 0.0000 0.0000 0.0000
# 4 0.0000 0.0000 0.0000 32.3939 0.0000 0.0000
# 5 0.0000 0.0000 0.0000 0.0000 55.4039 0.0000
# 6 0.0000 0.0000 0.0000 0.0000 0.0000 42.7855
#
#
#
# Elastic Compliance Matrix: (Units=1/GPa)
#
#
# Indices 1 2 3 4 5 6 
#
# 1 0.007436 -0.006025 -0.002325 0.000000 0.000000 0.000000
# 2 -0.006025 0.018268 -0.000473 0.000000 0.000000 0.000000
# 3 -0.002325 -0.000473 0.005305 0.000000 0.000000 0.000000
# 4 0.000000 0.000000 0.000000 0.030870 0.000000 0.000000
# 5 0.000000 0.000000 0.000000 0.000000 0.018049 0.000000
# 6 0.000000 0.000000 0.000000 0.000000 0.000000 0.023372
#
#
# Mechanical properties :
#
#
# Convention : Reuss Voigt Hill
#
# Bulk Modulus (GPa) = 74.83407 113.17198 94.00303
# Shear Modulus (GPa) = 39.87160 47.73168 43.80164
#
# Velocity S-wave (km/s) = 4.15771 4.54911 4.35781
# Velocity P-wave (km/s) = 7.44940 8.75551 8.12873
#
# Compressibility (1/GPa) = 0.01336290
#
# Stress axis : x y z
#
# Youngs Moduli (GPa) = 134.47667 54.73921 188.50054
#
# Poissons Ratio (x) = 0.32983 0.43823
# Poissons Ratio (y) = 0.81029 0.08918
# Poissons Ratio (z) = 0.31263 0.02590
#
# Static dielectric constant tensor:
#      x y z
#    x 4.331980 0.000000 0.000000 
#    y 0.000000 3.862580 0.000000 
#    z 0.000000 0.000000 -6.217120 
# 
# 
# High freq. dielectric constant tensor:
#      x y z
#    x 1.919140 0.000000 0.000000 
#    y 0.000000 1.888510 0.000000 
#    z 0.000000 0.000000 1.959970 
# 
# From -- ./inp_files/6825.got.cif
#   From: 2010.06.25/outbox.cif.g09.slc.cpg/sg48_4_cif.got.tgz:6825.got - 2010.06.26 18:06:46.
