data_PCOD8201955
_publ_section_title
;
Structure prediction by ZEFSAII (Michael W. Deem and Ramdas Pophale) SiO2 
 PCOD8201955
Probable space group: P N N N
;
_chemical_formula_sum "Si O2"
_cell_formula_units_Z 48
_cell_length_a 8.973794
_cell_length_b 8.663396
_cell_length_c 27.309520
_cell_angle_alpha 90.000000
_cell_angle_beta 90.000000
_cell_angle_gamma 90.000000
_cell_volume 2123.138516
_symmetry_space_group_name_H-M "P N N N"
_symmetry_group_IT_number 48
_space_group.IT_coordinate_system_code '2'
_symmetry_cell_setting 'orthorhombic'
loop_
_space_group_symop_operation_xyz
x,y,z
1/2-x,1/2-y,z
x,1/2-y,1/2-z
1/2-x,y,1/2-z
-x,-y,-z
1/2+x,1/2+y,-z
-x,1/2+y,1/2+z
1/2+x,-y,1/2+z
loop_
_atom_site_type_symbol
_atom_site_label
_atom_site_fract_x
_atom_site_fract_y
_atom_site_fract_z
Si Si1 0.517729 0.642496 0.444380
Si Si2 0.917839 0.408042 0.330510
Si Si3 0.912549 0.454653 0.151837
Si Si4 0.513793 0.993742 0.429929
Si Si5 0.248081 0.525068 0.002352
Si Si6 0.076964 0.571246 0.242849
O O1 0.535804 0.510710 0.402238
O O2 0.550217 0.812503 0.425693
O O3 0.351961 0.651542 0.468915
O O4 0.634183 0.609882 0.487693
O O5 0.916422 0.225423 0.335712
O O6 0.759987 0.496317 0.338225
O O7 0.023554 0.457888 0.375030
O O8 0.983882 0.461915 0.279085
O O9 0.027024 0.538017 0.187859
O O10 0.659435 0.081338 0.453697
O O11 0.371481 0.043323 0.461271
O O12 0.041830 0.750000 0.250000
O O13 0.250000 0.532842 0.250000
#
# Coordination Sequence:
#
# PCOD8201955 Si02
#       6
#     8   8   8   8   8   8
#     4  11  23  42  67  96 132 177 224 271 324 387
#     4  11  25  44  68 100 135 171 215 270 328 389
#     4  11  25  44  68 100 135 171 215 270 328 389
#     4  11  23  42  67  96 132 177 224 271 324 387
#     4  10  24  40  62  98 132 174 222 278 320 378
#     4  11  26  47  72 100 130 169 216 267 324 392
#
# _framework density 22.608039999999999
#
# number of rings (size 3 to 8) (size 9 to 14) (size 15 to 20)
#    0.000    1.167    1.667    3.000    2.333   13.333 
#    0.000    0.000    0.000    0.000    0.000    0.000 
#    0.000    0.000    0.000    0.000    0.000    0.000 
#
# Total GULP energy -594915.722083 kJ/mol
# GULP energy per Si atom -12394.077543 kJ/mol
# Density = 2.255658 g / cm^3
# Si number density = 22.608040 Si / 1000 Ang^3
#
#
#
# Elastic Constant Matrix: (Units=GPa)
#
#
# Indices 1 2 3 4 5 6 
#
# 1 119.6737 28.8727 34.3366 0.0000 0.0000 0.0000
# 2 28.8727 74.6141 29.7636 0.0000 0.0000 0.0000
# 3 34.3366 29.7636 103.9855 0.0000 0.0000 0.0000
# 4 0.0000 0.0000 0.0000 34.6954 0.0000 0.0000
# 5 0.0000 0.0000 0.0000 0.0000 32.0283 0.0000
# 6 0.0000 0.0000 0.0000 0.0000 0.0000 27.0158
#
#
#
# Elastic Compliance Matrix: (Units=1/GPa)
#
#
# Indices 1 2 3 4 5 6 
#
# 1 0.009723 -0.002802 -0.002409 0.000000 0.000000 0.000000
# 2 -0.002802 0.015937 -0.003637 0.000000 0.000000 0.000000
# 3 -0.002409 -0.003637 0.011453 0.000000 0.000000 0.000000
# 4 0.000000 0.000000 0.000000 0.028822 0.000000 0.000000
# 5 0.000000 0.000000 0.000000 0.000000 0.031222 0.000000
# 6 0.000000 0.000000 0.000000 0.000000 0.000000 0.037015
#
#
# Mechanical properties :
#
#
# Convention : Reuss Voigt Hill
#
# Bulk Modulus (GPa) = 51.49497 53.80214 52.64855
# Shear Modulus (GPa) = 31.57764 32.43460 32.00612
#
# Velocity S-wave (km/s) = 3.74136 3.79178 3.76666
# Velocity P-wave (km/s) = 6.44130 6.55894 6.50039
#
# Compressibility (1/GPa) = 0.01941937
#
# Stress axis : x y z
#
# Youngs Moduli (GPa) = 102.84803 62.74698 87.31362
#
# Poissons Ratio (x) = 0.17579 0.21031
# Poissons Ratio (y) = 0.28814 0.31752
# Poissons Ratio (z) = 0.24773 0.22818
#
# Static dielectric constant tensor:
#      x y z
#    x 4.381020 0.000000 0.000000 
#    y 0.000000 3.889370 0.000000 
#    z 0.000000 0.000000 4.149450 
# 
# 
# High freq. dielectric constant tensor:
#      x y z
#    x 1.904960 0.000000 0.000000 
#    y 0.000000 1.884750 0.000000 
#    z 0.000000 0.000000 1.897830 
# 
# From -- ./inp_files/38698.got.cif
#   From: 2010.06.25/outbox.cif.g09.slc.cpg/sg48_20_cif.got.tgz:38698.got - 2010.06.26 18:06:46.
