data_PCOD8201178
_publ_section_title
;
Structure prediction by ZEFSAII (Michael W. Deem and Ramdas Pophale) SiO2 
 PCOD8201178
Probable space group: P M M M
;
_chemical_formula_sum "Si O2"
_cell_formula_units_Z 48
_cell_length_a 21.573810
_cell_length_b 12.947379
_cell_length_c 10.024380
_cell_angle_alpha 90.000000
_cell_angle_beta 90.000000
_cell_angle_gamma 90.000000
_cell_volume 2800.052872
_symmetry_space_group_name_H-M "P M M M"
_symmetry_group_IT_number 47
_symmetry_cell_setting 'orthorhombic'
loop_
_space_group_symop_operation_xyz
x,y,z
-x,-y,z
x,-y,-z
-x,y,-z
-x,-y,-z
x,y,-z
-x,y,z
x,-y,z
loop_
_atom_site_type_symbol
_atom_site_label
_atom_site_fract_x
_atom_site_fract_y
_atom_site_fract_z
Si Si1 0.671602 0.383829 0.851332
Si Si2 0.893790 0.775831 0.657925
Si Si3 0.653926 0.883957 0.351856
Si Si4 0.926905 0.000000 0.649277
Si Si5 0.570993 0.781747 0.153457
Si Si6 0.000000 0.379935 0.658693
Si Si7 0.244373 0.281258 0.654508
O O1 0.648325 0.500000 0.846040
O O2 0.610737 0.319494 0.812267
O O3 0.728030 0.371062 0.747491
O O4 0.694986 0.353607 0.000000
O O5 0.902521 0.784757 0.500000
O O6 0.905579 0.891552 0.719427
O O7 0.825398 0.740851 0.699398
O O8 0.940544 0.686290 0.710559
O O9 0.629787 0.854310 0.500000
O O10 0.597515 0.871400 0.248116
O O11 0.714638 0.819200 0.314520
O O12 0.677654 0.000000 0.346413
O O13 0.899045 0.000000 0.500000
O O14 0.000000 0.000000 0.646601
O O15 0.500000 0.758705 0.189449
O O16 0.578003 0.816526 0.000000
O O17 0.000000 0.500000 0.713467
O O18 0.000000 0.386164 0.500000
O O19 0.247534 0.315346 0.500000
#
# Coordination Sequence:
#
# PCOD8201178 Si02
#       7
#     8   8   8   4   8   4   8
#     4   9  18  33  51  69  91 120 152 187 229 275
#     4   9  16  25  39  62  89 122 157 192 234 275
#     4   9  18  31  45  64  92 124 154 185 225 273
#     4   9  14  22  38  60  91 123 154 191 234 282
#     4   9  18  32  49  69  91 115 148 190 231 271
#     4   9  16  25  35  53  88 125 153 186 234 285
#     4   9  18  30  46  69  95 121 153 191 230 272
#
# _framework density 17.142531999999999
#
# number of rings (size 3 to 8) (size 9 to 14) (size 15 to 20)
#    0.000    3.000    0.833    0.000    1.167    2.333 
#    0.000    5.000    0.000    0.000    0.000    5.250 
#    0.000    2.667    0.000    0.000    0.000    0.000 
#
# Total GULP energy -594834.659675 kJ/mol
# GULP energy per Si atom -12392.388743 kJ/mol
# Density = 1.710352 g / cm^3
# Si number density = 17.142532 Si / 1000 Ang^3
#
#
#
# Elastic Constant Matrix: (Units=GPa)
#
#
# Indices 1 2 3 4 5 6 
#
# 1 127.6291 41.3879 39.4355 0.0000 0.0000 0.0000
# 2 41.3879 94.7184 21.4841 0.0000 0.0000 0.0000
# 3 39.4355 21.4841 42.0736 0.0000 0.0000 0.0000
# 4 0.0000 0.0000 0.0000 16.9363 0.0000 0.0000
# 5 0.0000 0.0000 0.0000 0.0000 12.7433 0.0000
# 6 0.0000 0.0000 0.0000 0.0000 0.0000 14.7746
#
#
#
# Elastic Compliance Matrix: (Units=1/GPa)
#
#
# Indices 1 2 3 4 5 6 
#
# 1 0.011727 -0.002976 -0.009472 0.000000 0.000000 0.000000
# 2 -0.002976 0.012696 -0.003694 0.000000 0.000000 0.000000
# 3 -0.009472 -0.003694 0.034532 0.000000 0.000000 0.000000
# 4 0.000000 0.000000 0.000000 0.059045 0.000000 0.000000
# 5 0.000000 0.000000 0.000000 0.000000 0.078473 0.000000
# 6 0.000000 0.000000 0.000000 0.000000 0.000000 0.067684
#
#
# Mechanical properties :
#
#
# Convention : Reuss Voigt Hill
#
# Bulk Modulus (GPa) = 37.49284 52.11513 44.80399
# Shear Modulus (GPa) = 16.37573 19.69841 18.03707
#
# Velocity S-wave (km/s) = 3.09410 3.39351 3.24726
# Velocity P-wave (km/s) = 5.88925 6.76917 6.34448
#
# Compressibility (1/GPa) = 0.02667176
#
# Stress axis : x y z
#
# Youngs Moduli (GPa) = 85.27386 78.76702 28.95840
#
# Poissons Ratio (x) = 0.23439 0.27430
# Poissons Ratio (y) = 0.25375 0.10696
# Poissons Ratio (z) = 0.80773 0.29094
#
# Static dielectric constant tensor:
#      x y z
#    x 3.195670 0.000000 0.000000 
#    y 0.000000 3.339880 0.000000 
#    z 0.000000 0.000000 3.003080 
# 
# 
# High freq. dielectric constant tensor:
#      x y z
#    x 1.660270 0.000000 0.000000 
#    y 0.000000 1.665630 0.000000 
#    z 0.000000 0.000000 1.618890 
# 
# From -- ./inp_files/19073.got.cif
#   From: 2010.03.12/outbox.cif.g09.slc.cpg/sg47_10_cif.got.tgz:19073.got - 2010.04.14 03:12:58.
