data_PCOD8201838
_publ_section_title
;
Structure prediction by ZEFSAII (Michael W. Deem and Ramdas Pophale) SiO2 
 PCOD8201838
Probable space group: P N N N
;
_chemical_formula_sum "Si O2"
_cell_formula_units_Z 54
_cell_length_a 15.101296
_cell_length_b 14.068790
_cell_length_c 11.865223
_cell_angle_alpha 90.000000
_cell_angle_beta 90.000000
_cell_angle_gamma 90.000000
_cell_volume 2520.849234
_symmetry_space_group_name_H-M "P N N N"
_symmetry_group_IT_number 48
_space_group.IT_coordinate_system_code '2'
_symmetry_cell_setting 'orthorhombic'
loop_
_space_group_symop_operation_xyz
x,y,z
1/2-x,1/2-y,z
x,1/2-y,1/2-z
1/2-x,y,1/2-z
-x,-y,-z
1/2+x,1/2+y,-z
-x,1/2+y,1/2+z
1/2+x,-y,1/2+z
loop_
_atom_site_type_symbol
_atom_site_label
_atom_site_fract_x
_atom_site_fract_y
_atom_site_fract_z
Si Si1 0.666021 0.084556 0.691312
Si Si2 0.218655 0.897787 0.939005
Si Si3 0.994734 0.196117 0.854641
Si Si4 0.326317 0.125549 0.327021
Si Si5 0.107732 0.781977 0.563886
Si Si6 0.665279 0.602267 0.083360
Si Si7 0.750000 0.750000 0.250000
Si Si8 0.020772 0.250000 0.250000
O O1 0.750000 0.135062 0.750000
O O2 0.678588 0.083285 0.559388
O O3 0.578339 0.141395 0.720006
O O4 0.656385 0.976267 0.731522
O O5 0.161416 0.810543 0.889634
O O6 0.322829 0.869888 0.947193
O O7 0.198395 0.997470 0.873564
O O8 0.044273 0.250000 0.750000
O O9 0.058439 0.118488 0.915696
O O10 0.945663 0.263272 0.947357
O O11 0.250000 0.174855 0.250000
O O12 0.296316 0.120867 0.457761
O O13 0.418758 0.179782 0.322065
O O14 0.038167 0.808989 0.660920
O O15 0.695423 0.682659 0.168261
#
# Coordination Sequence:
#
# PCOD8201838 Si02
#       8
#     8   8   8   8   8   8   2   4
#     4   9  19  37  64  93 124 163 215 262 328 383
#     4   9  21  40  63  92 132 171 208 264 325 396
#     4  11  21  38  66  94 133 168 216 271 320 390
#     4  10  23  41  65  90 119 164 215 273 324 378
#     4  10  22  38  63 100 129 163 214 263 332 384
#     4  11  24  43  66  90 129 173 221 262 326 396
#     4  12  28  44  62  90 122 180 220 254 320 402
#     4  12  23  35  60  92 124 162 208 267 313 376
#
# _framework density 21.421353
#
# number of rings (size 3 to 8) (size 9 to 14) (size 15 to 20)
#    0.000    1.778    2.222    1.111    4.148    5.630 
#    0.000    0.000    0.000    4.444    0.000    0.000 
#    0.000    0.000    0.000    0.000    0.000    0.000 
#
# Total GULP energy -669064.466263 kJ/mol
# GULP energy per Si atom -12390.082709 kJ/mol
# Density = 2.137260 g / cm^3
# Si number density = 21.421353 Si / 1000 Ang^3
#
#
#
# Elastic Constant Matrix: (Units=GPa)
#
#
# Indices 1 2 3 4 5 6 
#
# 1 104.8270 45.1853 28.1738 0.0000 0.0000 0.0000
# 2 45.1853 110.4614 26.8399 0.0000 0.0000 0.0000
# 3 28.1738 26.8399 81.2742 0.0000 0.0000 0.0000
# 4 0.0000 0.0000 0.0000 185.1637 0.0000 0.0000
# 5 0.0000 0.0000 0.0000 0.0000 35.8303 0.0000
# 6 0.0000 0.0000 0.0000 0.0000 0.0000 -18.7931
#
#
#
# Elastic Compliance Matrix: (Units=1/GPa)
#
#
# Indices 1 2 3 4 5 6 
#
# 1 0.012138 -0.004287 -0.002792 0.000000 0.000000 0.000000
# 2 -0.004287 0.011357 -0.002264 0.000000 0.000000 0.000000
# 3 -0.002792 -0.002264 0.014020 0.000000 0.000000 0.000000
# 4 0.000000 0.000000 0.000000 0.005401 0.000000 0.000000
# 5 0.000000 0.000000 0.000000 0.000000 0.027909 0.000000
# 6 0.000000 0.000000 0.000000 0.000000 0.000000 -0.053211
#
#
# Mechanical properties :
#
#
# Convention : Reuss Voigt Hill
#
# Bulk Modulus (GPa) = 53.11251 55.21784 54.16517
# Shear Modulus (GPa) = 117.44051 53.53109 85.48580
#
# Velocity S-wave (km/s) = 7.41236 5.00438 6.32404
# Velocity P-wave (km/s) = 9.90482 7.69576 8.86933
#
# Compressibility (1/GPa) = 0.01882796
#
# Stress axis : x y z
#
# Youngs Moduli (GPa) = 82.38838 88.05418 71.32845
#
# Poissons Ratio (x) = 0.37746 0.19914
# Poissons Ratio (y) = 0.35317 0.16152
# Poissons Ratio (z) = 0.23002 0.19939
#
# Static dielectric constant tensor:
#      x y z
#    x 4.007400 0.000000 0.000000 
#    y 0.000000 4.221710 0.000000 
#    z 0.000000 0.000000 3.649750 
# 
# 
# High freq. dielectric constant tensor:
#      x y z
#    x 1.843750 0.000000 0.000000 
#    y 0.000000 1.831650 0.000000 
#    z 0.000000 0.000000 1.835700 
# 
# From -- ./inp_files/21363.got.cif
#   From: 2010.06.25/outbox.cif.g09.slc.cpg/sg48_11_cif.got.tgz:21363.got - 2010.06.26 18:06:46.
