data_PCOD8201104
_publ_section_title
;
Structure prediction by ZEFSAII (Michael W. Deem and Ramdas Pophale) SiO2 
 PCOD8201104
Probable space group: P M M M
;
_chemical_formula_sum "Si O2"
_cell_formula_units_Z 36
_cell_length_a 23.384518
_cell_length_b 9.093029
_cell_length_c 9.848499
_cell_angle_alpha 90.000000
_cell_angle_beta 90.000000
_cell_angle_gamma 90.000000
_cell_volume 2094.146421
_symmetry_space_group_name_H-M "P M M M"
_symmetry_group_IT_number 47
_symmetry_cell_setting 'orthorhombic'
loop_
_space_group_symop_operation_xyz
x,y,z
-x,-y,z
x,-y,-z
-x,y,-z
-x,-y,-z
x,y,-z
-x,y,z
x,-y,z
loop_
_atom_site_type_symbol
_atom_site_label
_atom_site_fract_x
_atom_site_fract_y
_atom_site_fract_z
Si Si1 0.277131 0.165861 0.161551
Si Si2 0.063396 0.325280 0.347854
Si Si3 0.388242 0.666272 0.161979
Si Si4 0.163442 0.672923 0.156637
Si Si5 0.500000 0.166243 0.161850
O O1 0.332134 0.251902 0.219324
O O2 0.219985 0.246938 0.211842
O O3 0.277835 0.000000 0.218287
O O4 0.279228 0.166293 0.000000
O O5 0.078896 0.271826 0.500000
O O6 0.063377 0.500000 0.342514
O O7 0.109966 0.264017 0.242140
O O8 0.000000 0.267451 0.307450
O O9 0.388889 0.500000 0.217569
O O10 0.444035 0.750464 0.217393
O O11 0.387903 0.666551 0.000000
O O12 0.172544 0.500000 0.177983
O O13 0.151398 0.710820 0.000000
O O14 0.500000 0.000000 0.217780
O O15 0.500000 0.165947 0.000000
#
# Coordination Sequence:
#
# PCOD8201104 Si02
#       5
#     8   8   8   8   4
#     4   9  16  25  36  50  71 100 131 163 203 249
#     4   8  14  25  41  61  84 108 133 163 202 246
#     4   9  15  22  32  46  66  94 130 170 207 242
#     4   9  16  25  39  60  82 103 132 170 206 240
#     4   9  15  21  29  43  65  95 132 169 204 245
#
# _framework density 17.190774000000001
#
# number of rings (size 3 to 8) (size 9 to 14) (size 15 to 20)
#    0.000    3.222    0.000    2.333    0.000    7.111 
#    0.000    2.222    0.000    1.333    0.000    4.667 
#    0.000    0.000    0.000    1.000    0.000   21.778 
#
# Total GULP energy -446255.166369 kJ/mol
# GULP energy per Si atom -12395.976844 kJ/mol
# Density = 1.715165 g / cm^3
# Si number density = 17.190774 Si / 1000 Ang^3
#
#
#
# Elastic Constant Matrix: (Units=GPa)
#
#
# Indices 1 2 3 4 5 6 
#
# 1 197.3844 75.7135 50.1313 0.0000 0.0000 0.0000
# 2 75.7135 103.6664 22.3470 0.0000 0.0000 0.0000
# 3 50.1313 22.3470 32.2127 0.0000 0.0000 0.0000
# 4 0.0000 0.0000 0.0000 4.3930 0.0000 0.0000
# 5 0.0000 0.0000 0.0000 0.0000 2.4832 0.0000
# 6 0.0000 0.0000 0.0000 0.0000 0.0000 12.3899
#
#
#
# Elastic Compliance Matrix: (Units=1/GPa)
#
#
# Indices 1 2 3 4 5 6 
#
# 1 0.009964 -0.004627 -0.012297 0.000000 0.000000 0.000000
# 2 -0.004627 0.013491 -0.002159 0.000000 0.000000 0.000000
# 3 -0.012297 -0.002159 0.051679 0.000000 0.000000 0.000000
# 4 0.000000 0.000000 0.000000 0.227633 0.000000 0.000000
# 5 0.000000 0.000000 0.000000 0.000000 0.402702 0.000000
# 6 0.000000 0.000000 0.000000 0.000000 0.000000 0.080711
#
#
# Mechanical properties :
#
#
# Convention : Reuss Voigt Hill
#
# Bulk Modulus (GPa) = 27.04996 69.96079 48.50538
# Shear Modulus (GPa) = 5.97608 16.19133 11.08371
#
# Velocity S-wave (km/s) = 1.86652 3.07231 2.54194
# Velocity P-wave (km/s) = 4.51824 7.30551 6.07392
#
# Compressibility (1/GPa) = 0.03696863
#
# Stress axis : x y z
#
# Youngs Moduli (GPa) = 100.35987 74.12500 19.35020
#
# Poissons Ratio (x) = 0.34294 0.23795
# Poissons Ratio (y) = 0.46432 0.04178
# Poissons Ratio (z) = 1.23415 0.16003
#
# Static dielectric constant tensor:
#      x y z
#    x 3.558310 0.000000 0.000000 
#    y 0.000000 3.137700 0.000000 
#    z 0.000000 0.000000 2.657490 
# 
# 
# High freq. dielectric constant tensor:
#      x y z
#    x 1.683260 0.000000 0.000000 
#    y 0.000000 1.650410 0.000000 
#    z 0.000000 0.000000 1.587800 
# 
# From -- ./inp_files/3753.got.cif
#   From: 2010.03.12/outbox.cif.g09.slc.cpg/sg47_2_cif.got.tgz:3753.got - 2010.04.14 03:12:58.
