data_PCOD8201501
_publ_section_title
;
Structure prediction by ZEFSAII (Michael W. Deem and Ramdas Pophale) SiO2 
 PCOD8201501
Probable space group: P N N N
;
_chemical_formula_sum "Si O2"
_cell_formula_units_Z 44
_cell_length_a 9.053871
_cell_length_b 15.937400
_cell_length_c 14.627946
_cell_angle_alpha 90.000000
_cell_angle_beta 90.000000
_cell_angle_gamma 90.000000
_cell_volume 2110.741862
_symmetry_space_group_name_H-M "P N N N"
_symmetry_group_IT_number 48
_space_group.IT_coordinate_system_code '2'
_symmetry_cell_setting 'orthorhombic'
loop_
_space_group_symop_operation_xyz
x,y,z
1/2-x,1/2-y,z
x,1/2-y,1/2-z
1/2-x,y,1/2-z
-x,-y,-z
1/2+x,1/2+y,-z
-x,1/2+y,1/2+z
1/2+x,-y,1/2+z
loop_
_atom_site_type_symbol
_atom_site_label
_atom_site_fract_x
_atom_site_fract_y
_atom_site_fract_z
Si Si1 0.250000 0.250000 0.250000
Si Si2 0.500804 0.630724 0.984331
Si Si3 0.001514 0.403288 0.945571
Si Si4 0.418181 0.241475 0.642430
Si Si5 0.257239 0.499860 0.002427
Si Si6 0.999787 0.697013 0.874101
Si Si7 0.750000 0.250000 0.250000
O O1 0.353459 0.189984 0.188080
O O2 0.515594 0.658459 0.092507
O O3 0.351200 0.578894 0.965524
O O4 0.635428 0.570078 0.954684
O O5 0.502692 0.712032 0.922276
O O6 0.154313 0.454081 0.925216
O O7 0.000896 0.377876 0.053336
O O8 0.985173 0.320781 0.886651
O O9 0.860388 0.462275 0.924433
O O10 0.250000 0.250000 0.607646
O O11 0.429010 0.250000 0.750000
O O12 0.146708 0.690269 0.812305
#
# Coordination Sequence:
#
# PCOD8201501 Si02
#       7
#     2   8   8   8   8   8   2
#     4  10  20  30  56  78 106 142 180 252 268 330
#     4  10  20  37  62  85 110 161 185 243 282 357
#     4  10  20  37  62  85 110 161 185 243 282 357
#     4  10  20  37  65  88 115 151 204 242 287 347
#     4  10  20  34  60  82 118 144 196 224 296 348
#     4  10  20  35  59  81 112 145 205 223 289 330
#     4  10  20  34  56  86 110 134 188 256 256 322
#
# _framework density 20.845752000000001
#
# number of rings (size 3 to 8) (size 9 to 14) (size 15 to 20)
#    0.000    2.000    1.818    2.182    2.545    2.182 
#    0.000    1.818   80.000    0.000    0.000    0.000 
#    0.000    0.000    0.000    0.000    0.000    0.000 
#
# Total GULP energy -545096.865483 kJ/mol
# GULP energy per Si atom -12388.565125 kJ/mol
# Density = 2.079831 g / cm^3
# Si number density = 20.845752 Si / 1000 Ang^3
#
#
#
# Elastic Constant Matrix: (Units=GPa)
#
#
# Indices 1 2 3 4 5 6 
#
# 1 139.9570 42.8438 28.2813 0.0000 0.0000 0.0000
# 2 42.8438 112.9074 22.5225 0.0000 0.0000 0.0000
# 3 28.2813 22.5225 82.5837 0.0000 0.0000 0.0000
# 4 0.0000 0.0000 0.0000 10.2945 0.0000 0.0000
# 5 0.0000 0.0000 0.0000 0.0000 19.2732 0.0000
# 6 0.0000 0.0000 0.0000 0.0000 0.0000 29.5832
#
#
#
# Elastic Compliance Matrix: (Units=1/GPa)
#
#
# Indices 1 2 3 4 5 6 
#
# 1 0.008424 -0.002772 -0.002129 0.000000 0.000000 0.000000
# 2 -0.002772 0.010278 -0.001854 0.000000 0.000000 0.000000
# 3 -0.002129 -0.001854 0.013344 0.000000 0.000000 0.000000
# 4 0.000000 0.000000 0.000000 0.097139 0.000000 0.000000
# 5 0.000000 0.000000 0.000000 0.000000 0.051886 0.000000
# 6 0.000000 0.000000 0.000000 0.000000 0.000000 0.033803
#
#
# Mechanical properties :
#
#
# Convention : Reuss Voigt Hill
#
# Bulk Modulus (GPa) = 53.94740 58.08259 56.01500
# Shear Modulus (GPa) = 21.31635 27.95019 24.63327
#
# Velocity S-wave (km/s) = 3.20124 3.66568 3.44130
# Velocity P-wave (km/s) = 6.29281 6.77051 6.53602
#
# Compressibility (1/GPa) = 0.01853657
#
# Stress axis : x y z
#
# Youngs Moduli (GPa) = 118.71214 97.29119 74.94243
#
# Poissons Ratio (x) = 0.26967 0.15954
# Poissons Ratio (y) = 0.32905 0.13894
# Poissons Ratio (z) = 0.25272 0.18037
#
# Static dielectric constant tensor:
#      x y z
#    x 4.109530 0.000000 0.000000 
#    y 0.000000 3.912610 0.000000 
#    z 0.000000 0.000000 3.505480 
# 
# 
# High freq. dielectric constant tensor:
#      x y z
#    x 1.835970 0.000000 0.000000 
#    y 0.000000 1.823100 0.000000 
#    z 0.000000 0.000000 1.769280 
# 
# From -- ./inp_files/25335.got.cif
#   From: 2010.06.25/outbox.cif.g09.slc.cpg/sg48_13_cif.got.tgz:25335.got - 2010.06.26 18:06:46.
