data_PCOD8201648
_publ_section_title
;
Structure prediction by ZEFSAII (Michael W. Deem and Ramdas Pophale) SiO2 
 PCOD8201648
Probable space group: P N N N
;
_chemical_formula_sum "Si O2"
_cell_formula_units_Z 64
_cell_length_a 35.010361
_cell_length_b 11.390788
_cell_length_c 7.857823
_cell_angle_alpha 90.000000
_cell_angle_beta 90.000000
_cell_angle_gamma 90.000000
_cell_volume 3133.665238
_symmetry_space_group_name_H-M "P N N N"
_symmetry_group_IT_number 48
_space_group.IT_coordinate_system_code '2'
_symmetry_cell_setting 'orthorhombic'
loop_
_space_group_symop_operation_xyz
x,y,z
1/2-x,1/2-y,z
x,1/2-y,1/2-z
1/2-x,y,1/2-z
-x,-y,-z
1/2+x,1/2+y,-z
-x,1/2+y,1/2+z
1/2+x,-y,1/2+z
loop_
_atom_site_type_symbol
_atom_site_label
_atom_site_fract_x
_atom_site_fract_y
_atom_site_fract_z
Si Si1 0.842159 0.989645 0.971369
Si Si2 0.794754 0.385301 0.233422
Si Si3 0.836875 0.484939 0.922951
Si Si4 0.571239 0.475325 0.954794
Si Si5 0.362039 0.234633 0.953181
Si Si6 0.474691 0.751446 0.943087
Si Si7 0.911677 0.366024 0.867754
Si Si8 0.055652 0.226303 0.940378
O O1 0.828900 0.028964 0.780460
O O2 0.884957 0.034233 0.022411
O O3 0.841022 0.848340 0.969285
O O4 0.814577 0.041409 0.115219
O O5 0.807026 0.250000 0.250000
O O6 0.750000 0.402697 0.250000
O O7 0.804341 0.430359 0.042816
O O8 0.873999 0.406035 0.966969
O O9 0.840840 0.619637 0.980131
O O10 0.574589 0.473928 0.750125
O O11 0.543482 0.371541 0.007886
O O12 0.549837 0.589963 0.018515
O O13 0.360184 0.250000 0.750000
O O14 0.405551 0.227460 0.031116
O O15 0.484585 0.750000 0.750000
O O16 0.444302 0.850820 0.991403
O O17 0.515138 0.787143 0.026054
O O18 0.905255 0.250000 0.750000
O O19 0.066585 0.250000 0.750000
#
# Coordination Sequence:
#
# PCOD8201648 Si02
#       8
#     8   8   8   8   8   8   8   8
#     4  10  22  41  69  97 128 169 219 263 315 390
#     4  11  27  45  68 102 139 168 205 265 323 383
#     4  11  23  40  70  94 130 171 215 266 317 387
#     4   9  20  38  58  80 113 161 208 261 314 369
#     4  10  20  40  66  97 124 169 219 269 321 379
#     4  11  23  33  52  83 118 160 210 264 322 378
#     4   9  21  38  58  89 117 158 219 262 313 382
#     4  10  21  37  56  78 121 163 207 265 320 371
#
# _framework density 20.423369000000001
#
# number of rings (size 3 to 8) (size 9 to 14) (size 15 to 20)
#    0.000    1.875    1.250    1.875    7.000    3.500 
#    0.000    4.375    0.000    1.500    0.000    0.000 
#    0.000    0.000    0.000    0.000    0.000    0.000 
#
# Total GULP energy -793026.868313 kJ/mol
# GULP energy per Si atom -12391.044817 kJ/mol
# Density = 2.037688 g / cm^3
# Si number density = 20.423369 Si / 1000 Ang^3
#
#
#
# Elastic Constant Matrix: (Units=GPa)
#
#
# Indices 1 2 3 4 5 6 
#
# 1 87.4028 35.9262 32.2428 0.0000 0.0000 0.0000
# 2 35.9262 75.0920 22.1699 0.0000 0.0000 0.0000
# 3 32.2428 22.1699 89.4309 0.0000 0.0000 0.0000
# 4 0.0000 0.0000 0.0000 34.2495 0.0000 0.0000
# 5 0.0000 0.0000 0.0000 0.0000 31.4079 0.0000
# 6 0.0000 0.0000 0.0000 0.0000 0.0000 12.9955
#
#
#
# Elastic Compliance Matrix: (Units=1/GPa)
#
#
# Indices 1 2 3 4 5 6 
#
# 1 0.015488 -0.006216 -0.004043 0.000000 0.000000 0.000000
# 2 -0.006216 0.016864 -0.001939 0.000000 0.000000 0.000000
# 3 -0.004043 -0.001939 0.013120 0.000000 0.000000 0.000000
# 4 0.000000 0.000000 0.000000 0.029198 0.000000 0.000000
# 5 0.000000 0.000000 0.000000 0.000000 0.031839 0.000000
# 6 0.000000 0.000000 0.000000 0.000000 0.000000 0.076950
#
#
# Mechanical properties :
#
#
# Convention : Reuss Voigt Hill
#
# Bulk Modulus (GPa) = 47.45019 48.06706 47.75863
# Shear Modulus (GPa) = 23.26884 26.50302 24.88593
#
# Velocity S-wave (km/s) = 3.37905 3.60624 3.49449
# Velocity P-wave (km/s) = 6.20546 6.39737 6.30215
#
# Compressibility (1/GPa) = 0.02107473
#
# Stress axis : x y z
#
# Youngs Moduli (GPa) = 64.56680 59.29937 76.21853
#
# Poissons Ratio (x) = 0.36862 0.30814
# Poissons Ratio (y) = 0.40136 0.14781
# Poissons Ratio (z) = 0.26104 0.11500
#
# Static dielectric constant tensor:
#      x y z
#    x 3.815360 0.000000 0.000000 
#    y 0.000000 3.704800 0.000000 
#    z 0.000000 0.000000 3.496310 
# 
# 
# High freq. dielectric constant tensor:
#      x y z
#    x 1.785210 0.000000 0.000000 
#    y 0.000000 1.798760 0.000000 
#    z 0.000000 0.000000 1.802510 
# 
# From -- ./inp_files/16958.got.cif
#   From: 2010.06.25/outbox.cif.g09.slc.cpg/sg48_9_cif.got.tgz:16958.got - 2010.06.26 18:06:46.
