data_PCOD8201480
_publ_section_title
;
Structure prediction by ZEFSAII (Michael W. Deem and Ramdas Pophale) SiO2 
 PCOD8201480
Probable space group: P N N N
;
_chemical_formula_sum "Si O2"
_cell_formula_units_Z 40
_cell_length_a 16.449587
_cell_length_b 10.465357
_cell_length_c 10.148984
_cell_angle_alpha 90.000000
_cell_angle_beta 90.000000
_cell_angle_gamma 90.000000
_cell_volume 1747.155719
_symmetry_space_group_name_H-M "P N N N"
_symmetry_group_IT_number 48
_space_group.IT_coordinate_system_code '2'
_symmetry_cell_setting 'orthorhombic'
loop_
_space_group_symop_operation_xyz
x,y,z
1/2-x,1/2-y,z
x,1/2-y,1/2-z
1/2-x,y,1/2-z
-x,-y,-z
1/2+x,1/2+y,-z
-x,1/2+y,1/2+z
1/2+x,-y,1/2+z
loop_
_atom_site_type_symbol
_atom_site_label
_atom_site_fract_x
_atom_site_fract_y
_atom_site_fract_z
Si Si1 0.017506 0.872971 0.664844
Si Si2 0.409128 0.747134 0.078280
Si Si3 0.643282 0.504214 0.650571
Si Si4 0.549165 0.928681 0.386285
Si Si5 0.816168 0.509107 0.560133
O O1 0.994601 0.750000 0.750000
O O2 0.081570 0.833211 0.554020
O O3 0.054181 0.986640 0.754705
O O4 0.935326 0.923843 0.593059
O O5 0.373343 0.852082 0.180791
O O6 0.497467 0.700846 0.133044
O O7 0.344709 0.637458 0.042829
O O8 0.718523 0.520764 0.549644
O O9 0.659410 0.561645 0.795696
O O10 0.500000 0.000000 0.500000
O O11 0.640255 0.906049 0.445551
#
# Coordination Sequence:
#
# PCOD8201480 Si02
#       5
#     8   8   8   8   8
#     4  12  21  38  63  89 120 168 217 247 315 395
#     4  11  21  37  61  88 122 163 210 259 306 379
#     4  11  22  36  60  97 121 154 214 265 315 373
#     4  10  19  38  61  83 123 166 203 250 315 380
#     4  10  20  38  61  89 125 161 194 267 332 355
#
# _framework density 22.894355000000001
#
# number of rings (size 3 to 8) (size 9 to 14) (size 15 to 20)
#    0.000    1.200    8.000    1.800    0.000    1.600 
#    0.000    8.000    0.000    0.000    0.000    0.000 
#    0.000    0.000    0.000    0.000    0.000    0.000 
#
# Total GULP energy -495773.909861 kJ/mol
# GULP energy per Si atom -12394.347747 kJ/mol
# Density = 2.284225 g / cm^3
# Si number density = 22.894355 Si / 1000 Ang^3
#
#
#
# Elastic Constant Matrix: (Units=GPa)
#
#
# Indices 1 2 3 4 5 6 
#
# 1 140.3026 7.2609 37.8599 0.0000 0.0000 0.0000
# 2 7.2609 29.3993 11.0523 0.0000 0.0000 0.0000
# 3 37.8599 11.0523 79.7800 0.0000 0.0000 0.0000
# 4 0.0000 0.0000 0.0000 36.3440 0.0000 0.0000
# 5 0.0000 0.0000 0.0000 0.0000 36.3662 0.0000
# 6 0.0000 0.0000 0.0000 0.0000 0.0000 33.7669
#
#
#
# Elastic Compliance Matrix: (Units=1/GPa)
#
#
# Indices 1 2 3 4 5 6 
#
# 1 0.008184 -0.000592 -0.003802 0.000000 0.000000 0.000000
# 2 -0.000592 0.035926 -0.004696 0.000000 0.000000 0.000000
# 3 -0.003802 -0.004696 0.014989 0.000000 0.000000 0.000000
# 4 0.000000 0.000000 0.000000 0.027515 0.000000 0.000000
# 5 0.000000 0.000000 0.000000 0.000000 0.027498 0.000000
# 6 0.000000 0.000000 0.000000 0.000000 0.000000 0.029615
#
#
# Mechanical properties :
#
#
# Convention : Reuss Voigt Hill
#
# Bulk Modulus (GPa) = 24.43818 40.20312 32.32065
# Shear Modulus (GPa) = 28.48250 34.18266 31.33258
#
# Velocity S-wave (km/s) = 3.53098 3.86821 3.70344
# Velocity P-wave (km/s) = 5.22698 6.12773 5.69519
#
# Compressibility (1/GPa) = 0.04091958
#
# Stress axis : x y z
#
# Youngs Moduli (GPa) = 122.19018 27.83496 66.71492
#
# Poissons Ratio (x) = 0.01648 0.25363
# Poissons Ratio (y) = 0.07234 0.31330
# Poissons Ratio (z) = 0.46453 0.13071
#
# Static dielectric constant tensor:
#      x y z
#    x 4.496660 0.000000 0.000000 
#    y 0.000000 4.293220 0.000000 
#    z 0.000000 0.000000 4.306220 
# 
# 
# High freq. dielectric constant tensor:
#      x y z
#    x 1.884380 0.000000 0.000000 
#    y 0.000000 1.892230 0.000000 
#    z 0.000000 0.000000 1.894820 
# 
# From -- ./inp_files/21911.got.cif
#   From: 2010.06.25/outbox.cif.g09.slc.cpg/sg48_11_cif.got.tgz:21911.got - 2010.06.26 18:06:46.
