data_PCOD8201816
_publ_section_title
;
Structure prediction by ZEFSAII (Michael W. Deem and Ramdas Pophale) SiO2 
 PCOD8201816
Probable space group: P N N N
;
_chemical_formula_sum "Si O2"
_cell_formula_units_Z 38
_cell_length_a 12.600474
_cell_length_b 25.221684
_cell_length_c 5.304594
_cell_angle_alpha 90.000000
_cell_angle_beta 90.000000
_cell_angle_gamma 90.000000
_cell_volume 1685.827416
_symmetry_space_group_name_H-M "P N N N"
_symmetry_group_IT_number 48
_space_group.IT_coordinate_system_code '2'
_symmetry_cell_setting 'orthorhombic'
loop_
_space_group_symop_operation_xyz
x,y,z
1/2-x,1/2-y,z
x,1/2-y,1/2-z
1/2-x,y,1/2-z
-x,-y,-z
1/2+x,1/2+y,-z
-x,1/2+y,1/2+z
1/2+x,-y,1/2+z
loop_
_atom_site_type_symbol
_atom_site_label
_atom_site_fract_x
_atom_site_fract_y
_atom_site_fract_z
Si Si1 0.250000 0.577354 0.250000
Si Si2 0.336885 0.667830 0.924720
Si Si3 0.868028 0.631117 0.235177
Si Si4 0.564989 0.813090 0.728679
Si Si5 0.250000 0.750000 0.250000
Si Si6 0.524701 0.032332 0.753664
O O1 0.212976 0.612125 0.488415
O O2 0.149098 0.541107 0.197343
O O3 0.250000 0.695428 0.750000
O O4 0.447899 0.660961 0.783415
O O5 0.341956 0.711790 0.140082
O O6 0.750000 0.605509 0.250000
O O7 0.876007 0.671468 0.470100
O O8 0.958858 0.586826 0.257103
O O9 0.878391 0.662535 0.972701
O O10 0.561741 0.750000 0.750000
O O11 0.500000 0.000000 0.500000
O O12 0.500000 0.000000 0.000000
#
# Coordination Sequence:
#
# PCOD8201816 Si02
#       6
#     4   8   8   8   2   8
#     4  11  26  47  76 104 148 186 241 312 375 440
#     4  11  23  40  69 102 151 188 242 295 369 434
#     4  12  28  51  73 107 151 194 251 306 364 442
#     4  12  26  45  76 109 149 198 247 300 365 441
#     4  10  22  36  60 110 142 200 226 300 356 450
#     4  12  29  49  78 110 143 193 248 310 380 437
#
# _framework density 22.540861
#
# number of rings (size 3 to 8) (size 9 to 14) (size 15 to 20)
#    0.000    0.421    2.105    5.368   11.789    2.526 
#    0.000    0.000    0.000    0.000    0.000    0.000 
#    0.000    0.000    0.000    0.000    0.000    0.000 
#
# Total GULP energy -470893.029911 kJ/mol
# GULP energy per Si atom -12391.921840 kJ/mol
# Density = 2.248956 g / cm^3
# Si number density = 22.540861 Si / 1000 Ang^3
#
#
#
# Elastic Constant Matrix: (Units=GPa)
#
#
# Indices 1 2 3 4 5 6 
#
# 1 187.1606 47.0645 43.6135 0.0000 0.0000 0.0000
# 2 47.0645 121.7221 59.4069 0.0000 0.0000 0.0000
# 3 43.6135 59.4069 162.6393 0.0000 0.0000 0.0000
# 4 0.0000 0.0000 0.0000 -157.7217 0.0000 0.0000
# 5 0.0000 0.0000 0.0000 0.0000 29.6476 0.0000
# 6 0.0000 0.0000 0.0000 0.0000 0.0000 33.9780
#
#
#
# Elastic Compliance Matrix: (Units=1/GPa)
#
#
# Indices 1 2 3 4 5 6 
#
# 1 0.006032 -0.001878 -0.000932 0.000000 0.000000 0.000000
# 2 -0.001878 0.010582 -0.003362 0.000000 0.000000 0.000000
# 3 -0.000932 -0.003362 0.007626 0.000000 0.000000 0.000000
# 4 0.000000 0.000000 0.000000 -0.006340 0.000000 0.000000
# 5 0.000000 0.000000 0.000000 0.000000 0.033730 0.000000
# 6 0.000000 0.000000 0.000000 0.000000 0.000000 0.029431
#
#
# Mechanical properties :
#
#
# Convention : Reuss Voigt Hill
#
# Bulk Modulus (GPa) = 84.04506 85.74355 84.89430
# Shear Modulus (GPa) = 51.35071 2.60992 26.98031
#
# Velocity S-wave (km/s) = 4.77814 1.07721 3.46345
# Velocity P-wave (km/s) = 8.23453 6.29833 7.33063
#
# Compressibility (1/GPa) = 0.01189838
#
# Stress axis : x y z
#
# Youngs Moduli (GPa) = 165.77419 94.49845 131.12339
#
# Poissons Ratio (x) = 0.17744 0.12218
# Poissons Ratio (y) = 0.31127 0.44081
# Poissons Ratio (z) = 0.15446 0.31769
#
# Static dielectric constant tensor:
#      x y z
#    x 4.509220 0.000000 0.000000 
#    y 0.000000 4.017030 0.000000 
#    z 0.000000 0.000000 4.461530 
# 
# 
# High freq. dielectric constant tensor:
#      x y z
#    x 1.901700 0.000000 0.000000 
#    y 0.000000 1.890470 0.000000 
#    z 0.000000 0.000000 1.906310 
# 
# From -- ./inp_files/2465.got.cif
#   From: 2010.06.25/outbox.cif.g09.slc.cpg/sg48_2_cif.got.tgz:2465.got - 2010.06.26 18:06:46.
