data_PCOD8201006
_publ_section_title
;
Structure prediction by ZEFSAII (Michael W. Deem and Ramdas Pophale) SiO2 
 PCOD8201006
Probable space group: P M M M
;
_chemical_formula_sum "Si O2"
_cell_formula_units_Z 44
_cell_length_a 28.320213
_cell_length_b 9.435349
_cell_length_c 9.886680
_cell_angle_alpha 90.000000
_cell_angle_beta 90.000000
_cell_angle_gamma 90.000000
_cell_volume 2641.830573
_symmetry_space_group_name_H-M "P M M M"
_symmetry_group_IT_number 47
_symmetry_cell_setting 'orthorhombic'
loop_
_space_group_symop_operation_xyz
x,y,z
-x,-y,z
x,-y,-z
-x,y,-z
-x,-y,-z
x,y,-z
-x,y,z
x,-y,z
loop_
_atom_site_type_symbol
_atom_site_label
_atom_site_fract_x
_atom_site_fract_y
_atom_site_fract_z
Si Si1 0.809428 0.831354 0.150730
Si Si2 0.552323 0.668314 0.848447
Si Si3 0.086659 0.157926 0.160701
Si Si4 0.365646 0.665378 0.655924
Si Si5 0.000000 0.340628 0.161575
Si Si6 0.272998 0.834527 0.344223
O O1 0.861464 0.781916 0.200664
O O2 0.770196 0.775016 0.254778
O O3 0.809592 0.000000 0.146596
O O4 0.798378 0.772183 0.000000
O O5 0.500000 0.725165 0.809192
O O6 0.551819 0.500000 0.842208
O O7 0.590862 0.727049 0.743325
O O8 0.565507 0.719007 0.000000
O O9 0.046503 0.261811 0.218626
O O10 0.078540 0.000000 0.220636
O O11 0.083484 0.149458 0.000000
O O12 0.378111 0.693598 0.500000
O O13 0.356626 0.500000 0.684222
O O14 0.319311 0.749923 0.700752
O O15 0.000000 0.500000 0.218182
O O16 0.000000 0.339870 0.000000
O O17 0.260374 0.804802 0.500000
O O18 0.282214 0.000000 0.317711
#
# Coordination Sequence:
#
# PCOD8201006 Si02
#       6
#     8   8   8   8   4   8
#     4   8  14  25  41  60  80 103 134 169 200 234
#     4   8  14  25  41  61  84 108 134 166 203 239
#     4   8  13  22  36  52  71  98 131 162 191 228
#     4   9  17  28  42  61  83 105 132 167 202 237
#     4   9  15  21  31  51  80 107 126 152 196 241
#     4   9  17  29  44  61  82 108 136 166 202 242
#
# _framework density 16.655118999999999
#
# number of rings (size 3 to 8) (size 9 to 14) (size 15 to 20)
#    0.000    3.545    0.000    1.909    0.000    2.182 
#    0.000    2.727    0.000    1.636    0.000    4.455 
#    0.000    5.091    0.000    0.000    0.000    0.000 
#
# Total GULP energy -545326.375346 kJ/mol
# GULP energy per Si atom -12393.781258 kJ/mol
# Density = 1.661721 g / cm^3
# Si number density = 16.655119 Si / 1000 Ang^3
#
#
#
# Elastic Constant Matrix: (Units=GPa)
#
#
# Indices 1 2 3 4 5 6 
#
# 1 184.2373 52.2298 78.9621 0.0000 0.0000 0.0000
# 2 52.2298 46.9006 24.8452 0.0000 0.0000 0.0000
# 3 78.9621 24.8452 62.9763 0.0000 0.0000 0.0000
# 4 0.0000 0.0000 0.0000 10.0347 0.0000 0.0000
# 5 0.0000 0.0000 0.0000 0.0000 11.8924 0.0000
# 6 0.0000 0.0000 0.0000 0.0000 0.0000 22.4752
#
#
#
# Elastic Compliance Matrix: (Units=1/GPa)
#
#
# Indices 1 2 3 4 5 6 
#
# 1 0.013651 -0.007756 -0.014056 0.000000 0.000000 0.000000
# 2 -0.007756 0.031362 -0.002648 0.000000 0.000000 0.000000
# 3 -0.014056 -0.002648 0.034548 0.000000 0.000000 0.000000
# 4 0.000000 0.000000 0.000000 0.099654 0.000000 0.000000
# 5 0.000000 0.000000 0.000000 0.000000 0.084087 0.000000
# 6 0.000000 0.000000 0.000000 0.000000 0.000000 0.044493
#
#
# Mechanical properties :
#
#
# Convention : Reuss Voigt Hill
#
# Bulk Modulus (GPa) = 32.63697 67.35427 49.99562
# Shear Modulus (GPa) = 13.62664 18.08561 15.85613
#
# Velocity S-wave (km/s) = 2.86346 3.29886 3.08884
# Velocity P-wave (km/s) = 5.52909 7.41878 6.54252
#
# Compressibility (1/GPa) = 0.03064010
#
# Stress axis : x y z
#
# Youngs Moduli (GPa) = 73.25590 31.88616 28.94542
#
# Poissons Ratio (x) = 0.24730 0.40686
# Poissons Ratio (y) = 0.56816 0.07665
# Poissons Ratio (z) = 1.02969 0.08444
#
# Static dielectric constant tensor:
#      x y z
#    x 3.535340 0.000000 0.000000 
#    y 0.000000 2.855070 0.000000 
#    z 0.000000 0.000000 2.988730 
# 
# 
# High freq. dielectric constant tensor:
#      x y z
#    x 1.655470 0.000000 0.000000 
#    y 0.000000 1.601230 0.000000 
#    z 0.000000 0.000000 1.608700 
# 
# From -- ./inp_files/19477.got.cif
#   From: 2010.03.12/outbox.cif.g09.slc.cpg/sg47_10_cif.got.tgz:19477.got - 2010.04.14 03:12:58.
