data_PCOD8201801
_publ_section_title
;
Structure prediction by ZEFSAII (Michael W. Deem and Ramdas Pophale) SiO2 
 PCOD8201801
Probable space group: P N N N
;
_chemical_formula_sum "Si O2"
_cell_formula_units_Z 56
_cell_length_a 8.091076
_cell_length_b 14.773636
_cell_length_c 21.015325
_cell_angle_alpha 90.000000
_cell_angle_beta 90.000000
_cell_angle_gamma 90.000000
_cell_volume 2512.058713
_symmetry_space_group_name_H-M "P N N N"
_symmetry_group_IT_number 48
_space_group.IT_coordinate_system_code '2'
_symmetry_cell_setting 'orthorhombic'
loop_
_space_group_symop_operation_xyz
x,y,z
1/2-x,1/2-y,z
x,1/2-y,1/2-z
1/2-x,y,1/2-z
-x,-y,-z
1/2+x,1/2+y,-z
-x,1/2+y,1/2+z
1/2+x,-y,1/2+z
loop_
_atom_site_type_symbol
_atom_site_label
_atom_site_fract_x
_atom_site_fract_y
_atom_site_fract_z
Si Si1 0.554085 0.842865 0.850198
Si Si2 0.431888 0.168408 0.783302
Si Si3 0.561830 0.259952 0.588353
Si Si4 0.558741 0.856471 0.639205
Si Si5 0.939189 0.477783 0.253840
Si Si6 0.564489 0.602843 0.001349
Si Si7 0.546046 0.601763 0.511308
O O1 0.499853 0.740232 0.834077
O O2 0.747326 0.860720 0.850742
O O3 0.476296 0.899460 0.794657
O O4 0.486700 0.873644 0.918057
O O5 0.533298 0.250000 0.750000
O O6 0.250000 0.166907 0.750000
O O7 0.439573 0.196379 0.858075
O O8 0.524491 0.072920 0.767554
O O9 0.750000 0.250000 0.613529
O O10 0.502075 0.161772 0.561162
O O11 0.562065 0.332577 0.532091
O O12 0.484405 0.943485 0.675607
O O13 0.504101 0.856872 0.565775
O O14 0.750000 0.501187 0.250000
O O15 0.500000 0.500000 0.000000
O O16 0.761154 0.613293 0.003063
O O17 0.500000 0.500000 0.500000
#
# Coordination Sequence:
#
# PCOD8201801 Si02
#       7
#     8   8   8   8   8   8   8
#     4  10  21  43  64  96 135 182 225 271 348 417
#     4  10  26  48  70  95 134 189 232 281 355 420
#     4  12  26  46  73 107 141 184 238 297 359 430
#     4  10  22  42  66  95 135 182 226 275 342 419
#     4  11  24  41  66  99 133 178 227 286 346 408
#     4  11  25  42  71 104 137 186 238 294 354 424
#     4  11  23  43  70 101 142 183 233 294 358 423
#
# _framework density 22.292473999999999
#
# number of rings (size 3 to 8) (size 9 to 14) (size 15 to 20)
#    0.000    1.286    1.429    3.000    6.000    7.143 
#    2.571    0.000    0.000    0.000    0.000    0.000 
#    0.000    0.000    0.000    0.000    0.000    0.000 
#
# Total GULP energy -693897.957603 kJ/mol
# GULP energy per Si atom -12391.034957 kJ/mol
# Density = 2.224174 g / cm^3
# Si number density = 22.292474 Si / 1000 Ang^3
#
#
#
# Elastic Constant Matrix: (Units=GPa)
#
#
# Indices 1 2 3 4 5 6 
#
# 1 42.9717 15.6386 20.8969 0.0000 0.0000 0.0000
# 2 15.6386 181.9746 52.0356 0.0000 0.0000 0.0000
# 3 20.8969 52.0356 119.4286 0.0000 0.0000 0.0000
# 4 0.0000 0.0000 0.0000 45.5846 0.0000 0.0000
# 5 0.0000 0.0000 0.0000 0.0000 27.8061 0.0000
# 6 0.0000 0.0000 0.0000 0.0000 0.0000 26.4217
#
#
#
# Elastic Compliance Matrix: (Units=1/GPa)
#
#
# Indices 1 2 3 4 5 6 
#
# 1 0.025610 -0.001050 -0.004023 0.000000 0.000000 0.000000
# 2 -0.001050 0.006320 -0.002570 0.000000 0.000000 0.000000
# 3 -0.004023 -0.002570 0.010197 0.000000 0.000000 0.000000
# 4 0.000000 0.000000 0.000000 0.021937 0.000000 0.000000
# 5 0.000000 0.000000 0.000000 0.000000 0.035963 0.000000
# 6 0.000000 0.000000 0.000000 0.000000 0.000000 0.037848
#
#
# Mechanical properties :
#
#
# Convention : Reuss Voigt Hill
#
# Bulk Modulus (GPa) = 37.25826 57.94635 47.60231
# Shear Modulus (GPa) = 30.84326 37.01607 33.92967
#
# Velocity S-wave (km/s) = 3.72368 4.07931 3.90554
# Velocity P-wave (km/s) = 5.93611 6.94535 6.46046
#
# Compressibility (1/GPa) = 0.02683968
#
# Stress axis : x y z
#
# Youngs Moduli (GPa) = 39.04727 158.21657 98.06825
#
# Poissons Ratio (x) = 0.16619 0.39457
# Poissons Ratio (y) = 0.04101 0.25204
# Poissons Ratio (z) = 0.15710 0.40663
#
# Static dielectric constant tensor:
#      x y z
#    x 3.716380 0.000000 0.000000 
#    y 0.000000 5.054760 0.000000 
#    z 0.000000 0.000000 4.343300 
# 
# 
# High freq. dielectric constant tensor:
#      x y z
#    x 1.854880 0.000000 0.000000 
#    y 0.000000 1.906560 0.000000 
#    z 0.000000 0.000000 1.886260 
# 
# From -- ./inp_files/33608.got.cif
#   From: 2010.06.25/outbox.cif.g09.slc.cpg/sg48_17_cif.got.tgz:33608.got - 2010.06.26 18:06:46.
