data_PCOD8201724
_publ_section_title
;
Structure prediction by ZEFSAII (Michael W. Deem and Ramdas Pophale) SiO2 
 PCOD8201724
Probable space group: P N N N
;
_chemical_formula_sum "Si O2"
_cell_formula_units_Z 56
_cell_length_a 16.234044
_cell_length_b 18.073520
_cell_length_c 9.716219
_cell_angle_alpha 90.000000
_cell_angle_beta 90.000000
_cell_angle_gamma 90.000000
_cell_volume 2850.800051
_symmetry_space_group_name_H-M "P N N N"
_symmetry_group_IT_number 48
_space_group.IT_coordinate_system_code '2'
_symmetry_cell_setting 'orthorhombic'
loop_
_space_group_symop_operation_xyz
x,y,z
1/2-x,1/2-y,z
x,1/2-y,1/2-z
1/2-x,y,1/2-z
-x,-y,-z
1/2+x,1/2+y,-z
-x,1/2+y,1/2+z
1/2+x,-y,1/2+z
loop_
_atom_site_type_symbol
_atom_site_label
_atom_site_fract_x
_atom_site_fract_y
_atom_site_fract_z
Si Si1 0.913863 0.590339 0.025804
Si Si2 0.594295 0.428241 0.913942
Si Si3 0.902978 0.431265 0.915171
Si Si4 0.250310 0.666872 0.413102
Si Si5 0.342153 0.335931 0.276031
Si Si6 0.419484 0.405715 0.025282
Si Si7 0.654461 0.831708 0.276700
O O1 0.888846 0.606560 0.182335
O O2 0.012493 0.595633 0.015378
O O3 0.880007 0.511199 0.976114
O O4 0.870475 0.652222 0.932443
O O5 0.589303 0.435836 0.749445
O O6 0.669925 0.377447 0.963414
O O7 0.511995 0.390614 0.973166
O O8 0.604575 0.508177 0.984074
O O9 0.832352 0.374800 0.963550
O O10 0.250000 0.750000 0.474881
O O11 0.250000 0.670526 0.250000
O O12 0.344721 0.250000 0.250000
O O13 0.250000 0.367407 0.250000
O O14 0.407987 0.378605 0.181211
O O15 0.358226 0.356686 0.933343
O O16 0.616084 0.750000 0.250000
O O17 0.750000 0.829356 0.250000
#
# Coordination Sequence:
#
# PCOD8201724 Si02
#       7
#     8   8   8   8   8   8   8
#     4  11  22  39  63  88 121 166 204 250 307 362
#     4  10  21  38  61  91 120 156 210 256 298 367
#     4  10  21  38  61  91 120 156 210 256 298 367
#     4   9  20  36  58  89 120 157 201 253 313 363
#     4  11  24  39  60  91 123 160 203 248 306 370
#     4  11  22  39  63  88 121 166 204 250 307 362
#     4  11  24  39  58  91 127 160 201 250 308 368
#
# _framework density 19.643606999999999
#
# number of rings (size 3 to 8) (size 9 to 14) (size 15 to 20)
#    0.000    1.571    2.857    1.714    4.000    4.571 
#    0.000    0.000    0.000    0.000    0.000    3.000 
#    0.000    0.000    0.000    0.000    0.000    0.000 
#
# Total GULP energy -694617.310491 kJ/mol
# GULP energy per Si atom -12403.880544 kJ/mol
# Density = 1.959890 g / cm^3
# Si number density = 19.643607 Si / 1000 Ang^3
#
#
#
# Elastic Constant Matrix: (Units=GPa)
#
#
# Indices 1 2 3 4 5 6 
#
# 1 117.3027 64.2393 18.6986 0.0000 0.0000 0.0000
# 2 64.2393 112.5649 18.8674 0.0000 0.0000 0.0000
# 3 18.6986 18.8674 47.8419 0.0000 0.0000 0.0000
# 4 0.0000 0.0000 0.0000 25.0359 0.0000 0.0000
# 5 0.0000 0.0000 0.0000 0.0000 29.8743 0.0000
# 6 0.0000 0.0000 0.0000 0.0000 0.0000 27.3793
#
#
#
# Elastic Compliance Matrix: (Units=1/GPa)
#
#
# Indices 1 2 3 4 5 6 
#
# 1 0.012621 -0.006827 -0.002240 0.000000 0.000000 0.000000
# 2 -0.006827 0.013206 -0.002540 0.000000 0.000000 0.000000
# 3 -0.002240 -0.002540 0.022779 0.000000 0.000000 0.000000
# 4 0.000000 0.000000 0.000000 0.039943 0.000000 0.000000
# 5 0.000000 0.000000 0.000000 0.000000 0.033474 0.000000
# 6 0.000000 0.000000 0.000000 0.000000 0.000000 0.036524
#
#
# Mechanical properties :
#
#
# Convention : Reuss Voigt Hill
#
# Bulk Modulus (GPa) = 39.38287 53.48001 46.43144
# Shear Modulus (GPa) = 26.28483 28.18484 27.23484
#
# Velocity S-wave (km/s) = 3.66195 3.79200 3.72754
# Velocity P-wave (km/s) = 6.16215 6.81591 6.49726
#
# Compressibility (1/GPa) = 0.02539175
#
# Stress axis : x y z
#
# Youngs Moduli (GPa) = 79.23420 75.72586 43.89940
#
# Poissons Ratio (x) = 0.51698 0.09835
# Poissons Ratio (y) = 0.54093 0.11149
# Poissons Ratio (z) = 0.17751 0.19231
#
# Static dielectric constant tensor:
#      x y z
#    x 3.696750 0.000000 0.000000 
#    y 0.000000 3.753190 0.000000 
#    z 0.000000 0.000000 3.438600 
# 
# 
# High freq. dielectric constant tensor:
#      x y z
#    x 1.771320 0.000000 0.000000 
#    y 0.000000 1.771610 0.000000 
#    z 0.000000 0.000000 1.750280 
# 
# From -- ./inp_files/13084.got.cif
#   From: 2010.06.25/outbox.cif.g09.slc.cpg/sg48_7_cif.got.tgz:13084.got - 2010.06.26 18:06:46.
