data_PCOD8201864
_publ_section_title
;
Structure prediction by ZEFSAII (Michael W. Deem and Ramdas Pophale) SiO2 
 PCOD8201864
Probable space group: P N N N
;
_chemical_formula_sum "Si O2"
_cell_formula_units_Z 32
_cell_length_a 8.874339
_cell_length_b 10.870151
_cell_length_c 15.143040
_cell_angle_alpha 90.000000
_cell_angle_beta 90.000000
_cell_angle_gamma 90.000000
_cell_volume 1460.779486
_symmetry_space_group_name_H-M "P N N N"
_symmetry_group_IT_number 48
_space_group.IT_coordinate_system_code '2'
_symmetry_cell_setting 'orthorhombic'
loop_
_space_group_symop_operation_xyz
x,y,z
1/2-x,1/2-y,z
x,1/2-y,1/2-z
1/2-x,y,1/2-z
-x,-y,-z
1/2+x,1/2+y,-z
-x,1/2+y,1/2+z
1/2+x,-y,1/2+z
loop_
_atom_site_type_symbol
_atom_site_label
_atom_site_fract_x
_atom_site_fract_y
_atom_site_fract_z
Si Si1 0.073428 0.395490 0.752425
Si Si2 0.750000 0.750000 0.528572
Si Si3 0.750000 0.250000 0.029780
Si Si4 0.996834 0.574801 0.910412
Si Si5 0.005542 0.609647 0.435987
O O1 0.034456 0.250000 0.750000
O O2 0.250000 0.419811 0.750000
O O3 0.000384 0.474513 0.831776
O O4 0.999493 0.445101 0.662472
O O5 0.840689 0.846021 0.591657
O O6 0.636541 0.805107 0.456819
O O7 0.641446 0.167174 0.092757
O O8 0.839268 0.173991 0.957263
O O9 0.000000 0.500000 0.000000
O O10 0.000000 0.500000 0.500000
#
# Coordination Sequence:
#
# PCOD8201864 Si02
#       5
#     8   4   4   8   8
#     4  11  22  39  67  96 124 168 223 273 324 391
#     4  10  22  42  66  94 134 172 210 276 340 386
#     4  10  22  40  66  96 132 172 212 274 338 388
#     4  11  22  42  68  98 134 173 222 276 333 395
#     4  11  22  41  64  91 126 166 213 263 323 391
#
# _framework density 21.906110999999999
#
# number of rings (size 3 to 8) (size 9 to 14) (size 15 to 20)
#    0.000    1.250    0.000    9.000    0.000    0.000 
#    0.000   25.000    0.000    6.000    0.000    0.000 
#    0.000    0.000    0.000    0.000    0.000    0.000 
#
# Total GULP energy -396561.272419 kJ/mol
# GULP energy per Si atom -12392.539763 kJ/mol
# Density = 2.185625 g / cm^3
# Si number density = 21.906111 Si / 1000 Ang^3
#
#
#
# Elastic Constant Matrix: (Units=GPa)
#
#
# Indices 1 2 3 4 5 6 
#
# 1 107.0501 46.9444 39.1757 0.0000 0.0000 0.0000
# 2 46.9444 125.7370 78.3458 0.0000 0.0000 0.0000
# 3 39.1757 78.3458 185.4609 0.0000 0.0000 0.0000
# 4 0.0000 0.0000 0.0000 49.9173 0.0000 0.0000
# 5 0.0000 0.0000 0.0000 0.0000 24.9863 0.0000
# 6 0.0000 0.0000 0.0000 0.0000 0.0000 -22.9264
#
#
#
# Elastic Compliance Matrix: (Units=1/GPa)
#
#
# Indices 1 2 3 4 5 6 
#
# 1 0.011261 -0.003695 -0.000818 0.000000 0.000000 0.000000
# 2 -0.003695 0.012007 -0.004292 0.000000 0.000000 0.000000
# 3 -0.000818 -0.004292 0.007378 0.000000 0.000000 0.000000
# 4 0.000000 0.000000 0.000000 0.020033 0.000000 0.000000
# 5 0.000000 0.000000 0.000000 0.000000 0.040022 0.000000
# 6 0.000000 0.000000 0.000000 0.000000 0.000000 -0.043618
#
#
# Mechanical properties :
#
#
# Convention : Reuss Voigt Hill
#
# Bulk Modulus (GPa) = 76.70581 83.01999 79.86290
# Shear Modulus (GPa) = 72.42546 27.31425 49.86985
#
# Velocity S-wave (km/s) = 5.75617 3.53495 4.77647
# Velocity P-wave (km/s) = 8.90336 7.39199 8.18264
#
# Compressibility (1/GPa) = 0.01303682
#
# Stress axis : x y z
#
# Youngs Moduli (GPa) = 88.80237 83.28758 135.54383
#
# Poissons Ratio (x) = 0.30772 0.11087
# Poissons Ratio (y) = 0.32810 0.58170
# Poissons Ratio (z) = 0.07263 0.35744
#
# Static dielectric constant tensor:
#      x y z
#    x 4.262810 0.000000 0.000000 
#    y 0.000000 4.214550 0.000000 
#    z 0.000000 0.000000 3.752700 
# 
# 
# High freq. dielectric constant tensor:
#      x y z
#    x 1.872980 0.000000 0.000000 
#    y 0.000000 1.875880 0.000000 
#    z 0.000000 0.000000 1.847990 
# 
# From -- ./inp_files/10307.got.cif
#   From: 2010.06.25/outbox.cif.g09.slc.cpg/sg48_6_cif.got.tgz:10307.got - 2010.06.26 18:06:46.
