data_PCOD8201689
_publ_section_title
;
Structure prediction by ZEFSAII (Michael W. Deem and Ramdas Pophale) SiO2 
 PCOD8201689
Probable space group: P N N N
;
_chemical_formula_sum "Si O2"
_cell_formula_units_Z 48
_cell_length_a 16.598007
_cell_length_b 8.022143
_cell_length_c 16.928573
_cell_angle_alpha 90.000000
_cell_angle_beta 90.000000
_cell_angle_gamma 90.000000
_cell_volume 2254.066338
_symmetry_space_group_name_H-M "P N N N"
_symmetry_group_IT_number 48
_space_group.IT_coordinate_system_code '2'
_symmetry_cell_setting 'orthorhombic'
loop_
_space_group_symop_operation_xyz
x,y,z
1/2-x,1/2-y,z
x,1/2-y,1/2-z
1/2-x,y,1/2-z
-x,-y,-z
1/2+x,1/2+y,-z
-x,1/2+y,1/2+z
1/2+x,-y,1/2+z
loop_
_atom_site_type_symbol
_atom_site_label
_atom_site_fract_x
_atom_site_fract_y
_atom_site_fract_z
Si Si1 0.996582 0.944502 0.769862
Si Si2 0.807195 0.977422 0.036569
Si Si3 0.474499 0.953141 0.104678
Si Si4 0.557799 0.422536 0.934048
Si Si5 0.871526 0.608117 0.023477
Si Si6 0.673270 0.069851 0.289372
O O1 0.995695 0.750000 0.750000
O O2 0.087607 0.017257 0.773397
O O3 0.953551 0.038340 0.697219
O O4 0.950765 0.981800 0.850992
O O5 0.817611 0.081953 0.116546
O O6 0.849837 0.797280 0.046889
O O7 0.713284 0.984044 0.015784
O O8 0.850291 0.065229 0.962841
O O9 0.458831 0.771091 0.071692
O O10 0.420203 0.091246 0.059496
O O11 0.570873 0.981355 0.089103
O O12 0.500000 0.500000 0.000000
O O13 0.672276 0.250000 0.250000
O O14 0.750000 0.970750 0.250000
#
# Coordination Sequence:
#
# PCOD8201689 Si02
#       6
#     8   8   8   8   8   8
#     4  11  23  39  63  93 129 169 215 267 321 383
#     4  11  22  42  63  94 130 171 213 266 324 387
#     4  11  23  40  66  96 129 169 221 263 323 389
#     4  12  23  41  66  93 129 172 214 266 320 388
#     4  10  23  40  66  94 130 172 214 264 326 385
#     4  10  21  35  59  92 131 167 211 259 322 382
#
# _framework density 21.294847000000001
#
# number of rings (size 3 to 8) (size 9 to 14) (size 15 to 20)
#    0.000    1.167    3.333    2.500    2.333    3.333 
#    0.000    5.833    0.000    5.000    0.000    0.000 
#    0.000    0.000    0.000    0.000    0.000    0.000 
#
# Total GULP energy -594921.275417 kJ/mol
# GULP energy per Si atom -12394.193238 kJ/mol
# Density = 2.124638 g / cm^3
# Si number density = 21.294847 Si / 1000 Ang^3
#
#
#
# Elastic Constant Matrix: (Units=GPa)
#
#
# Indices 1 2 3 4 5 6 
#
# 1 138.7206 37.6359 68.8549 0.0000 0.0000 0.0000
# 2 37.6359 64.5620 39.4617 0.0000 0.0000 0.0000
# 3 68.8549 39.4617 193.9342 0.0000 0.0000 0.0000
# 4 0.0000 0.0000 0.0000 39.3221 0.0000 0.0000
# 5 0.0000 0.0000 0.0000 0.0000 23.2780 0.0000
# 6 0.0000 0.0000 0.0000 0.0000 0.0000 23.3659
#
#
#
# Elastic Compliance Matrix: (Units=1/GPa)
#
#
# Indices 1 2 3 4 5 6 
#
# 1 0.009578 -0.004003 -0.002586 0.000000 0.000000 0.000000
# 2 -0.004003 0.019362 -0.002519 0.000000 0.000000 0.000000
# 3 -0.002586 -0.002519 0.006587 0.000000 0.000000 0.000000
# 4 0.000000 0.000000 0.000000 0.025431 0.000000 0.000000
# 5 0.000000 0.000000 0.000000 0.000000 0.042959 0.000000
# 6 0.000000 0.000000 0.000000 0.000000 0.000000 0.042797
#
#
# Mechanical properties :
#
#
# Convention : Reuss Voigt Hill
#
# Bulk Modulus (GPa) = 57.76347 76.56909 67.16628
# Shear Modulus (GPa) = 29.29103 33.94417 31.61760
#
# Velocity S-wave (km/s) = 3.71279 3.99684 3.85743
# Velocity P-wave (km/s) = 6.75013 7.57194 7.17281
#
# Compressibility (1/GPa) = 0.01731198
#
# Stress axis : x y z
#
# Youngs Moduli (GPa) = 104.40098 51.64805 151.81213
#
# Poissons Ratio (x) = 0.20674 0.39262
# Poissons Ratio (y) = 0.41791 0.38234
# Poissons Ratio (z) = 0.27001 0.13008
#
# Static dielectric constant tensor:
#      x y z
#    x 4.672550 0.000000 0.000000 
#    y 0.000000 3.729510 0.000000 
#    z 0.000000 0.000000 4.011480 
# 
# 
# High freq. dielectric constant tensor:
#      x y z
#    x 1.836850 0.000000 0.000000 
#    y 0.000000 1.825590 0.000000 
#    z 0.000000 0.000000 1.837750 
# 
# From -- ./inp_files/31547.got.cif
#   From: 2010.06.25/outbox.cif.g09.slc.cpg/sg48_16_cif.got.tgz:31547.got - 2010.06.26 18:06:46.
