data_PCOD8201859
_publ_section_title
;
Structure prediction by ZEFSAII (Michael W. Deem and Ramdas Pophale) SiO2 
 PCOD8201859
Probable space group: P N N N
;
_chemical_formula_sum "Si O2"
_cell_formula_units_Z 56
_cell_length_a 15.557686
_cell_length_b 11.593286
_cell_length_c 14.205360
_cell_angle_alpha 90.000000
_cell_angle_beta 90.000000
_cell_angle_gamma 90.000000
_cell_volume 2562.145542
_symmetry_space_group_name_H-M "P N N N"
_symmetry_group_IT_number 48
_space_group.IT_coordinate_system_code '2'
_symmetry_cell_setting 'orthorhombic'
loop_
_space_group_symop_operation_xyz
x,y,z
1/2-x,1/2-y,z
x,1/2-y,1/2-z
1/2-x,y,1/2-z
-x,-y,-z
1/2+x,1/2+y,-z
-x,1/2+y,1/2+z
1/2+x,-y,1/2+z
loop_
_atom_site_type_symbol
_atom_site_label
_atom_site_fract_x
_atom_site_fract_y
_atom_site_fract_z
Si Si1 0.143131 0.624599 0.786570
Si Si2 0.023985 0.172672 0.528354
Si Si3 0.210141 0.536377 0.605186
Si Si4 0.981064 0.524555 0.851541
Si Si5 0.324755 0.163809 0.474410
Si Si6 0.339595 0.509562 0.196004
Si Si7 0.845800 0.199449 0.952575
O O1 0.170221 0.750000 0.750000
O O2 0.166541 0.529352 0.707606
O O3 0.195406 0.594490 0.882336
O O4 0.043097 0.618581 0.804922
O O5 0.053006 0.086275 0.445246
O O6 0.089929 0.279226 0.521160
O O7 0.923468 0.211456 0.528416
O O8 0.030910 0.095432 0.623547
O O9 0.217822 0.412223 0.557073
O O10 0.148831 0.613612 0.540353
O O11 0.906302 0.503029 0.779212
O O12 0.250000 0.250000 0.443000
O O13 0.348511 0.092776 0.380491
O O14 0.250000 0.509662 0.250000
O O15 0.359157 0.630668 0.144952
O O16 0.750000 0.250000 0.947112
#
# Coordination Sequence:
#
# PCOD8201859 Si02
#       7
#     8   8   8   8   8   8   8
#     4  11  22  39  68  98 126 171 222 281 337 389
#     4  11  25  43  66  95 135 182 222 271 355 396
#     4  10  22  40  64  97 130 165 223 273 334 407
#     4  11  25  42  64  97 133 169 229 283 321 411
#     4  11  25  44  67  94 139 182 221 274 346 410
#     4  11  26  43  67  99 135 175 232 281 331 406
#     4  11  23  42  69  95 133 178 224 281 346 400
#
# _framework density 21.856681999999999
#
# number of rings (size 3 to 8) (size 9 to 14) (size 15 to 20)
#    0.000    1.143    0.000    6.000    6.000    9.143 
#    0.000    4.286    0.000    0.000    0.000    0.000 
#    0.000    0.000    0.000    0.000    0.000    0.000 
#
# Total GULP energy -694103.138774 kJ/mol
# GULP energy per Si atom -12394.698907 kJ/mol
# Density = 2.180694 g / cm^3
# Si number density = 21.856682 Si / 1000 Ang^3
#
#
#
# Elastic Constant Matrix: (Units=GPa)
#
#
# Indices 1 2 3 4 5 6 
#
# 1 116.5757 28.4284 52.3128 0.0000 0.0000 0.0000
# 2 28.4284 91.9544 53.9221 0.0000 0.0000 0.0000
# 3 52.3128 53.9221 133.4698 0.0000 0.0000 0.0000
# 4 0.0000 0.0000 0.0000 26.9861 0.0000 0.0000
# 5 0.0000 0.0000 0.0000 0.0000 24.3291 0.0000
# 6 0.0000 0.0000 0.0000 0.0000 0.0000 53.1933
#
#
#
# Elastic Compliance Matrix: (Units=1/GPa)
#
#
# Indices 1 2 3 4 5 6 
#
# 1 0.010492 -0.001091 -0.003672 0.000000 0.000000 0.000000
# 2 -0.001091 0.014365 -0.005376 0.000000 0.000000 0.000000
# 3 -0.003672 -0.005376 0.011103 0.000000 0.000000 0.000000
# 4 0.000000 0.000000 0.000000 0.037056 0.000000 0.000000
# 5 0.000000 0.000000 0.000000 0.000000 0.041103 0.000000
# 6 0.000000 0.000000 0.000000 0.000000 0.000000 0.018799
#
#
# Mechanical properties :
#
#
# Convention : Reuss Voigt Hill
#
# Bulk Modulus (GPa) = 63.76150 67.92517 65.84334
# Shear Modulus (GPa) = 31.56134 34.72415 33.14275
#
# Velocity S-wave (km/s) = 3.80414 3.99020 3.89828
# Velocity P-wave (km/s) = 6.96643 7.23698 7.10300
#
# Compressibility (1/GPa) = 0.01568345
#
# Stress axis : x y z
#
# Youngs Moduli (GPa) = 95.31379 69.61599 90.06387
#
# Poissons Ratio (x) = 0.07592 0.33067
# Poissons Ratio (y) = 0.10395 0.48417
# Poissons Ratio (z) = 0.34995 0.37424
#
# Static dielectric constant tensor:
#      x y z
#    x 4.051860 0.000000 0.000000 
#    y 0.000000 4.118340 0.000000 
#    z 0.000000 0.000000 4.995340 
# 
# 
# High freq. dielectric constant tensor:
#      x y z
#    x 1.861740 0.000000 0.000000 
#    y 0.000000 1.858760 0.000000 
#    z 0.000000 0.000000 1.870310 
# 
# From -- ./inp_files/27296.got.cif
#   From: 2010.06.25/outbox.cif.g09.slc.cpg/sg48_14_cif.got.tgz:27296.got - 2010.06.26 18:06:46.
