data_PCOD8201940
_publ_section_title
;
Structure prediction by ZEFSAII (Michael W. Deem and Ramdas Pophale) SiO2 
 PCOD8201940
Probable space group: P N N N
;
_chemical_formula_sum "Si O2"
_cell_formula_units_Z 64
_cell_length_a 9.601618
_cell_length_b 10.682371
_cell_length_c 31.537523
_cell_angle_alpha 90.000000
_cell_angle_beta 90.000000
_cell_angle_gamma 90.000000
_cell_volume 3234.742100
_symmetry_space_group_name_H-M "P N N N"
_symmetry_group_IT_number 48
_space_group.IT_coordinate_system_code '2'
_symmetry_cell_setting 'orthorhombic'
loop_
_space_group_symop_operation_xyz
x,y,z
1/2-x,1/2-y,z
x,1/2-y,1/2-z
1/2-x,y,1/2-z
-x,-y,-z
1/2+x,1/2+y,-z
-x,1/2+y,1/2+z
1/2+x,-y,1/2+z
loop_
_atom_site_type_symbol
_atom_site_label
_atom_site_fract_x
_atom_site_fract_y
_atom_site_fract_z
Si Si1 0.663020 0.374089 0.527948
Si Si2 0.522369 0.495192 0.675872
Si Si3 0.339716 0.126577 0.979431
Si Si4 0.901906 0.892471 0.243106
Si Si5 0.245192 0.607181 0.376040
Si Si6 0.530385 0.504679 0.156572
Si Si7 0.291115 0.109679 0.882156
Si Si8 0.914926 0.247867 0.200290
O O1 0.750000 0.250000 0.513788
O O2 0.503670 0.344160 0.514975
O O3 0.709894 0.504025 0.505623
O O4 0.685031 0.399703 0.577723
O O5 0.512399 0.448165 0.724113
O O6 0.677470 0.478650 0.658534
O O7 0.428025 0.413838 0.644737
O O8 0.480917 0.638954 0.674419
O O9 0.250000 0.250000 0.992742
O O10 0.317374 0.090170 0.931197
O O11 0.874163 0.750000 0.250000
O O12 0.750000 0.962227 0.250000
O O13 0.961710 0.902060 0.196219
O O14 0.250000 0.750000 0.360166
O O15 0.089936 0.549831 0.375669
O O16 0.672359 0.511111 0.130162
O O17 0.513400 0.368187 0.176703
O O18 0.250000 0.250000 0.870830
O O19 0.750000 0.250000 0.194770
O O20 0.956037 0.250000 0.250000
#
# Coordination Sequence:
#
# PCOD8201940 Si02
#       8
#     8   8   8   8   8   8   8   8
#     4  10  23  46  68  98 139 171 206 267 334 390
#     4  12  22  40  63  89 128 167 214 263 320 373
#     4  10  23  44  71 100 131 172 217 264 321 394
#     4  11  20  33  59  90 120 160 215 272 311 364
#     4  11  25  44  65  94 130 169 206 268 330 380
#     4  12  24  40  61  95 125 168 220 258 325 379
#     4  11  21  38  65  96 122 161 218 274 310 372
#     4  11  22  42  63  86 127 171 216 266 313 373
#
# _framework density 19.785191999999999
#
# number of rings (size 3 to 8) (size 9 to 14) (size 15 to 20)
#    0.000    1.000    5.000    2.250    5.250    1.500 
#    4.500    1.875    0.000    0.000    0.000    0.000 
#    0.000    0.000    0.000    0.000    0.000    0.000 
#
# Total GULP energy -793522.258182 kJ/mol
# GULP energy per Si atom -12398.785284 kJ/mol
# Density = 1.974016 g / cm^3
# Si number density = 19.785192 Si / 1000 Ang^3
#
#
#
# Elastic Constant Matrix: (Units=GPa)
#
#
# Indices 1 2 3 4 5 6 
#
# 1 64.1576 40.6880 30.5911 0.0000 0.0000 0.0000
# 2 40.6880 110.4358 23.2759 0.0000 0.0000 0.0000
# 3 30.5911 23.2759 38.5869 0.0000 0.0000 0.0000
# 4 0.0000 0.0000 0.0000 17.5180 0.0000 0.0000
# 5 0.0000 0.0000 0.0000 0.0000 27.9277 0.0000
# 6 0.0000 0.0000 0.0000 0.0000 0.0000 33.1177
#
#
#
# Elastic Compliance Matrix: (Units=1/GPa)
#
#
# Indices 1 2 3 4 5 6 
#
# 1 0.028755 -0.006633 -0.018796 0.000000 0.000000 0.000000
# 2 -0.006633 0.011904 -0.001922 0.000000 0.000000 0.000000
# 3 -0.018796 -0.001922 0.041976 0.000000 0.000000 0.000000
# 4 0.000000 0.000000 0.000000 0.057084 0.000000 0.000000
# 5 0.000000 0.000000 0.000000 0.000000 0.035807 0.000000
# 6 0.000000 0.000000 0.000000 0.000000 0.000000 0.030195
#
#
# Mechanical properties :
#
#
# Convention : Reuss Voigt Hill
#
# Bulk Modulus (GPa) = 35.79905 44.69892 40.24898
# Shear Modulus (GPa) = 18.53683 23.62104 21.07894
#
# Velocity S-wave (km/s) = 3.06421 3.45900 3.26757
# Velocity P-wave (km/s) = 5.53645 6.21241 5.88415
#
# Compressibility (1/GPa) = 0.02793370
#
# Stress axis : x y z
#
# Youngs Moduli (GPa) = 34.77652 84.00623 23.82322
#
# Poissons Ratio (x) = 0.55720 0.44777
# Poissons Ratio (y) = 0.23067 0.04579
# Poissons Ratio (z) = 0.65365 0.16147
#
# Static dielectric constant tensor:
#      x y z
#    x 3.594230 0.000000 0.000000 
#    y 0.000000 3.760530 0.000000 
#    z 0.000000 0.000000 3.584780 
# 
# 
# High freq. dielectric constant tensor:
#      x y z
#    x 1.765360 0.000000 0.000000 
#    y 0.000000 1.779400 0.000000 
#    z 0.000000 0.000000 1.767890 
# 
# From -- ./inp_files/38812.got.cif
#   From: 2010.06.25/outbox.cif.g09.slc.cpg/sg48_20_cif.got.tgz:38812.got - 2010.06.26 18:06:46.
