data_PCOD8201758
_publ_section_title
;
Structure prediction by ZEFSAII (Michael W. Deem and Ramdas Pophale) SiO2 
 PCOD8201758
Probable space group: P N N N
;
_chemical_formula_sum "Si O2"
_cell_formula_units_Z 38
_cell_length_a 9.652953
_cell_length_b 11.384496
_cell_length_c 16.405231
_cell_angle_alpha 90.000000
_cell_angle_beta 90.000000
_cell_angle_gamma 90.000000
_cell_volume 1802.836535
_symmetry_space_group_name_H-M "P N N N"
_symmetry_group_IT_number 48
_space_group.IT_coordinate_system_code '2'
_symmetry_cell_setting 'orthorhombic'
loop_
_space_group_symop_operation_xyz
x,y,z
1/2-x,1/2-y,z
x,1/2-y,1/2-z
1/2-x,y,1/2-z
-x,-y,-z
1/2+x,1/2+y,-z
-x,1/2+y,1/2+z
1/2+x,-y,1/2+z
loop_
_atom_site_type_symbol
_atom_site_label
_atom_site_fract_x
_atom_site_fract_y
_atom_site_fract_z
Si Si1 0.183648 0.500598 0.667347
Si Si2 0.588759 0.385266 0.880205
Si Si3 0.250000 0.750000 0.879926
Si Si4 0.977069 0.738053 0.982985
Si Si5 0.240335 0.433570 0.487722
Si Si6 0.750000 0.250000 0.750000
O O1 0.250000 0.442752 0.750000
O O2 0.212554 0.639107 0.675520
O O3 0.249575 0.448768 0.585018
O O4 0.020303 0.477833 0.657012
O O5 0.517380 0.273374 0.924391
O O6 0.700760 0.444781 0.942572
O O7 0.661411 0.338225 0.801809
O O8 0.383827 0.779495 0.933408
O O9 0.878465 0.845332 0.955528
O O10 0.893044 0.616725 0.969170
#
# Coordination Sequence:
#
# PCOD8201758 Si02
#       6
#     8   8   4   8   8   2
#     4  11  24  40  65  95 139 170 223 284 339 393
#     4  11  23  48  63  98 140 176 225 287 332 410
#     4  12  20  40  65  97 132 170 230 282 326 409
#     4  10  21  39  70  97 127 180 233 267 333 402
#     4  10  21  43  70  92 133 184 223 278 332 404
#     4  12  30  40  72  94 138 176 224 280 352 396
#
# _framework density 21.077895999999999
#
# number of rings (size 3 to 8) (size 9 to 14) (size 15 to 20)
#    0.000    1.263    4.211    2.211    2.947    2.526 
#    0.000    0.000    0.000    0.000    0.000    0.000 
#    0.000    0.000    0.000    0.000    0.000    0.000 
#
# Total GULP energy -470802.057898 kJ/mol
# GULP energy per Si atom -12389.527839 kJ/mol
# Density = 2.102992 g / cm^3
# Si number density = 21.077896 Si / 1000 Ang^3
#
#
#
# Elastic Constant Matrix: (Units=GPa)
#
#
# Indices 1 2 3 4 5 6 
#
# 1 142.3412 53.4343 68.2836 0.0000 0.0000 0.0000
# 2 53.4343 78.1149 33.4284 0.0000 0.0000 0.0000
# 3 68.2836 33.4284 128.1266 0.0000 0.0000 0.0000
# 4 0.0000 0.0000 0.0000 17.4930 0.0000 0.0000
# 5 0.0000 0.0000 0.0000 0.0000 33.5776 0.0000
# 6 0.0000 0.0000 0.0000 0.0000 0.0000 39.2094
#
#
#
# Elastic Compliance Matrix: (Units=1/GPa)
#
#
# Indices 1 2 3 4 5 6 
#
# 1 0.011407 -0.005855 -0.004552 0.000000 0.000000 0.000000
# 2 -0.005855 0.017416 -0.001423 0.000000 0.000000 0.000000
# 3 -0.004552 -0.001423 0.010602 0.000000 0.000000 0.000000
# 4 0.000000 0.000000 0.000000 0.057166 0.000000 0.000000
# 5 0.000000 0.000000 0.000000 0.000000 0.029782 0.000000
# 6 0.000000 0.000000 0.000000 0.000000 0.000000 0.025504
#
#
# Mechanical properties :
#
#
# Convention : Reuss Voigt Hill
#
# Bulk Modulus (GPa) = 63.43355 73.20836 68.32096
# Shear Modulus (GPa) = 27.65623 30.95175 29.30399
#
# Velocity S-wave (km/s) = 3.62622 3.83619 3.73268
# Velocity P-wave (km/s) = 6.90599 7.37763 7.14571
#
# Compressibility (1/GPa) = 0.01576453
#
# Stress axis : x y z
#
# Youngs Moduli (GPa) = 87.66733 57.41876 94.32317
#
# Poissons Ratio (x) = 0.33619 0.42931
# Poissons Ratio (y) = 0.51329 0.13427
# Poissons Ratio (z) = 0.39902 0.08173
#
# Static dielectric constant tensor:
#      x y z
#    x 3.995280 0.000000 0.000000 
#    y 0.000000 3.925650 0.000000 
#    z 0.000000 0.000000 3.735530 
# 
# 
# High freq. dielectric constant tensor:
#      x y z
#    x 1.837000 0.000000 0.000000 
#    y 0.000000 1.825700 0.000000 
#    z 0.000000 0.000000 1.810230 
# 
# From -- ./inp_files/10736.got.cif
#   From: 2010.06.25/outbox.cif.g09.slc.cpg/sg48_6_cif.got.tgz:10736.got - 2010.06.26 18:06:46.
