data_PCOD8201468
_publ_section_title
;
Structure prediction by ZEFSAII (Michael W. Deem and Ramdas Pophale) SiO2 
 PCOD8201468
Probable space group: P N N N
;
_chemical_formula_sum "Si O2"
_cell_formula_units_Z 48
_cell_length_a 7.774954
_cell_length_b 15.831066
_cell_length_c 17.524072
_cell_angle_alpha 90.000000
_cell_angle_beta 90.000000
_cell_angle_gamma 90.000000
_cell_volume 2156.964595
_symmetry_space_group_name_H-M "P N N N"
_symmetry_group_IT_number 48
_space_group.IT_coordinate_system_code '2'
_symmetry_cell_setting 'orthorhombic'
loop_
_space_group_symop_operation_xyz
x,y,z
1/2-x,1/2-y,z
x,1/2-y,1/2-z
1/2-x,y,1/2-z
-x,-y,-z
1/2+x,1/2+y,-z
-x,1/2+y,1/2+z
1/2+x,-y,1/2+z
loop_
_atom_site_type_symbol
_atom_site_label
_atom_site_fract_x
_atom_site_fract_y
_atom_site_fract_z
Si Si1 0.139859 0.090815 0.437497
Si Si2 0.988983 0.506470 0.798457
Si Si3 0.750000 0.750000 0.022168
Si Si4 0.637264 0.498468 0.142257
Si Si5 0.250000 0.862613 0.250000
Si Si6 0.235406 0.919285 0.501625
Si Si7 0.544710 0.328134 0.891179
O O1 0.247501 0.171741 0.463439
O O2 0.099239 0.082753 0.346499
O O3 0.962995 0.097332 0.483230
O O4 0.252015 0.008797 0.458337
O O5 0.168218 0.477902 0.835071
O O6 0.022854 0.538214 0.711953
O O7 0.870593 0.423107 0.801257
O O8 0.584384 0.744229 0.078709
O O9 0.646879 0.426178 0.077826
O O10 0.559400 0.584969 0.112237
O O11 0.132477 0.806091 0.191476
O O12 0.302606 0.840807 0.452153
#
# Coordination Sequence:
#
# PCOD8201468 Si02
#       7
#     8   8   4   8   4   8   8
#     4  10  21  38  59  94 125 164 204 275 313 391
#     4   9  18  34  59  92 120 152 212 266 309 362
#     4  12  26  36  58  94 142 164 208 268 354 385
#     4   9  18  33  61  93 118 151 209 274 303 361
#     4  10  20  36  66  90 114 162 220 262 306 381
#     4  10  19  37  66  89 118 160 229 259 304 377
#     4  11  22  37  62  94 121 166 209 263 323 392
#
# _framework density 22.253495999999998
#
# number of rings (size 3 to 8) (size 9 to 14) (size 15 to 20)
#    0.000    2.000    3.333    0.500    0.000    0.667 
#    0.000    0.000    0.000   32.500    0.000    9.333 
#    0.000    0.000    0.000    0.000    0.000    0.000 
#
# Total GULP energy -594973.392098 kJ/mol
# GULP energy per Si atom -12395.279002 kJ/mol
# Density = 2.220285 g / cm^3
# Si number density = 22.253496 Si / 1000 Ang^3
#
#
#
# Elastic Constant Matrix: (Units=GPa)
#
#
# Indices 1 2 3 4 5 6 
#
# 1 75.6725 16.9871 29.3523 0.0000 0.0000 0.0000
# 2 16.9871 48.2471 22.6648 0.0000 0.0000 0.0000
# 3 29.3523 22.6648 114.4251 0.0000 0.0000 0.0000
# 4 0.0000 0.0000 0.0000 23.2896 0.0000 0.0000
# 5 0.0000 0.0000 0.0000 0.0000 40.0621 0.0000
# 6 0.0000 0.0000 0.0000 0.0000 0.0000 33.0338
#
#
#
# Elastic Compliance Matrix: (Units=1/GPa)
#
#
# Indices 1 2 3 4 5 6 
#
# 1 0.015316 -0.003911 -0.003154 0.000000 0.000000 0.000000
# 2 -0.003911 0.023852 -0.003721 0.000000 0.000000 0.000000
# 3 -0.003154 -0.003721 0.010286 0.000000 0.000000 0.000000
# 4 0.000000 0.000000 0.000000 0.042938 0.000000 0.000000
# 5 0.000000 0.000000 0.000000 0.000000 0.024961 0.000000
# 6 0.000000 0.000000 0.000000 0.000000 0.000000 0.030272
#
#
# Mechanical properties :
#
#
# Convention : Reuss Voigt Hill
#
# Bulk Modulus (GPa) = 35.86700 41.81703 38.84202
# Shear Modulus (GPa) = 28.01267 30.56648 29.28958
#
# Velocity S-wave (km/s) = 3.55180 3.71018 3.63185
# Velocity P-wave (km/s) = 5.74220 6.09802 5.92278
#
# Compressibility (1/GPa) = 0.02788078
#
# Stress axis : x y z
#
# Youngs Moduli (GPa) = 65.29012 41.92571 97.22371
#
# Poissons Ratio (x) = 0.16397 0.30667
# Poissons Ratio (y) = 0.25534 0.36179
# Poissons Ratio (z) = 0.20594 0.15602
#
# Static dielectric constant tensor:
#      x y z
#    x 4.260980 0.000000 0.000000 
#    y 0.000000 3.506950 0.000000 
#    z 0.000000 0.000000 4.372510 
# 
# 
# High freq. dielectric constant tensor:
#      x y z
#    x 1.898650 0.000000 0.000000 
#    y 0.000000 1.822060 0.000000 
#    z 0.000000 0.000000 1.888190 
# 
# From -- ./inp_files/27917.got.cif
#   From: 2010.06.25/outbox.cif.g09.slc.cpg/sg48_14_cif.got.tgz:27917.got - 2010.06.26 18:06:46.
