data_PCOD8201208
_publ_section_title
;
Structure prediction by ZEFSAII (Michael W. Deem and Ramdas Pophale) SiO2 
 PCOD8201208
Probable space group: P M M M
;
_chemical_formula_sum "Si O2"
_cell_formula_units_Z 40
_cell_length_a 9.368026
_cell_length_b 7.972462
_cell_length_c 27.752982
_cell_angle_alpha 90.000000
_cell_angle_beta 90.000000
_cell_angle_gamma 90.000000
_cell_volume 2072.765633
_symmetry_space_group_name_H-M "P M M M"
_symmetry_group_IT_number 47
_symmetry_cell_setting 'orthorhombic'
loop_
_space_group_symop_operation_xyz
x,y,z
-x,-y,z
x,-y,-z
-x,y,-z
-x,-y,-z
x,y,-z
-x,y,z
x,-y,z
loop_
_atom_site_type_symbol
_atom_site_label
_atom_site_fract_x
_atom_site_fract_y
_atom_site_fract_z
Si Si1 0.330461 0.813880 0.115174
Si Si2 0.340407 0.304363 0.398670
Si Si3 0.670484 0.500000 0.945444
Si Si4 0.336801 0.302086 0.781638
Si Si5 0.335668 0.195582 0.500000
Si Si6 0.839432 0.299922 0.690058
O O1 0.500000 0.802023 0.114134
O O2 0.268724 0.668220 0.080385
O O3 0.278531 0.784296 0.169823
O O4 0.279753 0.000000 0.098160
O O5 0.500000 0.223687 0.396115
O O6 0.352892 0.500000 0.389714
O O7 0.267576 0.269325 0.450877
O O8 0.241633 0.226157 0.356862
O O9 0.500000 0.500000 0.943750
O O10 0.727120 0.500000 0.000000
O O11 0.500000 0.251135 0.770771
O O12 0.323539 0.500000 0.788814
O O13 0.241151 0.235615 0.737687
O O14 0.500000 0.251418 0.500000
O O15 0.312099 0.000000 0.500000
O O16 0.840097 0.500000 0.688791
O O17 0.000000 0.228772 0.690276
#
# Coordination Sequence:
#
# PCOD8201208 Si02
#       6
#     8   8   4   8   4   8
#     4   9  16  26  41  63  91 124 163 202 239 285
#     4   9  16  28  47  69  90 115 150 188 227 274
#     4   9  16  26  40  62  95 131 163 198 243 290
#     4   9  15  26  45  65  88 121 157 192 232 279
#     4   9  17  29  46  67  88 112 146 189 230 268
#     4   9  17  28  44  68  94 118 149 190 234 280
#
# _framework density 19.297889000000001
#
# number of rings (size 3 to 8) (size 9 to 14) (size 15 to 20)
#    0.000    3.000    1.000    0.900    0.000    4.000 
#    0.000    3.500    0.000   10.200    0.000    0.000 
#    0.000    1.600    0.000    1.800    0.000    2.000 
#
# Total GULP energy -495776.443489 kJ/mol
# GULP energy per Si atom -12394.411087 kJ/mol
# Density = 1.925397 g / cm^3
# Si number density = 19.297889 Si / 1000 Ang^3
#
#
#
# Elastic Constant Matrix: (Units=GPa)
#
#
# Indices 1 2 3 4 5 6 
#
# 1 65.9363 17.3540 56.8677 0.0000 0.0000 0.0000
# 2 17.3540 69.9750 60.6346 0.0000 0.0000 0.0000
# 3 56.8677 60.6346 186.2729 0.0000 0.0000 0.0000
# 4 0.0000 0.0000 0.0000 8.2975 0.0000 0.0000
# 5 0.0000 0.0000 0.0000 0.0000 3.9272 0.0000
# 6 0.0000 0.0000 0.0000 0.0000 0.0000 4.8936
#
#
#
# Elastic Compliance Matrix: (Units=1/GPa)
#
#
# Indices 1 2 3 4 5 6 
#
# 1 0.020598 0.000474 -0.006443 0.000000 0.000000 0.000000
# 2 0.000474 0.019916 -0.006628 0.000000 0.000000 0.000000
# 3 -0.006443 -0.006628 0.009493 0.000000 0.000000 0.000000
# 4 0.000000 0.000000 0.000000 0.120518 0.000000 0.000000
# 5 0.000000 0.000000 0.000000 0.000000 0.254637 0.000000
# 6 0.000000 0.000000 0.000000 0.000000 0.000000 0.204349
#
#
# Mechanical properties :
#
#
# Convention : Reuss Voigt Hill
#
# Bulk Modulus (GPa) = 40.29875 65.76634 53.03254
# Shear Modulus (GPa) = 7.54176 15.91218 11.72697
#
# Velocity S-wave (km/s) = 1.97903 2.87462 2.46779
# Velocity P-wave (km/s) = 5.11370 6.72097 5.97166
#
# Compressibility (1/GPa) = 0.02481467
#
# Stress axis : x y z
#
# Youngs Moduli (GPa) = 48.54837 50.20995 105.34166
#
# Poissons Ratio (x) = -0.02382 0.67870
# Poissons Ratio (y) = -0.02304 0.69820
# Poissons Ratio (z) = 0.31279 0.33279
#
# Static dielectric constant tensor:
#      x y z
#    x 3.166850 0.000000 0.000000 
#    y 0.000000 3.326530 0.000000 
#    z 0.000000 0.000000 3.769020 
# 
# 
# High freq. dielectric constant tensor:
#      x y z
#    x 1.687240 0.000000 0.000000 
#    y 0.000000 1.733420 0.000000 
#    z 0.000000 0.000000 1.762840 
# 
# From -- ./inp_files/33091.got.cif
#   From: 2010.03.12/outbox.cif.g09.slc.cpg/sg47_17_cif.got.tgz:33091.got - 2010.04.14 03:12:58.
