data_PCOD8201575
_publ_section_title
;
Structure prediction by ZEFSAII (Michael W. Deem and Ramdas Pophale) SiO2 
 PCOD8201575
Probable space group: P N N N
;
_chemical_formula_sum "Si O2"
_cell_formula_units_Z 64
_cell_length_a 19.076440
_cell_length_b 13.734153
_cell_length_c 11.685954
_cell_angle_alpha 90.000000
_cell_angle_beta 90.000000
_cell_angle_gamma 90.000000
_cell_volume 3061.705290
_symmetry_space_group_name_H-M "P N N N"
_symmetry_group_IT_number 48
_space_group.IT_coordinate_system_code '2'
_symmetry_cell_setting 'orthorhombic'
loop_
_space_group_symop_operation_xyz
x,y,z
1/2-x,1/2-y,z
x,1/2-y,1/2-z
1/2-x,y,1/2-z
-x,-y,-z
1/2+x,1/2+y,-z
-x,1/2+y,1/2+z
1/2+x,-y,1/2+z
loop_
_atom_site_type_symbol
_atom_site_label
_atom_site_fract_x
_atom_site_fract_y
_atom_site_fract_z
Si Si1 0.381133 0.845330 0.031887
Si Si2 0.449757 0.900197 0.800398
Si Si3 0.106512 0.359734 0.226298
Si Si4 0.418806 0.852477 0.547933
Si Si5 0.015197 0.120183 0.680556
Si Si6 0.448742 0.194627 0.580612
Si Si7 0.783716 0.998801 0.627472
Si Si8 0.140676 0.447032 0.462970
O O1 0.438656 0.880347 0.123899
O O2 0.311222 0.900792 0.071360
O O3 0.400662 0.870690 0.903156
O O4 0.371332 0.728048 0.020019
O O5 0.527630 0.857713 0.821706
O O6 0.413614 0.856919 0.685928
O O7 0.450334 0.016039 0.806738
O O8 0.133901 0.250000 0.250000
O O9 0.157733 0.413893 0.136152
O O10 0.107412 0.421794 0.341339
O O11 0.500188 0.826087 0.526123
O O12 0.398450 0.955945 0.499174
O O13 0.065119 0.189972 0.601381
O O14 0.008447 0.159313 0.808805
O O15 0.376195 0.138511 0.555217
O O16 0.750000 0.024017 0.750000
O O17 0.724151 0.958242 0.542204
#
# Coordination Sequence:
#
# PCOD8201575 Si02
#       8
#     8   8   8   8   8   8   8   8
#     4  11  24  40  61  99 133 166 217 271 335 377
#     4  12  21  39  66  99 131 165 210 281 336 382
#     4  11  23  39  66  98 131 166 213 263 331 392
#     4  11  22  38  66  94 126 170 215 271 326 389
#     4  10  21  35  62  98 130 161 208 280 331 371
#     4  10  20  36  61  96 128 164 216 271 327 379
#     4  10  25  43  61  91 131 179 217 260 320 393
#     4  11  22  40  63  87 128 176 220 259 314 396
#
# _framework density 20.903383999999999
#
# number of rings (size 3 to 8) (size 9 to 14) (size 15 to 20)
#    0.000    1.250    3.750    2.625    3.500    2.750 
#    0.000    2.500    0.000    1.500    0.000    0.000 
#    0.000    0.000    0.000    0.000    0.000    0.000 
#
# Total GULP energy -793321.819063 kJ/mol
# GULP energy per Si atom -12395.653423 kJ/mol
# Density = 2.085581 g / cm^3
# Si number density = 20.903384 Si / 1000 Ang^3
#
#
#
# Elastic Constant Matrix: (Units=GPa)
#
#
# Indices 1 2 3 4 5 6 
#
# 1 84.1657 45.3624 35.8449 0.0000 0.0000 0.0000
# 2 45.3624 110.3260 22.9203 0.0000 0.0000 0.0000
# 3 35.8449 22.9203 101.6259 0.0000 0.0000 0.0000
# 4 0.0000 0.0000 0.0000 36.2281 0.0000 0.0000
# 5 0.0000 0.0000 0.0000 0.0000 23.8159 0.0000
# 6 0.0000 0.0000 0.0000 0.0000 0.0000 27.1289
#
#
#
# Elastic Compliance Matrix: (Units=1/GPa)
#
#
# Indices 1 2 3 4 5 6 
#
# 1 0.017150 -0.006080 -0.004678 0.000000 0.000000 0.000000
# 2 -0.006080 0.011665 -0.000486 0.000000 0.000000 0.000000
# 3 -0.004678 -0.000486 0.011600 0.000000 0.000000 0.000000
# 4 0.000000 0.000000 0.000000 0.027603 0.000000 0.000000
# 5 0.000000 0.000000 0.000000 0.000000 0.041989 0.000000
# 6 0.000000 0.000000 0.000000 0.000000 0.000000 0.036861
#
#
# Mechanical properties :
#
#
# Convention : Reuss Voigt Hill
#
# Bulk Modulus (GPa) = 55.78303 56.04142 55.91222
# Shear Modulus (GPa) = 28.51739 30.23394 29.37567
#
# Velocity S-wave (km/s) = 3.69758 3.80724 3.75281
# Velocity P-wave (km/s) = 6.70623 6.79667 6.75160
#
# Compressibility (1/GPa) = 0.01792660
#
# Stress axis : x y z
#
# Youngs Moduli (GPa) = 58.30767 85.72713 86.20914
#
# Poissons Ratio (x) = 0.52121 0.40328
# Poissons Ratio (y) = 0.35450 0.04193
# Poissons Ratio (z) = 0.27276 0.04170
#
# Static dielectric constant tensor:
#      x y z
#    x 3.509860 0.000000 0.000000 
#    y 0.000000 5.099310 0.000000 
#    z 0.000000 0.000000 3.888170 
# 
# 
# High freq. dielectric constant tensor:
#      x y z
#    x 1.774260 0.000000 0.000000 
#    y 0.000000 1.843490 0.000000 
#    z 0.000000 0.000000 1.826070 
# 
# From -- ./inp_files/22341.got.cif
#   From: 2010.06.25/outbox.cif.g09.slc.cpg/sg48_12_cif.got.tgz:22341.got - 2010.06.26 18:06:46.
