data_PCOD8201815
_publ_section_title
;
Structure prediction by ZEFSAII (Michael W. Deem and Ramdas Pophale) SiO2 
 PCOD8201815
Probable space group: P N N N
;
_chemical_formula_sum "Si O2"
_cell_formula_units_Z 56
_cell_length_a 16.438724
_cell_length_b 5.366631
_cell_length_c 29.785848
_cell_angle_alpha 90.000000
_cell_angle_beta 90.000000
_cell_angle_gamma 90.000000
_cell_volume 2627.724364
_symmetry_space_group_name_H-M "P N N N"
_symmetry_group_IT_number 48
_space_group.IT_coordinate_system_code '2'
_symmetry_cell_setting 'orthorhombic'
loop_
_space_group_symop_operation_xyz
x,y,z
1/2-x,1/2-y,z
x,1/2-y,1/2-z
1/2-x,y,1/2-z
-x,-y,-z
1/2+x,1/2+y,-z
-x,1/2+y,1/2+z
1/2+x,-y,1/2+z
loop_
_atom_site_type_symbol
_atom_site_label
_atom_site_fract_x
_atom_site_fract_y
_atom_site_fract_z
Si Si1 0.661988 0.301548 0.686328
Si Si2 0.974215 0.434172 0.385659
Si Si3 0.702967 0.008951 0.408257
Si Si4 0.538551 0.836963 0.962328
Si Si5 0.318237 0.454162 0.009625
Si Si6 0.372394 0.766349 0.087521
Si Si7 0.935665 0.696001 0.701914
O O1 0.750000 0.250000 0.708652
O O2 0.676185 0.286225 0.633262
O O3 0.629402 0.579674 0.696532
O O4 0.604415 0.079267 0.704307
O O5 0.882440 0.536545 0.382034
O O6 0.969133 0.240503 0.427104
O O7 0.041315 0.633017 0.401346
O O8 0.999237 0.301308 0.338687
O O9 0.750000 0.250000 0.387443
O O10 0.750000 0.750000 0.401288
O O11 0.692293 0.075167 0.460861
O O12 0.586841 0.625989 0.989402
O O13 0.608283 0.965213 0.932509
O O14 0.500000 0.000000 0.000000
O O15 0.250000 0.250000 0.017760
O O16 0.312116 0.642472 0.051241
O O17 0.979397 0.750000 0.750000
#
# Coordination Sequence:
#
# PCOD8201815 Si02
#       7
#     8   8   8   8   8   8   8
#     4  11  24  39  63  93 135 167 209 261 312 369
#     4  10  23  42  61  90 123 159 212 260 313 380
#     4  11  26  41  62  91 125 163 206 259 320 375
#     4  11  21  35  61  83 121 167 212 259 300 358
#     4  10  24  35  53  87 126 172 216 259 304 360
#     4  10  22  36  58  85 121 172 214 255 303 364
#     4  11  24  44  67  95 121 165 213 260 320 378
#
# _framework density 21.311218
#
# number of rings (size 3 to 8) (size 9 to 14) (size 15 to 20)
#    0.000    1.429    1.429    2.571   12.000    4.000 
#    0.000    0.000    0.000    0.429    0.000    1.000 
#    0.000    0.000    0.000    0.000    0.000    0.000 
#
# Total GULP energy -693841.206476 kJ/mol
# GULP energy per Si atom -12390.021544 kJ/mol
# Density = 2.126271 g / cm^3
# Si number density = 21.311218 Si / 1000 Ang^3
#
#
#
# Elastic Constant Matrix: (Units=GPa)
#
#
# Indices 1 2 3 4 5 6 
#
# 1 109.7241 23.2044 34.0249 0.0000 0.0000 0.0000
# 2 23.2044 90.9270 14.9726 0.0000 0.0000 0.0000
# 3 34.0249 14.9726 85.5484 0.0000 0.0000 0.0000
# 4 0.0000 0.0000 0.0000 23.2086 0.0000 0.0000
# 5 0.0000 0.0000 0.0000 0.0000 -0.6640 0.0000
# 6 0.0000 0.0000 0.0000 0.0000 0.0000 29.7775
#
#
#
# Elastic Compliance Matrix: (Units=1/GPa)
#
#
# Indices 1 2 3 4 5 6 
#
# 1 0.010773 -0.002104 -0.003917 0.000000 0.000000 0.000000
# 2 -0.002104 0.011735 -0.001217 0.000000 0.000000 0.000000
# 3 -0.003917 -0.001217 0.013460 0.000000 0.000000 0.000000
# 4 0.000000 0.000000 0.000000 0.043087 0.000000 0.000000
# 5 0.000000 0.000000 0.000000 0.000000 -1.506126 0.000000
# 6 0.000000 0.000000 0.000000 0.000000 0.000000 0.033582
#
#
# Mechanical properties :
#
#
# Convention : Reuss Voigt Hill
#
# Bulk Modulus (GPa) = 46.52711 47.84483 47.18597
# Shear Modulus (GPa) = -3.64472 24.73093 10.54311
#
# Velocity S-wave (km/s) = -1.30918 3.41026 2.22665
# Velocity P-wave (km/s) = 4.42655 6.16488 5.36657
#
# Compressibility (1/GPa) = 0.02149284
#
# Stress axis : x y z
#
# Youngs Moduli (GPa) = 92.82199 85.21332 74.29429
#
# Poissons Ratio (x) = 0.17932 0.29098
# Poissons Ratio (y) = 0.19534 0.09041
# Poissons Ratio (z) = 0.36354 0.10370
#
# Static dielectric constant tensor:
#      x y z
#    x 3.735320 0.000000 0.000000 
#    y 0.000000 4.034650 0.000000 
#    z 0.000000 0.000000 3.978890 
# 
# 
# High freq. dielectric constant tensor:
#      x y z
#    x 1.825360 0.000000 0.000000 
#    y 0.000000 1.841530 0.000000 
#    z 0.000000 0.000000 1.827410 
# 
# From -- ./inp_files/3708.got.cif
#   From: 2010.06.25/outbox.cif.g09.slc.cpg/sg48_2_cif.got.tgz:3708.got - 2010.06.26 18:06:46.
