data_PCOD8201412
_publ_section_title
;
Structure prediction by ZEFSAII (Michael W. Deem and Ramdas Pophale) SiO2 
 PCOD8201412
Probable space group: P N N N
;
_chemical_formula_sum "Si O2"
_cell_formula_units_Z 64
_cell_length_a 17.576604
_cell_length_b 18.549787
_cell_length_c 9.349277
_cell_angle_alpha 90.000000
_cell_angle_beta 90.000000
_cell_angle_gamma 90.000000
_cell_volume 3048.259406
_symmetry_space_group_name_H-M "P N N N"
_symmetry_group_IT_number 48
_space_group.IT_coordinate_system_code '2'
_symmetry_cell_setting 'orthorhombic'
loop_
_space_group_symop_operation_xyz
x,y,z
1/2-x,1/2-y,z
x,1/2-y,1/2-z
1/2-x,y,1/2-z
-x,-y,-z
1/2+x,1/2+y,-z
-x,1/2+y,1/2+z
1/2+x,-y,1/2+z
loop_
_atom_site_type_symbol
_atom_site_label
_atom_site_fract_x
_atom_site_fract_y
_atom_site_fract_z
Si Si1 0.066875 0.525202 0.661712
Si Si2 0.228609 0.126344 0.906604
Si Si3 0.089069 0.926198 0.418133
Si Si4 0.921160 0.704270 0.393753
Si Si5 0.658597 0.702884 0.614861
Si Si6 0.800545 0.473607 0.130864
Si Si7 0.048619 0.900739 0.110922
Si Si8 0.039007 0.086441 0.379307
O O1 0.128844 0.497405 0.774747
O O2 0.022038 0.454371 0.620168
O O3 0.099151 0.570392 0.523486
O O4 0.010048 0.581770 0.735859
O O5 0.250000 0.154584 0.750000
O O6 0.137741 0.136831 0.912758
O O7 0.253674 0.042794 0.930082
O O8 0.266535 0.178861 0.025501
O O9 0.169181 0.919342 0.506682
O O10 0.099653 0.899370 0.255341
O O11 0.017627 0.884795 0.493166
O O12 0.072539 0.010572 0.428769
O O13 0.909076 0.750000 0.250000
O O14 0.905147 0.757107 0.523588
O O15 0.008558 0.676959 0.407746
O O16 0.685264 0.750000 0.750000
O O17 0.612419 0.632512 0.662273
O O18 0.750000 0.430839 0.250000
#
# Coordination Sequence:
#
# PCOD8201412 Si02
#       8
#     8   8   8   8   8   8   8   8
#     4   9  19  34  56  77 104 141 187 250 297 329
#     4  11  22  37  54  73 112 163 208 221 259 332
#     4   9  17  31  58  76 101 139 192 242 287 339
#     4  12  24  36  56  80 117 165 197 226 270 345
#     4  12  24  36  53  78 116 154 203 242 279 323
#     4  10  19  34  59  80 106 142 190 230 283 342
#     4  10  19  34  53  79 108 140 191 245 296 324
#     4   9  17  33  53  77 100 144 192 239 289 324
#
# _framework density 20.995587
#
# number of rings (size 3 to 8) (size 9 to 14) (size 15 to 20)
#    0.000    1.750    2.500    4.125    0.000    1.000 
#    0.000    0.625    5.500    0.000    0.000    0.000 
#    0.000   55.000    0.000    0.000    0.000    0.000 
#
# Total GULP energy -792849.015089 kJ/mol
# GULP energy per Si atom -12388.265861 kJ/mol
# Density = 2.094780 g / cm^3
# Si number density = 20.995587 Si / 1000 Ang^3
#
#
#
# Elastic Constant Matrix: (Units=GPa)
#
#
# Indices 1 2 3 4 5 6 
#
# 1 49.0898 20.6722 14.2489 0.0000 0.0000 0.0000
# 2 20.6722 36.2820 12.5971 0.0000 0.0000 0.0000
# 3 14.2489 12.5971 113.7015 0.0000 0.0000 0.0000
# 4 0.0000 0.0000 0.0000 21.9109 0.0000 0.0000
# 5 0.0000 0.0000 0.0000 0.0000 14.6374 0.0000
# 6 0.0000 0.0000 0.0000 0.0000 0.0000 20.4660
#
#
#
# Elastic Compliance Matrix: (Units=1/GPa)
#
#
# Indices 1 2 3 4 5 6 
#
# 1 0.027134 -0.014851 -0.001755 0.000000 0.000000 0.000000
# 2 -0.014851 0.036792 -0.002215 0.000000 0.000000 0.000000
# 3 -0.001755 -0.002215 0.009260 0.000000 0.000000 0.000000
# 4 0.000000 0.000000 0.000000 0.045639 0.000000 0.000000
# 5 0.000000 0.000000 0.000000 0.000000 0.068318 0.000000
# 6 0.000000 0.000000 0.000000 0.000000 0.000000 0.048862
#
#
# Mechanical properties :
#
#
# Convention : Reuss Voigt Hill
#
# Bulk Modulus (GPa) = 28.13346 32.67887 30.40616
# Shear Modulus (GPa) = 17.51339 21.50653 19.50996
#
# Velocity S-wave (km/s) = 2.89129 3.20400 3.05165
# Velocity P-wave (km/s) = 4.95731 5.41164 5.18945
#
# Compressibility (1/GPa) = 0.03554486
#
# Stress axis : x y z
#
# Youngs Moduli (GPa) = 36.85407 27.17953 107.98752
#
# Poissons Ratio (x) = 0.40363 0.18953
# Poissons Ratio (y) = 0.54731 0.23921
# Poissons Ratio (z) = 0.06468 0.06021
#
# Static dielectric constant tensor:
#      x y z
#    x 3.867490 0.000000 0.000000 
#    y 0.000000 3.801140 0.000000 
#    z 0.000000 0.000000 4.197540 
# 
# 
# High freq. dielectric constant tensor:
#      x y z
#    x 1.800550 0.000000 0.000000 
#    y 0.000000 1.773760 0.000000 
#    z 0.000000 0.000000 1.838080 
# 
# From -- ./inp_files/14561.got.cif
#   From: 2010.06.25/outbox.cif.g09.slc.cpg/sg48_8_cif.got.tgz:14561.got - 2010.06.26 18:06:46.
