data_PCOD8201265
_publ_section_title
;
Structure prediction by ZEFSAII (Michael W. Deem and Ramdas Pophale) SiO2 
 PCOD8201265
Probable space group: P N N N
;
_chemical_formula_sum "Si O2"
_cell_formula_units_Z 50
_cell_length_a 15.125760
_cell_length_b 17.651650
_cell_length_c 8.930464
_cell_angle_alpha 90.000000
_cell_angle_beta 90.000000
_cell_angle_gamma 90.000000
_cell_volume 2384.385856
_symmetry_space_group_name_H-M "P N N N"
_symmetry_group_IT_number 48
_space_group.IT_coordinate_system_code '2'
_symmetry_cell_setting 'orthorhombic'
loop_
_space_group_symop_operation_xyz
x,y,z
1/2-x,1/2-y,z
x,1/2-y,1/2-z
1/2-x,y,1/2-z
-x,-y,-z
1/2+x,1/2+y,-z
-x,1/2+y,1/2+z
1/2+x,-y,1/2+z
loop_
_atom_site_type_symbol
_atom_site_label
_atom_site_fract_x
_atom_site_fract_y
_atom_site_fract_z
Si Si1 0.124073 0.131985 0.621192
Si Si2 0.750000 0.073212 0.750000
Si Si3 0.339555 0.791516 0.101498
Si Si4 0.750000 0.989207 0.250000
Si Si5 0.012174 0.226615 0.422276
Si Si6 0.750000 0.750000 0.250000
Si Si7 0.027328 0.379774 0.578555
Si Si8 0.133701 0.524461 0.494633
O O1 0.188610 0.058970 0.632830
O O2 0.072439 0.152066 0.465006
O O3 0.188728 0.201632 0.643091
O O4 0.046299 0.123564 0.744593
O O5 0.684847 0.123076 0.853634
O O6 0.697520 0.015993 0.645323
O O7 0.250000 0.750000 0.046754
O O8 0.378877 0.750000 0.250000
O O9 0.411047 0.790666 0.968985
O O10 0.686493 0.041279 0.351122
O O11 0.017125 0.250000 0.250000
O O12 0.050233 0.298046 0.513242
O O13 0.086746 0.443812 0.501822
O O14 0.927075 0.402425 0.538800
#
# Coordination Sequence:
#
# PCOD8201265 Si02
#       8
#     8   4   8   4   8   2   8   8
#     4  10  19  37  61  81 110 150 197 233 282 346
#     4  10  19  34  58  84 111 148 192 236 282 332
#     4   9  19  37  60  83 110 152 198 234 279 346
#     4   9  22  37  58  84 111 156 201 234 286 347
#     4  12  23  34  56  90 119 145 179 246 303 331
#     4  10  16  32  66  80  98 148 188 232 262 342
#     4  10  20  39  58  80 111 155 195 227 278 354
#     4  10  21  36  59  81 112 152 193 236 279 339
#
# _framework density 20.969760000000001
#
# number of rings (size 3 to 8) (size 9 to 14) (size 15 to 20)
#    0.000    2.080    1.600    3.840    0.000    2.880 
#    0.000    0.400    0.000    7.680    0.000    0.000 
#    0.000    0.000    0.000    0.000    0.000    0.000 
#
# Total GULP energy -619593.646482 kJ/mol
# GULP energy per Si atom -12391.872930 kJ/mol
# Density = 2.092203 g / cm^3
# Si number density = 20.969760 Si / 1000 Ang^3
#
#
#
# Elastic Constant Matrix: (Units=GPa)
#
#
# Indices 1 2 3 4 5 6 
#
# 1 107.8553 18.7372 59.6260 0.0000 0.0000 0.0000
# 2 18.7372 46.2140 23.3814 0.0000 0.0000 0.0000
# 3 59.6260 23.3814 113.1827 0.0000 0.0000 0.0000
# 4 0.0000 0.0000 0.0000 19.5717 0.0000 0.0000
# 5 0.0000 0.0000 0.0000 0.0000 28.1529 0.0000
# 6 0.0000 0.0000 0.0000 0.0000 0.0000 14.1887
#
#
#
# Elastic Compliance Matrix: (Units=1/GPa)
#
#
# Indices 1 2 3 4 5 6 
#
# 1 0.013254 -0.002056 -0.006558 0.000000 0.000000 0.000000
# 2 -0.002056 0.024483 -0.003975 0.000000 0.000000 0.000000
# 3 -0.006558 -0.003975 0.013111 0.000000 0.000000 0.000000
# 4 0.000000 0.000000 0.000000 0.051094 0.000000 0.000000
# 5 0.000000 0.000000 0.000000 0.000000 0.035520 0.000000
# 6 0.000000 0.000000 0.000000 0.000000 0.000000 0.070479
#
#
# Mechanical properties :
#
#
# Convention : Reuss Voigt Hill
#
# Bulk Modulus (GPa) = 38.95367 52.30458 45.62912
# Shear Modulus (GPa) = 20.68893 23.41650 22.05271
#
# Velocity S-wave (km/s) = 3.14444 3.34530 3.24642
# Velocity P-wave (km/s) = 5.63913 6.31810 5.98825
#
# Compressibility (1/GPa) = 0.02567152
#
# Stress axis : x y z
#
# Youngs Moduli (GPa) = 75.44775 40.84474 76.27162
#
# Poissons Ratio (x) = 0.08398 0.50017
# Poissons Ratio (y) = 0.15512 0.30315
# Poissons Ratio (z) = 0.49477 0.16234
#
# Static dielectric constant tensor:
#      x y z
#    x 4.112330 0.000000 0.000000 
#    y 0.000000 3.742380 0.000000 
#    z 0.000000 0.000000 3.517740 
# 
# 
# High freq. dielectric constant tensor:
#      x y z
#    x 1.837950 0.000000 0.000000 
#    y 0.000000 1.810140 0.000000 
#    z 0.000000 0.000000 1.792130 
# 
# From -- ./inp_files/12867.got.cif
#   From: 2010.06.25/outbox.cif.g09.slc.cpg/sg48_7_cif.got.tgz:12867.got - 2010.06.26 18:06:46.
