data_PCOD8201084
_publ_section_title
;
Structure prediction by ZEFSAII (Michael W. Deem and Ramdas Pophale) SiO2 
 PCOD8201084
Probable space group: P M M M
;
_chemical_formula_sum "Si O2"
_cell_formula_units_Z 52
_cell_length_a 15.321336
_cell_length_b 22.207194
_cell_length_c 9.629647
_cell_angle_alpha 90.000000
_cell_angle_beta 90.000000
_cell_angle_gamma 90.000000
_cell_volume 3276.428467
_symmetry_space_group_name_H-M "P M M M"
_symmetry_group_IT_number 47
_symmetry_cell_setting 'orthorhombic'
loop_
_space_group_symop_operation_xyz
x,y,z
-x,-y,z
x,-y,-z
-x,y,-z
-x,-y,-z
x,y,-z
-x,y,z
x,-y,z
loop_
_atom_site_type_symbol
_atom_site_label
_atom_site_fract_x
_atom_site_fract_y
_atom_site_fract_z
Si Si1 0.096240 0.345266 0.155619
Si Si2 0.396473 0.000000 0.842542
Si Si3 0.403219 0.432783 0.664942
Si Si4 0.745551 0.345175 0.336897
Si Si5 0.096212 0.797760 0.156177
Si Si6 0.600649 0.888252 0.339986
Si Si7 0.745882 0.206698 0.659990
O O1 0.167480 0.370376 0.262860
O O2 0.095357 0.273714 0.162102
O O3 0.000000 0.369604 0.197328
O O4 0.119960 0.366679 0.000000
O O5 0.364297 0.941257 0.759370
O O6 0.500000 0.000000 0.845279
O O7 0.358903 0.000000 0.000000
O O8 0.404281 0.430159 0.500000
O O9 0.500000 0.416870 0.721504
O O10 0.376380 0.500000 0.714066
O O11 0.335068 0.383929 0.722704
O O12 0.758761 0.354366 0.500000
O O13 0.727304 0.275741 0.298240
O O14 0.172871 0.822003 0.255743
O O15 0.000000 0.821438 0.203654
O O16 0.115633 0.820144 0.000000
O O17 0.611566 0.908827 0.500000
O O18 0.500000 0.871976 0.308387
O O19 0.657647 0.829414 0.306776
O O20 0.772448 0.201731 0.500000
#
# Coordination Sequence:
#
# PCOD8201084 Si02
#       7
#     8   4   8   8   8   8   8
#     4   8  14  25  40  57  79 108 137 163 199 250
#     4   9  17  29  45  63  80 103 142 183 207 228
#     4   8  14  25  41  60  81 107 140 175 209 245
#     4   9  16  25  40  63  86 106 134 174 211 241
#     4   8  14  25  40  57  79 109 141 169 200 242
#     4   9  17  29  43  59  84 116 142 164 198 246
#     4   9  17  26  38  62  90 111 134 167 208 248
#
# _framework density 15.870939999999999
#
# number of rings (size 3 to 8) (size 9 to 14) (size 15 to 20)
#    0.000    3.462    0.000    1.615    0.000    2.769 
#    0.000    6.154    0.000    1.385    0.000    9.154 
#    0.000    4.308    0.000    0.000    0.000    0.000 
#
# Total GULP energy -644438.405139 kJ/mol
# GULP energy per Si atom -12393.046253 kJ/mol
# Density = 1.583482 g / cm^3
# Si number density = 15.870940 Si / 1000 Ang^3
#
#
#
# Elastic Constant Matrix: (Units=GPa)
#
#
# Indices 1 2 3 4 5 6 
#
# 1 126.6743 56.8231 56.3485 0.0000 0.0000 0.0000
# 2 56.8231 62.7336 36.4925 0.0000 0.0000 0.0000
# 3 56.3485 36.4925 61.4594 0.0000 0.0000 0.0000
# 4 0.0000 0.0000 0.0000 10.3655 0.0000 0.0000
# 5 0.0000 0.0000 0.0000 0.0000 19.2070 0.0000
# 6 0.0000 0.0000 0.0000 0.0000 0.0000 5.0285
#
#
#
# Elastic Compliance Matrix: (Units=1/GPa)
#
#
# Indices 1 2 3 4 5 6 
#
# 1 0.016203 -0.009219 -0.009382 0.000000 0.000000 0.000000
# 2 -0.009219 0.029597 -0.009121 0.000000 0.000000 0.000000
# 3 -0.009382 -0.009121 0.030288 0.000000 0.000000 0.000000
# 4 0.000000 0.000000 0.000000 0.096474 0.000000 0.000000
# 5 0.000000 0.000000 0.000000 0.000000 0.052064 0.000000
# 6 0.000000 0.000000 0.000000 0.000000 0.000000 0.198865
#
#
# Mechanical properties :
#
#
# Convention : Reuss Voigt Hill
#
# Bulk Modulus (GPa) = 48.43953 61.13283 54.78618
# Shear Modulus (GPa) = 10.29197 13.66710 11.97954
#
# Velocity S-wave (km/s) = 2.54929 2.93770 2.75036
# Velocity P-wave (km/s) = 6.26517 7.07878 6.68436
#
# Compressibility (1/GPa) = 0.02064430
#
# Stress axis : x y z
#
# Youngs Moduli (GPa) = 61.71749 33.78761 33.01631
#
# Poissons Ratio (x) = 0.31149 0.30974
# Poissons Ratio (y) = 0.56897 0.30115
# Poissons Ratio (z) = 0.57900 0.30818
#
# Static dielectric constant tensor:
#      x y z
#    x 3.328770 0.000000 0.000000 
#    y 0.000000 2.786990 0.000000 
#    z 0.000000 0.000000 3.005630 
# 
# 
# High freq. dielectric constant tensor:
#      x y z
#    x 1.610250 0.000000 0.000000 
#    y 0.000000 1.571790 0.000000 
#    z 0.000000 0.000000 1.594990 
# 
# From -- ./inp_files/7623.got.cif
#   From: 2010.03.12/outbox.cif.g09.slc.cpg/sg47_4_cif.got.tgz:7623.got - 2010.04.14 03:12:58.
