data_PCOD8201842
_publ_section_title
;
Structure prediction by ZEFSAII (Michael W. Deem and Ramdas Pophale) SiO2 
 PCOD8201842
Probable space group: P N N N
;
_chemical_formula_sum "Si O2"
_cell_formula_units_Z 40
_cell_length_a 27.635620
_cell_length_b 12.798394
_cell_length_c 5.144078
_cell_angle_alpha 90.000000
_cell_angle_beta 90.000000
_cell_angle_gamma 90.000000
_cell_volume 1819.416938
_symmetry_space_group_name_H-M "P N N N"
_symmetry_group_IT_number 48
_space_group.IT_coordinate_system_code '2'
_symmetry_cell_setting 'orthorhombic'
loop_
_space_group_symop_operation_xyz
x,y,z
1/2-x,1/2-y,z
x,1/2-y,1/2-z
1/2-x,y,1/2-z
-x,-y,-z
1/2+x,1/2+y,-z
-x,1/2+y,1/2+z
1/2+x,-y,1/2+z
loop_
_atom_site_type_symbol
_atom_site_label
_atom_site_fract_x
_atom_site_fract_y
_atom_site_fract_z
Si Si1 0.090973 0.440787 0.918327
Si Si2 0.651658 0.750000 0.250000
Si Si3 0.912241 0.250000 0.750000
Si Si4 0.494664 0.187445 0.989669
Si Si5 0.782558 0.584954 0.498097
Si Si6 0.371678 0.952293 0.423330
O O1 0.119368 0.330796 0.913012
O O2 0.034434 0.422100 0.994234
O O3 0.093067 0.499028 0.641079
O O4 0.115857 0.508964 0.137144
O O5 0.685024 0.811729 0.456973
O O6 0.878855 0.326536 0.577850
O O7 0.947394 0.322782 0.934582
O O8 0.470485 0.250000 0.750000
O O9 0.484689 0.250000 0.250000
O O10 0.750000 0.563224 0.250000
O O11 0.816181 0.482083 0.522303
O O12 0.750000 0.602043 0.750000
#
# Coordination Sequence:
#
# PCOD8201842 Si02
#       6
#     8   4   4   8   8   8
#     4  11  23  40  63 102 131 173 207 255 323 392
#     4  10  22  38  66  95 132 167 192 248 330 402
#     4  10  27  46  65  91 128 177 227 272 315 360
#     4  10  22  40  62  95 135 164 214 259 304 389
#     4  11  24  42  62  97 127 161 209 264 326 395
#     4  11  26  42  68  90 129 172 221 267 324 384
#
# _framework density 21.985064000000001
#
# number of rings (size 3 to 8) (size 9 to 14) (size 15 to 20)
#    0.600    0.800    1.000    3.900    5.600    8.000 
#    0.000    0.500    0.000    3.600    0.000    0.000 
#    0.000    0.000    0.000    0.000    0.000    0.000 
#
# Total GULP energy -495872.300310 kJ/mol
# GULP energy per Si atom -12396.807508 kJ/mol
# Density = 2.193503 g / cm^3
# Si number density = 21.985064 Si / 1000 Ang^3
#
#
#
# Elastic Constant Matrix: (Units=GPa)
#
#
# Indices 1 2 3 4 5 6 
#
# 1 110.6871 73.5156 40.6733 0.0000 0.0000 0.0000
# 2 73.5156 105.1109 33.8159 0.0000 0.0000 0.0000
# 3 40.6733 33.8159 132.4303 0.0000 0.0000 0.0000
# 4 0.0000 0.0000 0.0000 29.7821 0.0000 0.0000
# 5 0.0000 0.0000 0.0000 0.0000 36.3302 0.0000
# 6 0.0000 0.0000 0.0000 0.0000 0.0000 10.5651
#
#
#
# Elastic Compliance Matrix: (Units=1/GPa)
#
#
# Indices 1 2 3 4 5 6 
#
# 1 0.017579 -0.011503 -0.002462 0.000000 0.000000 0.000000
# 2 -0.011503 0.017892 -0.001036 0.000000 0.000000 0.000000
# 3 -0.002462 -0.001036 0.008572 0.000000 0.000000 0.000000
# 4 0.000000 0.000000 0.000000 0.033577 0.000000 0.000000
# 5 0.000000 0.000000 0.000000 0.000000 0.027525 0.000000
# 6 0.000000 0.000000 0.000000 0.000000 0.000000 0.094651
#
#
# Mechanical properties :
#
#
# Convention : Reuss Voigt Hill
#
# Bulk Modulus (GPa) = 71.21568 71.58200 71.39884
# Shear Modulus (GPa) = 21.32391 28.68371 25.00381
#
# Velocity S-wave (km/s) = 3.11774 3.61597 3.37606
# Velocity P-wave (km/s) = 6.73970 7.07557 6.90967
#
# Compressibility (1/GPa) = 0.01404185
#
# Stress axis : x y z
#
# Youngs Moduli (GPa) = 56.88569 55.88982 116.66240
#
# Poissons Ratio (x) = 0.64290 0.28720
# Poissons Ratio (y) = 0.65436 0.12085
# Poissons Ratio (z) = 0.14004 0.05789
#
# Static dielectric constant tensor:
#      x y z
#    x 4.118430 0.000000 0.000000 
#    y 0.000000 3.825250 0.000000 
#    z 0.000000 0.000000 3.869360 
# 
# 
# High freq. dielectric constant tensor:
#      x y z
#    x 1.863750 0.000000 0.000000 
#    y 0.000000 1.846390 0.000000 
#    z 0.000000 0.000000 1.874080 
# 
# From -- ./inp_files/6952.got.cif
#   From: 2010.06.25/outbox.cif.g09.slc.cpg/sg48_4_cif.got.tgz:6952.got - 2010.06.26 18:06:46.
