data_PCOD8201472
_publ_section_title
;
Structure prediction by ZEFSAII (Michael W. Deem and Ramdas Pophale) SiO2 
 PCOD8201472
Probable space group: P N N N
;
_chemical_formula_sum "Si O2"
_cell_formula_units_Z 64
_cell_length_a 30.561498
_cell_length_b 9.799864
_cell_length_c 10.874910
_cell_angle_alpha 90.000000
_cell_angle_beta 90.000000
_cell_angle_gamma 90.000000
_cell_volume 3257.019494
_symmetry_space_group_name_H-M "P N N N"
_symmetry_group_IT_number 48
_space_group.IT_coordinate_system_code '2'
_symmetry_cell_setting 'orthorhombic'
loop_
_space_group_symop_operation_xyz
x,y,z
1/2-x,1/2-y,z
x,1/2-y,1/2-z
1/2-x,y,1/2-z
-x,-y,-z
1/2+x,1/2+y,-z
-x,1/2+y,1/2+z
1/2+x,-y,1/2+z
loop_
_atom_site_type_symbol
_atom_site_label
_atom_site_fract_x
_atom_site_fract_y
_atom_site_fract_z
Si Si1 0.364614 0.488445 0.924774
Si Si2 0.392203 0.867235 0.343724
Si Si3 0.089805 0.392366 0.183420
Si Si4 0.063428 0.070813 0.743659
Si Si5 0.008796 0.640813 0.427580
Si Si6 0.005747 0.647797 0.859239
Si Si7 0.699731 0.589512 0.266272
Si Si8 0.367461 0.326613 0.561260
O O1 0.409673 0.509331 0.849713
O O2 0.323740 0.508602 0.832729
O O3 0.359912 0.332161 0.973330
O O4 0.363608 0.604665 0.031856
O O5 0.374971 0.750000 0.250000
O O6 0.442276 0.844356 0.379290
O O7 0.385871 0.005878 0.272100
O O8 0.091786 0.250000 0.250000
O O9 0.039292 0.433497 0.163833
O O10 0.115629 0.402409 0.057538
O O11 0.095904 0.171675 0.669644
O O12 0.024454 0.151968 0.813025
O O13 0.044168 0.964259 0.643196
O O14 0.000000 0.500000 0.500000
O O15 0.000585 0.771631 0.513411
O O16 0.016389 0.750000 0.750000
O O17 0.691530 0.750000 0.250000
O O18 0.750000 0.548916 0.250000
O O19 0.675387 0.580900 0.399142
#
# Coordination Sequence:
#
# PCOD8201472 Si02
#       8
#     8   8   8   8   8   8   8   8
#     4  10  19  38  57  83 120 154 184 243 300 348
#     4  12  25  37  53  81 118 163 204 244 294 342
#     4  11  21  39  56  77 114 159 203 241 286 348
#     4  11  21  35  54  80 111 151 203 246 289 346
#     4  12  21  39  52  71 115 158 205 256 295 333
#     4  11  21  33  52  73 107 158 202 248 290 330
#     4   8  16  33  62  97 121 140 175 235 304 356
#     4  10  21  34  59  88 115 152 192 236 298 354
#
# _framework density 19.649867
#
# number of rings (size 3 to 8) (size 9 to 14) (size 15 to 20)
#    0.000    1.375    5.000    2.625    1.750    2.500 
#    0.000    0.000    0.000    0.750    0.000    2.625 
#    0.000    0.000    0.000    0.000    0.000    0.000 
#
# Total GULP energy -792964.443933 kJ/mol
# GULP energy per Si atom -12390.069436 kJ/mol
# Density = 1.960514 g / cm^3
# Si number density = 19.649867 Si / 1000 Ang^3
#
#
#
# Elastic Constant Matrix: (Units=GPa)
#
#
# Indices 1 2 3 4 5 6 
#
# 1 101.6696 23.1703 36.9797 0.0000 0.0000 0.0000
# 2 23.1703 60.9514 26.9955 0.0000 0.0000 0.0000
# 3 36.9797 26.9955 91.7999 0.0000 0.0000 0.0000
# 4 0.0000 0.0000 0.0000 38.5675 0.0000 0.0000
# 5 0.0000 0.0000 0.0000 0.0000 15.0607 0.0000
# 6 0.0000 0.0000 0.0000 0.0000 0.0000 13.1773
#
#
#
# Elastic Compliance Matrix: (Units=1/GPa)
#
#
# Indices 1 2 3 4 5 6 
#
# 1 0.011916 -0.002764 -0.003987 0.000000 0.000000 0.000000
# 2 -0.002764 0.019504 -0.004622 0.000000 0.000000 0.000000
# 3 -0.003987 -0.004622 0.013859 0.000000 0.000000 0.000000
# 4 0.000000 0.000000 0.000000 0.025929 0.000000 0.000000
# 5 0.000000 0.000000 0.000000 0.000000 0.066398 0.000000
# 6 0.000000 0.000000 0.000000 0.000000 0.000000 0.075888
#
#
# Mechanical properties :
#
#
# Convention : Reuss Voigt Hill
#
# Bulk Modulus (GPa) = 44.38088 47.63466 46.00777
# Shear Modulus (GPa) = 20.51273 24.51281 22.51277
#
# Velocity S-wave (km/s) = 3.23447 3.53580 3.38848
# Velocity P-wave (km/s) = 6.04846 6.40027 6.22685
#
# Compressibility (1/GPa) = 0.02253223
#
# Stress axis : x y z
#
# Youngs Moduli (GPa) = 83.92124 51.27052 72.15655
#
# Poissons Ratio (x) = 0.14170 0.28771
# Poissons Ratio (y) = 0.23194 0.33353
# Poissons Ratio (z) = 0.33462 0.23699
#
# Static dielectric constant tensor:
#      x y z
#    x 3.392820 0.000000 0.000000 
#    y 0.000000 3.427590 0.000000 
#    z 0.000000 0.000000 3.911100 
# 
# 
# High freq. dielectric constant tensor:
#      x y z
#    x 1.722380 0.000000 0.000000 
#    y 0.000000 1.747610 0.000000 
#    z 0.000000 0.000000 1.779970 
# 
# From -- ./inp_files/23847.got.cif
#   From: 2010.06.25/outbox.cif.g09.slc.cpg/sg48_12_cif.got.tgz:23847.got - 2010.06.26 18:06:46.
