data_PCOD8201443
_publ_section_title
;
Structure prediction by ZEFSAII (Michael W. Deem and Ramdas Pophale) SiO2 
 PCOD8201443
Probable space group: P N N N
;
_chemical_formula_sum "Si O2"
_cell_formula_units_Z 64
_cell_length_a 31.763946
_cell_length_b 8.542582
_cell_length_c 11.545399
_cell_angle_alpha 90.000000
_cell_angle_beta 90.000000
_cell_angle_gamma 90.000000
_cell_volume 3132.799146
_symmetry_space_group_name_H-M "P N N N"
_symmetry_group_IT_number 48
_space_group.IT_coordinate_system_code '2'
_symmetry_cell_setting 'orthorhombic'
loop_
_space_group_symop_operation_xyz
x,y,z
1/2-x,1/2-y,z
x,1/2-y,1/2-z
1/2-x,y,1/2-z
-x,-y,-z
1/2+x,1/2+y,-z
-x,1/2+y,1/2+z
1/2+x,-y,1/2+z
loop_
_atom_site_type_symbol
_atom_site_label
_atom_site_fract_x
_atom_site_fract_y
_atom_site_fract_z
Si Si1 0.925843 0.057362 0.470125
Si Si2 0.464361 0.432346 0.749741
Si Si3 0.856382 0.568190 0.743463
Si Si4 0.441996 0.571827 0.269778
Si Si5 0.327414 0.461536 0.001971
Si Si6 0.396891 0.854653 0.637648
Si Si7 0.255603 0.434638 0.621119
Si Si8 0.340088 0.409548 0.498425
O O1 0.944987 0.027745 0.595326
O O2 0.915980 0.241609 0.459728
O O3 0.960447 0.001398 0.378874
O O4 0.883329 0.960050 0.440844
O O5 0.453525 0.250000 0.750000
O O6 0.512800 0.461701 0.789325
O O7 0.432985 0.519230 0.836035
O O8 0.847526 0.750000 0.750000
O O9 0.905646 0.536876 0.716268
O O10 0.831306 0.487441 0.637047
O O11 0.840755 0.509357 0.869784
O O12 0.428133 0.750000 0.250000
O O13 0.356990 0.555690 0.914018
O O14 0.280094 0.501789 0.963776
O O15 0.338291 0.277761 0.997743
O O16 0.384409 0.750000 0.750000
O O17 0.250000 0.250000 0.627360
O O18 0.250000 0.505897 0.750000
O O19 0.300968 0.481775 0.569444
#
# Coordination Sequence:
#
# PCOD8201443 Si02
#       8
#     8   8   8   8   8   8   8   8
#     4  10  20  36  56  77 111 142 180 225 276 324
#     4  10  21  36  54  79 107 143 185 225 273 325
#     4   9  19  34  56  83 111 144 184 228 274 327
#     4  10  20  36  56  79 105 145 185 224 269 328
#     4  10  19  36  56  80 113 146 183 228 277 324
#     4  10  22  35  53  81 109 146 180 225 280 326
#     4   9  19  32  54  85 110 143 182 225 272 326
#     4   9  19  35  57  83 109 146 187 225 274 330
#
# _framework density 20.429015
#
# number of rings (size 3 to 8) (size 9 to 14) (size 15 to 20)
#    0.000    2.375    0.000    1.875    3.500    2.000 
#    0.000   10.000    0.000    0.000    0.000    2.625 
#    0.000    0.000    0.000    0.000    0.000    0.000 
#
# Total GULP energy -793346.777854 kJ/mol
# GULP energy per Si atom -12396.043404 kJ/mol
# Density = 2.038252 g / cm^3
# Si number density = 20.429015 Si / 1000 Ang^3
#
#
#
# Elastic Constant Matrix: (Units=GPa)
#
#
# Indices 1 2 3 4 5 6 
#
# 1 100.5843 20.3309 40.4442 0.0000 0.0000 0.0000
# 2 20.3309 46.2516 9.5433 0.0000 0.0000 0.0000
# 3 40.4442 9.5433 84.9760 0.0000 0.0000 0.0000
# 4 0.0000 0.0000 0.0000 22.1244 0.0000 0.0000
# 5 0.0000 0.0000 0.0000 0.0000 32.2181 0.0000
# 6 0.0000 0.0000 0.0000 0.0000 0.0000 7.5873
#
#
#
# Elastic Compliance Matrix: (Units=1/GPa)
#
#
# Indices 1 2 3 4 5 6 
#
# 1 0.013190 -0.004609 -0.005760 0.000000 0.000000 0.000000
# 2 -0.004609 0.023745 -0.000473 0.000000 0.000000 0.000000
# 3 -0.005760 -0.000473 0.014563 0.000000 0.000000 0.000000
# 4 0.000000 0.000000 0.000000 0.045199 0.000000 0.000000
# 5 0.000000 0.000000 0.000000 0.000000 0.031038 0.000000
# 6 0.000000 0.000000 0.000000 0.000000 0.000000 0.131799
#
#
# Mechanical properties :
#
#
# Convention : Reuss Voigt Hill
#
# Bulk Modulus (GPa) = 33.54292 41.38320 37.46306
# Shear Modulus (GPa) = 17.17300 23.15219 20.16259
#
# Velocity S-wave (km/s) = 2.90249 3.37010 3.14500
# Velocity P-wave (km/s) = 5.26189 5.95353 5.61836
#
# Compressibility (1/GPa) = 0.02981255
#
# Stress axis : x y z
#
# Youngs Moduli (GPa) = 75.81728 42.11488 68.66926
#
# Poissons Ratio (x) = 0.19412 0.39553
# Poissons Ratio (y) = 0.34946 0.03247
# Poissons Ratio (z) = 0.43670 0.01991
#
# Static dielectric constant tensor:
#      x y z
#    x 3.687360 0.000000 0.000000 
#    y 0.000000 3.526760 0.000000 
#    z 0.000000 0.000000 3.947070 
# 
# 
# High freq. dielectric constant tensor:
#      x y z
#    x 1.797210 0.000000 0.000000 
#    y 0.000000 1.779150 0.000000 
#    z 0.000000 0.000000 1.803370 
# 
# From -- ./inp_files/19058.got.cif
#   From: 2010.06.25/outbox.cif.g09.slc.cpg/sg48_10_cif.got.tgz:19058.got - 2010.06.26 18:06:46.
