data_PCOD8201293
_publ_section_title
;
Structure prediction by ZEFSAII (Michael W. Deem and Ramdas Pophale) SiO2 
 PCOD8201293
Probable space group: P N N N
;
_chemical_formula_sum "Si O2"
_cell_formula_units_Z 42
_cell_length_a 6.832575
_cell_length_b 24.413889
_cell_length_c 11.214757
_cell_angle_alpha 90.000000
_cell_angle_beta 90.000000
_cell_angle_gamma 90.000000
_cell_volume 1870.730561
_symmetry_space_group_name_H-M "P N N N"
_symmetry_group_IT_number 48
_space_group.IT_coordinate_system_code '2'
_symmetry_cell_setting 'orthorhombic'
loop_
_space_group_symop_operation_xyz
x,y,z
1/2-x,1/2-y,z
x,1/2-y,1/2-z
1/2-x,y,1/2-z
-x,-y,-z
1/2+x,1/2+y,-z
-x,1/2+y,1/2+z
1/2+x,-y,1/2+z
loop_
_atom_site_type_symbol
_atom_site_label
_atom_site_fract_x
_atom_site_fract_y
_atom_site_fract_z
Si Si1 0.750000 0.750000 0.250000
Si Si2 0.477177 0.437512 0.756083
Si Si3 0.078512 0.466193 0.110568
Si Si4 0.582917 0.900682 0.504965
Si Si5 0.058986 0.162703 0.588702
Si Si6 0.799811 0.362719 0.122511
O O1 0.901984 0.784470 0.330366
O O2 0.250000 0.450785 0.750000
O O3 0.594934 0.491644 0.719660
O O4 0.530699 0.386420 0.669458
O O5 0.532331 0.426504 0.892610
O O6 0.295325 0.444492 0.082101
O O7 0.930478 0.416938 0.141492
O O8 0.000000 0.500000 0.000000
O O9 0.728739 0.853611 0.460101
O O10 0.419417 0.875082 0.585374
O O11 0.910935 0.174877 0.477340
O O12 0.750000 0.333551 0.250000
#
# Coordination Sequence:
#
# PCOD8201293 Si02
#       6
#     2   8   8   8   8   8
#     4  12  20  48  82 106 132 166 228 322 386 416
#     4  10  17  38  58  90 135 168 228 291 330 400
#     4  11  20  37  55  92 138 184 236 268 328 414
#     4  10  22  41  62  91 138 187 224 285 345 389
#     4  10  22  42  69 101 129 163 224 294 354 421
#     4  11  25  43  62  96 142 190 232 274 334 428
#
# _framework density 22.451121000000001
#
# number of rings (size 3 to 8) (size 9 to 14) (size 15 to 20)
#    0.000    1.524    8.571    0.571    0.000    4.571 
#    3.429    1.905    0.000    3.429    0.000    0.000 
#    0.000    0.000    0.000    0.000    0.000    0.000 
#
# Total GULP energy -520518.827835 kJ/mol
# GULP energy per Si atom -12393.305425 kJ/mol
# Density = 2.240002 g / cm^3
# Si number density = 22.451121 Si / 1000 Ang^3
#
#
#
# Elastic Constant Matrix: (Units=GPa)
#
#
# Indices 1 2 3 4 5 6 
#
# 1 113.1451 30.7198 59.0294 0.0000 0.0000 0.0000
# 2 30.7198 90.2501 46.1066 0.0000 0.0000 0.0000
# 3 59.0294 46.1066 140.2911 0.0000 0.0000 0.0000
# 4 0.0000 0.0000 0.0000 -25.6228 0.0000 0.0000
# 5 0.0000 0.0000 0.0000 0.0000 42.3104 0.0000
# 6 0.0000 0.0000 0.0000 0.0000 0.0000 -3.5919
#
#
#
# Elastic Compliance Matrix: (Units=1/GPa)
#
#
# Indices 1 2 3 4 5 6 
#
# 1 0.011547 -0.001741 -0.004287 0.000000 0.000000 0.000000
# 2 -0.001741 0.013578 -0.003730 0.000000 0.000000 0.000000
# 3 -0.004287 -0.003730 0.010158 0.000000 0.000000 0.000000
# 4 0.000000 0.000000 0.000000 -0.039028 0.000000 0.000000
# 5 0.000000 0.000000 0.000000 0.000000 0.023635 0.000000
# 6 0.000000 0.000000 0.000000 0.000000 0.000000 -0.278407
#
#
# Mechanical properties :
#
#
# Convention : Reuss Voigt Hill
#
# Bulk Modulus (GPa) = 63.41744 68.37753 65.89749
# Shear Modulus (GPa) = -21.39072 16.47452 -2.45810
#
# Velocity S-wave (km/s) = -3.09004 2.71180 -1.04749
# Velocity P-wave (km/s) = 3.94678 6.35039 5.28699
#
# Compressibility (1/GPa) = 0.01576853
#
# Stress axis : x y z
#
# Youngs Moduli (GPa) = 86.60144 73.64619 98.44852
#
# Poissons Ratio (x) = 0.12819 0.42201
# Poissons Ratio (y) = 0.15074 0.36723
# Poissons Ratio (z) = 0.37122 0.27471
#
# Static dielectric constant tensor:
#      x y z
#    x 4.045750 0.000000 0.000000 
#    y 0.000000 3.371960 0.000000 
#    z 0.000000 0.000000 4.521950 
# 
# 
# High freq. dielectric constant tensor:
#      x y z
#    x 1.896040 0.000000 0.000000 
#    y 0.000000 1.831930 0.000000 
#    z 0.000000 0.000000 1.908500 
# 
# From -- ./inp_files/18769.got.cif
#   From: 2010.06.25/outbox.cif.g09.slc.cpg/sg48_10_cif.got.tgz:18769.got - 2010.06.26 18:06:46.
