data_PCOD8201993
_publ_section_title
;
Structure prediction by ZEFSAII (Michael W. Deem and Ramdas Pophale) SiO2 
 PCOD8201993
Probable space group: P N N N
;
_chemical_formula_sum "Si O2"
_cell_formula_units_Z 34
_cell_length_a 14.156494
_cell_length_b 11.253180
_cell_length_c 9.119991
_cell_angle_alpha 90.000000
_cell_angle_beta 90.000000
_cell_angle_gamma 90.000000
_cell_volume 1452.865412
_symmetry_space_group_name_H-M "P N N N"
_symmetry_group_IT_number 48
_space_group.IT_coordinate_system_code '2'
_symmetry_cell_setting 'orthorhombic'
loop_
_space_group_symop_operation_xyz
x,y,z
1/2-x,1/2-y,z
x,1/2-y,1/2-z
1/2-x,y,1/2-z
-x,-y,-z
1/2+x,1/2+y,-z
-x,1/2+y,1/2+z
1/2+x,-y,1/2+z
loop_
_atom_site_type_symbol
_atom_site_label
_atom_site_fract_x
_atom_site_fract_y
_atom_site_fract_z
Si Si1 0.649221 0.436199 0.236056
Si Si2 0.194728 0.126882 0.542814
Si Si3 0.750000 0.250000 0.750000
Si Si4 0.548267 0.873319 0.811106
Si Si5 0.344563 0.537509 0.092576
O O1 0.750000 0.364499 0.250000
O O2 0.674710 0.566783 0.300430
O O3 0.565979 0.373681 0.327868
O O4 0.611134 0.448503 0.069892
O O5 0.250000 0.250000 0.564689
O O6 0.090328 0.129276 0.473834
O O7 0.252456 0.045288 0.426937
O O8 0.684217 0.332567 0.850907
O O9 0.585946 0.750000 0.750000
O O10 0.581114 0.980811 0.705830
#
# Coordination Sequence:
#
# PCOD8201993 Si02
#       5
#     8   8   2   8   8
#     4  10  26  45  67 104 152 186 239 298 367 435
#     4  11  22  46  77 109 142 190 241 307 368 440
#     4  12  24  44  76  96 154 196 250 294 388 428
#     4  12  23  44  76 107 145 192 243 301 370 445
#     4  11  24  45  70 103 143 194 245 304 359 451
#
# _framework density 23.402031000000001
#
# number of rings (size 3 to 8) (size 9 to 14) (size 15 to 20)
#    0.000    0.941    4.706    1.412    0.000    8.471 
#    4.235    1.176    0.000    0.000    0.000    0.000 
#    0.000    0.000    0.000    0.000    0.000    0.000 
#
# Total GULP energy -421315.870232 kJ/mol
# GULP energy per Si atom -12391.643242 kJ/mol
# Density = 2.334877 g / cm^3
# Si number density = 23.402031 Si / 1000 Ang^3
#
#
#
# Elastic Constant Matrix: (Units=GPa)
#
#
# Indices 1 2 3 4 5 6 
#
# 1 105.4938 30.6521 27.5237 0.0000 0.0000 0.0000
# 2 30.6521 142.4393 46.0247 0.0000 0.0000 0.0000
# 3 27.5237 46.0247 112.1767 0.0000 0.0000 0.0000
# 4 0.0000 0.0000 0.0000 35.3204 0.0000 0.0000
# 5 0.0000 0.0000 0.0000 0.0000 26.0006 0.0000
# 6 0.0000 0.0000 0.0000 0.0000 0.0000 30.8777
#
#
#
# Elastic Compliance Matrix: (Units=1/GPa)
#
#
# Indices 1 2 3 4 5 6 
#
# 1 0.010449 -0.001637 -0.001892 0.000000 0.000000 0.000000
# 2 -0.001637 0.008350 -0.003024 0.000000 0.000000 0.000000
# 3 -0.001892 -0.003024 0.010620 0.000000 0.000000 0.000000
# 4 0.000000 0.000000 0.000000 0.028312 0.000000 0.000000
# 5 0.000000 0.000000 0.000000 0.000000 0.038461 0.000000
# 6 0.000000 0.000000 0.000000 0.000000 0.000000 0.032386
#
#
# Mechanical properties :
#
#
# Convention : Reuss Voigt Hill
#
# Bulk Modulus (GPa) = 61.30667 63.16787 62.23727
# Shear Modulus (GPa) = 33.98572 35.50035 34.74304
#
# Velocity S-wave (km/s) = 3.81498 3.89906 3.85725
# Velocity P-wave (km/s) = 6.75718 6.87905 6.81839
#
# Compressibility (1/GPa) = 0.01631144
#
# Stress axis : x y z
#
# Youngs Moduli (GPa) = 95.70717 119.76023 94.16619
#
# Poissons Ratio (x) = 0.19606 0.17816
# Poissons Ratio (y) = 0.15669 0.28478
# Poissons Ratio (z) = 0.18107 0.36218
#
# Static dielectric constant tensor:
#      x y z
#    x 4.271270 0.000000 0.000000 
#    y 0.000000 4.098290 0.000000 
#    z 0.000000 0.000000 4.164860 
# 
# 
# High freq. dielectric constant tensor:
#      x y z
#    x 1.928960 0.000000 0.000000 
#    y 0.000000 1.917420 0.000000 
#    z 0.000000 0.000000 1.932020 
# 
# From -- ./inp_files/11994.got.cif
#   From: 2010.06.25/outbox.cif.g09.slc.cpg/sg48_6_cif.got.tgz:11994.got - 2010.06.26 18:06:46.
