data_PCOD8201760
_publ_section_title
;
Structure prediction by ZEFSAII (Michael W. Deem and Ramdas Pophale) SiO2 
 PCOD8201760
Probable space group: P N N N
;
_chemical_formula_sum "Si O2"
_cell_formula_units_Z 48
_cell_length_a 22.842655
_cell_length_b 7.609106
_cell_length_c 12.577118
_cell_angle_alpha 90.000000
_cell_angle_beta 90.000000
_cell_angle_gamma 90.000000
_cell_volume 2186.056338
_symmetry_space_group_name_H-M "P N N N"
_symmetry_group_IT_number 48
_space_group.IT_coordinate_system_code '2'
_symmetry_cell_setting 'orthorhombic'
loop_
_space_group_symop_operation_xyz
x,y,z
1/2-x,1/2-y,z
x,1/2-y,1/2-z
1/2-x,y,1/2-z
-x,-y,-z
1/2+x,1/2+y,-z
-x,1/2+y,1/2+z
1/2+x,-y,1/2+z
loop_
_atom_site_type_symbol
_atom_site_label
_atom_site_fract_x
_atom_site_fract_y
_atom_site_fract_z
Si Si1 0.934359 0.916689 0.622019
Si Si2 0.586934 0.077493 0.674865
Si Si3 0.357274 0.723591 0.626138
Si Si4 0.310773 0.018305 0.477858
Si Si5 0.818578 0.585237 0.995354
Si Si6 0.473890 0.758101 0.999165
O O1 0.867113 0.952067 0.593711
O O2 0.963495 0.745157 0.564136
O O3 0.936057 0.916864 0.751170
O O4 0.974211 0.075126 0.578172
O O5 0.594499 0.250000 0.750000
O O6 0.539052 0.096768 0.579546
O O7 0.649582 0.025248 0.624723
O O8 0.351940 0.750000 0.750000
O O9 0.331269 0.531782 0.599252
O O10 0.424468 0.731876 0.590846
O O11 0.319725 0.873869 0.568421
O O12 0.242738 0.024618 0.442878
O O13 0.323531 0.210488 0.527855
#
# Coordination Sequence:
#
# PCOD8201760 Si02
#       6
#     8   8   8   8   8   8
#     4   9  17  35  59  84 119 162 195 246 312 359
#     4   9  18  35  61  90 121 162 208 250 312 373
#     4  10  21  40  62  89 119 159 206 258 314 363
#     4  10  22  40  58  89 125 157 206 257 303 372
#     4  10  22  39  61  86 123 163 202 256 307 369
#     4   8  17  36  57  84 121 153 201 254 299 368
#
# _framework density 21.957346999999999
#
# number of rings (size 3 to 8) (size 9 to 14) (size 15 to 20)
#    0.000    2.667    0.000    1.500    0.000    3.333 
#    6.000    9.167    0.000    0.000    0.000    0.000 
#    0.000    0.000    0.000    0.000    0.000    0.000 
#
# Total GULP energy -594805.946461 kJ/mol
# GULP energy per Si atom -12391.790551 kJ/mol
# Density = 2.190737 g / cm^3
# Si number density = 21.957347 Si / 1000 Ang^3
#
#
#
# Elastic Constant Matrix: (Units=GPa)
#
#
# Indices 1 2 3 4 5 6 
#
# 1 136.6275 26.2783 92.1967 0.0000 0.0000 0.0000
# 2 26.2783 106.9114 61.3219 0.0000 0.0000 0.0000
# 3 92.1967 61.3219 169.2502 0.0000 0.0000 0.0000
# 4 0.0000 0.0000 0.0000 16.0660 0.0000 0.0000
# 5 0.0000 0.0000 0.0000 0.0000 6.4163 0.0000
# 6 0.0000 0.0000 0.0000 0.0000 0.0000 10.1622
#
#
#
# Elastic Compliance Matrix: (Units=1/GPa)
#
#
# Indices 1 2 3 4 5 6 
#
# 1 0.011654 0.000981 -0.006704 0.000000 0.000000 0.000000
# 2 0.000981 0.011890 -0.004842 0.000000 0.000000 0.000000
# 3 -0.006704 -0.004842 0.011315 0.000000 0.000000 0.000000
# 4 0.000000 0.000000 0.000000 0.062243 0.000000 0.000000
# 5 0.000000 0.000000 0.000000 0.000000 0.155853 0.000000
# 6 0.000000 0.000000 0.000000 0.000000 0.000000 0.098404
#
#
# Mechanical properties :
#
#
# Convention : Reuss Voigt Hill
#
# Bulk Modulus (GPa) = 72.84287 85.82033 79.33160
# Shear Modulus (GPa) = 13.26032 22.06173 17.66102
#
# Velocity S-wave (km/s) = 2.46013 3.17322 2.83915
# Velocity P-wave (km/s) = 6.42778 7.25229 6.85245
#
# Compressibility (1/GPa) = 0.01372818
#
# Stress axis : x y z
#
# Youngs Moduli (GPa) = 85.80511 84.10589 88.38183
#
# Poissons Ratio (x) = -0.08247 0.59249
# Poissons Ratio (y) = -0.08414 0.42794
# Poissons Ratio (z) = 0.57522 0.40724
#
# Static dielectric constant tensor:
#      x y z
#    x 4.096160 0.000000 0.000000 
#    y 0.000000 4.300820 0.000000 
#    z 0.000000 0.000000 3.904270 
# 
# 
# High freq. dielectric constant tensor:
#      x y z
#    x 1.861960 0.000000 0.000000 
#    y 0.000000 1.880650 0.000000 
#    z 0.000000 0.000000 1.849390 
# 
# From -- ./inp_files/23264.got.cif
#   From: 2010.06.25/outbox.cif.g09.slc.cpg/sg48_12_cif.got.tgz:23264.got - 2010.06.26 18:06:46.
