data_PCOD8201215
_publ_section_title
;
Structure prediction by ZEFSAII (Michael W. Deem and Ramdas Pophale) SiO2 
 PCOD8201215
Probable space group: P M M M
;
_chemical_formula_sum "Si O2"
_cell_formula_units_Z 60
_cell_length_a 25.483677
_cell_length_b 8.323998
_cell_length_c 18.557466
_cell_angle_alpha 90.000000
_cell_angle_beta 90.000000
_cell_angle_gamma 90.000000
_cell_volume 3936.522450
_symmetry_space_group_name_H-M "P M M M"
_symmetry_group_IT_number 47
_symmetry_cell_setting 'orthorhombic'
loop_
_space_group_symop_operation_xyz
x,y,z
-x,-y,z
x,-y,-z
-x,y,-z
-x,-y,-z
x,y,-z
-x,y,z
x,-y,z
loop_
_atom_site_type_symbol
_atom_site_label
_atom_site_fract_x
_atom_site_fract_y
_atom_site_fract_z
Si Si1 0.441469 0.000000 0.085105
Si Si2 0.842391 0.688700 0.579993
Si Si3 0.268157 0.313573 0.164345
Si Si4 0.217544 0.180400 0.705140
Si Si5 0.888831 0.817959 0.793284
Si Si6 0.831590 0.310110 0.079985
Si Si7 0.057444 0.311583 0.337116
Si Si8 0.375767 0.685695 0.084663
O O1 0.414928 0.170261 0.109280
O O2 0.500000 0.000000 0.118168
O O3 0.443768 0.000000 0.000000
O O4 0.833813 0.761122 0.500000
O O5 0.848961 0.500000 0.575496
O O6 0.791885 0.726939 0.629822
O O7 0.896251 0.764822 0.613429
O O8 0.257828 0.500000 0.170737
O O9 0.265679 0.245915 0.246312
O O10 0.222339 0.238762 0.114004
O O11 0.323648 0.274662 0.128962
O O12 0.166025 0.200006 0.752727
O O13 0.230478 0.000000 0.683614
O O14 0.881844 0.741384 0.872383
O O15 0.932616 0.725419 0.747171
O O16 0.907110 0.000000 0.801569
O O17 0.828496 0.500000 0.076193
O O18 0.838187 0.237405 0.000000
O O19 0.057251 0.500000 0.348307
O O20 0.000000 0.241810 0.358984
O O21 0.395623 0.500000 0.101179
O O22 0.363366 0.698773 0.000000
#
# Coordination Sequence:
#
# PCOD8201215 Si02
#       8
#     4   8   8   8   8   8   8   8
#     4   9  18  30  42  58  82 116 157 197 234 269
#     4   9  17  29  44  61  82 106 131 160 193 233
#     4   9  16  26  41  60  83 108 136 172 211 251
#     4   9  17  27  40  58  80 107 135 161 193 240
#     4   9  17  28  40  56  78 101 126 155 190 237
#     4   9  16  26  41  59  79 103 128 157 198 246
#     4   9  17  29  45  62  77  96 125 160 198 237
#     4   9  17  28  42  61  85 114 150 193 235 268
#
# _framework density 15.24188
#
# number of rings (size 3 to 8) (size 9 to 14) (size 15 to 20)
#    0.000    3.000    0.000    1.200    0.933    6.133 
#    0.000    2.667    0.000    0.400    0.000    6.533 
#    0.000    0.000    0.000    0.000    0.000    1.333 
#
# Total GULP energy -743373.950409 kJ/mol
# GULP energy per Si atom -12389.565840 kJ/mol
# Density = 1.520719 g / cm^3
# Si number density = 15.241880 Si / 1000 Ang^3
#
#
#
# Elastic Constant Matrix: (Units=GPa)
#
#
# Indices 1 2 3 4 5 6 
#
# 1 55.8910 27.0530 39.8336 0.0000 0.0000 0.0000
# 2 27.0530 45.8898 24.8930 0.0000 0.0000 0.0000
# 3 39.8336 24.8930 107.7645 0.0000 0.0000 0.0000
# 4 0.0000 0.0000 0.0000 10.9700 0.0000 0.0000
# 5 0.0000 0.0000 0.0000 0.0000 10.8933 0.0000
# 6 0.0000 0.0000 0.0000 0.0000 0.0000 16.8521
#
#
#
# Elastic Compliance Matrix: (Units=1/GPa)
#
#
# Indices 1 2 3 4 5 6 
#
# 1 0.030095 -0.013385 -0.008033 0.000000 0.000000 0.000000
# 2 -0.013385 0.030866 -0.002182 0.000000 0.000000 0.000000
# 3 -0.008033 -0.002182 0.012753 0.000000 0.000000 0.000000
# 4 0.000000 0.000000 0.000000 0.091158 0.000000 0.000000
# 5 0.000000 0.000000 0.000000 0.000000 0.091799 0.000000
# 6 0.000000 0.000000 0.000000 0.000000 0.000000 0.059340
#
#
# Mechanical properties :
#
#
# Convention : Reuss Voigt Hill
#
# Bulk Modulus (GPa) = 37.71487 43.67825 40.69656
# Shear Modulus (GPa) = 13.43913 15.59412 14.51663
#
# Velocity S-wave (km/s) = 2.97260 3.20208 3.08947
# Velocity P-wave (km/s) = 6.04812 6.51076 6.28370
#
# Compressibility (1/GPa) = 0.02651474
#
# Stress axis : x y z
#
# Youngs Moduli (GPa) = 33.22772 32.39846 78.41461
#
# Poissons Ratio (x) = 0.43364 0.62987
# Poissons Ratio (y) = 0.44474 0.17113
# Poissons Ratio (z) = 0.26690 0.07071
#
# Static dielectric constant tensor:
#      x y z
#    x 2.791920 0.000000 0.000000 
#    y 0.000000 2.931310 0.000000 
#    z 0.000000 0.000000 3.039740 
# 
# 
# High freq. dielectric constant tensor:
#      x y z
#    x 1.539680 0.000000 0.000000 
#    y 0.000000 1.586310 0.000000 
#    z 0.000000 0.000000 1.567290 
# 
# From -- ./inp_files/12842.got.cif
#   From: 2010.03.12/outbox.cif.g09.slc.cpg/sg47_7_cif.got.tgz:12842.got - 2010.04.14 03:12:58.
