data_PCOD8201287
_publ_section_title
;
Structure prediction by ZEFSAII (Michael W. Deem and Ramdas Pophale) SiO2 
 PCOD8201287
Probable space group: P N N N
;
_chemical_formula_sum "Si O2"
_cell_formula_units_Z 56
_cell_length_a 10.978569
_cell_length_b 12.729724
_cell_length_c 18.674660
_cell_angle_alpha 90.000000
_cell_angle_beta 90.000000
_cell_angle_gamma 90.000000
_cell_volume 2609.861296
_symmetry_space_group_name_H-M "P N N N"
_symmetry_group_IT_number 48
_space_group.IT_coordinate_system_code '2'
_symmetry_cell_setting 'orthorhombic'
loop_
_space_group_symop_operation_xyz
x,y,z
1/2-x,1/2-y,z
x,1/2-y,1/2-z
1/2-x,y,1/2-z
-x,-y,-z
1/2+x,1/2+y,-z
-x,1/2+y,1/2+z
1/2+x,-y,1/2+z
loop_
_atom_site_type_symbol
_atom_site_label
_atom_site_fract_x
_atom_site_fract_y
_atom_site_fract_z
Si Si1 0.450208 0.136584 0.770834
Si Si2 0.284332 0.639041 0.605308
Si Si3 0.280100 0.079091 0.653390
Si Si4 0.101275 0.359511 0.514109
Si Si5 0.462475 0.143645 0.031147
Si Si6 0.398995 0.939292 0.101616
Si Si7 0.153820 0.578331 0.461176
O O1 0.505328 0.250000 0.750000
O O2 0.407589 0.078160 0.697814
O O3 0.325435 0.153776 0.815343
O O4 0.551584 0.071809 0.816889
O O5 0.250000 0.750000 0.642688
O O6 0.271659 0.540281 0.658292
O O7 0.421513 0.653881 0.581042
O O8 0.195955 0.614992 0.539266
O O9 0.295565 0.122767 0.573540
O O10 0.113044 0.455823 0.458475
O O11 0.117438 0.249872 0.472092
O O12 0.968584 0.355447 0.553914
O O13 0.378844 0.056982 0.070362
O O14 0.500542 0.113631 0.950020
O O15 0.261269 0.892591 0.095561
#
# Coordination Sequence:
#
# PCOD8201287 Si02
#       7
#     8   8   8   8   8   8   8
#     4  11  22  40  57  80 116 164 200 251 298 352
#     4  10  17  33  56  83 116 154 188 246 300 362
#     4  10  21  35  57  81 116 153 206 245 296 359
#     4  10  19  35  57  88 122 157 192 241 307 373
#     4  10  19  32  56  84 116 152 185 242 308 355
#     4  10  21  36  54  84 118 153 199 246 294 360
#     4   9  20  34  55  87 122 153 192 239 305 362
#
# _framework density 21.457077999999999
#
# number of rings (size 3 to 8) (size 9 to 14) (size 15 to 20)
#    0.000    2.000    2.857    1.714    2.000    0.571 
#    0.000    2.143    0.000    1.714    0.000    0.000 
#    0.000    0.000    0.000    0.000    0.000    0.000 
#
# Total GULP energy -693998.854050 kJ/mol
# GULP energy per Si atom -12392.836679 kJ/mol
# Density = 2.140824 g / cm^3
# Si number density = 21.457078 Si / 1000 Ang^3
#
#
#
# Elastic Constant Matrix: (Units=GPa)
#
#
# Indices 1 2 3 4 5 6 
#
# 1 66.0619 8.9035 6.1032 0.0000 0.0000 0.0000
# 2 8.9035 122.4300 24.2367 0.0000 0.0000 0.0000
# 3 6.1032 24.2367 55.5062 0.0000 0.0000 0.0000
# 4 0.0000 0.0000 0.0000 23.4798 0.0000 0.0000
# 5 0.0000 0.0000 0.0000 0.0000 29.1564 0.0000
# 6 0.0000 0.0000 0.0000 0.0000 0.0000 25.4379
#
#
#
# Elastic Compliance Matrix: (Units=1/GPa)
#
#
# Indices 1 2 3 4 5 6 
#
# 1 0.015374 -0.000858 -0.001316 0.000000 0.000000 0.000000
# 2 -0.000858 0.008989 -0.003831 0.000000 0.000000 0.000000
# 3 -0.001316 -0.003831 0.019833 0.000000 0.000000 0.000000
# 4 0.000000 0.000000 0.000000 0.042590 0.000000 0.000000
# 5 0.000000 0.000000 0.000000 0.000000 0.034298 0.000000
# 6 0.000000 0.000000 0.000000 0.000000 0.000000 0.039311
#
#
# Mechanical properties :
#
#
# Convention : Reuss Voigt Hill
#
# Bulk Modulus (GPa) = 31.06742 35.83166 33.44954
# Shear Modulus (GPa) = 27.30255 29.26514 28.28384
#
# Velocity S-wave (km/s) = 3.57098 3.69710 3.63458
# Velocity P-wave (km/s) = 5.61363 5.91271 5.76511
#
# Compressibility (1/GPa) = 0.03218806
#
# Stress axis : x y z
#
# Youngs Moduli (GPa) = 65.04282 111.25190 50.42025
#
# Poissons Ratio (x) = 0.09541 0.06636
# Poissons Ratio (y) = 0.05578 0.19314
# Poissons Ratio (z) = 0.08560 0.42616
#
# Static dielectric constant tensor:
#      x y z
#    x 3.914500 0.000000 0.000000 
#    y 0.000000 4.131520 0.000000 
#    z 0.000000 0.000000 3.537770 
# 
# 
# High freq. dielectric constant tensor:
#      x y z
#    x 1.842660 0.000000 0.000000 
#    y 0.000000 1.847890 0.000000 
#    z 0.000000 0.000000 1.788600 
# 
# From -- ./inp_files/34169.got.cif
#   From: 2010.06.25/outbox.cif.g09.slc.cpg/sg48_18_cif.got.tgz:34169.got - 2010.06.26 18:06:46.
