data_PCOD8201720
_publ_section_title
;
Structure prediction by ZEFSAII (Michael W. Deem and Ramdas Pophale) SiO2 
 PCOD8201720
Probable space group: P N N N
;
_chemical_formula_sum "Si O2"
_cell_formula_units_Z 52
_cell_length_a 34.110906
_cell_length_b 13.457071
_cell_length_c 5.316685
_cell_angle_alpha 90.000000
_cell_angle_beta 90.000000
_cell_angle_gamma 90.000000
_cell_volume 2440.533248
_symmetry_space_group_name_H-M "P N N N"
_symmetry_group_IT_number 48
_space_group.IT_coordinate_system_code '2'
_symmetry_cell_setting 'orthorhombic'
loop_
_space_group_symop_operation_xyz
x,y,z
1/2-x,1/2-y,z
x,1/2-y,1/2-z
1/2-x,y,1/2-z
-x,-y,-z
1/2+x,1/2+y,-z
-x,1/2+y,1/2+z
1/2+x,-y,1/2+z
loop_
_atom_site_type_symbol
_atom_site_label
_atom_site_fract_x
_atom_site_fract_y
_atom_site_fract_z
Si Si1 0.167390 0.953345 0.225217
Si Si2 0.296346 0.636551 0.731952
Si Si3 0.119761 0.131370 0.257989
Si Si4 0.456237 0.750000 0.750000
Si Si5 0.415585 0.642262 0.130807
Si Si6 0.922679 0.862746 0.240021
Si Si7 0.992388 0.103130 0.625380
O O1 0.189461 0.908008 0.466284
O O2 0.123700 0.913097 0.195485
O O3 0.161744 0.072677 0.261465
O O4 0.189692 0.928489 0.968138
O O5 0.312099 0.750000 0.750000
O O6 0.250000 0.635281 0.750000
O O7 0.127254 0.250000 0.250000
O O8 0.094758 0.093165 0.499441
O O9 0.097077 0.091066 0.009123
O O10 0.426227 0.837545 0.661274
O O11 0.485442 0.700347 0.548661
O O12 0.413691 0.750000 0.250000
O O13 0.453590 0.581641 0.217057
O O14 0.909694 0.750000 0.250000
O O15 0.969305 0.873742 0.208935
O O16 0.000000 0.000000 0.500000
#
# Coordination Sequence:
#
# PCOD8201720 Si02
#       7
#     8   8   8   4   8   8   8
#     4  12  24  41  72  96 133 172 209 258 325 387
#     4  11  25  45  71 105 135 166 205 251 312 393
#     4  10  23  40  63  95 128 169 225 272 316 370
#     4  10  24  38  54  80 125 162 222 274 329 396
#     4  10  23  38  56  87 120 163 214 264 328 383
#     4  10  21  38  59  82 122 170 222 277 324 365
#     4  11  24  37  56  81 119 167 226 276 332 380
#
# _framework density 21.306816999999999
#
# number of rings (size 3 to 8) (size 9 to 14) (size 15 to 20)
#    0.000    1.385    0.000    5.077   12.923    1.846 
#    0.000    0.000    0.000    2.769    0.000    0.000 
#    0.000    0.000    0.000    0.000    0.000    0.000 
#
# Total GULP energy -644273.673959 kJ/mol
# GULP energy per Si atom -12389.878345 kJ/mol
# Density = 2.125832 g / cm^3
# Si number density = 21.306817 Si / 1000 Ang^3
#
#
#
# Elastic Constant Matrix: (Units=GPa)
#
#
# Indices 1 2 3 4 5 6 
#
# 1 96.5282 40.7446 45.6589 0.0000 0.0000 0.0000
# 2 40.7446 68.9844 26.1028 0.0000 0.0000 0.0000
# 3 45.6589 26.1028 141.8553 0.0000 0.0000 0.0000
# 4 0.0000 0.0000 0.0000 18.7663 0.0000 0.0000
# 5 0.0000 0.0000 0.0000 0.0000 32.8101 0.0000
# 6 0.0000 0.0000 0.0000 0.0000 0.0000 24.3361
#
#
#
# Elastic Compliance Matrix: (Units=1/GPa)
#
#
# Indices 1 2 3 4 5 6 
#
# 1 0.015259 -0.007690 -0.003497 0.000000 0.000000 0.000000
# 2 -0.007690 0.019456 -0.001105 0.000000 0.000000 0.000000
# 3 -0.003497 -0.001105 0.008378 0.000000 0.000000 0.000000
# 4 0.000000 0.000000 0.000000 0.053287 0.000000 0.000000
# 5 0.000000 0.000000 0.000000 0.000000 0.030478 0.000000
# 6 0.000000 0.000000 0.000000 0.000000 0.000000 0.041091
#
#
# Mechanical properties :
#
#
# Convention : Reuss Voigt Hill
#
# Bulk Modulus (GPa) = 54.02181 59.15340 56.58761
# Shear Modulus (GPa) = 25.16317 28.17327 26.66822
#
# Velocity S-wave (km/s) = 3.44028 3.64024 3.54167
# Velocity P-wave (km/s) = 6.41795 6.74473 6.58337
#
# Compressibility (1/GPa) = 0.01851104
#
# Stress axis : x y z
#
# Youngs Moduli (GPa) = 65.53340 51.39822 119.35726
#
# Poissons Ratio (x) = 0.39524 0.41734
# Poissons Ratio (y) = 0.50393 0.13189
# Poissons Ratio (z) = 0.22914 0.05680
#
# Static dielectric constant tensor:
#      x y z
#    x 4.022460 0.000000 0.000000 
#    y 0.000000 4.052990 0.000000 
#    z 0.000000 0.000000 4.397790 
# 
# 
# High freq. dielectric constant tensor:
#      x y z
#    x 1.814880 0.000000 0.000000 
#    y 0.000000 1.845340 0.000000 
#    z 0.000000 0.000000 1.851440 
# 
# From -- ./inp_files/7046.got.cif
#   From: 2010.06.25/outbox.cif.g09.slc.cpg/sg48_4_cif.got.tgz:7046.got - 2010.06.26 18:06:46.
