data_PCOD8201951
_publ_section_title
;
Structure prediction by ZEFSAII (Michael W. Deem and Ramdas Pophale) SiO2 
 PCOD8201951
Probable space group: P N N N
;
_chemical_formula_sum "Si O2"
_cell_formula_units_Z 32
_cell_length_a 13.872323
_cell_length_b 5.381839
_cell_length_c 19.530382
_cell_angle_alpha 90.000000
_cell_angle_beta 90.000000
_cell_angle_gamma 90.000000
_cell_volume 1458.111152
_symmetry_space_group_name_H-M "P N N N"
_symmetry_group_IT_number 48
_space_group.IT_coordinate_system_code '2'
_symmetry_cell_setting 'orthorhombic'
loop_
_space_group_symop_operation_xyz
x,y,z
1/2-x,1/2-y,z
x,1/2-y,1/2-z
1/2-x,y,1/2-z
-x,-y,-z
1/2+x,1/2+y,-z
-x,1/2+y,1/2+z
1/2+x,-y,1/2+z
loop_
_atom_site_type_symbol
_atom_site_label
_atom_site_fract_x
_atom_site_fract_y
_atom_site_fract_z
Si Si1 0.501535 0.623511 0.179712
Si Si2 0.801618 0.507177 0.387067
Si Si3 0.665555 0.440105 0.628612
Si Si4 0.250000 0.250000 0.018264
Si Si5 0.131886 0.250000 0.250000
O O1 0.538381 0.750000 0.250000
O O2 0.588657 0.507733 0.137088
O O3 0.440806 0.820068 0.134093
O O4 0.432873 0.394637 0.195616
O O5 0.750000 0.750000 0.353087
O O6 0.797634 0.537163 0.469808
O O7 0.750000 0.250000 0.364410
O O8 0.750000 0.250000 0.611955
O O9 0.665568 0.636756 0.566180
O O10 0.694511 0.565605 0.701938
#
# Coordination Sequence:
#
# PCOD8201951 Si02
#       5
#     8   8   8   4   4
#     4  10  24  43  67 102 135 177 230 285 348 415
#     4  10  25  47  70 100 137 180 232 281 339 406
#     4  11  23  42  65  99 137 178 229 285 350 415
#     4  10  24  43  67  96 136 186 232 278 348 404
#     4  10  24  39  67  98 136 172 225 278 351 402
#
# _framework density 21.946200999999999
#
# number of rings (size 3 to 8) (size 9 to 14) (size 15 to 20)
#    0.750    1.000    0.000    2.250    7.000   13.500 
#    0.000    6.250    0.000    0.000    0.000    0.000 
#    0.000    0.000    0.000    0.000    0.000    0.000 
#
# Total GULP energy -396655.736293 kJ/mol
# GULP energy per Si atom -12395.491759 kJ/mol
# Density = 2.189625 g / cm^3
# Si number density = 21.946201 Si / 1000 Ang^3
#
#
#
# Elastic Constant Matrix: (Units=GPa)
#
#
# Indices 1 2 3 4 5 6 
#
# 1 129.5313 49.7758 60.1724 0.0000 0.0000 0.0000
# 2 49.7758 124.0197 28.5004 0.0000 0.0000 0.0000
# 3 60.1724 28.5004 95.7570 0.0000 0.0000 0.0000
# 4 0.0000 0.0000 0.0000 25.6714 0.0000 0.0000
# 5 0.0000 0.0000 0.0000 0.0000 30.0567 0.0000
# 6 0.0000 0.0000 0.0000 0.0000 0.0000 35.5429
#
#
#
# Elastic Compliance Matrix: (Units=1/GPa)
#
#
# Indices 1 2 3 4 5 6 
#
# 1 0.012058 -0.003326 -0.006587 0.000000 0.000000 0.000000
# 2 -0.003326 0.009573 -0.000759 0.000000 0.000000 0.000000
# 3 -0.006587 -0.000759 0.014808 0.000000 0.000000 0.000000
# 4 0.000000 0.000000 0.000000 0.038954 0.000000 0.000000
# 5 0.000000 0.000000 0.000000 0.000000 0.033270 0.000000
# 6 0.000000 0.000000 0.000000 0.000000 0.000000 0.028135
#
#
# Mechanical properties :
#
#
# Convention : Reuss Voigt Hill
#
# Bulk Modulus (GPa) = 66.24934 69.57836 67.91385
# Shear Modulus (GPa) = 30.64198 32.31151 31.47674
#
# Velocity S-wave (km/s) = 3.74067 3.84123 3.79128
# Velocity P-wave (km/s) = 6.99353 7.17260 7.08363
#
# Compressibility (1/GPa) = 0.01509449
#
# Stress axis : x y z
#
# Youngs Moduli (GPa) = 82.93061 104.46562 67.52882
#
# Poissons Ratio (x) = 0.34743 0.44484
# Poissons Ratio (y) = 0.27581 0.05127
# Poissons Ratio (z) = 0.54630 0.07931
#
# Static dielectric constant tensor:
#      x y z
#    x 3.606040 0.000000 0.000000 
#    y 0.000000 4.258170 0.000000 
#    z 0.000000 0.000000 3.818410 
# 
# 
# High freq. dielectric constant tensor:
#      x y z
#    x 1.842530 0.000000 0.000000 
#    y 0.000000 1.880930 0.000000 
#    z 0.000000 0.000000 1.855900 
# 
# From -- ./inp_files/36112.got.cif
#   From: 2010.06.25/outbox.cif.g09.slc.cpg/sg48_19_cif.got.tgz:36112.got - 2010.06.26 18:06:46.
