data_PCOD8201747
_publ_section_title
;
Structure prediction by ZEFSAII (Michael W. Deem and Ramdas Pophale) SiO2 
 PCOD8201747
Probable space group: P N N N
;
_chemical_formula_sum "Si O2"
_cell_formula_units_Z 48
_cell_length_a 14.727670
_cell_length_b 17.432825
_cell_length_c 8.649891
_cell_angle_alpha 90.000000
_cell_angle_beta 90.000000
_cell_angle_gamma 90.000000
_cell_volume 2220.815346
_symmetry_space_group_name_H-M "P N N N"
_symmetry_group_IT_number 48
_space_group.IT_coordinate_system_code '2'
_symmetry_cell_setting 'orthorhombic'
loop_
_space_group_symop_operation_xyz
x,y,z
1/2-x,1/2-y,z
x,1/2-y,1/2-z
1/2-x,y,1/2-z
-x,-y,-z
1/2+x,1/2+y,-z
-x,1/2+y,1/2+z
1/2+x,-y,1/2+z
loop_
_atom_site_type_symbol
_atom_site_label
_atom_site_fract_x
_atom_site_fract_y
_atom_site_fract_z
Si Si1 0.617025 0.466800 0.657429
Si Si2 0.338323 0.709337 0.914389
Si Si3 0.312812 0.546169 0.019377
Si Si4 0.448745 0.103555 0.976823
Si Si5 0.157891 0.395945 0.677115
Si Si6 0.971136 0.768694 0.073982
O O1 0.611265 0.452541 0.842920
O O2 0.717080 0.451157 0.601592
O O3 0.555324 0.408552 0.558303
O O4 0.585466 0.554492 0.622814
O O5 0.250000 0.750000 0.995623
O O6 0.351673 0.750000 0.750000
O O7 0.320845 0.618095 0.902845
O O8 0.431182 0.712856 0.006977
O O9 0.319153 0.469004 0.923837
O O10 0.400994 0.074622 0.820516
O O11 0.430313 0.193327 0.011718
O O12 0.250000 0.358885 0.750000
O O13 0.103999 0.336061 0.566618
O O14 0.989710 0.750000 0.250000
#
# Coordination Sequence:
#
# PCOD8201747 Si02
#       6
#     8   8   8   8   8   8
#     4  10  22  40  66  95 126 174 220 276 342 396
#     4  11  26  42  66  97 132 174 217 283 353 409
#     4  11  23  42  64  94 132 170 222 278 337 417
#     4  10  21  39  64  92 127 169 222 279 328 410
#     4  11  23  40  65  95 130 180 226 277 339 406
#     4  10  23  41  63  97 130 174 226 276 337 401
#
# _framework density 21.613683000000002
#
# number of rings (size 3 to 8) (size 9 to 14) (size 15 to 20)
#    0.000    1.500    1.667    3.000    2.333   11.333 
#    0.000    0.000    0.000    2.000    0.000    0.000 
#    0.000    0.000    0.000    0.000    0.000    0.000 
#
# Total GULP energy -594931.075685 kJ/mol
# GULP energy per Si atom -12394.397410 kJ/mol
# Density = 2.156449 g / cm^3
# Si number density = 21.613683 Si / 1000 Ang^3
#
#
#
# Elastic Constant Matrix: (Units=GPa)
#
#
# Indices 1 2 3 4 5 6 
#
# 1 94.3652 39.9748 30.1192 0.0000 0.0000 0.0000
# 2 39.9748 152.9073 44.8614 0.0000 0.0000 0.0000
# 3 30.1192 44.8614 52.0286 0.0000 0.0000 0.0000
# 4 0.0000 0.0000 0.0000 -15.7605 0.0000 0.0000
# 5 0.0000 0.0000 0.0000 0.0000 29.3678 0.0000
# 6 0.0000 0.0000 0.0000 0.0000 0.0000 -17.2068
#
#
#
# Elastic Compliance Matrix: (Units=1/GPa)
#
#
# Indices 1 2 3 4 5 6 
#
# 1 0.013296 -0.001630 -0.006291 0.000000 0.000000 0.000000
# 2 -0.001630 0.008954 -0.006777 0.000000 0.000000 0.000000
# 3 -0.006291 -0.006777 0.028706 0.000000 0.000000 0.000000
# 4 0.000000 0.000000 0.000000 -0.063450 0.000000 0.000000
# 5 0.000000 0.000000 0.000000 0.000000 0.034051 0.000000
# 6 0.000000 0.000000 0.000000 0.000000 0.000000 -0.058117
#
#
# Mechanical properties :
#
#
# Convention : Reuss Voigt Hill
#
# Bulk Modulus (GPa) = 46.38499 58.80132 52.59315
# Shear Modulus (GPa) = 206607.72805 11.56981 103309.64893
#
# Velocity S-wave (km/s) = 309.51364 2.31617 218.86532
# Velocity P-wave (km/s) = 357.42565 5.86664 252.77214
#
# Compressibility (1/GPa) = 0.02155870
#
# Stress axis : x y z
#
# Youngs Moduli (GPa) = 75.21221 111.67629 34.83608
#
# Poissons Ratio (x) = 0.18205 0.21916
# Poissons Ratio (y) = 0.12260 0.23609
# Poissons Ratio (z) = 0.47318 0.75686
#
# Static dielectric constant tensor:
#      x y z
#    x 4.239680 0.000000 0.000000 
#    y 0.000000 4.278620 0.000000 
#    z 0.000000 0.000000 3.839040 
# 
# 
# High freq. dielectric constant tensor:
#      x y z
#    x 1.863740 0.000000 0.000000 
#    y 0.000000 1.856470 0.000000 
#    z 0.000000 0.000000 1.828060 
# 
# From -- ./inp_files/12763.got.cif
#   From: 2010.06.25/outbox.cif.g09.slc.cpg/sg48_7_cif.got.tgz:12763.got - 2010.06.26 18:06:46.
