data_PCOD8201775
_publ_section_title
;
Structure prediction by ZEFSAII (Michael W. Deem and Ramdas Pophale) SiO2 
 PCOD8201775
Probable space group: P N N N
;
_chemical_formula_sum "Si O2"
_cell_formula_units_Z 56
_cell_length_a 15.435640
_cell_length_b 12.156622
_cell_length_c 13.025567
_cell_angle_alpha 90.000000
_cell_angle_beta 90.000000
_cell_angle_gamma 90.000000
_cell_volume 2444.185656
_symmetry_space_group_name_H-M "P N N N"
_symmetry_group_IT_number 48
_space_group.IT_coordinate_system_code '2'
_symmetry_cell_setting 'orthorhombic'
loop_
_space_group_symop_operation_xyz
x,y,z
1/2-x,1/2-y,z
x,1/2-y,1/2-z
1/2-x,y,1/2-z
-x,-y,-z
1/2+x,1/2+y,-z
-x,1/2+y,1/2+z
1/2+x,-y,1/2+z
loop_
_atom_site_type_symbol
_atom_site_label
_atom_site_fract_x
_atom_site_fract_y
_atom_site_fract_z
Si Si1 0.979940 0.667866 0.169681
Si Si2 0.601278 0.636631 0.779826
Si Si3 0.575628 0.426555 0.309858
Si Si4 0.375741 0.961746 0.587497
Si Si5 0.472801 0.342964 0.993711
Si Si6 0.163649 0.585995 0.202834
Si Si7 0.705984 0.131379 0.022554
O O1 0.932207 0.750000 0.250000
O O2 0.929838 0.553766 0.155843
O O3 0.073890 0.648727 0.225016
O O4 0.981423 0.721704 0.055550
O O5 0.649710 0.750000 0.750000
O O6 0.518622 0.627379 0.703253
O O7 0.576386 0.645355 0.898790
O O8 0.662618 0.533251 0.758256
O O9 0.623706 0.414276 0.201890
O O10 0.629162 0.358457 0.394259
O O11 0.429344 0.886521 0.506948
O O12 0.275936 0.960255 0.555343
O O13 0.418707 0.082706 0.587268
O O14 0.250000 0.644918 0.250000
O O15 0.167062 0.581415 0.080547
O O16 0.750000 0.250000 0.007759
#
# Coordination Sequence:
#
# PCOD8201775 Si02
#       7
#     8   8   8   8   8   8   8
#     4  11  23  42  72  97 131 182 226 295 342 419
#     4  10  24  42  70  96 137 189 226 290 341 425
#     4  10  24  42  63 101 135 170 240 284 347 424
#     4  10  21  41  64  95 130 179 225 288 341 428
#     4  10  21  40  71  95 131 178 241 272 353 416
#     4  11  27  44  65 104 141 175 233 285 353 426
#     4  12  27  41  67 100 142 184 221 299 362 411
#
# _framework density 22.911517
#
# number of rings (size 3 to 8) (size 9 to 14) (size 15 to 20)
#    0.000    1.429    1.429    2.143   14.000    2.000 
#    0.000    0.714    0.000    0.000    0.000    0.000 
#    0.000    0.000    0.000    0.000    0.000    0.000 
#
# Total GULP energy -694315.102791 kJ/mol
# GULP energy per Si atom -12398.483978 kJ/mol
# Density = 2.285937 g / cm^3
# Si number density = 22.911517 Si / 1000 Ang^3
#
#
#
# Elastic Constant Matrix: (Units=GPa)
#
#
# Indices 1 2 3 4 5 6 
#
# 1 58.7193 -0.1246 14.6452 0.0000 0.0000 0.0000
# 2 -0.1246 114.4903 27.5813 0.0000 0.0000 0.0000
# 3 14.6452 27.5813 104.6076 0.0000 0.0000 0.0000
# 4 0.0000 0.0000 0.0000 40.3782 0.0000 0.0000
# 5 0.0000 0.0000 0.0000 0.0000 35.0835 0.0000
# 6 0.0000 0.0000 0.0000 0.0000 0.0000 13.2396
#
#
#
# Elastic Compliance Matrix: (Units=1/GPa)
#
#
# Indices 1 2 3 4 5 6 
#
# 1 0.017693 0.000658 -0.002650 0.000000 0.000000 0.000000
# 2 0.000658 0.009351 -0.002558 0.000000 0.000000 0.000000
# 3 -0.002650 -0.002558 0.010605 0.000000 0.000000 0.000000
# 4 0.000000 0.000000 0.000000 0.024766 0.000000 0.000000
# 5 0.000000 0.000000 0.000000 0.000000 0.028503 0.000000
# 6 0.000000 0.000000 0.000000 0.000000 0.000000 0.075531
#
#
# Mechanical properties :
#
#
# Convention : Reuss Voigt Hill
#
# Bulk Modulus (GPa) = 35.02854 40.22455 37.62655
# Shear Modulus (GPa) = 27.01743 33.45459 30.23601
#
# Velocity S-wave (km/s) = 3.43768 3.82536 3.63669
# Velocity P-wave (km/s) = 5.57483 6.09145 5.83885
#
# Compressibility (1/GPa) = 0.02854815
#
# Stress axis : x y z
#
# Youngs Moduli (GPa) = 56.52075 106.93766 94.29544
#
# Poissons Ratio (x) = -0.07034 0.24992
# Poissons Ratio (y) = -0.03718 0.24118
# Poissons Ratio (z) = 0.14980 0.27351
#
# Static dielectric constant tensor:
#      x y z
#    x 3.945120 0.000000 0.000000 
#    y 0.000000 4.123970 0.000000 
#    z 0.000000 0.000000 4.035390 
# 
# 
# High freq. dielectric constant tensor:
#      x y z
#    x 1.883470 0.000000 0.000000 
#    y 0.000000 1.905510 0.000000 
#    z 0.000000 0.000000 1.914980 
# 
# From -- ./inp_files/27299.got.cif
#   From: 2010.06.25/outbox.cif.g09.slc.cpg/sg48_14_cif.got.tgz:27299.got - 2010.06.26 18:06:46.
