data_PCOD8201539
_publ_section_title
;
Structure prediction by ZEFSAII (Michael W. Deem and Ramdas Pophale) SiO2 
 PCOD8201539
Probable space group: P N N N
;
_chemical_formula_sum "Si O2"
_cell_formula_units_Z 56
_cell_length_a 14.406090
_cell_length_b 8.802067
_cell_length_c 22.460244
_cell_angle_alpha 90.000000
_cell_angle_beta 90.000000
_cell_angle_gamma 90.000000
_cell_volume 2848.034616
_symmetry_space_group_name_H-M "P N N N"
_symmetry_group_IT_number 48
_space_group.IT_coordinate_system_code '2'
_symmetry_cell_setting 'orthorhombic'
loop_
_space_group_symop_operation_xyz
x,y,z
1/2-x,1/2-y,z
x,1/2-y,1/2-z
1/2-x,y,1/2-z
-x,-y,-z
1/2+x,1/2+y,-z
-x,1/2+y,1/2+z
1/2+x,-y,1/2+z
loop_
_atom_site_type_symbol
_atom_site_label
_atom_site_fract_x
_atom_site_fract_y
_atom_site_fract_z
Si Si1 0.473673 0.562652 0.563635
Si Si2 0.051130 0.138834 0.028218
Si Si3 0.582241 0.906070 0.728133
Si Si4 0.856489 0.791677 0.415996
Si Si5 0.122225 0.566572 0.151904
Si Si6 0.990150 0.685644 0.314706
Si Si7 0.203522 0.403535 0.380288
O O1 0.500000 0.500000 0.500000
O O2 0.474495 0.746933 0.558614
O O3 0.378214 0.475605 0.583939
O O4 0.551353 0.526854 0.611935
O O5 0.119197 0.059754 0.075734
O O6 0.109181 0.226656 0.978439
O O7 0.000000 0.000000 0.000000
O O8 0.533935 0.750000 0.750000
O O9 0.667379 0.864985 0.685445
O O10 0.624818 0.998902 0.782398
O O11 0.506761 0.005844 0.692154
O O12 0.750000 0.750000 0.407632
O O13 0.907474 0.712891 0.360512
O O14 0.086114 0.740076 0.158829
O O15 0.224194 0.546276 0.122287
O O16 0.962348 0.750000 0.250000
O O17 0.250000 0.250000 0.405095
#
# Coordination Sequence:
#
# PCOD8201539 Si02
#       7
#     8   8   8   8   8   8   8
#     4   9  19  36  58  79 112 153 193 245 304 364
#     4  11  22  37  57  84 119 156 200 250 312 373
#     4  11  20  33  56  86 120 154 190 237 300 374
#     4  10  21  38  63  84 110 155 212 254 304 367
#     4  10  20  35  56  83 116 154 194 241 295 368
#     4   9  21  39  57  85 120 155 196 249 312 362
#     4  12  21  33  58  84 117 154 204 238 299 370
#
# _framework density 19.662680999999999
#
# number of rings (size 3 to 8) (size 9 to 14) (size 15 to 20)
#    0.000    1.714    2.857    1.714    2.000    0.857 
#    0.000    2.857    0.000    0.000    0.000    9.000 
#    0.000    0.000    0.000    0.000    0.000    0.000 
#
# Total GULP energy -693933.655498 kJ/mol
# GULP energy per Si atom -12391.672420 kJ/mol
# Density = 1.961793 g / cm^3
# Si number density = 19.662681 Si / 1000 Ang^3
#
#
#
# Elastic Constant Matrix: (Units=GPa)
#
#
# Indices 1 2 3 4 5 6 
#
# 1 129.0819 71.8765 48.9238 0.0000 0.0000 0.0000
# 2 71.8765 135.3792 32.8903 0.0000 0.0000 0.0000
# 3 48.9238 32.8903 91.1543 0.0000 0.0000 0.0000
# 4 0.0000 0.0000 0.0000 32.3941 0.0000 0.0000
# 5 0.0000 0.0000 0.0000 0.0000 29.2912 0.0000
# 6 0.0000 0.0000 0.0000 0.0000 0.0000 24.9500
#
#
#
# Elastic Compliance Matrix: (Units=1/GPa)
#
#
# Indices 1 2 3 4 5 6 
#
# 1 0.012655 -0.005556 -0.004788 0.000000 0.000000 0.000000
# 2 -0.005556 0.010536 -0.000820 0.000000 0.000000 0.000000
# 3 -0.004788 -0.000820 0.013836 0.000000 0.000000 0.000000
# 4 0.000000 0.000000 0.000000 0.030870 0.000000 0.000000
# 5 0.000000 0.000000 0.000000 0.000000 0.034140 0.000000
# 6 0.000000 0.000000 0.000000 0.000000 0.000000 0.040080
#
#
# Mechanical properties :
#
#
# Convention : Reuss Voigt Hill
#
# Bulk Modulus (GPa) = 68.02488 73.66628 70.84558
# Shear Modulus (GPa) = 29.52596 30.78870 30.15733
#
# Velocity S-wave (km/s) = 3.87928 3.96137 3.92054
# Velocity P-wave (km/s) = 7.39839 7.64654 7.52349
#
# Compressibility (1/GPa) = 0.01470050
#
# Stress axis : x y z
#
# Youngs Moduli (GPa) = 79.01864 94.91698 72.27703
#
# Poissons Ratio (x) = 0.52735 0.34603
# Poissons Ratio (y) = 0.43902 0.05923
# Poissons Ratio (z) = 0.37831 0.07779
#
# Static dielectric constant tensor:
#      x y z
#    x 3.364860 0.000000 0.000000 
#    y 0.000000 3.831240 0.000000 
#    z 0.000000 0.000000 3.781180 
# 
# 
# High freq. dielectric constant tensor:
#      x y z
#    x 1.727290 0.000000 0.000000 
#    y 0.000000 1.766630 0.000000 
#    z 0.000000 0.000000 1.787990 
# 
# From -- ./inp_files/15312.got.cif
#   From: 2010.06.25/outbox.cif.g09.slc.cpg/sg48_8_cif.got.tgz:15312.got - 2010.06.26 18:06:46.
