data_PCOD8201045
_publ_section_title
;
Structure prediction by ZEFSAII (Michael W. Deem and Ramdas Pophale) SiO2 
 PCOD8201045
Probable space group: P M M M
;
_chemical_formula_sum "Si O2"
_cell_formula_units_Z 32
_cell_length_a 22.014939
_cell_length_b 9.658398
_cell_length_c 9.173665
_cell_angle_alpha 90.000000
_cell_angle_beta 90.000000
_cell_angle_gamma 90.000000
_cell_volume 1950.587608
_symmetry_space_group_name_H-M "P M M M"
_symmetry_group_IT_number 47
_symmetry_cell_setting 'orthorhombic'
loop_
_space_group_symop_operation_xyz
x,y,z
-x,-y,z
x,-y,-z
-x,y,-z
-x,-y,-z
x,y,-z
-x,y,z
x,-y,z
loop_
_atom_site_type_symbol
_atom_site_label
_atom_site_fract_x
_atom_site_fract_y
_atom_site_fract_z
Si Si1 0.607996 0.346107 0.673389
Si Si2 0.256368 0.662807 0.665154
Si Si3 0.500000 0.843698 0.325906
Si Si4 0.164263 0.152066 0.835735
Si Si5 0.070247 0.000000 0.671857
O O1 0.605739 0.351291 0.500000
O O2 0.592235 0.500000 0.733377
O O3 0.675727 0.301880 0.722031
O O4 0.559548 0.235621 0.734390
O O5 0.247812 0.716699 0.500000
O O6 0.244862 0.500000 0.672550
O O7 0.208578 0.735740 0.768564
O O8 0.500000 0.844424 0.500000
O O9 0.500000 0.000000 0.264601
O O10 0.196441 0.000000 0.835528
O O11 0.101832 0.137611 0.741595
O O12 0.147829 0.198084 0.000000
O O13 0.080660 0.000000 0.500000
O O14 0.000000 0.000000 0.714344
#
# Coordination Sequence:
#
# PCOD8201045 Si02
#       5
#     8   8   4   8   4
#     4   8  14  24  37  54  80 116 154 193 240 290
#     4   9  17  29  46  68  93 124 164 206 246 287
#     4   9  15  21  31  53  84 115 150 195 245 291
#     4   9  19  31  46  71  99 128 159 191 233 282
#     4   9  17  31  53  77  99 126 159 192 227 269
#
# _framework density 16.405313
#
# number of rings (size 3 to 8) (size 9 to 14) (size 15 to 20)
#    0.750    2.500    0.000    2.625    0.000    4.000 
#    0.000    2.500    0.000    0.750    0.000    6.125 
#    0.000    7.000    0.000    0.000    0.000    0.000 
#
# Total GULP energy -396486.530548 kJ/mol
# GULP energy per Si atom -12390.204080 kJ/mol
# Density = 1.636797 g / cm^3
# Si number density = 16.405313 Si / 1000 Ang^3
#
#
#
# Elastic Constant Matrix: (Units=GPa)
#
#
# Indices 1 2 3 4 5 6 
#
# 1 141.4116 64.5624 54.1002 0.0000 0.0000 0.0000
# 2 64.5624 71.8533 31.9036 0.0000 0.0000 0.0000
# 3 54.1002 31.9036 71.3118 0.0000 0.0000 0.0000
# 4 0.0000 0.0000 0.0000 17.8501 0.0000 0.0000
# 5 0.0000 0.0000 0.0000 0.0000 2.0877 0.0000
# 6 0.0000 0.0000 0.0000 0.0000 0.0000 21.3038
#
#
#
# Elastic Compliance Matrix: (Units=1/GPa)
#
#
# Indices 1 2 3 4 5 6 
#
# 1 0.013873 -0.009724 -0.006175 0.000000 0.000000 0.000000
# 2 -0.009724 0.024183 -0.003442 0.000000 0.000000 0.000000
# 3 -0.006175 -0.003442 0.020247 0.000000 0.000000 0.000000
# 4 0.000000 0.000000 0.000000 0.056022 0.000000 0.000000
# 5 0.000000 0.000000 0.000000 0.000000 0.479000 0.000000
# 6 0.000000 0.000000 0.000000 0.000000 0.000000 0.046940
#
#
# Mechanical properties :
#
#
# Convention : Reuss Voigt Hill
#
# Bulk Modulus (GPa) = 50.96251 65.07878 58.02065
# Shear Modulus (GPa) = 7.29409 17.18235 12.23822
#
# Velocity S-wave (km/s) = 2.11088 3.23981 2.73425
# Velocity P-wave (km/s) = 6.08877 7.33148 6.73884
#
# Compressibility (1/GPa) = 0.01962227
#
# Stress axis : x y z
#
# Youngs Moduli (GPa) = 72.08049 41.35153 49.38993
#
# Poissons Ratio (x) = 0.40211 0.30496
# Poissons Ratio (y) = 0.70092 0.16999
# Poissons Ratio (z) = 0.44506 0.14233
#
# Static dielectric constant tensor:
#      x y z
#    x 3.093260 0.000000 0.000000 
#    y 0.000000 3.028520 0.000000 
#    z 0.000000 0.000000 2.774730 
# 
# 
# High freq. dielectric constant tensor:
#      x y z
#    x 1.626840 0.000000 0.000000 
#    y 0.000000 1.616910 0.000000 
#    z 0.000000 0.000000 1.598460 
# 
# From -- ./inp_files/12010.got.cif
#   From: 2010.03.12/outbox.cif.g09.slc.cpg/sg47_7_cif.got.tgz:12010.got - 2010.04.14 03:12:58.
