data_PCOD8201947
_publ_section_title
;
Structure prediction by ZEFSAII (Michael W. Deem and Ramdas Pophale) SiO2 
 PCOD8201947
Probable space group: P N N N
;
_chemical_formula_sum "Si O2"
_cell_formula_units_Z 56
_cell_length_a 14.762164
_cell_length_b 9.338031
_cell_length_c 17.442061
_cell_angle_alpha 90.000000
_cell_angle_beta 90.000000
_cell_angle_gamma 90.000000
_cell_volume 2404.380174
_symmetry_space_group_name_H-M "P N N N"
_symmetry_group_IT_number 48
_space_group.IT_coordinate_system_code '2'
_symmetry_cell_setting 'orthorhombic'
loop_
_space_group_symop_operation_xyz
x,y,z
1/2-x,1/2-y,z
x,1/2-y,1/2-z
1/2-x,y,1/2-z
-x,-y,-z
1/2+x,1/2+y,-z
-x,1/2+y,1/2+z
1/2+x,-y,1/2+z
loop_
_atom_site_type_symbol
_atom_site_label
_atom_site_fract_x
_atom_site_fract_y
_atom_site_fract_z
Si Si1 0.191933 0.930940 0.940819
Si Si2 0.977471 0.484359 0.224794
Si Si3 0.750000 0.250000 0.575512
Si Si4 0.750000 0.750000 0.885445
Si Si5 0.176383 0.536533 0.188190
Si Si6 0.954463 0.295219 0.369714
Si Si7 0.829699 0.635342 0.129637
Si Si8 0.096353 0.316459 0.499559
O O1 0.153018 0.802574 0.887752
O O2 0.281709 0.992572 0.901678
O O3 0.202565 0.870352 0.025302
O O4 0.109156 0.045100 0.946640
O O5 0.970971 0.425180 0.310603
O O6 0.978836 0.357054 0.163678
O O7 0.895185 0.594485 0.202093
O O8 0.075865 0.555436 0.221458
O O9 0.822053 0.157430 0.623142
O O10 0.800912 0.628023 0.835779
O O11 0.822318 0.826767 0.938797
O O12 0.250000 0.583977 0.250000
O O13 0.004563 0.312320 0.451646
O O14 0.750000 0.750000 0.152411
O O15 0.892983 0.683961 0.058451
#
# Coordination Sequence:
#
# PCOD8201947 Si02
#       8
#     8   8   4   4   8   8   8   8
#     4  11  23  43  67  97 143 186 239 312 369 425
#     4  11  26  45  70 107 141 194 249 295 374 455
#     4  12  25  42  66 105 138 192 238 304 376 423
#     4  12  19  42  74 100 137 186 246 282 368 447
#     4  12  26  44  71 104 151 192 237 306 373 453
#     4  11  25  42  69 104 142 188 245 304 367 450
#     4  10  23  46  74 106 141 194 253 308 372 443
#     4  11  20  42  69 104 139 189 245 300 365 443
#
# _framework density 23.290824000000001
#
# number of rings (size 3 to 8) (size 9 to 14) (size 15 to 20)
#    0.000    0.857    5.000    2.571    4.000    1.143 
#    0.000    6.429    0.000    0.000    0.000    0.000 
#    0.000    0.000    0.000    0.000    0.000    0.000 
#
# Total GULP energy -693964.314201 kJ/mol
# GULP energy per Si atom -12392.219896 kJ/mol
# Density = 2.323781 g / cm^3
# Si number density = 23.290824 Si / 1000 Ang^3
#
#
#
# Elastic Constant Matrix: (Units=GPa)
#
#
# Indices 1 2 3 4 5 6 
#
# 1 125.1256 44.8957 41.0199 0.0000 0.0000 0.0000
# 2 44.8957 71.5082 6.9345 0.0000 0.0000 0.0000
# 3 41.0199 6.9345 45.8920 0.0000 0.0000 0.0000
# 4 0.0000 0.0000 0.0000 27.3754 0.0000 0.0000
# 5 0.0000 0.0000 0.0000 0.0000 26.2667 0.0000
# 6 0.0000 0.0000 0.0000 0.0000 0.0000 28.5070
#
#
#
# Elastic Compliance Matrix: (Units=1/GPa)
#
#
# Indices 1 2 3 4 5 6 
#
# 1 0.014879 -0.008172 -0.012065 0.000000 0.000000 0.000000
# 2 -0.008172 0.018680 0.004482 0.000000 0.000000 0.000000
# 3 -0.012065 0.004482 0.031897 0.000000 0.000000 0.000000
# 4 0.000000 0.000000 0.000000 0.036529 0.000000 0.000000
# 5 0.000000 0.000000 0.000000 0.000000 0.038071 0.000000
# 6 0.000000 0.000000 0.000000 0.000000 0.000000 0.035079
#
#
# Mechanical properties :
#
#
# Convention : Reuss Voigt Hill
#
# Bulk Modulus (GPa) = 29.45800 47.58065 38.51932
# Shear Modulus (GPa) = 22.93980 26.40820 24.67400
#
# Velocity S-wave (km/s) = 3.14176 3.37092 3.25835
# Velocity P-wave (km/s) = 5.08294 5.96859 5.54348
#
# Compressibility (1/GPa) = 0.03394664
#
# Stress axis : x y z
#
# Youngs Moduli (GPa) = 67.20752 53.53199 31.35078
#
# Poissons Ratio (x) = 0.43745 0.37824
# Poissons Ratio (y) = 0.54921 -0.14050
# Poissons Ratio (z) = 0.81085 -0.23991
#
# Static dielectric constant tensor:
#      x y z
#    x 4.438200 0.000000 0.000000 
#    y 0.000000 4.294360 0.000000 
#    z 0.000000 0.000000 4.272150 
# 
# 
# High freq. dielectric constant tensor:
#      x y z
#    x 1.917620 0.000000 0.000000 
#    y 0.000000 1.930070 0.000000 
#    z 0.000000 0.000000 1.922060 
# 
# From -- ./inp_files/34500.got.cif
#   From: 2010.06.25/outbox.cif.g09.slc.cpg/sg48_18_cif.got.tgz:34500.got - 2010.06.26 18:06:46.
