data_PCOD8201885
_publ_section_title
;
Structure prediction by ZEFSAII (Michael W. Deem and Ramdas Pophale) SiO2 
 PCOD8201885
Probable space group: P N N N
;
_chemical_formula_sum "Si O2"
_cell_formula_units_Z 56
_cell_length_a 13.841575
_cell_length_b 12.770701
_cell_length_c 14.196073
_cell_angle_alpha 90.000000
_cell_angle_beta 90.000000
_cell_angle_gamma 90.000000
_cell_volume 2509.391780
_symmetry_space_group_name_H-M "P N N N"
_symmetry_group_IT_number 48
_space_group.IT_coordinate_system_code '2'
_symmetry_cell_setting 'orthorhombic'
loop_
_space_group_symop_operation_xyz
x,y,z
1/2-x,1/2-y,z
x,1/2-y,1/2-z
1/2-x,y,1/2-z
-x,-y,-z
1/2+x,1/2+y,-z
-x,1/2+y,1/2+z
1/2+x,-y,1/2+z
loop_
_atom_site_type_symbol
_atom_site_label
_atom_site_fract_x
_atom_site_fract_y
_atom_site_fract_z
Si Si1 0.216988 0.635464 0.355246
Si Si2 0.260377 0.975329 0.965441
Si Si3 0.950333 0.771252 0.854102
Si Si4 0.650587 0.801157 0.035118
Si Si5 0.079330 0.971977 0.845345
Si Si6 0.859334 0.158947 0.318407
Si Si7 0.506539 0.188003 0.658529
O O1 0.250000 0.750000 0.380526
O O2 0.250000 0.602135 0.250000
O O3 0.266080 0.551570 0.424248
O O4 0.104312 0.640015 0.383758
O O5 0.149059 0.991794 0.935114
O O6 0.291784 0.874077 0.904431
O O7 0.332620 0.074185 0.954377
O O8 0.906105 0.750000 0.750000
O O9 0.990907 0.890757 0.868332
O O10 0.040004 0.692322 0.865609
O O11 0.868089 0.740444 0.928778
O O12 0.750000 0.750000 0.072262
O O13 0.556287 0.765589 0.093243
O O14 0.135126 0.938475 0.751759
O O15 0.051507 0.086661 0.812735
O O16 0.818343 0.250000 0.250000
O O17 0.540129 0.250000 0.750000
#
# Coordination Sequence:
#
# PCOD8201885 Si02
#       7
#     8   8   8   8   8   8   8
#     4  11  27  49  71 106 133 184 244 286 352 409
#     4  12  25  42  70 103 145 177 234 294 348 429
#     4   9  23  44  67  97 136 178 239 293 346 410
#     4  12  27  45  64 107 140 188 232 280 360 424
#     4  10  22  42  70 101 134 190 228 282 363 416
#     4   9  22  41  68 105 131 172 228 289 355 403
#     4  12  25  46  73  94 145 186 232 295 340 429
#
# _framework density 22.316164000000001
#
# number of rings (size 3 to 8) (size 9 to 14) (size 15 to 20)
#    0.000    1.571    2.857    2.143    8.000    6.857 
#    0.000    0.000    0.000    0.000    0.000    0.000 
#    0.000    0.000    0.000    0.000    0.000    0.000 
#
# Total GULP energy -693822.855678 kJ/mol
# GULP energy per Si atom -12389.693851 kJ/mol
# Density = 2.226537 g / cm^3
# Si number density = 22.316164 Si / 1000 Ang^3
#
#
#
# Elastic Constant Matrix: (Units=GPa)
#
#
# Indices 1 2 3 4 5 6 
#
# 1 75.6951 25.1513 38.9899 0.0000 0.0000 0.0000
# 2 25.1513 131.6456 51.5728 0.0000 0.0000 0.0000
# 3 38.9899 51.5728 102.1144 0.0000 0.0000 0.0000
# 4 0.0000 0.0000 0.0000 31.8006 0.0000 0.0000
# 5 0.0000 0.0000 0.0000 0.0000 16.1707 0.0000
# 6 0.0000 0.0000 0.0000 0.0000 0.0000 58.4109
#
#
#
# Elastic Compliance Matrix: (Units=1/GPa)
#
#
# Indices 1 2 3 4 5 6 
#
# 1 0.016522 -0.000854 -0.005877 0.000000 0.000000 0.000000
# 2 -0.000854 0.009514 -0.004479 0.000000 0.000000 0.000000
# 3 -0.005877 -0.004479 0.014299 0.000000 0.000000 0.000000
# 4 0.000000 0.000000 0.000000 0.031446 0.000000 0.000000
# 5 0.000000 0.000000 0.000000 0.000000 0.061840 0.000000
# 6 0.000000 0.000000 0.000000 0.000000 0.000000 0.017120
#
#
# Mechanical properties :
#
#
# Convention : Reuss Voigt Hill
#
# Bulk Modulus (GPa) = 55.82029 60.09810 57.95919
# Shear Modulus (GPa) = 27.91221 34.19250 31.05236
#
# Velocity S-wave (km/s) = 3.54045 3.91856 3.73429
# Velocity P-wave (km/s) = 6.46380 6.88929 6.67993
#
# Compressibility (1/GPa) = 0.01791463
#
# Stress axis : x y z
#
# Youngs Moduli (GPa) = 60.52551 105.10858 69.93488
#
# Poissons Ratio (x) = 0.08978 0.41101
# Poissons Ratio (y) = 0.05170 0.31323
# Poissons Ratio (z) = 0.35571 0.47077
#
# Static dielectric constant tensor:
#      x y z
#    x 3.344390 0.000000 0.000000 
#    y 0.000000 4.057980 0.000000 
#    z 0.000000 0.000000 3.957500 
# 
# 
# High freq. dielectric constant tensor:
#      x y z
#    x 1.877730 0.000000 0.000000 
#    y 0.000000 1.884350 0.000000 
#    z 0.000000 0.000000 1.876930 
# 
# From -- ./inp_files/27297.got.cif
#   From: 2010.06.25/outbox.cif.g09.slc.cpg/sg48_14_cif.got.tgz:27297.got - 2010.06.26 18:06:46.
