data_PCOD8201419
_publ_section_title
;
Structure prediction by ZEFSAII (Michael W. Deem and Ramdas Pophale) SiO2 
 PCOD8201419
Probable space group: P N N N
;
_chemical_formula_sum "Si O2"
_cell_formula_units_Z 32
_cell_length_a 8.495112
_cell_length_b 5.088946
_cell_length_c 34.673695
_cell_angle_alpha 90.000000
_cell_angle_beta 90.000000
_cell_angle_gamma 90.000000
_cell_volume 1498.984272
_symmetry_space_group_name_H-M "P N N N"
_symmetry_group_IT_number 48
_space_group.IT_coordinate_system_code '2'
_symmetry_cell_setting 'orthorhombic'
loop_
_space_group_symop_operation_xyz
x,y,z
1/2-x,1/2-y,z
x,1/2-y,1/2-z
1/2-x,y,1/2-z
-x,-y,-z
1/2+x,1/2+y,-z
-x,1/2+y,1/2+z
1/2+x,-y,1/2+z
loop_
_atom_site_type_symbol
_atom_site_label
_atom_site_fract_x
_atom_site_fract_y
_atom_site_fract_z
Si Si1 0.355018 0.007895 0.471600
Si Si2 0.580604 0.853774 0.614912
Si Si3 0.920328 0.643357 0.144390
Si Si4 0.074861 0.497337 0.767526
O O1 0.250000 0.250000 0.484930
O O2 0.419692 0.044776 0.428615
O O3 0.250000 0.750000 0.474251
O O4 0.500000 0.000000 0.500000
O O5 0.750000 0.750000 0.628951
O O6 0.464017 0.602373 0.617018
O O7 0.535656 0.104783 0.641328
O O8 0.750000 0.750000 0.132268
O O9 0.920987 0.515273 0.186631
O O10 0.981609 0.250000 0.750000
O O11 0.250000 0.498204 0.750000
O O12 0.985473 0.750000 0.750000
#
# Coordination Sequence:
#
# PCOD8201419 Si02
#       4
#     8   8   8   8
#     4  11  24  45  71  97 133 180 220 268 328 395
#     4  11  25  44  63  94 143 179 205 260 357 401
#     4  12  23  39  68 103 122 169 232 283 312 386
#     4  10  19  34  59  91 125 158 208 274 342 366
#
# _framework density 21.34779
#
# number of rings (size 3 to 8) (size 9 to 14) (size 15 to 20)
#    0.000    1.000    2.500    6.750    3.500    3.000 
#    0.000    0.000    0.000   11.250    0.000    0.000 
#    0.000    0.000    0.000    0.000    0.000    0.000 
#
# Total GULP energy -396675.841658 kJ/mol
# GULP energy per Si atom -12396.120052 kJ/mol
# Density = 2.129920 g / cm^3
# Si number density = 21.347790 Si / 1000 Ang^3
#
#
#
# Elastic Constant Matrix: (Units=GPa)
#
#
# Indices 1 2 3 4 5 6 
#
# 1 100.7214 72.4831 78.0940 0.0000 0.0000 0.0000
# 2 72.4831 234.2509 71.2672 0.0000 0.0000 0.0000
# 3 78.0940 71.2672 106.1159 0.0000 0.0000 0.0000
# 4 0.0000 0.0000 0.0000 53.7550 0.0000 0.0000
# 5 0.0000 0.0000 0.0000 0.0000 22.1942 0.0000
# 6 0.0000 0.0000 0.0000 0.0000 0.0000 35.0041
#
#
#
# Elastic Compliance Matrix: (Units=1/GPa)
#
#
# Indices 1 2 3 4 5 6 
#
# 1 0.024333 -0.002616 -0.016151 0.000000 0.000000 0.000000
# 2 -0.002616 0.005646 -0.001867 0.000000 0.000000 0.000000
# 3 -0.016151 -0.001867 0.022564 0.000000 0.000000 0.000000
# 4 0.000000 0.000000 0.000000 0.018603 0.000000 0.000000
# 5 0.000000 0.000000 0.000000 0.000000 0.045057 0.000000
# 6 0.000000 0.000000 0.000000 0.000000 0.000000 0.028568
#
#
# Mechanical properties :
#
#
# Convention : Reuss Voigt Hill
#
# Bulk Modulus (GPa) = 88.68583 98.30853 93.49718
# Shear Modulus (GPa) = 26.34394 36.80693 31.57544
#
# Velocity S-wave (km/s) = 3.51670 4.15680 3.85007
# Velocity P-wave (km/s) = 7.62385 8.31803 7.97849
#
# Compressibility (1/GPa) = 0.01127576
#
# Stress axis : x y z
#
# Youngs Moduli (GPa) = 41.09596 177.10666 44.31915
#
# Poissons Ratio (x) = 0.46325 0.71580
# Poissons Ratio (y) = 0.10749 0.08275
# Poissons Ratio (z) = 0.66374 0.33068
#
# Static dielectric constant tensor:
#      x y z
#    x 3.718290 0.000000 0.000000 
#    y 0.000000 3.098230 0.000000 
#    z 0.000000 0.000000 3.882750 
# 
# 
# High freq. dielectric constant tensor:
#      x y z
#    x 1.813450 0.000000 0.000000 
#    y 0.000000 1.880350 0.000000 
#    z 0.000000 0.000000 1.833840 
# 
# From -- ./inp_files/6812.got.cif
#   From: 2010.06.25/outbox.cif.g09.slc.cpg/sg48_4_cif.got.tgz:6812.got - 2010.06.26 18:06:46.
