data_PCOD8201075
_publ_section_title
;
Structure prediction by ZEFSAII (Michael W. Deem and Ramdas Pophale) SiO2 
 PCOD8201075
Probable space group: P M M M
;
_chemical_formula_sum "Si O2"
_cell_formula_units_Z 52
_cell_length_a 7.999317
_cell_length_b 35.455920
_cell_length_c 9.947482
_cell_angle_alpha 90.000000
_cell_angle_beta 90.000000
_cell_angle_gamma 90.000000
_cell_volume 2821.336116
_symmetry_space_group_name_H-M "P M M M"
_symmetry_group_IT_number 47
_symmetry_cell_setting 'orthorhombic'
loop_
_space_group_symop_operation_xyz
x,y,z
-x,-y,z
x,-y,-z
-x,y,-z
-x,-y,-z
x,y,-z
-x,y,z
x,-y,z
loop_
_atom_site_type_symbol
_atom_site_label
_atom_site_fract_x
_atom_site_fract_y
_atom_site_fract_z
Si Si1 0.302187 0.171046 0.846556
Si Si2 0.814272 0.910197 0.159541
Si Si3 0.192693 0.396666 0.351162
Si Si4 0.500000 0.957224 0.160513
Si Si5 0.315313 0.682141 0.340456
Si Si6 0.300248 0.763832 0.650986
Si Si7 0.198845 0.457972 0.149882
O O1 0.500000 0.166136 0.833783
O O2 0.217915 0.132641 0.794324
O O3 0.232596 0.204531 0.752770
O O4 0.250952 0.180029 0.000000
O O5 0.668139 0.937190 0.217995
O O6 0.000000 0.922872 0.209652
O O7 0.805798 0.912122 0.000000
O O8 0.276198 0.399611 0.500000
O O9 0.210168 0.354177 0.292154
O O10 0.277793 0.427182 0.251804
O O11 0.000000 0.406610 0.363757
O O12 0.500000 0.000000 0.212831
O O13 0.500000 0.955399 0.000000
O O14 0.324382 0.683373 0.500000
O O15 0.500000 0.677458 0.278593
O O16 0.236067 0.722592 0.296743
O O17 0.234461 0.772611 0.500000
O O18 0.500000 0.762825 0.650305
O O19 0.252599 0.500000 0.196513
O O20 0.000000 0.454743 0.147528
O O21 0.268117 0.449976 0.000000
#
# Coordination Sequence:
#
# PCOD8201075 Si02
#       7
#     8   8   8   4   8   8   8
#     4   9  15  25  42  61  83 112 144 178 218 262
#     4   9  16  26  40  59  86 119 151 185 230 279
#     4   9  16  25  40  62  81  97 125 166 205 239
#     4   9  16  26  40  60  87 119 157 195 229 273
#     4   8  14  26  42  58  80 111 140 165 203 254
#     4   8  14  25  42  62  82 109 146 181 211 249
#     4   8  14  25  40  57  78 104 131 159 198 249
#
# _framework density 18.430983999999999
#
# number of rings (size 3 to 8) (size 9 to 14) (size 15 to 20)
#    0.000    3.462    0.769    1.385    0.000    0.615 
#    0.000    4.615    0.000    3.231    0.000    3.231 
#    0.000    1.231    0.000    1.385    0.000    1.538 
#
# Total GULP energy -644229.165304 kJ/mol
# GULP energy per Si atom -12389.022410 kJ/mol
# Density = 1.838903 g / cm^3
# Si number density = 18.430984 Si / 1000 Ang^3
#
#
#
# Elastic Constant Matrix: (Units=GPa)
#
#
# Indices 1 2 3 4 5 6 
#
# 1 51.9673 44.5721 16.5402 0.0000 0.0000 0.0000
# 2 44.5721 180.1584 64.5928 0.0000 0.0000 0.0000
# 3 16.5402 64.5928 58.2920 0.0000 0.0000 0.0000
# 4 0.0000 0.0000 0.0000 19.9883 0.0000 0.0000
# 5 0.0000 0.0000 0.0000 0.0000 5.3730 0.0000
# 6 0.0000 0.0000 0.0000 0.0000 0.0000 20.0390
#
#
#
# Elastic Compliance Matrix: (Units=1/GPa)
#
#
# Indices 1 2 3 4 5 6 
#
# 1 0.024431 -0.005905 -0.000389 0.000000 0.000000 0.000000
# 2 -0.005905 0.010637 -0.010111 0.000000 0.000000 0.000000
# 3 -0.000389 -0.010111 0.028469 0.000000 0.000000 0.000000
# 4 0.000000 0.000000 0.000000 0.050029 0.000000 0.000000
# 5 0.000000 0.000000 0.000000 0.000000 0.186115 0.000000
# 6 0.000000 0.000000 0.000000 0.000000 0.000000 0.049903
#
#
# Mechanical properties :
#
#
# Convention : Reuss Voigt Hill
#
# Bulk Modulus (GPa) = 32.54432 60.20311 46.37372
# Shear Modulus (GPa) = 12.73443 20.06090 16.39766
#
# Velocity S-wave (km/s) = 2.63140 3.30272 2.98599
# Velocity P-wave (km/s) = 5.18923 6.87597 6.09126
#
# Compressibility (1/GPa) = 0.03072733
#
# Stress axis : x y z
#
# Youngs Moduli (GPa) = 40.93099 94.01439 35.12568
#
# Poissons Ratio (x) = 0.55515 0.01367
# Poissons Ratio (y) = 0.24169 0.35515
# Poissons Ratio (z) = 0.01593 0.95057
#
# Static dielectric constant tensor:
#      x y z
#    x 3.164750 0.000000 0.000000 
#    y 0.000000 3.740050 0.000000 
#    z 0.000000 0.000000 3.210350 
# 
# 
# High freq. dielectric constant tensor:
#      x y z
#    x 1.686950 0.000000 0.000000 
#    y 0.000000 1.725410 0.000000 
#    z 0.000000 0.000000 1.658930 
# 
# From -- ./inp_files/15489.got.cif
#   From: 2010.03.12/outbox.cif.g09.slc.cpg/sg47_8_cif.got.tgz:15489.got - 2010.04.14 03:12:58.
