data_PCOD8201187
_publ_section_title
;
Structure prediction by ZEFSAII (Michael W. Deem and Ramdas Pophale) SiO2 
 PCOD8201187
Probable space group: P M M M
;
_chemical_formula_sum "Si O2"
_cell_formula_units_Z 32
_cell_length_a 9.225179
_cell_length_b 20.870116
_cell_length_c 9.117022
_cell_angle_alpha 90.000000
_cell_angle_beta 90.000000
_cell_angle_gamma 90.000000
_cell_volume 1755.305313
_symmetry_space_group_name_H-M "P M M M"
_symmetry_group_IT_number 47
_symmetry_cell_setting 'orthorhombic'
loop_
_space_group_symop_operation_xyz
x,y,z
-x,-y,z
x,-y,-z
-x,y,-z
-x,-y,-z
x,y,-z
-x,y,z
x,-y,z
loop_
_atom_site_type_symbol
_atom_site_label
_atom_site_fract_x
_atom_site_fract_y
_atom_site_fract_z
Si Si1 0.827198 0.000000 0.834131
Si Si2 0.168647 0.624339 0.328879
Si Si3 0.172589 0.249208 0.165526
Si Si4 0.172919 0.875071 0.665867
Si Si5 0.336399 0.500000 0.325530
O O1 0.767931 0.062661 0.750818
O O2 0.000000 0.000000 0.834650
O O3 0.767445 0.000000 0.000000
O O4 0.197722 0.636078 0.500000
O O5 0.227869 0.686276 0.243414
O O6 0.255063 0.563133 0.267252
O O7 0.000000 0.611924 0.297975
O O8 0.233819 0.187994 0.253149
O O9 0.000000 0.247540 0.167095
O O10 0.232453 0.247094 0.000000
O O11 0.232317 0.876136 0.500000
O O12 0.000000 0.874771 0.666005
O O13 0.500000 0.500000 0.265381
O O14 0.331959 0.500000 0.500000
#
# Coordination Sequence:
#
# PCOD8201187 Si02
#       5
#     4   8   8   8   4
#     4   9  15  21  29  43  67 101 138 173 210 253
#     4   9  16  27  44  64  84 108 140 176 212 252
#     4   9  16  25  37  54  76 102 134 173 214 253
#     4   9  15  22  32  47  69  99 136 175 212 251
#     4   9  17  29  46  67  88 110 138 173 212 254
#
# _framework density 18.230447000000002
#
# number of rings (size 3 to 8) (size 9 to 14) (size 15 to 20)
#    0.000    3.000    0.000    2.250    0.000    9.000 
#    0.000    0.625    0.000    4.500    0.000    0.000 
#    0.000    0.000    0.000    1.125    0.000   24.500 
#
# Total GULP energy -396758.714569 kJ/mol
# GULP energy per Si atom -12398.709830 kJ/mol
# Density = 1.818895 g / cm^3
# Si number density = 18.230447 Si / 1000 Ang^3
#
#
#
# Elastic Constant Matrix: (Units=GPa)
#
#
# Indices 1 2 3 4 5 6 
#
# 1 27.2427 35.2651 20.5361 0.0000 0.0000 0.0000
# 2 35.2651 217.1956 97.8866 0.0000 0.0000 0.0000
# 3 20.5361 97.8866 138.4259 0.0000 0.0000 0.0000
# 4 0.0000 0.0000 0.0000 22.2937 0.0000 0.0000
# 5 0.0000 0.0000 0.0000 0.0000 4.3926 0.0000
# 6 0.0000 0.0000 0.0000 0.0000 0.0000 1.0431
#
#
#
# Elastic Compliance Matrix: (Units=1/GPa)
#
#
# Indices 1 2 3 4 5 6 
#
# 1 0.046974 -0.006585 -0.002312 0.000000 0.000000 0.000000
# 2 -0.006585 0.007681 -0.004455 0.000000 0.000000 0.000000
# 3 -0.002312 -0.004455 0.010717 0.000000 0.000000 0.000000
# 4 0.000000 0.000000 0.000000 0.044856 0.000000 0.000000
# 5 0.000000 0.000000 0.000000 0.000000 0.227656 0.000000
# 6 0.000000 0.000000 0.000000 0.000000 0.000000 0.958709
#
#
# Mechanical properties :
#
#
# Convention : Reuss Voigt Hill
#
# Bulk Modulus (GPa) = 25.86086 76.69331 51.27708
# Shear Modulus (GPa) = 3.74199 20.82429 12.28314
#
# Velocity S-wave (km/s) = 1.43425 3.38343 2.59853
# Velocity P-wave (km/s) = 4.11814 7.57784 6.09847
#
# Compressibility (1/GPa) = 0.03866848
#
# Stress axis : x y z
#
# Youngs Moduli (GPa) = 21.28835 130.19291 93.30823
#
# Poissons Ratio (x) = 0.85730 0.21577
# Poissons Ratio (y) = 0.14018 0.41565
# Poissons Ratio (z) = 0.04923 0.57996
#
# Static dielectric constant tensor:
#      x y z
#    x 2.647440 0.000000 0.000000 
#    y 0.000000 3.643180 0.000000 
#    z 0.000000 0.000000 3.393020 
# 
# 
# High freq. dielectric constant tensor:
#      x y z
#    x 1.622880 0.000000 0.000000 
#    y 0.000000 1.728280 0.000000 
#    z 0.000000 0.000000 1.703000 
# 
# From -- ./inp_files/3842.got.cif
#   From: 2010.03.12/outbox.cif.g09.slc.cpg/sg47_2_cif.got.tgz:3842.got - 2010.04.14 03:12:58.
