data_PCOD8201128
_publ_section_title
;
Structure prediction by ZEFSAII (Michael W. Deem and Ramdas Pophale) SiO2 
 PCOD8201128
Probable space group: P M M M
;
_chemical_formula_sum "Si O2"
_cell_formula_units_Z 44
_cell_length_a 9.206003
_cell_length_b 28.328592
_cell_length_c 9.768643
_cell_angle_alpha 90.000000
_cell_angle_beta 90.000000
_cell_angle_gamma 90.000000
_cell_volume 2547.594719
_symmetry_space_group_name_H-M "P M M M"
_symmetry_group_IT_number 47
_symmetry_cell_setting 'orthorhombic'
loop_
_space_group_symop_operation_xyz
x,y,z
-x,-y,z
x,-y,-z
-x,y,-z
-x,-y,-z
x,y,-z
-x,y,z
x,-y,z
loop_
_atom_site_type_symbol
_atom_site_label
_atom_site_fract_x
_atom_site_fract_y
_atom_site_fract_z
Si Si1 0.169359 0.770638 0.342827
Si Si2 0.663909 0.409242 0.837242
Si Si3 0.670499 0.135321 0.657152
Si Si4 0.164536 0.500000 0.163403
Si Si5 0.327339 0.052223 0.846335
Si Si6 0.169269 0.316524 0.841689
O O1 0.207521 0.758459 0.500000
O O2 0.253646 0.816915 0.292397
O O3 0.221339 0.727619 0.248307
O O4 0.000000 0.780580 0.323449
O O5 0.500000 0.410601 0.779402
O O6 0.752568 0.453961 0.779361
O O7 0.741896 0.361559 0.787878
O O8 0.662881 0.411302 0.000000
O O9 0.708396 0.124756 0.500000
O O10 0.500000 0.141588 0.680834
O O11 0.735239 0.091664 0.743930
O O12 0.000000 0.500000 0.219479
O O13 0.164109 0.500000 0.000000
O O14 0.500000 0.052524 0.840019
O O15 0.271133 0.000000 0.802936
O O16 0.274496 0.063974 0.000000
O O17 0.000000 0.327574 0.819839
O O18 0.203336 0.305278 0.000000
#
# Coordination Sequence:
#
# PCOD8201128 Si02
#       6
#     8   8   8   4   8   8
#     4   9  18  32  47  62  84 115 146 175 212 259
#     4   9  16  25  38  59  87 115 143 178 219 259
#     4   9  17  28  43  64  86 107 137 178 216 249
#     4   9  15  23  37  57  84 119 152 179 212 256
#     4   8  14  25  41  62  88 115 141 171 210 255
#     4   9  17  29  44  62  84 110 142 178 213 252
#
# _framework density 17.271194000000001
#
# number of rings (size 3 to 8) (size 9 to 14) (size 15 to 20)
#    0.000    3.182    0.000    1.364    0.000    5.091 
#    0.000    1.818    0.000    0.545    0.000    4.455 
#    0.000    5.091    0.000    0.000    0.000    0.000 
#
# Total GULP energy -545511.932816 kJ/mol
# GULP energy per Si atom -12397.998473 kJ/mol
# Density = 1.723188 g / cm^3
# Si number density = 17.271194 Si / 1000 Ang^3
#
#
#
# Elastic Constant Matrix: (Units=GPa)
#
#
# Indices 1 2 3 4 5 6 
#
# 1 68.1457 68.3146 28.8626 0.0000 0.0000 0.0000
# 2 68.3146 195.5919 74.2893 0.0000 0.0000 0.0000
# 3 28.8626 74.2893 55.6225 0.0000 0.0000 0.0000
# 4 0.0000 0.0000 0.0000 10.0147 0.0000 0.0000
# 5 0.0000 0.0000 0.0000 0.0000 11.8552 0.0000
# 6 0.0000 0.0000 0.0000 0.0000 0.0000 21.9746
#
#
#
# Elastic Compliance Matrix: (Units=1/GPa)
#
#
# Indices 1 2 3 4 5 6 
#
# 1 0.022740 -0.007024 -0.002419 0.000000 0.000000 0.000000
# 2 -0.007024 0.012546 -0.013112 0.000000 0.000000 0.000000
# 3 -0.002419 -0.013112 0.036746 0.000000 0.000000 0.000000
# 4 0.000000 0.000000 0.000000 0.099854 0.000000 0.000000
# 5 0.000000 0.000000 0.000000 0.000000 0.084351 0.000000
# 6 0.000000 0.000000 0.000000 0.000000 0.000000 0.045507
#
#
# Mechanical properties :
#
#
# Convention : Reuss Voigt Hill
#
# Bulk Modulus (GPa) = 37.14343 73.58812 55.36578
# Shear Modulus (GPa) = 14.05178 18.62845 16.34011
#
# Velocity S-wave (km/s) = 2.85546 3.28774 3.07920
# Velocity P-wave (km/s) = 5.69422 7.55727 6.69091
#
# Compressibility (1/GPa) = 0.02692266
#
# Stress axis : x y z
#
# Youngs Moduli (GPa) = 43.97523 79.70730 27.21411
#
# Poissons Ratio (x) = 0.55983 0.06583
# Poissons Ratio (y) = 0.30886 0.35682
# Poissons Ratio (z) = 0.10638 1.04510
#
# Static dielectric constant tensor:
#      x y z
#    x 3.085220 0.000000 0.000000 
#    y 0.000000 3.476550 0.000000 
#    z 0.000000 0.000000 2.995170 
# 
# 
# High freq. dielectric constant tensor:
#      x y z
#    x 1.648610 0.000000 0.000000 
#    y 0.000000 1.679930 0.000000 
#    z 0.000000 0.000000 1.630070 
# 
# From -- ./inp_files/2154.got.cif
#   From: 2010.03.12/outbox.cif.g09.slc.cpg/sg47_2_cif.got.tgz:2154.got - 2010.04.14 03:12:58.
