data_PCOD8201828
_publ_section_title
;
Structure prediction by ZEFSAII (Michael W. Deem and Ramdas Pophale) SiO2 
 PCOD8201828
Probable space group: P N N N
;
_chemical_formula_sum "Si O2"
_cell_formula_units_Z 40
_cell_length_a 11.011473
_cell_length_b 17.924354
_cell_length_c 8.632970
_cell_angle_alpha 90.000000
_cell_angle_beta 90.000000
_cell_angle_gamma 90.000000
_cell_volume 1703.919851
_symmetry_space_group_name_H-M "P N N N"
_symmetry_group_IT_number 48
_space_group.IT_coordinate_system_code '2'
_symmetry_cell_setting 'orthorhombic'
loop_
_space_group_symop_operation_xyz
x,y,z
1/2-x,1/2-y,z
x,1/2-y,1/2-z
1/2-x,y,1/2-z
-x,-y,-z
1/2+x,1/2+y,-z
-x,1/2+y,1/2+z
1/2+x,-y,1/2+z
loop_
_atom_site_type_symbol
_atom_site_label
_atom_site_fract_x
_atom_site_fract_y
_atom_site_fract_z
Si Si1 0.697706 0.988685 0.009495
Si Si2 0.225469 0.847159 0.577286
Si Si3 0.436493 0.760002 0.430649
Si Si4 0.560397 0.603161 0.981578
Si Si5 0.012437 0.990099 0.256656
O O1 0.800488 0.925091 0.998650
O O2 0.749842 0.065142 0.076075
O O3 0.594481 0.963532 0.130167
O O4 0.640966 0.005955 0.842716
O O5 0.250000 0.817075 0.750000
O O6 0.318610 0.810934 0.456754
O O7 0.090342 0.819820 0.517036
O O8 0.464406 0.750000 0.250000
O O9 0.549716 0.806456 0.508829
O O10 0.478582 0.570869 0.121963
O O11 0.498394 0.572484 0.822634
#
# Coordination Sequence:
#
# PCOD8201828 Si02
#       5
#     8   8   8   8   8
#     4  11  22  39  65  98 126 165 222 281 332 392
#     4  11  21  37  62  90 126 172 224 279 333 390
#     4  11  23  36  56  89 128 170 214 266 331 401
#     4  11  21  38  62  93 131 169 215 276 336 393
#     4  10  22  37  62  94 128 165 217 274 332 393
#
# _framework density 23.475283999999998
#
# number of rings (size 3 to 8) (size 9 to 14) (size 15 to 20)
#    0.000    1.200    0.000    9.600    0.000    1.600 
#    0.000    0.000    0.000   16.800    0.000   16.800 
#    0.000    0.000    0.000    0.000    0.000    0.000 
#
# Total GULP energy -495627.600574 kJ/mol
# GULP energy per Si atom -12390.690014 kJ/mol
# Density = 2.342185 g / cm^3
# Si number density = 23.475284 Si / 1000 Ang^3
#
#
#
# Elastic Constant Matrix: (Units=GPa)
#
#
# Indices 1 2 3 4 5 6 
#
# 1 124.9675 42.7258 43.3468 0.0000 0.0000 0.0000
# 2 42.7258 65.9399 -5.6509 0.0000 0.0000 0.0000
# 3 43.3468 -5.6509 105.5042 0.0000 0.0000 0.0000
# 4 0.0000 0.0000 0.0000 28.7511 0.0000 0.0000
# 5 0.0000 0.0000 0.0000 0.0000 24.5726 0.0000
# 6 0.0000 0.0000 0.0000 0.0000 0.0000 46.5798
#
#
#
# Elastic Compliance Matrix: (Units=1/GPa)
#
#
# Indices 1 2 3 4 5 6 
#
# 1 0.013116 -0.009002 -0.005871 0.000000 0.000000 0.000000
# 2 -0.009002 0.021413 0.004845 0.000000 0.000000 0.000000
# 3 -0.005871 0.004845 0.012150 0.000000 0.000000 0.000000
# 4 0.000000 0.000000 0.000000 0.034781 0.000000 0.000000
# 5 0.000000 0.000000 0.000000 0.000000 0.040696 0.000000
# 6 0.000000 0.000000 0.000000 0.000000 0.000000 0.021469
#
#
# Mechanical properties :
#
#
# Convention : Reuss Voigt Hill
#
# Bulk Modulus (GPa) = 37.55935 50.80610 44.18273
# Shear Modulus (GPa) = 28.97636 34.38004 31.67820
#
# Velocity S-wave (km/s) = 3.51712 3.83106 3.67744
# Velocity P-wave (km/s) = 5.70331 6.42329 6.07398
#
# Compressibility (1/GPa) = 0.02662453
#
# Stress axis : x y z
#
# Youngs Moduli (GPa) = 76.24185 46.70010 82.30508
#
# Poissons Ratio (x) = 0.42038 0.48321
# Poissons Ratio (y) = 0.68631 -0.39879
# Poissons Ratio (z) = 0.44761 -0.22628
#
# Static dielectric constant tensor:
#      x y z
#    x 4.118890 0.000000 0.000000 
#    y 0.000000 4.459880 0.000000 
#    z 0.000000 0.000000 4.459990 
# 
# 
# High freq. dielectric constant tensor:
#      x y z
#    x 1.908800 0.000000 0.000000 
#    y 0.000000 1.909680 0.000000 
#    z 0.000000 0.000000 1.948240 
# 
# From -- ./inp_files/10718.got.cif
#   From: 2010.06.25/outbox.cif.g09.slc.cpg/sg48_6_cif.got.tgz:10718.got - 2010.06.26 18:06:46.
