data_PCOD8201323
_publ_section_title
;
Structure prediction by ZEFSAII (Michael W. Deem and Ramdas Pophale) SiO2 
 PCOD8201323
Probable space group: P N N N
;
_chemical_formula_sum "Si O2"
_cell_formula_units_Z 58
_cell_length_a 31.302037
_cell_length_b 9.678198
_cell_length_c 10.122196
_cell_angle_alpha 90.000000
_cell_angle_beta 90.000000
_cell_angle_gamma 90.000000
_cell_volume 3066.492069
_symmetry_space_group_name_H-M "P N N N"
_symmetry_group_IT_number 48
_space_group.IT_coordinate_system_code '2'
_symmetry_cell_setting 'orthorhombic'
loop_
_space_group_symop_operation_xyz
x,y,z
1/2-x,1/2-y,z
x,1/2-y,1/2-z
1/2-x,y,1/2-z
-x,-y,-z
1/2+x,1/2+y,-z
-x,1/2+y,1/2+z
1/2+x,-y,1/2+z
loop_
_atom_site_type_symbol
_atom_site_label
_atom_site_fract_x
_atom_site_fract_y
_atom_site_fract_z
Si Si1 0.872067 0.904577 0.877611
Si Si2 0.826398 0.395573 0.125001
Si Si3 0.134341 0.092616 0.423596
Si Si4 0.866122 0.103781 0.105663
Si Si5 0.250000 0.750000 0.750000
Si Si6 0.040811 0.839548 0.927100
Si Si7 0.464945 0.016926 0.330382
Si Si8 0.453686 0.951598 0.041715
O O1 0.857340 0.946256 0.729835
O O2 0.857198 0.756108 0.931997
O O3 0.923419 0.898466 0.875615
O O4 0.852371 0.017776 0.976334
O O5 0.853610 0.262500 0.080329
O O6 0.844039 0.456650 0.263423
O O7 0.777841 0.347259 0.152520
O O8 0.830291 0.512232 0.011965
O O9 0.086727 0.055054 0.478814
O O10 0.916807 0.086923 0.127057
O O11 0.003438 0.869558 0.819591
O O12 0.054505 0.682914 0.953992
O O13 0.023167 0.900188 0.064075
O O14 0.456830 0.929557 0.198466
O O15 0.500000 0.000000 0.000000
#
# Coordination Sequence:
#
# PCOD8201323 Si02
#       8
#     8   8   8   8   2   8   8   8
#     4   9  19  36  51  78 116 154 185 235 275 336
#     4  10  20  37  61  90 108 142 183 231 289 354
#     4  10  20  34  54  82 113 149 199 225 281 343
#     4   9  19  33  56  78 108 142 191 236 283 331
#     4   8  20  40  64  88 124 132 168 244 308 340
#     4  10  18  33  47  65  97 142 194 241 276 330
#     4   9  20  32  45  65 101 147 189 235 291 314
#     4  11  21  29  47  70 102 145 190 242 280 324
#
# _framework density 18.914121000000002
#
# number of rings (size 3 to 8) (size 9 to 14) (size 15 to 20)
#    0.000    2.483    1.379    1.241    1.931    2.759 
#    0.000    0.000    0.000   13.241    0.000    7.724 
#    0.000    0.000    0.000    0.000    0.000    0.000 
#
# Total GULP energy -718658.645508 kJ/mol
# GULP energy per Si atom -12390.666302 kJ/mol
# Density = 1.887107 g / cm^3
# Si number density = 18.914121 Si / 1000 Ang^3
#
#
#
# Elastic Constant Matrix: (Units=GPa)
#
#
# Indices 1 2 3 4 5 6 
#
# 1 88.2789 21.6882 34.3475 0.0000 0.0000 0.0000
# 2 21.6882 71.7492 43.0043 0.0000 0.0000 0.0000
# 3 34.3475 43.0043 87.0535 0.0000 0.0000 0.0000
# 4 0.0000 0.0000 0.0000 36.8432 0.0000 0.0000
# 5 0.0000 0.0000 0.0000 0.0000 21.3975 0.0000
# 6 0.0000 0.0000 0.0000 0.0000 0.0000 23.7107
#
#
#
# Elastic Compliance Matrix: (Units=1/GPa)
#
#
# Indices 1 2 3 4 5 6 
#
# 1 0.013462 -0.001258 -0.004690 0.000000 0.000000 0.000000
# 2 -0.001258 0.019918 -0.009343 0.000000 0.000000 0.000000
# 3 -0.004690 -0.009343 0.017953 0.000000 0.000000 0.000000
# 4 0.000000 0.000000 0.000000 0.027142 0.000000 0.000000
# 5 0.000000 0.000000 0.000000 0.000000 0.046735 0.000000
# 6 0.000000 0.000000 0.000000 0.000000 0.000000 0.042175
#
#
# Mechanical properties :
#
#
# Convention : Reuss Voigt Hill
#
# Bulk Modulus (GPa) = 48.19184 49.46241 48.82712
# Shear Modulus (GPa) = 24.40429 26.25972 25.33200
#
# Velocity S-wave (km/s) = 3.59593 3.73012 3.66364
# Velocity P-wave (km/s) = 6.54030 6.69026 6.61570
#
# Compressibility (1/GPa) = 0.02075040
#
# Stress axis : x y z
#
# Youngs Moduli (GPa) = 74.28559 50.20699 55.70135
#
# Poissons Ratio (x) = 0.06317 0.26123
# Poissons Ratio (y) = 0.09347 0.52041
# Poissons Ratio (z) = 0.34838 0.46907
#
# Static dielectric constant tensor:
#      x y z
#    x 3.227080 0.000000 0.000000 
#    y 0.000000 3.583440 0.000000 
#    z 0.000000 0.000000 3.766130 
# 
# 
# High freq. dielectric constant tensor:
#      x y z
#    x 1.702380 0.000000 0.000000 
#    y 0.000000 1.721560 0.000000 
#    z 0.000000 0.000000 1.741500 
# 
# From -- ./inp_files/23825.got.cif
#   From: 2010.06.25/outbox.cif.g09.slc.cpg/sg48_12_cif.got.tgz:23825.got - 2010.06.26 18:06:46.
