data_PCOD8201039
_publ_section_title
;
Structure prediction by ZEFSAII (Michael W. Deem and Ramdas Pophale) SiO2 
 PCOD8201039
Probable space group: P M M M
;
_chemical_formula_sum "Si O2"
_cell_formula_units_Z 52
_cell_length_a 9.730150
_cell_length_b 13.474549
_cell_length_c 26.468670
_cell_angle_alpha 90.000000
_cell_angle_beta 90.000000
_cell_angle_gamma 90.000000
_cell_volume 3470.290991
_symmetry_space_group_name_H-M "P M M M"
_symmetry_group_IT_number 47
_symmetry_cell_setting 'orthorhombic'
loop_
_space_group_symop_operation_xyz
x,y,z
-x,-y,z
x,-y,-z
-x,y,-z
-x,-y,-z
x,y,-z
-x,y,z
x,-y,z
loop_
_atom_site_type_symbol
_atom_site_label
_atom_site_fract_x
_atom_site_fract_y
_atom_site_fract_z
Si Si1 0.341454 0.384273 0.354472
Si Si2 0.162844 0.888015 0.000000
Si Si3 0.160516 0.804478 0.105491
Si Si4 0.340846 0.304370 0.247506
Si Si5 0.156857 0.389206 0.162406
Si Si6 0.343858 0.110613 0.190566
Si Si7 0.845598 0.382090 0.555803
O O1 0.500000 0.366177 0.367242
O O2 0.310496 0.500000 0.345141
O O3 0.294932 0.324447 0.304785
O O4 0.256044 0.339865 0.401504
O O5 0.214220 0.828168 0.950779
O O6 0.000000 0.892899 0.000000
O O7 0.223157 0.000000 0.000000
O O8 0.190967 0.688835 0.117781
O O9 0.242612 0.874148 0.143763
O O10 0.000000 0.830250 0.111249
O O11 0.500000 0.333539 0.240142
O O12 0.253479 0.373436 0.210488
O O13 0.312401 0.188700 0.235252
O O14 0.181034 0.500000 0.140865
O O15 0.000000 0.374956 0.180648
O O16 0.500000 0.124974 0.171120
O O17 0.321337 0.000000 0.212444
O O18 0.801344 0.343396 0.500000
O O19 0.838488 0.500000 0.555948
O O20 0.000000 0.346309 0.568116
#
# Coordination Sequence:
#
# PCOD8201039 Si02
#       7
#     8   4   8   8   8   8   8
#     4   9  16  24  35  53  76 101 129 159 188 220
#     4   9  16  26  42  62  80  99 127 163 200 237
#     4   9  17  29  44  61  80 103 131 160 192 234
#     4   9  17  28  41  58  80 105 133 162 193 234
#     4   9  17  28  41  58  80 104 131 163 195 227
#     4   9  17  29  44  61  81 104 129 159 197 237
#     4   8  14  24  36  50  71 101 133 160 188 224
#
# _framework density 14.984332999999999
#
# number of rings (size 3 to 8) (size 9 to 14) (size 15 to 20)
#    0.000    3.154    0.000    1.385    0.000    2.769 
#    0.000    3.846    0.000    3.692    0.000    0.000 
#    0.000    5.538    0.000    7.692    0.000    1.538 
#
# Total GULP energy -644587.508100 kJ/mol
# GULP energy per Si atom -12395.913617 kJ/mol
# Density = 1.495023 g / cm^3
# Si number density = 14.984333 Si / 1000 Ang^3
#
#
#
# Elastic Constant Matrix: (Units=GPa)
#
#
# Indices 1 2 3 4 5 6 
#
# 1 50.5121 30.4057 54.8377 0.0000 0.0000 0.0000
# 2 30.4057 81.9384 51.7242 0.0000 0.0000 0.0000
# 3 54.8377 51.7242 139.5531 0.0000 0.0000 0.0000
# 4 0.0000 0.0000 0.0000 15.5080 0.0000 0.0000
# 5 0.0000 0.0000 0.0000 0.0000 22.6680 0.0000
# 6 0.0000 0.0000 0.0000 0.0000 0.0000 14.7195
#
#
#
# Elastic Compliance Matrix: (Units=1/GPa)
#
#
# Indices 1 2 3 4 5 6 
#
# 1 0.036570 -0.005873 -0.012194 0.000000 0.000000 0.000000
# 2 -0.005873 0.016875 -0.003947 0.000000 0.000000 0.000000
# 3 -0.012194 -0.003947 0.013420 0.000000 0.000000 0.000000
# 4 0.000000 0.000000 0.000000 0.064483 0.000000 0.000000
# 5 0.000000 0.000000 0.000000 0.000000 0.044115 0.000000
# 6 0.000000 0.000000 0.000000 0.000000 0.000000 0.067937
#
#
# Mechanical properties :
#
#
# Convention : Reuss Voigt Hill
#
# Bulk Modulus (GPa) = 43.78571 60.65988 52.22279
# Shear Modulus (GPa) = 16.94683 19.58149 18.26416
#
# Velocity S-wave (km/s) = 3.36664 3.61889 3.49504
# Velocity P-wave (km/s) = 6.66309 7.61787 7.15642
#
# Compressibility (1/GPa) = 0.02283850
#
# Stress axis : x y z
#
# Youngs Moduli (GPa) = 27.34446 59.25877 74.51541
#
# Poissons Ratio (x) = 0.34804 0.90861
# Poissons Ratio (y) = 0.16060 0.29409
# Poissons Ratio (z) = 0.33343 0.23388
#
# Static dielectric constant tensor:
#      x y z
#    x 2.931550 0.000000 0.000000 
#    y 0.000000 2.815990 0.000000 
#    z 0.000000 0.000000 2.992750 
# 
# 
# High freq. dielectric constant tensor:
#      x y z
#    x 1.571600 0.000000 0.000000 
#    y 0.000000 1.550150 0.000000 
#    z 0.000000 0.000000 1.563460 
# 
# From -- ./inp_files/22025.got.cif
#   From: 2010.03.12/outbox.cif.g09.slc.cpg/sg47_12_cif.got.tgz:22025.got - 2010.04.14 03:12:58.
