data_PCOD8201511
_publ_section_title
;
Structure prediction by ZEFSAII (Michael W. Deem and Ramdas Pophale) SiO2 
 PCOD8201511
Probable space group: P N N N
;
_chemical_formula_sum "Si O2"
_cell_formula_units_Z 34
_cell_length_a 4.875794
_cell_length_b 12.985186
_cell_length_c 25.613629
_cell_angle_alpha 90.000000
_cell_angle_beta 90.000000
_cell_angle_gamma 90.000000
_cell_volume 1621.678049
_symmetry_space_group_name_H-M "P N N N"
_symmetry_group_IT_number 48
_space_group.IT_coordinate_system_code '2'
_symmetry_cell_setting 'orthorhombic'
loop_
_space_group_symop_operation_xyz
x,y,z
1/2-x,1/2-y,z
x,1/2-y,1/2-z
1/2-x,y,1/2-z
-x,-y,-z
1/2+x,1/2+y,-z
-x,1/2+y,1/2+z
1/2+x,-y,1/2+z
loop_
_atom_site_type_symbol
_atom_site_label
_atom_site_fract_x
_atom_site_fract_y
_atom_site_fract_z
Si Si1 0.009594 0.820306 0.915253
Si Si2 0.488957 0.819994 0.468473
Si Si3 0.420340 0.539371 0.123376
Si Si4 0.250000 0.750000 0.250000
Si Si5 0.106967 0.352351 0.836607
O O1 0.250000 0.750000 0.890253
O O2 0.750000 0.750000 0.919294
O O3 0.097071 0.858921 0.973376
O O4 0.930289 0.916285 0.878415
O O5 0.250000 0.750000 0.443471
O O6 0.543376 0.917279 0.431027
O O7 0.750000 0.750000 0.474127
O O8 0.626522 0.573882 0.170652
O O9 0.114664 0.585334 0.129204
O O10 0.455333 0.820774 0.216545
O O11 0.250000 0.250000 0.863597
#
# Coordination Sequence:
#
# PCOD8201511 Si02
#       5
#     8   8   8   2   8
#     4  10  22  39  55  82 125 169 212 255 287 319
#     4  10  20  33  54  83 124 164 199 251 295 344
#     4  12  22  36  61  90 118 164 213 240 290 366
#     4  12  26  44  62  92 140 140 174 244 338 384
#     4  12  24  39  62  91 126 152 180 242 311 390
#
# _framework density 20.965938000000001
#
# number of rings (size 3 to 8) (size 9 to 14) (size 15 to 20)
#    0.000    0.941    2.353    6.000    0.000    0.000 
#    0.000    9.412    0.000    0.000    0.000   12.353 
#    0.000    0.000    0.000    0.000    0.000    0.000 
#
# Total GULP energy -421301.232884 kJ/mol
# GULP energy per Si atom -12391.212732 kJ/mol
# Density = 2.091822 g / cm^3
# Si number density = 20.965938 Si / 1000 Ang^3
#
#
#
# Elastic Constant Matrix: (Units=GPa)
#
#
# Indices 1 2 3 4 5 6 
#
# 1 143.7971 50.9280 17.3324 0.0000 0.0000 0.0000
# 2 50.9280 131.5976 39.5900 0.0000 0.0000 0.0000
# 3 17.3324 39.5900 42.8320 0.0000 0.0000 0.0000
# 4 0.0000 0.0000 0.0000 19.8406 0.0000 0.0000
# 5 0.0000 0.0000 0.0000 0.0000 36.3932 0.0000
# 6 0.0000 0.0000 0.0000 0.0000 0.0000 36.2822
#
#
#
# Elastic Compliance Matrix: (Units=1/GPa)
#
#
# Indices 1 2 3 4 5 6 
#
# 1 0.008067 -0.002964 -0.000525 0.000000 0.000000 0.000000
# 2 -0.002964 0.011615 -0.009536 0.000000 0.000000 0.000000
# 3 -0.000525 -0.009536 0.032374 0.000000 0.000000 0.000000
# 4 0.000000 0.000000 0.000000 0.050402 0.000000 0.000000
# 5 0.000000 0.000000 0.000000 0.000000 0.027478 0.000000
# 6 0.000000 0.000000 0.000000 0.000000 0.000000 0.027562
#
#
# Mechanical properties :
#
#
# Convention : Reuss Voigt Hill
#
# Bulk Modulus (GPa) = 38.45312 59.32529 48.88920
# Shear Modulus (GPa) = 26.01236 32.52827 29.27031
#
# Velocity S-wave (km/s) = 3.52617 3.94316 3.74048
# Velocity P-wave (km/s) = 5.91262 7.00634 6.48259
#
# Compressibility (1/GPa) = 0.02600569
#
# Stress axis : x y z
#
# Youngs Moduli (GPa) = 123.95728 86.09577 30.88913
#
# Poissons Ratio (x) = 0.25520 0.01621
# Poissons Ratio (y) = 0.36743 0.29457
# Poissons Ratio (z) = 0.06504 0.82104
#
# Static dielectric constant tensor:
#      x y z
#    x 4.035230 0.000000 0.000000 
#    y 0.000000 3.582020 0.000000 
#    z 0.000000 0.000000 3.534860 
# 
# 
# High freq. dielectric constant tensor:
#      x y z
#    x 1.850590 0.000000 0.000000 
#    y 0.000000 1.801560 0.000000 
#    z 0.000000 0.000000 1.779250 
# 
# From -- ./inp_files/6907.got.cif
#   From: 2010.06.25/outbox.cif.g09.slc.cpg/sg48_4_cif.got.tgz:6907.got - 2010.06.26 18:06:46.
