data_PCOD8201173
_publ_section_title
;
Structure prediction by ZEFSAII (Michael W. Deem and Ramdas Pophale) SiO2 
 PCOD8201173
Probable space group: P M M M
;
_chemical_formula_sum "Si O2"
_cell_formula_units_Z 44
_cell_length_a 8.000210
_cell_length_b 29.108692
_cell_length_c 10.415185
_cell_angle_alpha 90.000000
_cell_angle_beta 90.000000
_cell_angle_gamma 90.000000
_cell_volume 2425.442965
_symmetry_space_group_name_H-M "P M M M"
_symmetry_group_IT_number 47
_symmetry_cell_setting 'orthorhombic'
loop_
_space_group_symop_operation_xyz
x,y,z
-x,-y,z
x,-y,-z
-x,y,-z
-x,-y,-z
x,y,-z
-x,y,z
x,-y,z
loop_
_atom_site_type_symbol
_atom_site_label
_atom_site_fract_x
_atom_site_fract_y
_atom_site_fract_z
Si Si1 0.685146 0.609401 0.347178
Si Si2 0.300422 0.947432 0.000000
Si Si3 0.699400 0.051393 0.500000
Si Si4 0.000000 0.551931 0.346806
Si Si5 0.697529 0.198793 0.645421
Si Si6 0.301067 0.103678 0.251597
Si Si7 0.807413 0.704752 0.351988
O O1 0.701924 0.610881 0.500000
O O2 0.500000 0.591490 0.306336
O O3 0.831615 0.576437 0.293001
O O4 0.707962 0.661342 0.292636
O O5 0.229392 0.920173 0.123538
O O6 0.500000 0.947654 0.000000
O O7 0.234360 0.000000 0.000000
O O8 0.500000 0.052459 0.500000
O O9 0.769469 0.076299 0.626167
O O10 0.768965 0.000000 0.500000
O O11 0.000000 0.500000 0.294906
O O12 0.000000 0.552972 0.500000
O O13 0.768537 0.192626 0.500000
O O14 0.500000 0.199510 0.639444
O O15 0.759557 0.156610 0.734644
O O16 0.761032 0.246239 0.711606
O O17 0.500000 0.101413 0.249276
O O18 0.756613 0.709896 0.500000
O O19 0.000000 0.693073 0.333335
#
# Coordination Sequence:
#
# PCOD8201173 Si02
#       7
#     8   4   4   4   8   8   8
#     4   9  15  23  34  47  66  95 131 172 221 271
#     4   9  16  24  34  50  75 107 137 165 205 256
#     4   9  14  20  32  48  69  99 129 161 205 252
#     4   9  16  24  32  44  66  96 136 185 224 259
#     4   9  15  23  35  52  74  98 123 155 204 259
#     4   9  15  23  33  49  74 101 130 166 204 254
#     4   9  15  23  35  51  71  93 120 158 208 262
#
# _framework density 18.141014999999999
#
# number of rings (size 3 to 8) (size 9 to 14) (size 15 to 20)
#    0.000    3.000    1.818    1.091    0.000    4.727 
#    0.000    1.818    0.000    0.000    0.000    0.636 
#    0.000    4.364    0.000    0.000    0.000    0.000 
#
# Total GULP energy -545219.739440 kJ/mol
# GULP energy per Si atom -12391.357715 kJ/mol
# Density = 1.809972 g / cm^3
# Si number density = 18.141015 Si / 1000 Ang^3
#
#
#
# Elastic Constant Matrix: (Units=GPa)
#
#
# Indices 1 2 3 4 5 6 
#
# 1 60.3154 53.8230 12.0308 0.0000 0.0000 0.0000
# 2 53.8230 174.7937 40.0792 0.0000 0.0000 0.0000
# 3 12.0308 40.0792 66.9983 0.0000 0.0000 0.0000
# 4 0.0000 0.0000 0.0000 10.9210 0.0000 0.0000
# 5 0.0000 0.0000 0.0000 0.0000 1.4213 0.0000
# 6 0.0000 0.0000 0.0000 0.0000 0.0000 15.9051
#
#
#
# Elastic Compliance Matrix: (Units=1/GPa)
#
#
# Indices 1 2 3 4 5 6 
#
# 1 0.022862 -0.007068 0.000123 0.000000 0.000000 0.000000
# 2 -0.007068 0.008816 -0.004004 0.000000 0.000000 0.000000
# 3 0.000123 -0.004004 0.017299 0.000000 0.000000 0.000000
# 4 0.000000 0.000000 0.000000 0.091567 0.000000 0.000000
# 5 0.000000 0.000000 0.000000 0.000000 0.703580 0.000000
# 6 0.000000 0.000000 0.000000 0.000000 0.000000 0.062873
#
#
# Mechanical properties :
#
#
# Convention : Reuss Voigt Hill
#
# Bulk Modulus (GPa) = 36.93059 57.10815 47.01937
# Shear Modulus (GPa) = 5.33093 18.72777 12.02935
#
# Velocity S-wave (km/s) = 1.71610 3.21650 2.57787
# Velocity P-wave (km/s) = 4.93238 6.73372 5.90217
#
# Compressibility (1/GPa) = 0.02707782
#
# Stress axis : x y z
#
# Youngs Moduli (GPa) = 43.74040 113.43530 57.80613
#
# Poissons Ratio (x) = 0.80175 -0.00710
# Poissons Ratio (y) = 0.30915 0.23148
# Poissons Ratio (z) = -0.00537 0.45424
#
# Static dielectric constant tensor:
#      x y z
#    x 3.064840 0.000000 0.000000 
#    y 0.000000 3.698310 0.000000 
#    z 0.000000 0.000000 2.835250 
# 
# 
# High freq. dielectric constant tensor:
#      x y z
#    x 1.681560 0.000000 0.000000 
#    y 0.000000 1.719960 0.000000 
#    z 0.000000 0.000000 1.615980 
# 
# From -- ./inp_files/2393.got.cif
#   From: 2010.03.12/outbox.cif.g09.slc.cpg/sg47_2_cif.got.tgz:2393.got - 2010.04.14 03:12:58.
