data_PCOD8201623
_publ_section_title
;
Structure prediction by ZEFSAII (Michael W. Deem and Ramdas Pophale) SiO2 
 PCOD8201623
Probable space group: P N N N
;
_chemical_formula_sum "Si O2"
_cell_formula_units_Z 40
_cell_length_a 26.663541
_cell_length_b 8.249548
_cell_length_c 8.841375
_cell_angle_alpha 90.000000
_cell_angle_beta 90.000000
_cell_angle_gamma 90.000000
_cell_volume 1944.767954
_symmetry_space_group_name_H-M "P N N N"
_symmetry_group_IT_number 48
_space_group.IT_coordinate_system_code '2'
_symmetry_cell_setting 'orthorhombic'
loop_
_space_group_symop_operation_xyz
x,y,z
1/2-x,1/2-y,z
x,1/2-y,1/2-z
1/2-x,y,1/2-z
-x,-y,-z
1/2+x,1/2+y,-z
-x,1/2+y,1/2+z
1/2+x,-y,1/2+z
loop_
_atom_site_type_symbol
_atom_site_label
_atom_site_fract_x
_atom_site_fract_y
_atom_site_fract_z
Si Si1 0.363883 0.295898 0.574550
Si Si2 0.110777 0.750000 0.750000
Si Si3 0.893055 0.250000 0.750000
Si Si4 0.737067 0.936875 0.082622
Si Si5 0.335104 0.552802 0.008642
Si Si6 0.057868 0.540971 0.996854
O O1 0.365977 0.250000 0.750000
O O2 0.322534 0.442646 0.547729
O O3 0.415003 0.366792 0.508486
O O4 0.353129 0.132842 0.483625
O O5 0.146171 0.859472 0.855934
O O6 0.073628 0.638214 0.847098
O O7 0.856190 0.362561 0.655485
O O8 0.928949 0.141568 0.646474
O O9 0.750000 0.750000 0.062405
O O10 0.750000 0.995270 0.250000
O O11 0.773758 0.049139 0.980391
O O12 0.000000 0.500000 0.000000
#
# Coordination Sequence:
#
# PCOD8201623 Si02
#       6
#     8   4   4   8   8   8
#     4  11  19  37  68  98 121 162 232 271 307 380
#     4  10  20  40  61  96 130 170 213 272 320 394
#     4  10  26  44  57  98 138 166 213 270 352 398
#     4   9  14  30  60  96 115 147 207 264 299 369
#     4  10  20  38  66  93 134 162 211 267 327 396
#     4  11  25  42  65  90 129 175 224 273 334 385
#
# _framework density 20.568004999999999
#
# number of rings (size 3 to 8) (size 9 to 14) (size 15 to 20)
#    0.000    1.800    6.000    0.000    1.400    2.400 
#    0.000   15.500    0.000    3.600    0.000    0.000 
#    0.000    0.000    0.000    0.000    0.000    0.000 
#
# Total GULP energy -495749.925935 kJ/mol
# GULP energy per Si atom -12393.748148 kJ/mol
# Density = 2.052119 g / cm^3
# Si number density = 20.568005 Si / 1000 Ang^3
#
#
#
# Elastic Constant Matrix: (Units=GPa)
#
#
# Indices 1 2 3 4 5 6 
#
# 1 175.9486 65.4462 55.8344 0.0000 0.0000 0.0000
# 2 65.4462 101.1901 50.1112 0.0000 0.0000 0.0000
# 3 55.8344 50.1112 107.5907 0.0000 0.0000 0.0000
# 4 0.0000 0.0000 0.0000 20.1793 0.0000 0.0000
# 5 0.0000 0.0000 0.0000 0.0000 21.7914 0.0000
# 6 0.0000 0.0000 0.0000 0.0000 0.0000 31.4264
#
#
#
# Elastic Compliance Matrix: (Units=1/GPa)
#
#
# Indices 1 2 3 4 5 6 
#
# 1 0.007875 -0.003989 -0.002228 0.000000 0.000000 0.000000
# 2 -0.003989 0.014866 -0.004854 0.000000 0.000000 0.000000
# 3 -0.002228 -0.004854 0.012712 0.000000 0.000000 0.000000
# 4 0.000000 0.000000 0.000000 0.049556 0.000000 0.000000
# 5 0.000000 0.000000 0.000000 0.000000 0.045890 0.000000
# 6 0.000000 0.000000 0.000000 0.000000 0.000000 0.031820
#
#
# Mechanical properties :
#
#
# Convention : Reuss Voigt Hill
#
# Bulk Modulus (GPa) = 75.13583 80.83480 77.98532
# Shear Modulus (GPa) = 26.41341 28.90193 27.65767
#
# Velocity S-wave (km/s) = 3.58746 3.75265 3.67099
# Velocity P-wave (km/s) = 7.33277 7.62647 7.48106
#
# Compressibility (1/GPa) = 0.01330923
#
# Stress axis : x y z
#
# Youngs Moduli (GPa) = 126.99149 67.26628 78.66839
#
# Poissons Ratio (x) = 0.26835 0.17530
# Poissons Ratio (y) = 0.50662 0.38184
# Poissons Ratio (z) = 0.28299 0.32649
#
# Static dielectric constant tensor:
#      x y z
#    x 3.977830 0.000000 0.000000 
#    y 0.000000 3.939290 0.000000 
#    z 0.000000 0.000000 3.661560 
# 
# 
# High freq. dielectric constant tensor:
#      x y z
#    x 1.804770 0.000000 0.000000 
#    y 0.000000 1.812430 0.000000 
#    z 0.000000 0.000000 1.785350 
# 
# From -- ./inp_files/9235.got.cif
#   From: 2010.06.25/outbox.cif.g09.slc.cpg/sg48_5_cif.got.tgz:9235.got - 2010.06.26 18:06:46.
