data_PCOD8201502
_publ_section_title
;
Structure prediction by ZEFSAII (Michael W. Deem and Ramdas Pophale) SiO2 
 PCOD8201502
Probable space group: P N N N
;
_chemical_formula_sum "Si O2"
_cell_formula_units_Z 64
_cell_length_a 17.891649
_cell_length_b 22.150046
_cell_length_c 9.172444
_cell_angle_alpha 90.000000
_cell_angle_beta 90.000000
_cell_angle_gamma 90.000000
_cell_volume 3635.047339
_symmetry_space_group_name_H-M "P N N N"
_symmetry_group_IT_number 48
_space_group.IT_coordinate_system_code '2'
_symmetry_cell_setting 'orthorhombic'
loop_
_space_group_symop_operation_xyz
x,y,z
1/2-x,1/2-y,z
x,1/2-y,1/2-z
1/2-x,y,1/2-z
-x,-y,-z
1/2+x,1/2+y,-z
-x,1/2+y,1/2+z
1/2+x,-y,1/2+z
loop_
_atom_site_type_symbol
_atom_site_label
_atom_site_fract_x
_atom_site_fract_y
_atom_site_fract_z
Si Si1 0.529969 0.585573 0.107862
Si Si2 0.579192 0.524077 0.840992
Si Si3 0.394522 0.660282 0.111445
Si Si4 0.313194 0.945131 0.506296
Si Si5 0.662883 0.263030 0.416052
Si Si6 0.338508 0.880635 0.085035
Si Si7 0.330528 0.462662 0.746162
Si Si8 0.085377 0.998683 0.463708
O O1 0.485720 0.526385 0.159045
O O2 0.482927 0.646784 0.141576
O O3 0.608774 0.584293 0.192588
O O4 0.550239 0.580712 0.935562
O O5 0.657184 0.497274 0.899374
O O6 0.596121 0.543269 0.674996
O O7 0.370763 0.610707 0.991158
O O8 0.343150 0.653298 0.257281
O O9 0.383656 0.725046 0.036232
O O10 0.236232 0.919095 0.443383
O O11 0.315424 0.974419 0.666502
O O12 0.750000 0.250000 0.435130
O O13 0.636517 0.250000 0.250000
O O14 0.649936 0.332906 0.454584
O O15 0.404287 0.929032 0.083219
O O16 0.250000 0.428841 0.750000
O O17 0.355410 0.481644 0.584873
O O18 0.000000 0.000000 0.500000
#
# Coordination Sequence:
#
# PCOD8201502 Si02
#       8
#     8   8   8   8   8   8   8   8
#     4   9  18  35  50  70 100 140 175 214 266 315
#     4   9  18  32  47  71  99 133 183 210 251 325
#     4  11  21  36  56  68 100 146 188 221 255 309
#     4  10  20  31  50  71 100 142 180 212 261 304
#     4  11  26  37  49  74 104 136 183 226 263 300
#     4  12  22  35  52  74 101 140 184 218 254 311
#     4  11  21  31  49  79 109 139 174 222 269 321
#     4  12  22  32  50  76 104 138 177 216 269 316
#
# _framework density 17.606373000000001
#
# number of rings (size 3 to 8) (size 9 to 14) (size 15 to 20)
#    0.000    1.375    6.250    1.500    1.750    0.500 
#    0.000    0.000    0.000    0.000    0.000    0.000 
#    0.000    8.000    0.000    4.875    0.000    0.000 
#
# Total GULP energy -793001.011693 kJ/mol
# GULP energy per Si atom -12390.640808 kJ/mol
# Density = 1.756630 g / cm^3
# Si number density = 17.606373 Si / 1000 Ang^3
#
#
#
# Elastic Constant Matrix: (Units=GPa)
#
#
# Indices 1 2 3 4 5 6 
#
# 1 100.9895 26.4681 41.7144 0.0000 0.0000 0.0000
# 2 26.4681 32.1238 13.3246 0.0000 0.0000 0.0000
# 3 41.7144 13.3246 128.8630 0.0000 0.0000 0.0000
# 4 0.0000 0.0000 0.0000 20.0296 0.0000 0.0000
# 5 0.0000 0.0000 0.0000 0.0000 25.7842 0.0000
# 6 0.0000 0.0000 0.0000 0.0000 0.0000 15.9648
#
#
#
# Elastic Compliance Matrix: (Units=1/GPa)
#
#
# Indices 1 2 3 4 5 6 
#
# 1 0.013982 -0.010075 -0.003484 0.000000 0.000000 0.000000
# 2 -0.010075 0.039784 -0.000852 0.000000 0.000000 0.000000
# 3 -0.003484 -0.000852 0.008976 0.000000 0.000000 0.000000
# 4 0.000000 0.000000 0.000000 0.049926 0.000000 0.000000
# 5 0.000000 0.000000 0.000000 0.000000 0.038783 0.000000
# 6 0.000000 0.000000 0.000000 0.000000 0.000000 0.062638
#
#
# Mechanical properties :
#
#
# Convention : Reuss Voigt Hill
#
# Bulk Modulus (GPa) = 29.48194 47.22117 38.35155
# Shear Modulus (GPa) = 19.66808 24.38700 22.02754
#
# Velocity S-wave (km/s) = 3.34593 3.72576 3.54094
# Velocity P-wave (km/s) = 5.63102 6.73700 6.20868
#
# Compressibility (1/GPa) = 0.03391907
#
# Stress axis : x y z
#
# Youngs Moduli (GPa) = 71.52192 25.13559 111.40549
#
# Poissons Ratio (x) = 0.25324 0.38817
# Poissons Ratio (y) = 0.72057 0.09496
# Poissons Ratio (z) = 0.24920 0.02143
#
# Static dielectric constant tensor:
#      x y z
#    x 3.480840 0.000000 0.000000 
#    y 0.000000 2.951640 0.000000 
#    z 0.000000 0.000000 3.816300 
# 
# 
# High freq. dielectric constant tensor:
#      x y z
#    x 1.679880 0.000000 0.000000 
#    y 0.000000 1.617980 0.000000 
#    z 0.000000 0.000000 1.698880 
# 
# From -- ./inp_files/14632.got.cif
#   From: 2010.06.25/outbox.cif.g09.slc.cpg/sg48_8_cif.got.tgz:14632.got - 2010.06.26 18:06:46.
