data_PCOD8201027
_publ_section_title
;
Structure prediction by ZEFSAII (Michael W. Deem and Ramdas Pophale) SiO2 
 PCOD8201027
Probable space group: P M M M
;
_chemical_formula_sum "Si O2"
_cell_formula_units_Z 52
_cell_length_a 13.980927
_cell_length_b 28.489361
_cell_length_c 7.990691
_cell_angle_alpha 90.000000
_cell_angle_beta 90.000000
_cell_angle_gamma 90.000000
_cell_volume 3182.753565
_symmetry_space_group_name_H-M "P M M M"
_symmetry_group_IT_number 47
_symmetry_cell_setting 'orthorhombic'
loop_
_space_group_symop_operation_xyz
x,y,z
-x,-y,z
x,-y,-z
-x,y,-z
-x,-y,-z
x,y,-z
-x,y,z
x,-y,z
loop_
_atom_site_type_symbol
_atom_site_label
_atom_site_fract_x
_atom_site_fract_y
_atom_site_fract_z
Si Si1 0.606703 0.895313 0.698381
Si Si2 0.720008 0.194754 0.302136
Si Si3 0.606394 0.282606 0.302480
Si Si4 0.614071 0.553161 0.000000
Si Si5 0.218500 0.948565 0.803599
Si Si6 0.613856 0.612797 0.687295
Si Si7 0.106204 0.859565 0.802919
O O1 0.604408 0.895254 0.500000
O O2 0.500000 0.900724 0.771824
O O3 0.651682 0.846650 0.765779
O O4 0.670645 0.938381 0.762757
O O5 0.719197 0.196336 0.500000
O O6 0.679820 0.243937 0.228164
O O7 0.828506 0.185372 0.242118
O O8 0.598015 0.276355 0.500000
O O9 0.500000 0.275404 0.224773
O O10 0.646220 0.334590 0.261433
O O11 0.653659 0.577841 0.169501
O O12 0.651894 0.500000 0.000000
O O13 0.500000 0.555144 0.000000
O O14 0.151774 0.907509 0.724807
O O15 0.191773 0.000000 0.728958
O O16 0.203142 0.949571 0.000000
O O17 0.652433 0.599269 0.500000
O O18 0.500000 0.611256 0.681588
O O19 0.000000 0.852317 0.727195
O O20 0.100252 0.864742 0.000000
#
# Coordination Sequence:
#
# PCOD8201027 Si02
#       7
#     8   8   8   4   8   8   8
#     4   9  17  28  42  60  82 106 128 153 189 235
#     4   9  16  27  44  63  80 100 130 162 193 236
#     4   8  13  23  40  59  80 106 133 164 202 241
#     4   9  16  24  34  50  74 106 147 191 224 249
#     4   9  18  31  45  60  76  97 128 162 195 233
#     4   8  14  24  36  51  74 105 141 180 219 254
#     4   9  18  32  46  59  78 100 123 158 200 241
#
# _framework density 16.338054
#
# number of rings (size 3 to 8) (size 9 to 14) (size 15 to 20)
#    0.000    3.308    0.000    1.385    0.000    3.692 
#    1.385    4.615    0.000    0.923    0.000    4.308 
#    0.000    0.000    0.000    0.000    0.000    1.538 
#
# Total GULP energy -644355.713399 kJ/mol
# GULP energy per Si atom -12391.456027 kJ/mol
# Density = 1.630087 g / cm^3
# Si number density = 16.338054 Si / 1000 Ang^3
#
#
#
# Elastic Constant Matrix: (Units=GPa)
#
#
# Indices 1 2 3 4 5 6 
#
# 1 92.6494 47.9203 12.7022 0.0000 0.0000 0.0000
# 2 47.9203 127.3403 36.4239 0.0000 0.0000 0.0000
# 3 12.7022 36.4239 37.8877 0.0000 0.0000 0.0000
# 4 0.0000 0.0000 0.0000 21.2515 0.0000 0.0000
# 5 0.0000 0.0000 0.0000 0.0000 14.8169 0.0000
# 6 0.0000 0.0000 0.0000 0.0000 0.0000 2.2002
#
#
#
# Elastic Compliance Matrix: (Units=1/GPa)
#
#
# Indices 1 2 3 4 5 6 
#
# 1 0.013409 -0.005186 0.000490 0.000000 0.000000 0.000000
# 2 -0.005186 0.012837 -0.010603 0.000000 0.000000 0.000000
# 3 0.000490 -0.010603 0.036422 0.000000 0.000000 0.000000
# 4 0.000000 0.000000 0.000000 0.047055 0.000000 0.000000
# 5 0.000000 0.000000 0.000000 0.000000 0.067491 0.000000
# 6 0.000000 0.000000 0.000000 0.000000 0.000000 0.454501
#
#
# Mechanical properties :
#
#
# Convention : Reuss Voigt Hill
#
# Bulk Modulus (GPa) = 31.18033 50.21891 40.69962
# Shear Modulus (GPa) = 7.42939 18.37579 12.90259
#
# Velocity S-wave (km/s) = 2.13475 3.35733 2.81326
# Velocity P-wave (km/s) = 5.02017 6.77001 5.95966
#
# Compressibility (1/GPa) = 0.03207150
#
# Stress axis : x y z
#
# Youngs Moduli (GPa) = 74.57942 77.89781 27.45567
#
# Poissons Ratio (x) = 0.40399 -0.01346
# Poissons Ratio (y) = 0.38678 0.29110
# Poissons Ratio (z) = -0.03658 0.82592
#
# Static dielectric constant tensor:
#      x y z
#    x 3.067660 0.000000 0.000000 
#    y 0.000000 3.295910 0.000000 
#    z 0.000000 0.000000 2.971230 
# 
# 
# High freq. dielectric constant tensor:
#      x y z
#    x 1.581890 0.000000 0.000000 
#    y 0.000000 1.617460 0.000000 
#    z 0.000000 0.000000 1.617580 
# 
# From -- ./inp_files/8024.got.cif
#   From: 2010.03.12/outbox.cif.g09.slc.cpg/sg47_5_cif.got.tgz:8024.got - 2010.04.14 03:12:58.
