data_PCOD8201810
_publ_section_title
;
Structure prediction by ZEFSAII (Michael W. Deem and Ramdas Pophale) SiO2 
 PCOD8201810
Probable space group: P N N N
;
_chemical_formula_sum "Si O2"
_cell_formula_units_Z 34
_cell_length_a 6.127359
_cell_length_b 15.716814
_cell_length_c 16.381948
_cell_angle_alpha 90.000000
_cell_angle_beta 90.000000
_cell_angle_gamma 90.000000
_cell_volume 1577.623558
_symmetry_space_group_name_H-M "P N N N"
_symmetry_group_IT_number 48
_space_group.IT_coordinate_system_code '2'
_symmetry_cell_setting 'orthorhombic'
loop_
_space_group_symop_operation_xyz
x,y,z
1/2-x,1/2-y,z
x,1/2-y,1/2-z
1/2-x,y,1/2-z
-x,-y,-z
1/2+x,1/2+y,-z
-x,1/2+y,1/2+z
1/2+x,-y,1/2+z
loop_
_atom_site_type_symbol
_atom_site_label
_atom_site_fract_x
_atom_site_fract_y
_atom_site_fract_z
Si Si1 0.578678 0.386112 0.316075
Si Si2 0.250000 0.522450 0.250000
Si Si3 0.401826 0.832913 0.361458
Si Si4 0.121496 0.663513 0.546128
Si Si5 0.750000 0.750000 0.634977
Si Si6 0.750000 0.750000 0.250000
O O1 0.750000 0.356810 0.250000
O O2 0.454158 0.469532 0.284942
O O3 0.717063 0.399469 0.401484
O O4 0.414306 0.306869 0.313327
O O5 0.195067 0.581726 0.325459
O O6 0.250000 0.750000 0.352856
O O7 0.433540 0.864604 0.454216
O O8 0.619223 0.811313 0.311308
O O9 0.250000 0.750000 0.541654
O O10 0.883319 0.679038 0.584032
#
# Coordination Sequence:
#
# PCOD8201810 Si02
#       6
#     8   4   8   8   4   2
#     4  11  25  41  65  93 129 173 212 265 322 381
#     4  12  25  41  62  94 136 170 216 259 317 390
#     4  11  23  44  68  97 127 168 216 265 321 387
#     4   9  21  40  67  95 125 165 216 266 320 379
#     4  10  21  45  65  95 124 164 216 268 312 381
#     4  12  20  40  74  94 120 176 214 270 328 380
#
# _framework density 21.551400999999998
#
# number of rings (size 3 to 8) (size 9 to 14) (size 15 to 20)
#    0.000    1.412    2.353    2.118    1.647   12.235 
#    0.000    4.706    0.000    0.000    0.000    0.000 
#    0.000    0.000    0.000    0.000    0.000    0.000 
#
# Total GULP energy -421216.232402 kJ/mol
# GULP energy per Si atom -12388.712718 kJ/mol
# Density = 2.150235 g / cm^3
# Si number density = 21.551401 Si / 1000 Ang^3
#
#
#
# Elastic Constant Matrix: (Units=GPa)
#
#
# Indices 1 2 3 4 5 6 
#
# 1 145.6664 60.4544 79.5467 0.0000 0.0000 0.0000
# 2 60.4544 107.1762 67.2613 0.0000 0.0000 0.0000
# 3 79.5467 67.2613 178.8878 0.0000 0.0000 0.0000
# 4 0.0000 0.0000 0.0000 14.2620 0.0000 0.0000
# 5 0.0000 0.0000 0.0000 0.0000 51.3362 0.0000
# 6 0.0000 0.0000 0.0000 0.0000 0.0000 35.6791
#
#
#
# Elastic Compliance Matrix: (Units=1/GPa)
#
#
# Indices 1 2 3 4 5 6 
#
# 1 0.010111 -0.003772 -0.003078 0.000000 0.000000 0.000000
# 2 -0.003772 0.013619 -0.003444 0.000000 0.000000 0.000000
# 3 -0.003078 -0.003444 0.008254 0.000000 0.000000 0.000000
# 4 0.000000 0.000000 0.000000 0.070116 0.000000 0.000000
# 5 0.000000 0.000000 0.000000 0.000000 0.019479 0.000000
# 6 0.000000 0.000000 0.000000 0.000000 0.000000 0.028028
#
#
# Mechanical properties :
#
#
# Convention : Reuss Voigt Hill
#
# Bulk Modulus (GPa) = 87.74042 94.02838 90.88440
# Shear Modulus (GPa) = 28.73686 35.22001 31.97844
#
# Velocity S-wave (km/s) = 3.65555 4.04695 3.85622
# Velocity P-wave (km/s) = 7.65624 8.09701 7.87971
#
# Compressibility (1/GPa) = 0.01139726
#
# Stress axis : x y z
#
# Youngs Moduli (GPa) = 98.90021 73.42694 121.15954
#
# Poissons Ratio (x) = 0.27694 0.37293
# Poissons Ratio (y) = 0.37302 0.41722
# Poissons Ratio (z) = 0.30442 0.25285
#
# Static dielectric constant tensor:
#      x y z
#    x 5.311670 0.000000 0.000000 
#    y 0.000000 3.698570 0.000000 
#    z 0.000000 0.000000 4.582550 
# 
# 
# High freq. dielectric constant tensor:
#      x y z
#    x 1.862770 0.000000 0.000000 
#    y 0.000000 1.823320 0.000000 
#    z 0.000000 0.000000 1.863770 
# 
# From -- ./inp_files/24176.got.cif
#   From: 2010.06.25/outbox.cif.g09.slc.cpg/sg48_13_cif.got.tgz:24176.got - 2010.06.26 18:06:46.
