data_PCOD8201998
_publ_section_title
;
Structure prediction by ZEFSAII (Michael W. Deem and Ramdas Pophale) SiO2 
 PCOD8201998
Probable space group: P N N N
;
_chemical_formula_sum "Si O2"
_cell_formula_units_Z 64
_cell_length_a 13.064151
_cell_length_b 31.184596
_cell_length_c 9.550964
_cell_angle_alpha 90.000000
_cell_angle_beta 90.000000
_cell_angle_gamma 90.000000
_cell_volume 3891.065322
_symmetry_space_group_name_H-M "P N N N"
_symmetry_group_IT_number 48
_space_group.IT_coordinate_system_code '2'
_symmetry_cell_setting 'orthorhombic'
loop_
_space_group_symop_operation_xyz
x,y,z
1/2-x,1/2-y,z
x,1/2-y,1/2-z
1/2-x,y,1/2-z
-x,-y,-z
1/2+x,1/2+y,-z
-x,1/2+y,1/2+z
1/2+x,-y,1/2+z
loop_
_atom_site_type_symbol
_atom_site_label
_atom_site_fract_x
_atom_site_fract_y
_atom_site_fract_z
Si Si1 0.624590 0.202602 0.094697
Si Si2 0.142741 0.617525 0.465293
Si Si3 0.132265 0.795517 0.908914
Si Si4 0.350676 0.476484 0.168942
Si Si5 0.349506 0.473091 0.834732
Si Si6 0.053733 0.565425 0.242007
Si Si7 0.382009 0.888292 0.982185
Si Si8 0.560546 0.436314 0.208913
O O1 0.746295 0.201941 0.098827
O O2 0.592953 0.249262 0.030535
O O3 0.585019 0.198727 0.254214
O O4 0.581140 0.161800 0.007291
O O5 0.098452 0.665141 0.493511
O O6 0.110042 0.606682 0.308076
O O7 0.262661 0.610796 0.484305
O O8 0.084748 0.582732 0.558443
O O9 0.250000 0.461039 0.250000
O O10 0.379850 0.523615 0.223217
O O11 0.438842 0.443505 0.214472
O O12 0.332348 0.475935 0.001669
O O13 0.250000 0.457474 0.750000
O O14 0.438511 0.439285 0.797907
O O15 0.381097 0.518895 0.772291
O O16 0.054683 0.578310 0.078004
O O17 0.399529 0.903331 0.823981
#
# Coordination Sequence:
#
# PCOD8201998 Si02
#       8
#     8   8   8   8   8   8   8   8
#     4   8  14  26  40  72  98 128 165 204 236 287
#     4  11  17  33  49  73  99 142 165 200 245 292
#     4   8  14  24  46  65  99 133 164 197 244 287
#     4  11  23  38  53  71 100 129 164 213 257 290
#     4  11  23  38  54  70  98 132 166 209 255 294
#     4  11  23  36  49  72 104 130 169 210 246 292
#     4  11  21  29  51  76 102 134 171 204 238 294
#     4  11  21  34  52  73  99 129 173 205 238 300
#
# _framework density 16.447937
#
# number of rings (size 3 to 8) (size 9 to 14) (size 15 to 20)
#    0.000    1.750    3.750    3.750    3.500    1.000 
#    0.000    0.625    0.000    3.000    0.000    0.000 
#    0.000    6.000    0.000    0.000    0.000    0.000 
#
# Total GULP energy -793187.052485 kJ/mol
# GULP energy per Si atom -12393.547695 kJ/mol
# Density = 1.641050 g / cm^3
# Si number density = 16.447937 Si / 1000 Ang^3
#
#
#
# Elastic Constant Matrix: (Units=GPa)
#
#
# Indices 1 2 3 4 5 6 
#
# 1 74.9480 23.4621 20.5349 0.0000 0.0000 0.0000
# 2 23.4621 90.4787 18.4714 0.0000 0.0000 0.0000
# 3 20.5349 18.4714 52.4413 0.0000 0.0000 0.0000
# 4 0.0000 0.0000 0.0000 14.8652 0.0000 0.0000
# 5 0.0000 0.0000 0.0000 0.0000 25.1939 0.0000
# 6 0.0000 0.0000 0.0000 0.0000 0.0000 12.3484
#
#
#
# Elastic Compliance Matrix: (Units=1/GPa)
#
#
# Indices 1 2 3 4 5 6 
#
# 1 0.015681 -0.003031 -0.005073 0.000000 0.000000 0.000000
# 2 -0.003031 0.012494 -0.003214 0.000000 0.000000 0.000000
# 3 -0.005073 -0.003214 0.022188 0.000000 0.000000 0.000000
# 4 0.000000 0.000000 0.000000 0.067271 0.000000 0.000000
# 5 0.000000 0.000000 0.000000 0.000000 0.039692 0.000000
# 6 0.000000 0.000000 0.000000 0.000000 0.000000 0.080982
#
#
# Mechanical properties :
#
#
# Convention : Reuss Voigt Hill
#
# Bulk Modulus (GPa) = 36.06514 38.08944 37.07729
# Shear Modulus (GPa) = 18.50574 20.84148 19.67361
#
# Velocity S-wave (km/s) = 3.35790 3.56352 3.46224
# Velocity P-wave (km/s) = 6.08346 6.33557 6.21079
#
# Compressibility (1/GPa) = 0.02772760
#
# Stress axis : x y z
#
# Youngs Moduli (GPa) = 63.77042 80.03590 45.07036
#
# Poissons Ratio (x) = 0.24256 0.22864
# Poissons Ratio (y) = 0.19327 0.14486
# Poissons Ratio (z) = 0.32351 0.25725
#
# Static dielectric constant tensor:
#      x y z
#    x 2.836330 0.000000 0.000000 
#    y 0.000000 3.386760 0.000000 
#    z 0.000000 0.000000 3.076390 
# 
# 
# High freq. dielectric constant tensor:
#      x y z
#    x 1.591590 0.000000 0.000000 
#    y 0.000000 1.632670 0.000000 
#    z 0.000000 0.000000 1.632350 
# 
# From -- ./inp_files/11588.got.cif
#   From: 2010.06.25/outbox.cif.g09.slc.cpg/sg48_6_cif.got.tgz:11588.got - 2010.06.26 18:06:46.
