data_PCOD8201670
_publ_section_title
;
Structure prediction by ZEFSAII (Michael W. Deem and Ramdas Pophale) SiO2 
 PCOD8201670
Probable space group: P N N N
;
_chemical_formula_sum "Si O2"
_cell_formula_units_Z 48
_cell_length_a 14.806934
_cell_length_b 26.004031
_cell_length_c 5.265208
_cell_angle_alpha 90.000000
_cell_angle_beta 90.000000
_cell_angle_gamma 90.000000
_cell_volume 2027.315534
_symmetry_space_group_name_H-M "P N N N"
_symmetry_group_IT_number 48
_space_group.IT_coordinate_system_code '2'
_symmetry_cell_setting 'orthorhombic'
loop_
_space_group_symop_operation_xyz
x,y,z
1/2-x,1/2-y,z
x,1/2-y,1/2-z
1/2-x,y,1/2-z
-x,-y,-z
1/2+x,1/2+y,-z
-x,1/2+y,1/2+z
1/2+x,-y,1/2+z
loop_
_atom_site_type_symbol
_atom_site_label
_atom_site_fract_x
_atom_site_fract_y
_atom_site_fract_z
Si Si1 0.750000 0.422445 0.250000
Si Si2 0.250000 0.750000 0.750000
Si Si3 0.855329 0.558945 0.516391
Si Si4 0.750000 0.750000 0.750000
Si Si5 0.337298 0.015759 0.986277
Si Si6 0.518725 0.306548 0.661617
Si Si7 0.339725 0.330506 0.890877
Si Si8 0.882648 0.165826 0.133535
O O1 0.703982 0.458158 0.467191
O O2 0.669765 0.387630 0.145819
O O3 0.187485 0.787469 0.919618
O O4 0.895314 0.526808 0.758272
O O5 0.747144 0.554380 0.505850
O O6 0.879561 0.619467 0.537116
O O7 0.896036 0.532154 0.260932
O O8 0.681792 0.784144 0.582514
O O9 0.547968 0.250000 0.750000
O O10 0.410123 0.312066 0.673052
O O11 0.557844 0.321475 0.385675
O O12 0.556786 0.342830 0.885485
O O13 0.250000 0.348058 0.750000
#
# Coordination Sequence:
#
# PCOD8201670 Si02
#       8
#     4   2   8   2   8   8   8   8
#     4   9  22  41  72 104 130 171 228 283 350 416
#     4  10  20  44  72  90 126 178 244 252 326 444
#     4   9  18  34  61  91 117 168 215 262 315 394
#     4  12  26  38  64  98 124 170 246 280 316 402
#     4   9  17  35  63  94 126 153 222 277 323 388
#     4  12  26  44  63  95 148 178 222 288 341 382
#     4  12  26  43  66  98 132 184 239 268 338 408
#     4  11  25  42  69 100 131 181 224 284 343 409
#
# _framework density 23.676631
#
# number of rings (size 3 to 8) (size 9 to 14) (size 15 to 20)
#    0.000    1.667    3.333    2.250    4.667    8.667 
#    0.000    0.000    0.000   14.000    0.000    0.000 
#    0.000    0.000    0.000    0.000    0.000    0.000 
#
# Total GULP energy -594681.158935 kJ/mol
# GULP energy per Si atom -12389.190811 kJ/mol
# Density = 2.362274 g / cm^3
# Si number density = 23.676631 Si / 1000 Ang^3
#
#
#
# Elastic Constant Matrix: (Units=GPa)
#
#
# Indices 1 2 3 4 5 6 
#
# 1 81.0534 28.3685 33.1925 0.0000 0.0000 0.0000
# 2 28.3685 155.4778 42.7597 0.0000 0.0000 0.0000
# 3 33.1925 42.7597 173.1961 0.0000 0.0000 0.0000
# 4 0.0000 0.0000 0.0000 23.0838 0.0000 0.0000
# 5 0.0000 0.0000 0.0000 0.0000 15.8614 0.0000
# 6 0.0000 0.0000 0.0000 0.0000 0.0000 -10.5645
#
#
#
# Elastic Compliance Matrix: (Units=1/GPa)
#
#
# Indices 1 2 3 4 5 6 
#
# 1 0.013911 -0.001937 -0.002188 0.000000 0.000000 0.000000
# 2 -0.001937 0.007170 -0.001399 0.000000 0.000000 0.000000
# 3 -0.002188 -0.001399 0.006539 0.000000 0.000000 0.000000
# 4 0.000000 0.000000 0.000000 0.043320 0.000000 0.000000
# 5 0.000000 0.000000 0.000000 0.000000 0.063046 0.000000
# 6 0.000000 0.000000 0.000000 0.000000 0.000000 -0.094657
#
#
# Mechanical properties :
#
#
# Convention : Reuss Voigt Hill
#
# Bulk Modulus (GPa) = 60.34013 68.70764 64.52389
# Shear Modulus (GPa) = 89.44433 26.03659 57.74046
#
# Velocity S-wave (km/s) = 6.15301 3.31973 4.94369
# Velocity P-wave (km/s) = 8.71893 6.61637 7.73938
#
# Compressibility (1/GPa) = 0.01657272
#
# Stress axis : x y z
#
# Youngs Moduli (GPa) = 71.88388 139.47226 152.93995
#
# Poissons Ratio (x) = 0.27009 0.33463
# Poissons Ratio (y) = 0.13920 0.21397
# Poissons Ratio (z) = 0.15728 0.19512
#
# Static dielectric constant tensor:
#      x y z
#    x 3.934690 0.000000 0.000000 
#    y 0.000000 4.248480 0.000000 
#    z 0.000000 0.000000 6.153850 
# 
# 
# High freq. dielectric constant tensor:
#      x y z
#    x 1.900520 0.000000 0.000000 
#    y 0.000000 1.944600 0.000000 
#    z 0.000000 0.000000 1.939830 
# 
# From -- ./inp_files/3598.got.cif
#   From: 2010.06.25/outbox.cif.g09.slc.cpg/sg48_2_cif.got.tgz:3598.got - 2010.06.26 18:06:46.
