data_PCOD8201799
_publ_section_title
;
Structure prediction by ZEFSAII (Michael W. Deem and Ramdas Pophale) SiO2 
 PCOD8201799
Probable space group: P N N N
;
_chemical_formula_sum "Si O2"
_cell_formula_units_Z 58
_cell_length_a 9.535777
_cell_length_b 16.812621
_cell_length_c 17.143602
_cell_angle_alpha 90.000000
_cell_angle_beta 90.000000
_cell_angle_gamma 90.000000
_cell_volume 2748.486353
_symmetry_space_group_name_H-M "P N N N"
_symmetry_group_IT_number 48
_space_group.IT_coordinate_system_code '2'
_symmetry_cell_setting 'orthorhombic'
loop_
_space_group_symop_operation_xyz
x,y,z
1/2-x,1/2-y,z
x,1/2-y,1/2-z
1/2-x,y,1/2-z
-x,-y,-z
1/2+x,1/2+y,-z
-x,1/2+y,1/2+z
1/2+x,-y,1/2+z
loop_
_atom_site_type_symbol
_atom_site_label
_atom_site_fract_x
_atom_site_fract_y
_atom_site_fract_z
Si Si1 0.887625 0.555665 0.106392
Si Si2 0.693364 0.070660 0.334077
Si Si3 0.346787 0.030016 0.062333
Si Si4 0.393982 0.366987 0.131461
Si Si5 0.023174 0.775923 0.012567
Si Si6 0.750000 0.750000 0.750000
Si Si7 0.703976 0.362818 0.485799
Si Si8 0.092432 0.273801 0.830671
O O1 0.744893 0.518770 0.143440
O O2 0.932491 0.632284 0.155689
O O3 0.007620 0.485574 0.109363
O O4 0.868215 0.582449 0.016090
O O5 0.750000 0.095250 0.250000
O O6 0.524719 0.079399 0.339422
O O7 0.762350 0.131685 0.394372
O O8 0.234411 0.072270 0.117629
O O9 0.296586 0.945217 0.030930
O O10 0.351219 0.304158 0.197323
O O11 0.427608 0.318798 0.052228
O O12 0.951148 0.779961 0.096329
O O13 0.170692 0.817220 0.026865
O O14 0.056187 0.683882 0.990555
O O15 0.250000 0.250000 0.817176
O O16 0.011351 0.250000 0.750000
#
# Coordination Sequence:
#
# PCOD8201799 Si02
#       8
#     8   8   8   8   8   2   8   8
#     4  10  22  40  69  96 133 176 226 278 336 412
#     4  10  24  42  67  96 132 174 223 281 343 393
#     4  10  21  42  72  97 130 179 232 275 342 402
#     4  11  27  44  68 100 136 180 223 293 338 415
#     4  10  21  42  68  95 135 180 217 274 349 400
#     4  12  32  44  62 108 142 162 238 284 360 396
#     4   9  20  41  69  99 126 173 234 267 332 428
#     4  11  24  39  61  98 133 172 224 276 335 405
#
# _framework density 21.102525
#
# number of rings (size 3 to 8) (size 9 to 14) (size 15 to 20)
#    0.000    1.793    1.379    0.828    8.690    6.069 
#    0.000    1.379    0.000    0.000    0.000    0.000 
#    0.000    0.000    0.000    0.000    0.000    0.000 
#
# Total GULP energy -718826.217274 kJ/mol
# GULP energy per Si atom -12393.555470 kJ/mol
# Density = 2.105449 g / cm^3
# Si number density = 21.102525 Si / 1000 Ang^3
#
#
#
# Elastic Constant Matrix: (Units=GPa)
#
#
# Indices 1 2 3 4 5 6 
#
# 1 113.7908 40.8327 53.3318 0.0000 0.0000 0.0000
# 2 40.8327 98.9517 50.7696 0.0000 0.0000 0.0000
# 3 53.3318 50.7696 134.3668 0.0000 0.0000 0.0000
# 4 0.0000 0.0000 0.0000 40.3150 0.0000 0.0000
# 5 0.0000 0.0000 0.0000 0.0000 26.1241 0.0000
# 6 0.0000 0.0000 0.0000 0.0000 0.0000 32.5618
#
#
#
# Elastic Compliance Matrix: (Units=1/GPa)
#
#
# Indices 1 2 3 4 5 6 
#
# 1 0.011460 -0.002971 -0.003426 0.000000 0.000000 0.000000
# 2 -0.002971 0.013307 -0.003848 0.000000 0.000000 0.000000
# 3 -0.003426 -0.003848 0.010256 0.000000 0.000000 0.000000
# 4 0.000000 0.000000 0.000000 0.024805 0.000000 0.000000
# 5 0.000000 0.000000 0.000000 0.000000 0.038279 0.000000
# 6 0.000000 0.000000 0.000000 0.000000 0.000000 0.030711
#
#
# Mechanical properties :
#
#
# Convention : Reuss Voigt Hill
#
# Bulk Modulus (GPa) = 68.81615 70.77527 69.79571
# Shear Modulus (GPa) = 32.43548 33.27853 32.85701
#
# Velocity S-wave (km/s) = 3.92477 3.97544 3.95019
# Velocity P-wave (km/s) = 7.29517 7.39485 7.34518
#
# Compressibility (1/GPa) = 0.01453147
#
# Stress axis : x y z
#
# Youngs Moduli (GPa) = 87.26070 75.15081 97.50168
#
# Poissons Ratio (x) = 0.22329 0.33403
# Poissons Ratio (y) = 0.25927 0.37523
# Poissons Ratio (z) = 0.29895 0.28922
#
# Static dielectric constant tensor:
#      x y z
#    x 4.700590 0.000000 0.000000 
#    y 0.000000 3.905850 0.000000 
#    z 0.000000 0.000000 4.029970 
# 
# 
# High freq. dielectric constant tensor:
#      x y z
#    x 1.827500 0.000000 0.000000 
#    y 0.000000 1.830120 0.000000 
#    z 0.000000 0.000000 1.824360 
# 
# From -- ./inp_files/30486.got.cif
#   From: 2010.06.25/outbox.cif.g09.slc.cpg/sg48_16_cif.got.tgz:30486.got - 2010.06.26 18:06:46.
