data_PCOD8201460
_publ_section_title
;
Structure prediction by ZEFSAII (Michael W. Deem and Ramdas Pophale) SiO2 
 PCOD8201460
Probable space group: P N N N
;
_chemical_formula_sum "Si O2"
_cell_formula_units_Z 64
_cell_length_a 20.401191
_cell_length_b 8.790841
_cell_length_c 18.692217
_cell_angle_alpha 90.000000
_cell_angle_beta 90.000000
_cell_angle_gamma 90.000000
_cell_volume 3352.329980
_symmetry_space_group_name_H-M "P N N N"
_symmetry_group_IT_number 48
_space_group.IT_coordinate_system_code '2'
_symmetry_cell_setting 'orthorhombic'
loop_
_space_group_symop_operation_xyz
x,y,z
1/2-x,1/2-y,z
x,1/2-y,1/2-z
1/2-x,y,1/2-z
-x,-y,-z
1/2+x,1/2+y,-z
-x,1/2+y,1/2+z
1/2+x,-y,1/2+z
loop_
_atom_site_type_symbol
_atom_site_label
_atom_site_fract_x
_atom_site_fract_y
_atom_site_fract_z
Si Si1 0.641755 0.355790 0.310918
Si Si2 0.395383 0.092120 0.981769
Si Si3 0.777320 0.918083 0.377223
Si Si4 0.494973 0.085340 0.234226
Si Si5 0.467127 0.908431 0.098660
Si Si6 0.404276 0.070215 0.500370
Si Si7 0.990695 0.070574 0.885572
Si Si8 0.688695 0.157505 0.437767
O O1 0.673301 0.250000 0.250000
O O2 0.682053 0.515346 0.309623
O O3 0.567158 0.388624 0.295125
O O4 0.645995 0.271641 0.388494
O O5 0.379200 0.259429 0.013262
O O6 0.412008 0.972180 0.044485
O O7 0.327154 0.055076 0.943482
O O8 0.457850 0.079897 0.928819
O O9 0.750000 0.750000 0.364243
O O10 0.714114 0.022160 0.387314
O O11 0.462200 0.250000 0.250000
O O12 0.455644 0.998722 0.172459
O O13 0.496717 0.983438 0.304722
O O14 0.453161 0.731374 0.112384
O O15 0.437552 0.075785 0.578951
O O16 0.451932 0.049198 0.433675
O O17 0.352561 0.930084 0.500803
O O18 0.750000 0.250000 0.472209
#
# Coordination Sequence:
#
# PCOD8201460 Si02
#       8
#     8   8   8   8   8   8   8   8
#     4  10  22  38  56  76 116 156 200 238 293 342
#     4  10  20  35  57  82 112 148 189 251 297 347
#     4  11  21  38  58  83 113 153 202 248 285 341
#     4  11  20  36  56  81 113 154 187 239 296 361
#     4  10  21  35  57  82 112 145 194 243 308 349
#     4  10  19  37  53  83 115 148 192 242 292 357
#     4  10  22  33  58  82 115 149 192 239 304 351
#     4  10  22  34  57  78 115 151 199 240 286 342
#
# _framework density 19.091200000000001
#
# number of rings (size 3 to 8) (size 9 to 14) (size 15 to 20)
#    0.000    1.750    2.500    2.625    3.500    4.250 
#    0.000    1.250    0.000    0.000    0.000    0.875 
#    0.000    0.000    0.000    0.000    0.000    0.000 
#
# Total GULP energy -793001.778402 kJ/mol
# GULP energy per Si atom -12390.652788 kJ/mol
# Density = 1.904775 g / cm^3
# Si number density = 19.091200 Si / 1000 Ang^3
#
#
#
# Elastic Constant Matrix: (Units=GPa)
#
#
# Indices 1 2 3 4 5 6 
#
# 1 43.7059 25.5995 22.7608 0.0000 0.0000 0.0000
# 2 25.5995 136.4448 35.9783 0.0000 0.0000 0.0000
# 3 22.7608 35.9783 75.9545 0.0000 0.0000 0.0000
# 4 0.0000 0.0000 0.0000 29.5418 0.0000 0.0000
# 5 0.0000 0.0000 0.0000 0.0000 16.9890 0.0000
# 6 0.0000 0.0000 0.0000 0.0000 0.0000 33.5033
#
#
#
# Elastic Compliance Matrix: (Units=1/GPa)
#
#
# Indices 1 2 3 4 5 6 
#
# 1 0.028534 -0.003541 -0.006873 0.000000 0.000000 0.000000
# 2 -0.003541 0.008814 -0.003114 0.000000 0.000000 0.000000
# 3 -0.006873 -0.003114 0.016700 0.000000 0.000000 0.000000
# 4 0.000000 0.000000 0.000000 0.033850 0.000000 0.000000
# 5 0.000000 0.000000 0.000000 0.000000 0.058862 0.000000
# 6 0.000000 0.000000 0.000000 0.000000 0.000000 0.029848
#
#
# Mechanical properties :
#
#
# Convention : Reuss Voigt Hill
#
# Bulk Modulus (GPa) = 37.04811 47.19805 42.12308
# Shear Modulus (GPa) = 23.51142 27.45791 25.48466
#
# Velocity S-wave (km/s) = 3.51313 3.79654 3.65758
# Velocity P-wave (km/s) = 5.99200 6.63283 6.32054
#
# Compressibility (1/GPa) = 0.02699193
#
# Stress axis : x y z
#
# Youngs Moduli (GPa) = 35.04635 113.44958 59.87845
#
# Poissons Ratio (x) = 0.40174 0.41155
# Poissons Ratio (y) = 0.12410 0.18647
# Poissons Ratio (z) = 0.24088 0.35330
#
# Static dielectric constant tensor:
#      x y z
#    x 3.248590 0.000000 0.000000 
#    y 0.000000 3.981240 0.000000 
#    z 0.000000 0.000000 3.352110 
# 
# 
# High freq. dielectric constant tensor:
#      x y z
#    x 1.707590 0.000000 0.000000 
#    y 0.000000 1.773280 0.000000 
#    z 0.000000 0.000000 1.715780 
# 
# From -- ./inp_files/32242.got.cif
#   From: 2010.06.25/outbox.cif.g09.slc.cpg/sg48_17_cif.got.tgz:32242.got - 2010.06.26 18:06:46.
