data_PCOD8201995
_publ_section_title
;
Structure prediction by ZEFSAII (Michael W. Deem and Ramdas Pophale) SiO2 
 PCOD8201995
Probable space group: P N N N
;
_chemical_formula_sum "Si O2"
_cell_formula_units_Z 24
_cell_length_a 10.771347
_cell_length_b 17.420586
_cell_length_c 4.738567
_cell_angle_alpha 90.000000
_cell_angle_beta 90.000000
_cell_angle_gamma 90.000000
_cell_volume 889.159765
_symmetry_space_group_name_H-M "P N N N"
_symmetry_group_IT_number 48
_space_group.IT_coordinate_system_code '2'
_symmetry_cell_setting 'orthorhombic'
loop_
_space_group_symop_operation_xyz
x,y,z
1/2-x,1/2-y,z
x,1/2-y,1/2-z
1/2-x,y,1/2-z
-x,-y,-z
1/2+x,1/2+y,-z
-x,1/2+y,1/2+z
1/2+x,-y,1/2+z
loop_
_atom_site_type_symbol
_atom_site_label
_atom_site_fract_x
_atom_site_fract_y
_atom_site_fract_z
Si Si1 0.080125 0.376486 0.466114
Si Si2 0.750000 0.999635 0.250000
Si Si3 0.409437 0.876849 0.029508
Si Si4 0.750000 0.250000 0.250000
Si Si5 0.750000 0.750000 0.750000
O O1 0.154348 0.449807 0.571000
O O2 0.166792 0.301248 0.462132
O O3 0.036318 0.390043 0.145889
O O4 0.953375 0.366747 0.646867
O O5 0.680213 0.050880 0.016211
O O6 0.338370 0.799705 0.949865
#
# Coordination Sequence:
#
# PCOD8201995 Si02
#       5
#     8   4   8   2   2
#     4  12  27  48  73 107 148 195 247 308 371 445
#     4  11  26  48  76 111 148 194 250 309 374 448
#     4  11  27  47  74 108 148 195 248 307 373 443
#     4  10  26  46  72 106 148 196 250 308 372 444
#     4  12  30  50  76 112 152 200 254 310 380 452
#
# _framework density 26.991772999999998
#
# number of rings (size 3 to 8) (size 9 to 14) (size 15 to 20)
#    0.000    0.667    0.000    5.000    0.000   24.667 
#    0.000    0.000    0.000    0.000    0.000    0.000 
#    0.000    0.000    0.000    0.000    0.000    0.000 
#
# Total GULP energy -297822.480053 kJ/mol
# GULP energy per Si atom -12409.270002 kJ/mol
# Density = 2.693034 g / cm^3
# Si number density = 26.991773 Si / 1000 Ang^3
#
#
#
# Elastic Constant Matrix: (Units=GPa)
#
#
# Indices 1 2 3 4 5 6 
#
# 1 137.1238 63.9853 29.0165 0.0000 0.0000 0.0000
# 2 63.9853 178.7090 31.3546 0.0000 0.0000 0.0000
# 3 29.0165 31.3546 80.6104 0.0000 0.0000 0.0000
# 4 0.0000 0.0000 0.0000 6.6756 0.0000 0.0000
# 5 0.0000 0.0000 0.0000 0.0000 36.5607 0.0000
# 6 0.0000 0.0000 0.0000 0.0000 0.0000 12.9755
#
#
#
# Elastic Compliance Matrix: (Units=1/GPa)
#
#
# Indices 1 2 3 4 5 6 
#
# 1 0.009091 -0.002877 -0.002153 0.000000 0.000000 0.000000
# 2 -0.002877 0.006916 -0.001654 0.000000 0.000000 0.000000
# 3 -0.002153 -0.001654 0.013824 0.000000 0.000000 0.000000
# 4 0.000000 0.000000 0.000000 0.149800 0.000000 0.000000
# 5 0.000000 0.000000 0.000000 0.000000 0.027352 0.000000
# 6 0.000000 0.000000 0.000000 0.000000 0.000000 0.077068
#
#
# Mechanical properties :
#
#
# Convention : Reuss Voigt Hill
#
# Bulk Modulus (GPa) = 60.74874 71.68400 66.21637
# Shear Modulus (GPa) = 16.50667 29.38147 22.94407
#
# Velocity S-wave (km/s) = 2.47563 3.30287 2.91871
# Velocity P-wave (km/s) = 5.54318 6.41566 5.99531
#
# Compressibility (1/GPa) = 0.01646125
#
# Stress axis : x y z
#
# Youngs Moduli (GPa) = 110.00068 144.59020 72.33817
#
# Poissons Ratio (x) = 0.41600 0.15576
# Poissons Ratio (y) = 0.31649 0.11968
# Poissons Ratio (z) = 0.23686 0.23922
#
# Static dielectric constant tensor:
#      x y z
#    x 5.173210 0.000000 0.000000 
#    y 0.000000 5.035010 0.000000 
#    z 0.000000 0.000000 4.940450 
# 
# 
# High freq. dielectric constant tensor:
#      x y z
#    x 2.109440 0.000000 0.000000 
#    y 0.000000 2.098710 0.000000 
#    z 0.000000 0.000000 2.086420 
# 
# From -- ./inp_files/1661.got.cif
#   From: 2010.06.25/outbox.cif.g09.slc.cpg/sg48_1_cif.got.tgz:1661.got - 2010.06.26 18:06:46.
