data_PCOD8201043
_publ_section_title
;
Structure prediction by ZEFSAII (Michael W. Deem and Ramdas Pophale) SiO2 
 PCOD8201043
Probable space group: P M M M
;
_chemical_formula_sum "Si O2"
_cell_formula_units_Z 48
_cell_length_a 13.557643
_cell_length_b 23.747106
_cell_length_c 9.760483
_cell_angle_alpha 90.000000
_cell_angle_beta 90.000000
_cell_angle_gamma 90.000000
_cell_volume 3142.434210
_symmetry_space_group_name_H-M "P M M M"
_symmetry_group_IT_number 47
_symmetry_cell_setting 'orthorhombic'
loop_
_space_group_symop_operation_xyz
x,y,z
-x,-y,z
x,-y,-z
-x,y,-z
-x,-y,-z
x,y,-z
-x,y,z
x,-y,z
loop_
_atom_site_type_symbol
_atom_site_label
_atom_site_fract_x
_atom_site_fract_y
_atom_site_fract_z
Si Si1 0.270553 0.226038 0.342162
Si Si2 0.612991 0.114052 0.342449
Si Si3 0.113302 0.171838 0.159462
Si Si4 0.769082 0.937198 0.156367
Si Si5 0.614106 0.662323 0.340879
Si Si6 0.382885 0.562223 0.846275
O O1 0.236350 0.227490 0.500000
O O2 0.350204 0.177334 0.316836
O O3 0.174935 0.216575 0.247970
O O4 0.322197 0.283815 0.297880
O O5 0.626715 0.096442 0.500000
O O6 0.500000 0.110948 0.296913
O O7 0.673522 0.070388 0.250842
O O8 0.146794 0.108026 0.194602
O O9 0.000000 0.177618 0.202194
O O10 0.129571 0.185536 0.000000
O O11 0.812263 0.000000 0.179624
O O12 0.734856 0.928786 0.000000
O O13 0.625939 0.648169 0.500000
O O14 0.500000 0.674396 0.304212
O O15 0.657806 0.609204 0.257643
O O16 0.500000 0.561582 0.839897
O O17 0.343371 0.500000 0.804152
O O18 0.347386 0.576971 0.000000
#
# Coordination Sequence:
#
# PCOD8201043 Si02
#       6
#     8   8   8   8   8   8
#     4   9  17  29  44  62  84 108 136 170 206 245
#     4   9  17  29  44  60  81 111 141 167 198 237
#     4   9  18  32  48  64  81 102 130 166 208 252
#     4   9  18  31  45  62  83 105 131 165 204 245
#     4   9  16  25  39  60  85 113 144 175 204 235
#     4   8  14  24  36  52  79 115 150 179 205 233
#
# _framework density 15.274782999999999
#
# number of rings (size 3 to 8) (size 9 to 14) (size 15 to 20)
#    0.000    3.167    0.000    1.000    0.000    4.667 
#    0.000    5.000    0.000    3.000    0.000    4.667 
#    0.000    0.667    0.000    7.333    0.000    5.667 
#
# Total GULP energy -595092.097210 kJ/mol
# GULP energy per Si atom -12397.752025 kJ/mol
# Density = 1.524002 g / cm^3
# Si number density = 15.274783 Si / 1000 Ang^3
#
#
#
# Elastic Constant Matrix: (Units=GPa)
#
#
# Indices 1 2 3 4 5 6 
#
# 1 84.4683 40.5715 44.8070 0.0000 0.0000 0.0000
# 2 40.5715 112.7964 54.5859 0.0000 0.0000 0.0000
# 3 44.8070 54.5859 64.1163 0.0000 0.0000 0.0000
# 4 0.0000 0.0000 0.0000 28.4640 0.0000 0.0000
# 5 0.0000 0.0000 0.0000 0.0000 22.7662 0.0000
# 6 0.0000 0.0000 0.0000 0.0000 0.0000 13.9487
#
#
#
# Elastic Compliance Matrix: (Units=1/GPa)
#
#
# Indices 1 2 3 4 5 6 
#
# 1 0.018844 -0.000689 -0.012583 0.000000 0.000000 0.000000
# 2 -0.000689 0.015103 -0.012376 0.000000 0.000000 0.000000
# 3 -0.012583 -0.012376 0.034926 0.000000 0.000000 0.000000
# 4 0.000000 0.000000 0.000000 0.035132 0.000000 0.000000
# 5 0.000000 0.000000 0.000000 0.000000 0.043925 0.000000
# 6 0.000000 0.000000 0.000000 0.000000 0.000000 0.071692
#
#
# Mechanical properties :
#
#
# Convention : Reuss Voigt Hill
#
# Bulk Modulus (GPa) = 56.88996 60.14551 58.51773
# Shear Modulus (GPa) = 18.06514 21.13023 19.59768
#
# Velocity S-wave (km/s) = 3.44274 3.72336 3.58580
# Velocity P-wave (km/s) = 7.28893 7.61221 7.45232
#
# Compressibility (1/GPa) = 0.01757779
#
# Stress axis : x y z
#
# Youngs Moduli (GPa) = 53.06678 66.21375 28.63164
#
# Poissons Ratio (x) = 0.04562 0.36026
# Poissons Ratio (y) = 0.03656 0.35435
# Poissons Ratio (z) = 0.66771 0.81948
#
# Static dielectric constant tensor:
#      x y z
#    x 2.675040 0.000000 0.000000 
#    y 0.000000 3.060250 0.000000 
#    z 0.000000 0.000000 3.009000 
# 
# 
# High freq. dielectric constant tensor:
#      x y z
#    x 1.548350 0.000000 0.000000 
#    y 0.000000 1.583310 0.000000 
#    z 0.000000 0.000000 1.588980 
# 
# From -- ./inp_files/4343.got.cif
#   From: 2010.03.12/outbox.cif.g09.slc.cpg/sg47_3_cif.got.tgz:4343.got - 2010.04.14 03:12:58.
