data_PCOD8201646
_publ_section_title
;
Structure prediction by ZEFSAII (Michael W. Deem and Ramdas Pophale) SiO2 
 PCOD8201646
Probable space group: P N N N
;
_chemical_formula_sum "Si O2"
_cell_formula_units_Z 64
_cell_length_a 17.812965
_cell_length_b 20.153621
_cell_length_c 8.790917
_cell_angle_alpha 90.000000
_cell_angle_beta 90.000000
_cell_angle_gamma 90.000000
_cell_volume 3155.901802
_symmetry_space_group_name_H-M "P N N N"
_symmetry_group_IT_number 48
_space_group.IT_coordinate_system_code '2'
_symmetry_cell_setting 'orthorhombic'
loop_
_space_group_symop_operation_xyz
x,y,z
1/2-x,1/2-y,z
x,1/2-y,1/2-z
1/2-x,y,1/2-z
-x,-y,-z
1/2+x,1/2+y,-z
-x,1/2+y,1/2+z
1/2+x,-y,1/2+z
loop_
_atom_site_type_symbol
_atom_site_label
_atom_site_fract_x
_atom_site_fract_y
_atom_site_fract_z
Si Si1 0.413803 0.993566 0.452305
Si Si2 0.668349 0.113030 0.068373
Si Si3 0.175629 0.131351 0.549353
Si Si4 0.845833 0.615568 0.387149
Si Si5 0.662906 0.371599 0.083513
Si Si6 0.928323 0.259110 0.078902
Si Si7 0.329235 0.006263 0.160478
Si Si8 0.917083 0.745293 0.427555
O O1 0.360292 0.043416 0.544325
O O2 0.400260 0.006543 0.274231
O O3 0.500000 0.000000 0.500000
O O4 0.386469 0.919083 0.479234
O O5 0.752250 0.135017 0.026926
O O6 0.660113 0.097636 0.247196
O O7 0.610654 0.171953 0.034366
O O8 0.652293 0.048596 0.967015
O O9 0.262700 0.142104 0.582514
O O10 0.136526 0.108724 0.707333
O O11 0.167767 0.077423 0.418086
O O12 0.135646 0.199323 0.491256
O O13 0.897174 0.669792 0.474050
O O14 0.632553 0.298111 0.060873
O O15 0.960125 0.250000 0.250000
O O16 0.996285 0.255404 0.962792
O O17 0.250000 0.994639 0.250000
O O18 0.900580 0.750000 0.250000
#
# Coordination Sequence:
#
# PCOD8201646 Si02
#       8
#     8   8   8   8   8   8   8   8
#     4  12  25  39  61  91 129 162 201 256 321 371
#     4  10  21  39  66  88 119 162 209 257 306 376
#     4  10  21  39  66  88 119 162 209 257 306 376
#     4  10  20  40  64  90 120 165 209 248 312 378
#     4  10  20  40  64  90 120 165 209 248 312 378
#     4  10  22  39  60  90 125 161 204 257 311 374
#     4  12  23  41  61  93 126 154 210 269 310 369
#     4  10  22  39  60  90 125 161 204 257 311 374
#
# _framework density 20.279464000000001
#
# number of rings (size 3 to 8) (size 9 to 14) (size 15 to 20)
#    0.000    1.500    2.500    2.250    0.000   11.000 
#    0.000    1.875    0.000    0.000    0.000    0.000 
#    0.000    0.000    0.000    0.000    0.000    0.000 
#
# Total GULP energy -793459.687167 kJ/mol
# GULP energy per Si atom -12397.807612 kJ/mol
# Density = 2.023331 g / cm^3
# Si number density = 20.279464 Si / 1000 Ang^3
#
#
#
# Elastic Constant Matrix: (Units=GPa)
#
#
# Indices 1 2 3 4 5 6 
#
# 1 96.6612 6.8162 22.2266 0.0000 0.0000 0.0000
# 2 6.8162 71.6859 25.9647 0.0000 0.0000 0.0000
# 3 22.2266 25.9647 65.6365 0.0000 0.0000 0.0000
# 4 0.0000 0.0000 0.0000 28.1606 0.0000 0.0000
# 5 0.0000 0.0000 0.0000 0.0000 32.1485 0.0000
# 6 0.0000 0.0000 0.0000 0.0000 0.0000 25.5226
#
#
#
# Elastic Compliance Matrix: (Units=1/GPa)
#
#
# Indices 1 2 3 4 5 6 
#
# 1 0.011227 0.000361 -0.003945 0.000000 0.000000 0.000000
# 2 0.000361 0.016294 -0.006568 0.000000 0.000000 0.000000
# 3 -0.003945 -0.006568 0.019169 0.000000 0.000000 0.000000
# 4 0.000000 0.000000 0.000000 0.035511 0.000000 0.000000
# 5 0.000000 0.000000 0.000000 0.000000 0.031106 0.000000
# 6 0.000000 0.000000 0.000000 0.000000 0.000000 0.039181
#
#
# Mechanical properties :
#
#
# Convention : Reuss Voigt Hill
#
# Bulk Modulus (GPa) = 37.89644 38.22205 38.05924
# Shear Modulus (GPa) = 27.53499 29.09808 28.31654
#
# Velocity S-wave (km/s) = 3.68880 3.79206 3.74078
# Velocity P-wave (km/s) = 6.07212 6.16940 6.12095
#
# Compressibility (1/GPa) = 0.02638771
#
# Stress axis : x y z
#
# Youngs Moduli (GPa) = 89.07101 61.37083 52.16627
#
# Poissons Ratio (x) = -0.02217 0.20578
# Poissons Ratio (y) = -0.03218 0.34263
# Poissons Ratio (z) = 0.35136 0.40309
#
# Static dielectric constant tensor:
#      x y z
#    x 3.590150 0.000000 0.000000 
#    y 0.000000 3.773970 0.000000 
#    z 0.000000 0.000000 3.747130 
# 
# 
# High freq. dielectric constant tensor:
#      x y z
#    x 1.790710 0.000000 0.000000 
#    y 0.000000 1.804620 0.000000 
#    z 0.000000 0.000000 1.783560 
# 
# From -- ./inp_files/14562.got.cif
#   From: 2010.06.25/outbox.cif.g09.slc.cpg/sg48_8_cif.got.tgz:14562.got - 2010.06.26 18:06:46.
