data_PCOD8201383
_publ_section_title
;
Structure prediction by ZEFSAII (Michael W. Deem and Ramdas Pophale) SiO2 
 PCOD8201383
Probable space group: P N N N
;
_chemical_formula_sum "Si O2"
_cell_formula_units_Z 56
_cell_length_a 8.824098
_cell_length_b 15.549682
_cell_length_c 19.931940
_cell_angle_alpha 90.000000
_cell_angle_beta 90.000000
_cell_angle_gamma 90.000000
_cell_volume 2734.899714
_symmetry_space_group_name_H-M "P N N N"
_symmetry_group_IT_number 48
_space_group.IT_coordinate_system_code '2'
_symmetry_cell_setting 'orthorhombic'
loop_
_space_group_symop_operation_xyz
x,y,z
1/2-x,1/2-y,z
x,1/2-y,1/2-z
1/2-x,y,1/2-z
-x,-y,-z
1/2+x,1/2+y,-z
-x,1/2+y,1/2+z
1/2+x,-y,1/2+z
loop_
_atom_site_type_symbol
_atom_site_label
_atom_site_fract_x
_atom_site_fract_y
_atom_site_fract_z
Si Si1 0.473357 0.123072 0.029903
Si Si2 0.512240 0.568128 0.125127
Si Si3 0.838793 0.906887 0.913854
Si Si4 0.923751 0.990872 0.262755
Si Si5 0.414983 0.155964 0.274835
Si Si6 0.586536 0.791840 0.468377
Si Si7 0.147837 0.017494 0.592730
O O1 0.342050 0.110354 0.086029
O O2 0.621380 0.078122 0.061458
O O3 0.511540 0.221637 0.009709
O O4 0.416668 0.084099 0.960014
O O5 0.379619 0.508011 0.094129
O O6 0.489037 0.567025 0.206521
O O7 0.505763 0.667264 0.098034
O O8 0.674261 0.526247 0.106190
O O9 0.913956 0.849182 0.855553
O O10 0.900254 0.875468 0.985089
O O11 0.750000 0.977576 0.250000
O O12 0.952192 0.964401 0.339972
O O13 0.963080 0.090948 0.254752
O O14 0.461199 0.250000 0.250000
O O15 0.250000 0.127531 0.250000
O O16 0.750000 0.750000 0.450402
#
# Coordination Sequence:
#
# PCOD8201383 Si02
#       7
#     8   8   8   8   8   8   8
#     4  10  21  33  57  79 109 140 175 228 267 320
#     4  10  19  37  56  77 106 145 181 221 262 329
#     4  10  20  33  55  77 106 143 175 218 268 312
#     4   9  20  35  53  72 107 144 173 216 267 323
#     4  10  21  31  51  79 106 135 179 216 258 322
#     4  10  19  32  55  79 106 136 180 225 264 308
#     4  10  19  35  54  78 109 141 177 214 279 319
#
# _framework density 20.47607
#
# number of rings (size 3 to 8) (size 9 to 14) (size 15 to 20)
#    0.000    2.143    2.857    1.286    8.000    0.286 
#    0.000    1.429    0.000    0.000    0.000    0.000 
#    0.000    3.714    0.000    0.000    0.000    0.000 
#
# Total GULP energy -693843.356342 kJ/mol
# GULP energy per Si atom -12390.059935 kJ/mol
# Density = 2.042947 g / cm^3
# Si number density = 20.476070 Si / 1000 Ang^3
#
#
#
# Elastic Constant Matrix: (Units=GPa)
#
#
# Indices 1 2 3 4 5 6 
#
# 1 11.9831 15.9961 9.7581 0.0000 0.0000 0.0000
# 2 15.9961 92.3749 30.1928 0.0000 0.0000 0.0000
# 3 9.7581 30.1928 91.5697 0.0000 0.0000 0.0000
# 4 0.0000 0.0000 0.0000 30.9932 0.0000 0.0000
# 5 0.0000 0.0000 0.0000 0.0000 22.9924 0.0000
# 6 0.0000 0.0000 0.0000 0.0000 0.0000 24.4143
#
#
#
# Elastic Compliance Matrix: (Units=1/GPa)
#
#
# Indices 1 2 3 4 5 6 
#
# 1 0.111583 -0.017300 -0.006186 0.000000 0.000000 0.000000
# 2 -0.017300 0.014815 -0.003041 0.000000 0.000000 0.000000
# 3 -0.006186 -0.003041 0.012583 0.000000 0.000000 0.000000
# 4 0.000000 0.000000 0.000000 0.032265 0.000000 0.000000
# 5 0.000000 0.000000 0.000000 0.000000 0.043493 0.000000
# 6 0.000000 0.000000 0.000000 0.000000 0.000000 0.040960
#
#
# Mechanical properties :
#
#
# Convention : Reuss Voigt Hill
#
# Bulk Modulus (GPa) = 11.63811 34.20240 22.92026
# Shear Modulus (GPa) = 14.81939 25.01202 19.91571
#
# Velocity S-wave (km/s) = 2.69316 3.49882 3.12209
# Velocity P-wave (km/s) = 3.92007 5.74997 4.92083
#
# Compressibility (1/GPa) = 0.08592461
#
# Stress axis : x y z
#
# Youngs Moduli (GPa) = 8.96197 67.49770 79.47408
#
# Poissons Ratio (x) = 1.16772 0.49166
# Poissons Ratio (y) = 0.15504 0.24171
# Poissons Ratio (z) = 0.05544 0.20529
#
# Static dielectric constant tensor:
#      x y z
#    x 3.518480 0.000000 0.000000 
#    y 0.000000 3.659510 0.000000 
#    z 0.000000 0.000000 4.398260 
# 
# 
# High freq. dielectric constant tensor:
#      x y z
#    x 1.763140 0.000000 0.000000 
#    y 0.000000 1.780110 0.000000 
#    z 0.000000 0.000000 1.819780 
# 
# From -- ./inp_files/33668.got.cif
#   From: 2010.06.25/outbox.cif.g09.slc.cpg/sg48_17_cif.got.tgz:33668.got - 2010.06.26 18:06:46.
