data_PCOD8201418
_publ_section_title
;
Structure prediction by ZEFSAII (Michael W. Deem and Ramdas Pophale) SiO2 
 PCOD8201418
Probable space group: P N N N
;
_chemical_formula_sum "Si O2"
_cell_formula_units_Z 56
_cell_length_a 9.578315
_cell_length_b 15.438751
_cell_length_c 20.495453
_cell_angle_alpha 90.000000
_cell_angle_beta 90.000000
_cell_angle_gamma 90.000000
_cell_volume 3030.810618
_symmetry_space_group_name_H-M "P N N N"
_symmetry_group_IT_number 48
_space_group.IT_coordinate_system_code '2'
_symmetry_cell_setting 'orthorhombic'
loop_
_space_group_symop_operation_xyz
x,y,z
1/2-x,1/2-y,z
x,1/2-y,1/2-z
1/2-x,y,1/2-z
-x,-y,-z
1/2+x,1/2+y,-z
-x,1/2+y,1/2+z
1/2+x,-y,1/2+z
loop_
_atom_site_type_symbol
_atom_site_label
_atom_site_fract_x
_atom_site_fract_y
_atom_site_fract_z
Si Si1 0.609713 0.471106 0.178438
Si Si2 0.424480 0.991524 0.822080
Si Si3 0.090297 0.061011 0.953100
Si Si4 0.834777 0.640038 0.814760
Si Si5 0.915572 0.930683 0.457051
Si Si6 0.914423 0.743374 0.502709
Si Si7 0.935439 0.811471 0.859070
O O1 0.772642 0.448169 0.170686
O O2 0.569029 0.521538 0.245918
O O3 0.557723 0.532629 0.120645
O O4 0.539359 0.377019 0.176454
O O5 0.548788 0.926345 0.836843
O O6 0.440704 0.063908 0.878348
O O7 0.252840 0.052518 0.972123
O O8 0.044973 0.161913 0.956938
O O9 0.000000 0.000000 0.000000
O O10 0.750000 0.613224 0.750000
O O11 0.909263 0.733514 0.808148
O O12 0.716074 0.642113 0.871553
O O13 0.969834 0.834326 0.474608
O O14 0.000000 0.000000 0.500000
O O15 0.750000 0.750000 0.511660
O O16 0.990268 0.724345 0.571940
#
# Coordination Sequence:
#
# PCOD8201418 Si02
#       7
#     8   8   8   8   8   8   8
#     4  10  21  36  53  81 114 152 184 232 287 347
#     4  10  22  37  53  77 117 151 188 228 286 340
#     4  10  20  36  59  84 112 151 194 237 289 345
#     4  11  21  32  51  85 111 145 186 229 281 351
#     4  10  22  38  57  82 115 153 192 239 288 338
#     4  10  19  34  57  83 112 148 191 240 282 335
#     4  11  19  31  55  81 112 140 185 233 279 342
#
# _framework density 18.476904999999999
#
# number of rings (size 3 to 8) (size 9 to 14) (size 15 to 20)
#    0.000    1.714    4.286    1.714    2.000    0.571 
#    0.000    2.857    0.000    4.286    0.000    0.000 
#    0.000    0.000    0.000    0.000    0.000    0.000 
#
# Total GULP energy -693787.128912 kJ/mol
# GULP energy per Si atom -12389.055873 kJ/mol
# Density = 1.843485 g / cm^3
# Si number density = 18.476905 Si / 1000 Ang^3
#
#
#
# Elastic Constant Matrix: (Units=GPa)
#
#
# Indices 1 2 3 4 5 6 
#
# 1 56.5174 40.9019 33.5590 0.0000 0.0000 0.0000
# 2 40.9019 118.8848 58.5897 0.0000 0.0000 0.0000
# 3 33.5590 58.5897 137.4973 0.0000 0.0000 0.0000
# 4 0.0000 0.0000 0.0000 32.9404 0.0000 0.0000
# 5 0.0000 0.0000 0.0000 0.0000 23.3946 0.0000
# 6 0.0000 0.0000 0.0000 0.0000 0.0000 23.1752
#
#
#
# Elastic Compliance Matrix: (Units=1/GPa)
#
#
# Indices 1 2 3 4 5 6 
#
# 1 0.024515 -0.006944 -0.003025 0.000000 0.000000 0.000000
# 2 -0.006944 0.012614 -0.003680 0.000000 0.000000 0.000000
# 3 -0.003025 -0.003680 0.009579 0.000000 0.000000 0.000000
# 4 0.000000 0.000000 0.000000 0.030358 0.000000 0.000000
# 5 0.000000 0.000000 0.000000 0.000000 0.042745 0.000000
# 6 0.000000 0.000000 0.000000 0.000000 0.000000 0.043150
#
#
# Mechanical properties :
#
#
# Convention : Reuss Voigt Hill
#
# Bulk Modulus (GPa) = 51.51663 64.33341 57.92502
# Shear Modulus (GPa) = 25.41579 27.89196 26.65388
#
# Velocity S-wave (km/s) = 3.71286 3.88952 3.80221
# Velocity P-wave (km/s) = 6.80607 7.42058 7.11996
#
# Compressibility (1/GPa) = 0.01941121
#
# Stress axis : x y z
#
# Youngs Moduli (GPa) = 40.79185 79.27560 104.39142
#
# Poissons Ratio (x) = 0.55046 0.31573
# Poissons Ratio (y) = 0.28324 0.38420
# Poissons Ratio (z) = 0.12338 0.29176
#
# Static dielectric constant tensor:
#      x y z
#    x 3.420130 0.000000 0.000000 
#    y 0.000000 3.377010 0.000000 
#    z 0.000000 0.000000 3.675870 
# 
# 
# High freq. dielectric constant tensor:
#      x y z
#    x 1.705830 0.000000 0.000000 
#    y 0.000000 1.690830 0.000000 
#    z 0.000000 0.000000 1.730770 
# 
# From -- ./inp_files/33612.got.cif
#   From: 2010.06.25/outbox.cif.g09.slc.cpg/sg48_17_cif.got.tgz:33612.got - 2010.06.26 18:06:46.
