data_PCOD8201924
_publ_section_title
;
Structure prediction by ZEFSAII (Michael W. Deem and Ramdas Pophale) SiO2 
 PCOD8201924
Probable space group: P N N N
;
_chemical_formula_sum "Si O2"
_cell_formula_units_Z 48
_cell_length_a 14.679966
_cell_length_b 28.045179
_cell_length_c 5.372011
_cell_angle_alpha 90.000000
_cell_angle_beta 90.000000
_cell_angle_gamma 90.000000
_cell_volume 2211.669146
_symmetry_space_group_name_H-M "P N N N"
_symmetry_group_IT_number 48
_space_group.IT_coordinate_system_code '2'
_symmetry_cell_setting 'orthorhombic'
loop_
_space_group_symop_operation_xyz
x,y,z
1/2-x,1/2-y,z
x,1/2-y,1/2-z
1/2-x,y,1/2-z
-x,-y,-z
1/2+x,1/2+y,-z
-x,1/2+y,1/2+z
1/2+x,-y,1/2+z
loop_
_atom_site_type_symbol
_atom_site_label
_atom_site_fract_x
_atom_site_fract_y
_atom_site_fract_z
Si Si1 0.522214 0.750000 0.750000
Si Si2 0.000604 0.969332 0.250447
Si Si3 0.352323 0.889726 0.148779
Si Si4 0.855836 0.891461 0.249471
Si Si5 0.250000 0.651036 0.750000
Si Si6 0.355917 0.163175 0.243860
Si Si7 0.875151 0.205123 0.895521
O O1 0.588436 0.791002 0.846910
O O2 0.461821 0.774659 0.540141
O O3 0.088181 0.934815 0.274037
O O4 0.907874 0.940673 0.222862
O O5 0.000000 0.000000 0.500000
O O6 0.000000 0.000000 0.000000
O O7 0.250000 0.896280 0.250000
O O8 0.404654 0.841192 0.233350
O O9 0.333470 0.882139 0.852595
O O10 0.750000 0.903612 0.250000
O O11 0.881323 0.872916 0.523499
O O12 0.882954 0.856972 0.017449
O O13 0.210995 0.686971 0.548637
O O14 0.250000 0.176719 0.250000
O O15 0.835429 0.250000 0.750000
#
# Coordination Sequence:
#
# PCOD8201924 Si02
#       7
#     4   8   8   8   4   8   8
#     4  12  25  35  62  96 138 178 228 285 339 402
#     4  12  28  45  73 107 137 175 233 295 362 435
#     4  10  25  45  70  96 143 185 232 290 355 422
#     4  10  23  46  71  96 133 180 226 287 352 418
#     4  10  24  45  68  92 144 190 236 286 343 432
#     4  10  23  42  67  95 134 180 229 279 342 410
#     4  11  25  40  63 102 135 186 233 279 344 411
#
# _framework density 21.703064999999999
#
# number of rings (size 3 to 8) (size 9 to 14) (size 15 to 20)
#    0.000    1.333    0.000    3.250   11.667    9.333 
#    0.000    2.500    0.000    0.000    0.000    0.000 
#    0.000    0.000    0.000    0.000    0.000    0.000 
#
# Total GULP energy -594717.026278 kJ/mol
# GULP energy per Si atom -12389.938047 kJ/mol
# Density = 2.165367 g / cm^3
# Si number density = 21.703065 Si / 1000 Ang^3
#
#
#
# Elastic Constant Matrix: (Units=GPa)
#
#
# Indices 1 2 3 4 5 6 
#
# 1 86.6987 83.2013 50.1188 0.0000 0.0000 0.0000
# 2 83.2013 162.8991 70.6735 0.0000 0.0000 0.0000
# 3 50.1188 70.6735 149.4611 0.0000 0.0000 0.0000
# 4 0.0000 0.0000 0.0000 39.6951 0.0000 0.0000
# 5 0.0000 0.0000 0.0000 0.0000 25.7125 0.0000
# 6 0.0000 0.0000 0.0000 0.0000 0.0000 -46.7048
#
#
#
# Elastic Compliance Matrix: (Units=1/GPa)
#
#
# Indices 1 2 3 4 5 6 
#
# 1 0.023503 -0.010801 -0.002774 0.000000 0.000000 0.000000
# 2 -0.010801 0.012687 -0.002377 0.000000 0.000000 0.000000
# 3 -0.002774 -0.002377 0.008745 0.000000 0.000000 0.000000
# 4 0.000000 0.000000 0.000000 0.025192 0.000000 0.000000
# 5 0.000000 0.000000 0.000000 0.000000 0.038892 0.000000
# 6 0.000000 0.000000 0.000000 0.000000 0.000000 -0.021411
#
#
# Mechanical properties :
#
#
# Convention : Reuss Voigt Hill
#
# Bulk Modulus (GPa) = 76.74201 89.67180 83.20691
# Shear Modulus (GPa) = 40.37018 16.74491 28.55754
#
# Velocity S-wave (km/s) = 4.31758 2.78068 3.63137
# Velocity P-wave (km/s) = 7.76480 7.19145 7.48362
#
# Compressibility (1/GPa) = 0.01303067
#
# Stress axis : x y z
#
# Youngs Moduli (GPa) = 42.54825 78.82378 114.35143
#
# Poissons Ratio (x) = 0.85134 0.31722
# Poissons Ratio (y) = 0.45955 0.27183
# Poissons Ratio (z) = 0.11803 0.18737
#
# Static dielectric constant tensor:
#      x y z
#    x 4.024840 0.000000 0.000000 
#    y 0.000000 4.016490 0.000000 
#    z 0.000000 0.000000 4.817500 
# 
# 
# High freq. dielectric constant tensor:
#      x y z
#    x 1.864540 0.000000 0.000000 
#    y 0.000000 1.848870 0.000000 
#    z 0.000000 0.000000 1.868320 
# 
# From -- ./inp_files/3585.got.cif
#   From: 2010.06.25/outbox.cif.g09.slc.cpg/sg48_2_cif.got.tgz:3585.got - 2010.06.26 18:06:46.
