data_PCOD8201493
_publ_section_title
;
Structure prediction by ZEFSAII (Michael W. Deem and Ramdas Pophale) SiO2 
 PCOD8201493
Probable space group: P N N N
;
_chemical_formula_sum "Si O2"
_cell_formula_units_Z 48
_cell_length_a 13.478041
_cell_length_b 9.055430
_cell_length_c 18.157202
_cell_angle_alpha 90.000000
_cell_angle_beta 90.000000
_cell_angle_gamma 90.000000
_cell_volume 2216.076641
_symmetry_space_group_name_H-M "P N N N"
_symmetry_group_IT_number 48
_space_group.IT_coordinate_system_code '2'
_symmetry_cell_setting 'orthorhombic'
loop_
_space_group_symop_operation_xyz
x,y,z
1/2-x,1/2-y,z
x,1/2-y,1/2-z
1/2-x,y,1/2-z
-x,-y,-z
1/2+x,1/2+y,-z
-x,1/2+y,1/2+z
1/2+x,-y,1/2+z
loop_
_atom_site_type_symbol
_atom_site_label
_atom_site_fract_x
_atom_site_fract_y
_atom_site_fract_z
Si Si1 0.930514 0.289200 0.087744
Si Si2 0.849802 0.787231 0.938620
Si Si3 0.535057 0.681234 0.177301
Si Si4 0.315171 0.566319 0.822266
Si Si5 0.585110 0.089394 0.541077
Si Si6 0.846188 0.904625 0.412089
O O1 0.856841 0.227100 0.151442
O O2 0.927248 0.465203 0.081646
O O3 0.045900 0.244169 0.102111
O O4 0.885836 0.224591 0.011454
O O5 0.750000 0.750000 0.891504
O O6 0.831932 0.963849 0.949897
O O7 0.842015 0.691417 0.013680
O O8 0.484399 0.750000 0.250000
O O9 0.586739 0.526417 0.196838
O O10 0.448769 0.658562 0.118086
O O11 0.620388 0.794063 0.151700
O O12 0.250000 0.589099 0.750000
O O13 0.257983 0.480108 0.888380
O O14 0.500000 0.000000 0.500000
#
# Coordination Sequence:
#
# PCOD8201493 Si02
#       6
#     8   8   8   8   8   8
#     4  11  23  39  57  91 137 174 218 282 338 386
#     4  11  21  38  64  88 117 173 232 277 322 391
#     4  12  22  39  61  93 130 180 221 264 336 423
#     4  12  24  40  60  95 142 180 211 271 350 427
#     4  10  19  39  63  83 132 176 220 276 330 381
#     4  12  23  34  59  92 133 171 221 271 337 400
#
# _framework density 21.659901000000001
#
# number of rings (size 3 to 8) (size 9 to 14) (size 15 to 20)
#    0.000    0.667    8.333    3.500    0.000    1.333 
#    0.000    0.000    0.000    0.000    0.000   10.500 
#    0.000    0.000    0.000    0.000    0.000    0.000 
#
# Total GULP energy -594804.931039 kJ/mol
# GULP energy per Si atom -12391.769397 kJ/mol
# Density = 2.161060 g / cm^3
# Si number density = 21.659901 Si / 1000 Ang^3
#
#
#
# Elastic Constant Matrix: (Units=GPa)
#
#
# Indices 1 2 3 4 5 6 
#
# 1 94.7149 23.2042 27.0690 0.0000 0.0000 0.0000
# 2 23.2042 114.3850 20.2957 0.0000 0.0000 0.0000
# 3 27.0690 20.2957 97.8530 0.0000 0.0000 0.0000
# 4 0.0000 0.0000 0.0000 33.8164 0.0000 0.0000
# 5 0.0000 0.0000 0.0000 0.0000 33.9621 0.0000
# 6 0.0000 0.0000 0.0000 0.0000 0.0000 36.6110
#
#
#
# Elastic Compliance Matrix: (Units=1/GPa)
#
#
# Indices 1 2 3 4 5 6 
#
# 1 0.011846 -0.001891 -0.002885 0.000000 0.000000 0.000000
# 2 -0.001891 0.009378 -0.001422 0.000000 0.000000 0.000000
# 3 -0.002885 -0.001422 0.011312 0.000000 0.000000 0.000000
# 4 0.000000 0.000000 0.000000 0.029571 0.000000 0.000000
# 5 0.000000 0.000000 0.000000 0.000000 0.029445 0.000000
# 6 0.000000 0.000000 0.000000 0.000000 0.000000 0.027314
#
#
# Mechanical properties :
#
#
# Convention : Reuss Voigt Hill
#
# Bulk Modulus (GPa) = 49.65056 49.78785 49.71920
# Shear Modulus (GPa) = 36.23822 36.63684 36.43753
#
# Velocity S-wave (km/s) = 4.09474 4.11720 4.10598
# Velocity P-wave (km/s) = 6.73264 6.75558 6.74412
#
# Compressibility (1/GPa) = 0.02014076
#
# Stress axis : x y z
#
# Youngs Moduli (GPa) = 84.41855 106.62845 88.39923
#
# Poissons Ratio (x) = 0.20166 0.25500
# Poissons Ratio (y) = 0.15965 0.12570
# Poissons Ratio (z) = 0.24352 0.15163
#
# Static dielectric constant tensor:
#      x y z
#    x -6.911150 0.000000 0.000000 
#    y 0.000000 3.109760 0.000000 
#    z 0.000000 0.000000 3.759860 
# 
# 
# High freq. dielectric constant tensor:
#      x y z
#    x 1.826680 0.000000 0.000000 
#    y 0.000000 1.880010 0.000000 
#    z 0.000000 0.000000 1.818910 
# 
# From -- ./inp_files/31544.got.cif
#   From: 2010.06.25/outbox.cif.g09.slc.cpg/sg48_16_cif.got.tgz:31544.got - 2010.06.26 18:06:46.
