data_PCOD8201752
_publ_section_title
;
Structure prediction by ZEFSAII (Michael W. Deem and Ramdas Pophale) SiO2 
 PCOD8201752
Probable space group: P N N N
;
_chemical_formula_sum "Si O2"
_cell_formula_units_Z 54
_cell_length_a 30.227518
_cell_length_b 5.247297
_cell_length_c 14.873863
_cell_angle_alpha 90.000000
_cell_angle_beta 90.000000
_cell_angle_gamma 90.000000
_cell_volume 2359.184530
_symmetry_space_group_name_H-M "P N N N"
_symmetry_group_IT_number 48
_space_group.IT_coordinate_system_code '2'
_symmetry_cell_setting 'orthorhombic'
loop_
_space_group_symop_operation_xyz
x,y,z
1/2-x,1/2-y,z
x,1/2-y,1/2-z
1/2-x,y,1/2-z
-x,-y,-z
1/2+x,1/2+y,-z
-x,1/2+y,1/2+z
1/2+x,-y,1/2+z
loop_
_atom_site_type_symbol
_atom_site_label
_atom_site_fract_x
_atom_site_fract_y
_atom_site_fract_z
Si Si1 0.137731 0.066810 0.921814
Si Si2 0.316724 0.250000 0.250000
Si Si3 0.250000 0.750000 0.750000
Si Si4 0.790328 0.433831 0.909108
Si Si5 0.043041 0.000762 0.193436
Si Si6 0.554812 0.004959 0.308610
Si Si7 0.189312 0.546980 0.894395
Si Si8 0.866563 0.061396 0.885079
O O1 0.087276 0.018895 0.893453
O O2 0.165981 0.820224 0.896711
O O3 0.155406 0.319152 0.872396
O O4 0.141811 0.121011 0.029053
O O5 0.286965 0.344630 0.334195
O O6 0.348334 0.466743 0.210345
O O7 0.222860 0.555724 0.812151
O O8 0.750000 0.250000 0.882290
O O9 0.840450 0.323468 0.903269
O O10 0.784157 0.519937 0.012734
O O11 0.035970 0.750000 0.250000
O O12 0.080305 0.920142 0.121177
O O13 0.058269 0.250000 0.250000
O O14 0.994563 0.054253 0.150800
O O15 0.569106 0.250000 0.250000
O O16 0.557966 0.750000 0.250000
#
# Coordination Sequence:
#
# PCOD8201752 Si02
#       8
#     8   4   2   8   8   8   8   8
#     4  11  25  44  69 105 141 179 230 296 348 415
#     4  12  22  43  70  91 132 189 224 282 364 407
#     4  12  28  50  80 104 142 204 240 286 376 412
#     4  11  25  46  65 102 141 177 236 294 346 426
#     4  10  21  39  65  99 134 180 233 282 336 425
#     4  10  22  41  67  99 139 180 230 286 354 415
#     4  11  26  47  72 105 141 182 236 294 345 424
#     4  11  24  40  68  97 139 179 233 285 347 418
#
# _framework density 22.889267
#
# number of rings (size 3 to 8) (size 9 to 14) (size 15 to 20)
#    0.000    1.185    2.963    2.222    3.111    4.148 
#    0.000    0.000    0.000    8.000    0.000    0.000 
#    0.000    0.000    0.000    0.000    0.000    0.000 
#
# Total GULP energy -669307.189084 kJ/mol
# GULP energy per Si atom -12394.577576 kJ/mol
# Density = 2.283717 g / cm^3
# Si number density = 22.889267 Si / 1000 Ang^3
#
#
#
# Elastic Constant Matrix: (Units=GPa)
#
#
# Indices 1 2 3 4 5 6 
#
# 1 130.0102 31.7162 60.0201 0.0000 0.0000 0.0000
# 2 31.7162 114.1786 30.9707 0.0000 0.0000 0.0000
# 3 60.0201 30.9707 135.2699 0.0000 0.0000 0.0000
# 4 0.0000 0.0000 0.0000 24.2431 0.0000 0.0000
# 5 0.0000 0.0000 0.0000 0.0000 30.1186 0.0000
# 6 0.0000 0.0000 0.0000 0.0000 0.0000 29.9544
#
#
#
# Elastic Compliance Matrix: (Units=1/GPa)
#
#
# Indices 1 2 3 4 5 6 
#
# 1 0.009964 -0.001672 -0.004038 0.000000 0.000000 0.000000
# 2 -0.001672 0.009619 -0.001460 0.000000 0.000000 0.000000
# 3 -0.004038 -0.001460 0.009519 0.000000 0.000000 0.000000
# 4 0.000000 0.000000 0.000000 0.041249 0.000000 0.000000
# 5 0.000000 0.000000 0.000000 0.000000 0.033202 0.000000
# 6 0.000000 0.000000 0.000000 0.000000 0.000000 0.033384
#
#
# Mechanical properties :
#
#
# Convention : Reuss Voigt Hill
#
# Bulk Modulus (GPa) = 67.75108 69.43031 68.59069
# Shear Modulus (GPa) = 32.01063 33.97998 32.99530
#
# Velocity S-wave (km/s) = 3.74371 3.85715 3.80085
# Velocity P-wave (km/s) = 6.95348 7.08772 7.02092
#
# Compressibility (1/GPa) = 0.01475991
#
# Stress axis : x y z
#
# Youngs Moduli (GPa) = 100.36195 103.96250 105.05622
#
# Poissons Ratio (x) = 0.17387 0.42423
# Poissons Ratio (y) = 0.16785 0.15341
# Poissons Ratio (z) = 0.40528 0.15181
#
# Static dielectric constant tensor:
#      x y z
#    x 4.484910 0.000000 0.000000 
#    y 0.000000 4.052950 0.000000 
#    z 0.000000 0.000000 4.157400 
# 
# 
# High freq. dielectric constant tensor:
#      x y z
#    x 1.914430 0.000000 0.000000 
#    y 0.000000 1.905930 0.000000 
#    z 0.000000 0.000000 1.892210 
# 
# From -- ./inp_files/28949.got.cif
#   From: 2010.06.25/outbox.cif.g09.slc.cpg/sg48_15_cif.got.tgz:28949.got - 2010.06.26 18:06:46.
