data_PCOD8201237
_publ_section_title
;
Structure prediction by ZEFSAII (Michael W. Deem and Ramdas Pophale) SiO2 
 PCOD8201237
Probable space group: P M M M
;
_chemical_formula_sum "Si O2"
_cell_formula_units_Z 40
_cell_length_a 13.464074
_cell_length_b 8.150807
_cell_length_c 19.707633
_cell_angle_alpha 90.000000
_cell_angle_beta 90.000000
_cell_angle_gamma 90.000000
_cell_volume 2162.776120
_symmetry_space_group_name_H-M "P M M M"
_symmetry_group_IT_number 47
_symmetry_cell_setting 'orthorhombic'
loop_
_space_group_symop_operation_xyz
x,y,z
-x,-y,z
x,-y,-z
-x,y,-z
-x,-y,-z
x,y,-z
-x,y,z
x,-y,z
loop_
_atom_site_type_symbol
_atom_site_label
_atom_site_fract_x
_atom_site_fract_y
_atom_site_fract_z
Si Si1 0.110399 0.312181 0.190157
Si Si2 0.391951 0.000000 0.919793
Si Si3 0.731191 0.686495 0.078755
Si Si4 0.290043 0.806323 0.576671
Si Si5 0.500000 0.307792 0.577459
Si Si6 0.888437 0.189686 0.666911
O O1 0.115724 0.500000 0.212771
O O2 0.171643 0.279445 0.122440
O O3 0.147617 0.210568 0.255353
O O4 0.000000 0.256665 0.170718
O O5 0.343254 0.828459 0.896275
O O6 0.500000 0.000000 0.886154
O O7 0.398065 0.000000 0.000000
O O8 0.689316 0.500000 0.091232
O O9 0.759292 0.708535 0.000000
O O10 0.283200 0.735676 0.500000
O O11 0.396933 0.758416 0.610442
O O12 0.196732 0.730436 0.618763
O O13 0.281863 0.000000 0.576973
O O14 0.500000 0.500000 0.584859
O O15 0.500000 0.245954 0.500000
O O16 0.000000 0.267937 0.656264
O O17 0.895902 0.000000 0.649227
#
# Coordination Sequence:
#
# PCOD8201237 Si02
#       6
#     8   4   8   8   4   8
#     4   9  18  32  50  71  97 131 163 195 242 296
#     4   9  18  32  51  75 101 131 167 208 256 304
#     4   9  18  32  51  76 103 131 167 210 252 297
#     4   9  17  30  49  71  96 126 159 198 242 290
#     4   9  17  29  47  71  95 121 156 197 244 291
#     4   9  18  31  48  71  97 128 163 198 241 293
#
# _framework density 18.494748999999999
#
# number of rings (size 3 to 8) (size 9 to 14) (size 15 to 20)
#    0.000    3.000    0.000    0.300    1.400    3.200 
#    0.000    6.000    2.200    1.800    0.000    5.600 
#    0.000    0.000    0.000    0.000    0.000    0.000 
#
# Total GULP energy -495564.672561 kJ/mol
# GULP energy per Si atom -12389.116814 kJ/mol
# Density = 1.845265 g / cm^3
# Si number density = 18.494749 Si / 1000 Ang^3
#
#
#
# Elastic Constant Matrix: (Units=GPa)
#
#
# Indices 1 2 3 4 5 6 
#
# 1 154.1951 47.8882 70.8003 0.0000 0.0000 0.0000
# 2 47.8882 66.1229 25.5146 0.0000 0.0000 0.0000
# 3 70.8003 25.5146 69.7184 0.0000 0.0000 0.0000
# 4 0.0000 0.0000 0.0000 20.1363 0.0000 0.0000
# 5 0.0000 0.0000 0.0000 0.0000 13.8746 0.0000
# 6 0.0000 0.0000 0.0000 0.0000 0.0000 21.2040
#
#
#
# Elastic Compliance Matrix: (Units=1/GPa)
#
#
# Indices 1 2 3 4 5 6 
#
# 1 0.013552 -0.005245 -0.011843 0.000000 0.000000 0.000000
# 2 -0.005245 0.019640 -0.001861 0.000000 0.000000 0.000000
# 3 -0.011843 -0.001861 0.027051 0.000000 0.000000 0.000000
# 4 0.000000 0.000000 0.000000 0.049662 0.000000 0.000000
# 5 0.000000 0.000000 0.000000 0.000000 0.072074 0.000000
# 6 0.000000 0.000000 0.000000 0.000000 0.000000 0.047161
#
#
# Mechanical properties :
#
#
# Convention : Reuss Voigt Hill
#
# Bulk Modulus (GPa) = 44.75237 64.27143 54.51190
# Shear Modulus (GPa) = 18.21586 20.76521 19.49054
#
# Velocity S-wave (km/s) = 3.14175 3.35440 3.24981
# Velocity P-wave (km/s) = 6.11642 7.05899 6.60454
#
# Compressibility (1/GPa) = 0.02234519
#
# Stress axis : x y z
#
# Youngs Moduli (GPa) = 73.79009 50.91619 36.96710
#
# Poissons Ratio (x) = 0.26706 0.43779
# Poissons Ratio (y) = 0.38703 0.06880
# Poissons Ratio (z) = 0.87388 0.09477
#
# Static dielectric constant tensor:
#      x y z
#    x 3.802920 0.000000 0.000000 
#    y 0.000000 3.403790 0.000000 
#    z 0.000000 0.000000 3.243000 
# 
# 
# High freq. dielectric constant tensor:
#      x y z
#    x 1.719490 0.000000 0.000000 
#    y 0.000000 1.713050 0.000000 
#    z 0.000000 0.000000 1.686640 
# 
# From -- ./inp_files/15099.got.cif
#   From: 2010.03.12/outbox.cif.g09.slc.cpg/sg47_8_cif.got.tgz:15099.got - 2010.04.14 03:12:58.
