data_PCOD8201415
_publ_section_title
;
Structure prediction by ZEFSAII (Michael W. Deem and Ramdas Pophale) SiO2 
 PCOD8201415
Probable space group: P N N N
;
_chemical_formula_sum "Si O2"
_cell_formula_units_Z 56
_cell_length_a 32.845963
_cell_length_b 5.058141
_cell_length_c 17.107006
_cell_angle_alpha 90.000000
_cell_angle_beta 90.000000
_cell_angle_gamma 90.000000
_cell_volume 2842.149631
_symmetry_space_group_name_H-M "P N N N"
_symmetry_group_IT_number 48
_space_group.IT_coordinate_system_code '2'
_symmetry_cell_setting 'orthorhombic'
loop_
_space_group_symop_operation_xyz
x,y,z
1/2-x,1/2-y,z
x,1/2-y,1/2-z
1/2-x,y,1/2-z
-x,-y,-z
1/2+x,1/2+y,-z
-x,1/2+y,1/2+z
1/2+x,-y,1/2+z
loop_
_atom_site_type_symbol
_atom_site_label
_atom_site_fract_x
_atom_site_fract_y
_atom_site_fract_z
Si Si1 0.873992 0.796627 0.339320
Si Si2 0.380314 0.721167 0.409145
Si Si3 0.498777 0.750150 0.945040
Si Si4 0.409303 0.703788 0.914421
Si Si5 0.704778 0.287492 0.971186
Si Si6 0.705457 0.787484 0.075706
Si Si7 0.921638 0.778924 0.841260
O O1 0.884668 0.750000 0.250000
O O2 0.899844 0.599327 0.393496
O O3 0.826447 0.742176 0.354997
O O4 0.884256 0.098180 0.359741
O O5 0.397911 0.746348 0.496013
O O6 0.331056 0.747410 0.407898
O O7 0.390422 0.436568 0.374105
O O8 0.401248 0.937842 0.354686
O O9 0.456719 0.752567 0.897457
O O10 0.535258 0.748735 0.883802
O O11 0.500000 0.500000 0.000000
O O12 0.500000 0.000000 0.000000
O O13 0.750000 0.250000 0.933072
O O14 0.699292 0.580918 0.005215
O O15 0.699512 0.080413 0.041686
O O16 0.750000 0.750000 0.113190
O O17 0.929850 0.750000 0.750000
#
# Coordination Sequence:
#
# PCOD8201415 Si02
#       7
#     8   8   8   8   8   8   8
#     4  12  24  38  56  87 127 165 203 253 308 356
#     4  12  21  41  70  87 124 164 201 253 302 367
#     4  12  23  41  66  93 119 160 206 246 296 365
#     4  12  23  40  65  89 116 164 218 244 296 366
#     4  10  20  34  61  93 116 150 208 259 295 352
#     4  10  19  34  55  84 119 157 205 256 298 353
#     4  12  26  42  64  98 127 156 200 254 310 362
#
# _framework density 19.703398
#
# number of rings (size 3 to 8) (size 9 to 14) (size 15 to 20)
#    0.000    0.571    5.714    3.429    0.000    1.429 
#    0.000    0.000    0.000    6.857    0.000    0.000 
#    0.000    0.000    0.000    0.000    0.000    0.000 
#
# Total GULP energy -694642.319014 kJ/mol
# GULP energy per Si atom -12404.327125 kJ/mol
# Density = 1.965855 g / cm^3
# Si number density = 19.703398 Si / 1000 Ang^3
#
#
#
# Elastic Constant Matrix: (Units=GPa)
#
#
# Indices 1 2 3 4 5 6 
#
# 1 157.5172 14.3377 32.0230 0.0000 0.0000 0.0000
# 2 14.3377 81.7924 13.0612 0.0000 0.0000 0.0000
# 3 32.0230 13.0612 96.1388 0.0000 0.0000 0.0000
# 4 0.0000 0.0000 0.0000 27.2352 0.0000 0.0000
# 5 0.0000 0.0000 0.0000 0.0000 21.0918 0.0000
# 6 0.0000 0.0000 0.0000 0.0000 0.0000 29.0718
#
#
#
# Elastic Compliance Matrix: (Units=1/GPa)
#
#
# Indices 1 2 3 4 5 6 
#
# 1 0.006868 -0.000857 -0.002171 0.000000 0.000000 0.000000
# 2 -0.000857 0.012604 -0.001427 0.000000 0.000000 0.000000
# 3 -0.002171 -0.001427 0.011319 0.000000 0.000000 0.000000
# 4 0.000000 0.000000 0.000000 0.036717 0.000000 0.000000
# 5 0.000000 0.000000 0.000000 0.000000 0.047412 0.000000
# 6 0.000000 0.000000 0.000000 0.000000 0.000000 0.034398
#
#
# Mechanical properties :
#
#
# Convention : Reuss Voigt Hill
#
# Bulk Modulus (GPa) = 45.70313 50.47688 48.09001
# Shear Modulus (GPa) = 30.20760 33.88153 32.04456
#
# Velocity S-wave (km/s) = 3.91975 4.15128 4.03717
# Velocity P-wave (km/s) = 6.61301 6.97506 6.79644
#
# Compressibility (1/GPa) = 0.02188034
#
# Stress axis : x y z
#
# Youngs Moduli (GPa) = 145.60409 79.33873 88.34954
#
# Poissons Ratio (x) = 0.06801 0.19182
# Poissons Ratio (y) = 0.12481 0.12606
# Poissons Ratio (z) = 0.31613 0.11320
#
# Static dielectric constant tensor:
#      x y z
#    x 4.082430 0.000000 0.000000 
#    y 0.000000 3.870250 0.000000 
#    z 0.000000 0.000000 3.261730 
# 
# 
# High freq. dielectric constant tensor:
#      x y z
#    x 1.788690 0.000000 0.000000 
#    y 0.000000 1.792690 0.000000 
#    z 0.000000 0.000000 1.729710 
# 
# From -- ./inp_files/28907.got.cif
#   From: 2010.06.25/outbox.cif.g09.slc.cpg/sg48_15_cif.got.tgz:28907.got - 2010.06.26 18:06:46.
