data_PCOD8201117
_publ_section_title
;
Structure prediction by ZEFSAII (Michael W. Deem and Ramdas Pophale) SiO2 
 PCOD8201117
Probable space group: P M M M
;
_chemical_formula_sum "Si O2"
_cell_formula_units_Z 52
_cell_length_a 9.418474
_cell_length_b 33.556667
_cell_length_c 9.423951
_cell_angle_alpha 90.000000
_cell_angle_beta 90.000000
_cell_angle_gamma 90.000000
_cell_volume 2978.464175
_symmetry_space_group_name_H-M "P M M M"
_symmetry_group_IT_number 47
_symmetry_cell_setting 'orthorhombic'
loop_
_space_group_symop_operation_xyz
x,y,z
-x,-y,z
x,-y,-z
-x,y,-z
-x,-y,-z
x,y,-z
-x,y,z
x,-y,z
loop_
_atom_site_type_symbol
_atom_site_label
_atom_site_fract_x
_atom_site_fract_y
_atom_site_fract_z
Si Si1 0.168728 0.543736 0.159739
Si Si2 0.334611 0.846373 0.336075
Si Si3 0.665859 0.695122 0.335627
Si Si4 0.164175 0.382120 0.334758
Si Si5 0.668811 0.229161 0.160548
Si Si6 0.834651 0.924502 0.336055
Si Si7 0.168837 0.000000 0.160522
O O1 0.222914 0.500000 0.211258
O O2 0.228924 0.578834 0.258562
O O3 0.000000 0.544120 0.166158
O O4 0.221572 0.551600 0.000000
O O5 0.305923 0.835693 0.500000
O O6 0.500000 0.854351 0.308353
O O7 0.275831 0.810055 0.241499
O O8 0.250009 0.885441 0.288661
O O9 0.697782 0.704566 0.500000
O O10 0.500000 0.687638 0.310027
O O11 0.748946 0.656199 0.282713
O O12 0.724183 0.731927 0.243218
O O13 0.185749 0.389432 0.500000
O O14 0.000000 0.375128 0.295311
O O15 0.500000 0.229164 0.162220
O O16 0.728010 0.229382 0.000000
O O17 0.806205 0.935127 0.500000
O O18 0.000000 0.916540 0.307930
O O19 0.775632 0.960875 0.241883
O O20 0.000000 0.000000 0.162831
O O21 0.227833 0.000000 0.000000
#
# Coordination Sequence:
#
# PCOD8201117 Si02
#       7
#     8   8   8   8   8   8   4
#     4   8  14  25  41  61  85 113 143 173 208 253
#     4   9  17  30  48  68  89 114 144 178 217 258
#     4   9  17  30  47  64  84 113 146 176 209 254
#     4   9  17  28  43  65  89 110 137 177 219 252
#     4   9  17  29  46  67  88 112 145 181 213 250
#     4   9  17  30  48  68  89 115 148 182 214 252
#     4   9  17  29  46  67  90 118 150 181 214 254
#
# _framework density 17.458660999999999
#
# number of rings (size 3 to 8) (size 9 to 14) (size 15 to 20)
#    0.000    3.154    0.000    1.154    0.000    4.308 
#    0.000    2.692    0.000    7.385    0.000    3.231 
#    0.000    0.000    0.000    0.000    0.000    0.000 
#
# Total GULP energy -644703.026103 kJ/mol
# GULP energy per Si atom -12398.135117 kJ/mol
# Density = 1.741892 g / cm^3
# Si number density = 17.458661 Si / 1000 Ang^3
#
#
#
# Elastic Constant Matrix: (Units=GPa)
#
#
# Indices 1 2 3 4 5 6 
#
# 1 28.5467 45.7361 27.2976 0.0000 0.0000 0.0000
# 2 45.7361 202.3805 99.9305 0.0000 0.0000 0.0000
# 3 27.2976 99.9305 100.1994 0.0000 0.0000 0.0000
# 4 0.0000 0.0000 0.0000 25.2549 0.0000 0.0000
# 5 0.0000 0.0000 0.0000 0.0000 12.8083 0.0000
# 6 0.0000 0.0000 0.0000 0.0000 0.0000 13.0464
#
#
#
# Elastic Compliance Matrix: (Units=1/GPa)
#
#
# Indices 1 2 3 4 5 6 
#
# 1 0.056263 -0.010140 -0.005215 0.000000 0.000000 0.000000
# 2 -0.010140 0.011563 -0.008769 0.000000 0.000000 0.000000
# 3 -0.005215 -0.008769 0.020147 0.000000 0.000000 0.000000
# 4 0.000000 0.000000 0.000000 0.039596 0.000000 0.000000
# 5 0.000000 0.000000 0.000000 0.000000 0.078074 0.000000
# 6 0.000000 0.000000 0.000000 0.000000 0.000000 0.076649
#
#
# Mechanical properties :
#
#
# Convention : Reuss Voigt Hill
#
# Bulk Modulus (GPa) = 25.17405 75.22835 50.20120
# Shear Modulus (GPa) = 14.54410 20.76609 17.65510
#
# Velocity S-wave (km/s) = 2.88941 3.45257 3.18347
# Velocity P-wave (km/s) = 5.05788 7.68613 6.50610
#
# Compressibility (1/GPa) = 0.03972345
#
# Stress axis : x y z
#
# Youngs Moduli (GPa) = 17.77378 86.48476 49.63583
#
# Poissons Ratio (x) = 0.87692 0.25887
# Poissons Ratio (y) = 0.18022 0.43527
# Poissons Ratio (z) = 0.09270 0.75841
#
# Static dielectric constant tensor:
#      x y z
#    x 2.836560 0.000000 0.000000 
#    y 0.000000 3.533590 0.000000 
#    z 0.000000 0.000000 3.329300 
# 
# 
# High freq. dielectric constant tensor:
#      x y z
#    x 1.625760 0.000000 0.000000 
#    y 0.000000 1.689020 0.000000 
#    z 0.000000 0.000000 1.672810 
# 
# From -- ./inp_files/4548.got.cif
#   From: 2010.03.12/outbox.cif.g09.slc.cpg/sg47_3_cif.got.tgz:4548.got - 2010.04.14 03:12:58.
