data_PCOD8201827
_publ_section_title
;
Structure prediction by ZEFSAII (Michael W. Deem and Ramdas Pophale) SiO2 
 PCOD8201827
Probable space group: P N N N
;
_chemical_formula_sum "Si O2"
_cell_formula_units_Z 64
_cell_length_a 14.795999
_cell_length_b 19.463238
_cell_length_c 11.447082
_cell_angle_alpha 90.000000
_cell_angle_beta 90.000000
_cell_angle_gamma 90.000000
_cell_volume 3296.508352
_symmetry_space_group_name_H-M "P N N N"
_symmetry_group_IT_number 48
_space_group.IT_coordinate_system_code '2'
_symmetry_cell_setting 'orthorhombic'
loop_
_space_group_symop_operation_xyz
x,y,z
1/2-x,1/2-y,z
x,1/2-y,1/2-z
1/2-x,y,1/2-z
-x,-y,-z
1/2+x,1/2+y,-z
-x,1/2+y,1/2+z
1/2+x,-y,1/2+z
loop_
_atom_site_type_symbol
_atom_site_label
_atom_site_fract_x
_atom_site_fract_y
_atom_site_fract_z
Si Si1 0.728868 0.113674 0.881385
Si Si2 0.438252 0.171766 0.745211
Si Si3 0.549764 0.453633 0.093179
Si Si4 0.845483 0.982849 0.500408
Si Si5 0.085036 0.674843 0.446225
Si Si6 0.952145 0.328339 0.964234
Si Si7 0.008318 0.558052 0.857037
Si Si8 0.804533 0.559587 0.357214
O O1 0.750000 0.089838 0.750000
O O2 0.808700 0.164128 0.924627
O O3 0.636810 0.155981 0.889147
O O4 0.716896 0.046983 0.962139
O O5 0.402775 0.250000 0.750000
O O6 0.530766 0.162954 0.673593
O O7 0.462643 0.151634 0.879576
O O8 0.362134 0.126081 0.681018
O O9 0.502018 0.444476 0.217856
O O10 0.643453 0.492151 0.104463
O O11 0.500000 0.500000 0.000000
O O12 0.555526 0.377303 0.045845
O O13 0.773355 0.924932 0.455615
O O14 0.904634 0.957468 0.609075
O O15 0.919327 0.001191 0.399455
O O16 0.056313 0.748648 0.496989
O O17 0.961655 0.369413 0.085664
O O18 0.750000 0.529995 0.250000
#
# Coordination Sequence:
#
# PCOD8201827 Si02
#       8
#     8   8   8   8   8   8   8   8
#     4  11  21  33  59  94 130 167 207 260 315 373
#     4  10  22  39  62  91 124 165 213 262 318 375
#     4  12  25  39  63  91 125 163 206 263 318 373
#     4  10  22  37  62  89 126 161 210 260 313 381
#     4  11  22  38  59  92 128 165 213 261 314 383
#     4  10  22  39  61  88 125 173 213 253 317 387
#     4  10  23  41  60  87 121 169 209 255 319 384
#     4  12  22  38  61  91 126 157 203 261 315 370
#
# _framework density 19.414480999999999
#
# number of rings (size 3 to 8) (size 9 to 14) (size 15 to 20)
#    0.000    1.250    5.000    1.125    5.250    1.250 
#    0.000    0.000    0.000    1.500    0.000    0.000 
#    0.000    0.000    0.000    0.000    0.000    0.000 
#
# Total GULP energy -792969.454057 kJ/mol
# GULP energy per Si atom -12390.147720 kJ/mol
# Density = 1.937029 g / cm^3
# Si number density = 19.414481 Si / 1000 Ang^3
#
#
#
# Elastic Constant Matrix: (Units=GPa)
#
#
# Indices 1 2 3 4 5 6 
#
# 1 115.0943 60.6831 46.9468 0.0000 0.0000 0.0000
# 2 60.6831 109.8339 49.4256 0.0000 0.0000 0.0000
# 3 46.9468 49.4256 124.0587 0.0000 0.0000 0.0000
# 4 0.0000 0.0000 0.0000 26.2800 0.0000 0.0000
# 5 0.0000 0.0000 0.0000 0.0000 38.9400 0.0000
# 6 0.0000 0.0000 0.0000 0.0000 0.0000 25.5557
#
#
#
# Elastic Compliance Matrix: (Units=1/GPa)
#
#
# Indices 1 2 3 4 5 6 
#
# 1 0.012857 -0.005987 -0.002480 0.000000 0.000000 0.000000
# 2 -0.005987 0.013882 -0.003265 0.000000 0.000000 0.000000
# 3 -0.002480 -0.003265 0.010300 0.000000 0.000000 0.000000
# 4 0.000000 0.000000 0.000000 0.038052 0.000000 0.000000
# 5 0.000000 0.000000 0.000000 0.000000 0.025681 0.000000
# 6 0.000000 0.000000 0.000000 0.000000 0.000000 0.039130
#
#
# Mechanical properties :
#
#
# Convention : Reuss Voigt Hill
#
# Bulk Modulus (GPa) = 73.66868 73.67755 73.67312
# Shear Modulus (GPa) = 29.78131 30.95057 30.36594
#
# Velocity S-wave (km/s) = 3.92085 3.99708 3.95914
# Velocity P-wave (km/s) = 7.65016 7.70288 7.67657
#
# Compressibility (1/GPa) = 0.01357429
#
# Stress axis : x y z
#
# Youngs Moduli (GPa) = 77.77885 72.03619 97.08836
#
# Poissons Ratio (x) = 0.43131 0.24077
# Poissons Ratio (y) = 0.46570 0.31698
# Poissons Ratio (z) = 0.19289 0.23519
#
# Static dielectric constant tensor:
#      x y z
#    x 3.621060 0.000000 0.000000 
#    y 0.000000 3.469550 0.000000 
#    z 0.000000 0.000000 3.503870 
# 
# 
# High freq. dielectric constant tensor:
#      x y z
#    x 1.764580 0.000000 0.000000 
#    y 0.000000 1.746510 0.000000 
#    z 0.000000 0.000000 1.750730 
# 
# From -- ./inp_files/21565.got.cif
#   From: 2010.06.25/outbox.cif.g09.slc.cpg/sg48_11_cif.got.tgz:21565.got - 2010.06.26 18:06:46.
