data_PCOD8201325
_publ_section_title
;
Structure prediction by ZEFSAII (Michael W. Deem and Ramdas Pophale) SiO2 
 PCOD8201325
Probable space group: P N N N
;
_chemical_formula_sum "Si O2"
_cell_formula_units_Z 32
_cell_length_a 13.707194
_cell_length_b 8.342031
_cell_length_c 14.932792
_cell_angle_alpha 90.000000
_cell_angle_beta 90.000000
_cell_angle_gamma 90.000000
_cell_volume 1707.502604
_symmetry_space_group_name_H-M "P N N N"
_symmetry_group_IT_number 48
_space_group.IT_coordinate_system_code '2'
_symmetry_cell_setting 'orthorhombic'
loop_
_space_group_symop_operation_xyz
x,y,z
1/2-x,1/2-y,z
x,1/2-y,1/2-z
1/2-x,y,1/2-z
-x,-y,-z
1/2+x,1/2+y,-z
-x,1/2+y,1/2+z
1/2+x,-y,1/2+z
loop_
_atom_site_type_symbol
_atom_site_label
_atom_site_fract_x
_atom_site_fract_y
_atom_site_fract_z
Si Si1 0.540626 0.804888 0.152192
Si Si2 0.644458 0.684446 0.978762
Si Si3 0.644472 0.308070 0.950323
Si Si4 0.974560 0.377650 0.078312
O O1 0.571496 0.750000 0.250000
O O2 0.432363 0.743948 0.126064
O O3 0.546916 0.001399 0.160183
O O4 0.616850 0.732963 0.080364
O O5 0.750000 0.750000 0.953974
O O6 0.641397 0.496098 0.965687
O O7 0.567465 0.761029 0.907917
O O8 0.750000 0.250000 0.917842
O O9 0.618715 0.225818 0.046297
O O10 0.000000 0.500000 0.000000
#
# Coordination Sequence:
#
# PCOD8201325 Si02
#       4
#     8   8   8   8
#     4  10  20  33  50  75 104 131 160 206 260 306
#     4  10  18  33  54  74  96 131 173 210 246 298
#     4  10  18  33  54  74  96 131 173 210 246 298
#     4   8  16  31  50  73  96 127 167 202 240 296
#
# _framework density 18.740818999999998
#
# number of rings (size 3 to 8) (size 9 to 14) (size 15 to 20)
#    0.000    3.000    0.000    7.500    0.000    1.000 
#    0.000    5.000    0.000    3.000    0.000    0.000 
#    0.000    0.000    0.000    0.000    0.000    0.000 
#
# Total GULP energy -396462.061787 kJ/mol
# GULP energy per Si atom -12389.439431 kJ/mol
# Density = 1.869816 g / cm^3
# Si number density = 18.740819 Si / 1000 Ang^3
#
#
#
# Elastic Constant Matrix: (Units=GPa)
#
#
# Indices 1 2 3 4 5 6 
#
# 1 46.3332 4.5232 -25.4937 0.0000 0.0000 0.0000
# 2 4.5232 158.9035 13.9752 0.0000 0.0000 0.0000
# 3 -25.4937 13.9752 42.3684 0.0000 0.0000 0.0000
# 4 0.0000 0.0000 0.0000 24.9924 0.0000 0.0000
# 5 0.0000 0.0000 0.0000 0.0000 4.3965 0.0000
# 6 0.0000 0.0000 0.0000 0.0000 0.0000 36.5835
#
#
#
# Elastic Compliance Matrix: (Units=1/GPa)
#
#
# Indices 1 2 3 4 5 6 
#
# 1 0.033434 -0.002802 0.021042 0.000000 0.000000 0.000000
# 2 -0.002802 0.006716 -0.003901 0.000000 0.000000 0.000000
# 3 0.021042 -0.003901 0.037551 0.000000 0.000000 0.000000
# 4 0.000000 0.000000 0.000000 0.040012 0.000000 0.000000
# 5 0.000000 0.000000 0.000000 0.000000 0.227452 0.000000
# 6 0.000000 0.000000 0.000000 0.000000 0.000000 0.027335
#
#
# Mechanical properties :
#
#
# Convention : Reuss Voigt Hill
#
# Bulk Modulus (GPa) = 9.40040 25.95716 17.67878
# Shear Modulus (GPa) = 13.18279 30.16784 21.67531
#
# Velocity S-wave (km/s) = 2.65510 4.01651 3.40455
# Velocity P-wave (km/s) = 3.79819 5.94899 4.99083
#
# Compressibility (1/GPa) = 0.10637845
#
# Stress axis : x y z
#
# Youngs Moduli (GPa) = 29.90931 148.89761 26.63049
#
# Poissons Ratio (x) = 0.41726 -0.56037
# Poissons Ratio (y) = 0.08382 0.10390
# Poissons Ratio (z) = -0.62936 0.58092
#
# Static dielectric constant tensor:
#      x y z
#    x 3.204140 0.000000 0.000000 
#    y 0.000000 4.848770 0.000000 
#    z 0.000000 0.000000 3.367790 
# 
# 
# High freq. dielectric constant tensor:
#      x y z
#    x 1.728800 0.000000 0.000000 
#    y 0.000000 1.758290 0.000000 
#    z 0.000000 0.000000 1.667720 
# 
# From -- ./inp_files/20722.got.cif
#   From: 2010.06.25/outbox.cif.g09.slc.cpg/sg48_11_cif.got.tgz:20722.got - 2010.06.26 18:06:46.
