data_PCOD8201865
_publ_section_title
;
Structure prediction by ZEFSAII (Michael W. Deem and Ramdas Pophale) SiO2 
 PCOD8201865
Probable space group: P N N N
;
_chemical_formula_sum "Si O2"
_cell_formula_units_Z 24
_cell_length_a 15.814590
_cell_length_b 8.679357
_cell_length_c 7.423626
_cell_angle_alpha 90.000000
_cell_angle_beta 90.000000
_cell_angle_gamma 90.000000
_cell_volume 1018.970412
_symmetry_space_group_name_H-M "P N N N"
_symmetry_group_IT_number 48
_space_group.IT_coordinate_system_code '2'
_symmetry_cell_setting 'orthorhombic'
loop_
_space_group_symop_operation_xyz
x,y,z
1/2-x,1/2-y,z
x,1/2-y,1/2-z
1/2-x,y,1/2-z
-x,-y,-z
1/2+x,1/2+y,-z
-x,1/2+y,1/2+z
1/2+x,-y,1/2+z
loop_
_atom_site_type_symbol
_atom_site_label
_atom_site_fract_x
_atom_site_fract_y
_atom_site_fract_z
Si Si1 0.403858 0.424847 0.290903
Si Si2 0.665700 0.349800 0.003914
Si Si3 0.905321 0.060404 0.347116
O O1 0.380359 0.250000 0.250000
O O2 0.350261 0.545237 0.170265
O O3 0.501909 0.469726 0.264971
O O4 0.378250 0.438765 0.500725
O O5 0.750000 0.250000 0.977310
O O6 0.664716 0.452388 0.187540
O O7 0.591207 0.226684 0.049116
#
# Coordination Sequence:
#
# PCOD8201865 Si02
#       3
#     8   8   8
#     4  11  23  40  68 108 138 178 238 297 346 421
#     4  11  23  43  68  97 141 194 234 284 361 431
#     4  10  22  40  68 100 139 183 234 284 351 429
#
# _framework density 23.553184999999999
#
# number of rings (size 3 to 8) (size 9 to 14) (size 15 to 20)
#    0.000    1.333    3.333    4.000    0.000    5.333 
#    0.000    3.333    0.000    8.000    0.000    0.000 
#    0.000    0.000    0.000    0.000    0.000    0.000 
#
# Total GULP energy -297363.432952 kJ/mol
# GULP energy per Si atom -12390.143040 kJ/mol
# Density = 2.349958 g / cm^3
# Si number density = 23.553185 Si / 1000 Ang^3
#
#
#
# Elastic Constant Matrix: (Units=GPa)
#
#
# Indices 1 2 3 4 5 6 
#
# 1 116.6186 60.8005 84.3418 0.0000 0.0000 0.0000
# 2 60.8005 99.4943 70.4133 0.0000 0.0000 0.0000
# 3 84.3418 70.4133 143.1789 0.0000 0.0000 0.0000
# 4 0.0000 0.0000 0.0000 51.0642 0.0000 0.0000
# 5 0.0000 0.0000 0.0000 0.0000 26.8988 0.0000
# 6 0.0000 0.0000 0.0000 0.0000 0.0000 44.0746
#
#
#
# Elastic Compliance Matrix: (Units=1/GPa)
#
#
# Indices 1 2 3 4 5 6 
#
# 1 0.016345 -0.004869 -0.007234 0.000000 0.000000 0.000000
# 2 -0.004869 0.016867 -0.005427 0.000000 0.000000 0.000000
# 3 -0.007234 -0.005427 0.013914 0.000000 0.000000 0.000000
# 4 0.000000 0.000000 0.000000 0.019583 0.000000 0.000000
# 5 0.000000 0.000000 0.000000 0.000000 0.037176 0.000000
# 6 0.000000 0.000000 0.000000 0.000000 0.000000 0.022689
#
#
# Mechanical properties :
#
#
# Convention : Reuss Voigt Hill
#
# Bulk Modulus (GPa) = 82.86978 87.82256 85.34617
# Shear Modulus (GPa) = 30.18298 33.98992 32.08645
#
# Velocity S-wave (km/s) = 3.58366 3.80295 3.69494
# Velocity P-wave (km/s) = 7.23768 7.52670 7.38360
#
# Compressibility (1/GPa) = 0.01206712
#
# Stress axis : x y z
#
# Youngs Moduli (GPa) = 61.17990 59.28823 71.86848
#
# Poissons Ratio (x) = 0.28867 0.51989
# Poissons Ratio (y) = 0.29788 0.39001
# Poissons Ratio (z) = 0.44257 0.32174
#
# Static dielectric constant tensor:
#      x y z
#    x 4.136250 0.000000 0.000000 
#    y 0.000000 4.261740 0.000000 
#    z 0.000000 0.000000 4.675110 
# 
# 
# High freq. dielectric constant tensor:
#      x y z
#    x 1.915850 0.000000 0.000000 
#    y 0.000000 1.912130 0.000000 
#    z 0.000000 0.000000 1.954560 
# 
# From -- ./inp_files/11714.got.cif
#   From: 2010.06.25/outbox.cif.g09.slc.cpg/sg48_6_cif.got.tgz:11714.got - 2010.06.26 18:06:46.
