data_PCOD8201520
_publ_section_title
;
Structure prediction by ZEFSAII (Michael W. Deem and Ramdas Pophale) SiO2 
 PCOD8201520
Probable space group: P N N N
;
_chemical_formula_sum "Si O2"
_cell_formula_units_Z 40
_cell_length_a 22.426277
_cell_length_b 4.864713
_cell_length_c 19.564703
_cell_angle_alpha 90.000000
_cell_angle_beta 90.000000
_cell_angle_gamma 90.000000
_cell_volume 2134.458254
_symmetry_space_group_name_H-M "P N N N"
_symmetry_group_IT_number 48
_space_group.IT_coordinate_system_code '2'
_symmetry_cell_setting 'orthorhombic'
loop_
_space_group_symop_operation_xyz
x,y,z
1/2-x,1/2-y,z
x,1/2-y,1/2-z
1/2-x,y,1/2-z
-x,-y,-z
1/2+x,1/2+y,-z
-x,1/2+y,1/2+z
1/2+x,-y,1/2+z
loop_
_atom_site_type_symbol
_atom_site_label
_atom_site_fract_x
_atom_site_fract_y
_atom_site_fract_z
Si Si1 0.986365 0.506359 0.794601
Si Si2 0.183115 0.824140 0.093827
Si Si3 0.420003 0.750034 0.505629
Si Si4 0.965658 0.762571 0.077314
Si Si5 0.141800 0.166503 0.325541
O O1 0.962296 0.250000 0.750000
O O2 0.033491 0.375855 0.847818
O O3 0.930402 0.658634 0.830985
O O4 0.017935 0.750000 0.750000
O O5 0.250000 0.750000 0.072858
O O6 0.164375 0.637304 0.157911
O O7 0.171781 0.135062 0.118408
O O8 0.145760 0.771385 0.024970
O O9 0.466747 0.827807 0.445776
O O10 0.431180 0.437240 0.525966
O O11 0.429419 0.949974 0.571776
O O12 0.162989 0.250000 0.250000
#
# Coordination Sequence:
#
# PCOD8201520 Si02
#       5
#     8   8   8   8   8
#     4  11  21  34  55  81 111 139 174 222 273 323
#     4  12  24  38  53  73 106 142 190 232 259 302
#     4  10  21  34  53  77 101 137 182 217 269 313
#     4  10  20  34  56  76 104 136 173 221 264 334
#     4  11  23  36  52  73 104 147 188 226 257 301
#
# _framework density 18.740117000000001
#
# number of rings (size 3 to 8) (size 9 to 14) (size 15 to 20)
#    0.000    1.200    2.000    6.000    5.600    2.400 
#    0.000    0.000    0.000    0.000    0.000    0.000 
#    0.000   12.000    0.000    0.000    0.000    0.000 
#
# Total GULP energy -495951.267399 kJ/mol
# GULP energy per Si atom -12398.781685 kJ/mol
# Density = 1.869746 g / cm^3
# Si number density = 18.740117 Si / 1000 Ang^3
#
#
#
# Elastic Constant Matrix: (Units=GPa)
#
#
# Indices 1 2 3 4 5 6 
#
# 1 75.5757 14.7968 44.8827 0.0000 0.0000 0.0000
# 2 14.7968 90.5432 24.1846 0.0000 0.0000 0.0000
# 3 44.8827 24.1846 69.1249 0.0000 0.0000 0.0000
# 4 0.0000 0.0000 0.0000 39.1893 0.0000 0.0000
# 5 0.0000 0.0000 0.0000 0.0000 19.5209 0.0000
# 6 0.0000 0.0000 0.0000 0.0000 0.0000 16.1348
#
#
#
# Elastic Compliance Matrix: (Units=1/GPa)
#
#
# Indices 1 2 3 4 5 6 
#
# 1 0.021541 0.000238 -0.014070 0.000000 0.000000 0.000000
# 2 0.000238 0.012186 -0.004418 0.000000 0.000000 0.000000
# 3 -0.014070 -0.004418 0.025148 0.000000 0.000000 0.000000
# 4 0.000000 0.000000 0.000000 0.025517 0.000000 0.000000
# 5 0.000000 0.000000 0.000000 0.000000 0.051227 0.000000
# 6 0.000000 0.000000 0.000000 0.000000 0.000000 0.061978
#
#
# Mechanical properties :
#
#
# Convention : Reuss Voigt Hill
#
# Bulk Modulus (GPa) = 44.69302 44.77467 44.73385
# Shear Modulus (GPa) = 20.69933 25.06098 22.88016
#
# Velocity S-wave (km/s) = 3.32708 3.66087 3.49796
# Velocity P-wave (km/s) = 6.21771 6.46634 6.34324
#
# Compressibility (1/GPa) = 0.02237486
#
# Stress axis : x y z
#
# Youngs Moduli (GPa) = 46.42334 82.06411 39.76520
#
# Poissons Ratio (x) = -0.01952 0.55948
# Poissons Ratio (y) = -0.01104 0.17567
# Poissons Ratio (z) = 0.65316 0.36254
#
# Static dielectric constant tensor:
#      x y z
#    x 3.062560 0.000000 0.000000 
#    y 0.000000 3.762100 0.000000 
#    z 0.000000 0.000000 3.298330 
# 
# 
# High freq. dielectric constant tensor:
#      x y z
#    x 1.672220 0.000000 0.000000 
#    y 0.000000 1.760530 0.000000 
#    z 0.000000 0.000000 1.704680 
# 
# From -- ./inp_files/4184.got.cif
#   From: 2010.06.25/outbox.cif.g09.slc.cpg/sg48_3_cif.got.tgz:4184.got - 2010.06.26 18:06:46.
