data_PCOD8201352
_publ_section_title
;
Structure prediction by ZEFSAII (Michael W. Deem and Ramdas Pophale) SiO2 
 PCOD8201352
Probable space group: P N N N
;
_chemical_formula_sum "Si O2"
_cell_formula_units_Z 64
_cell_length_a 17.048573
_cell_length_b 19.143477
_cell_length_c 9.956396
_cell_angle_alpha 90.000000
_cell_angle_beta 90.000000
_cell_angle_gamma 90.000000
_cell_volume 3249.458659
_symmetry_space_group_name_H-M "P N N N"
_symmetry_group_IT_number 48
_space_group.IT_coordinate_system_code '2'
_symmetry_cell_setting 'orthorhombic'
loop_
_space_group_symop_operation_xyz
x,y,z
1/2-x,1/2-y,z
x,1/2-y,1/2-z
1/2-x,y,1/2-z
-x,-y,-z
1/2+x,1/2+y,-z
-x,1/2+y,1/2+z
1/2+x,-y,1/2+z
loop_
_atom_site_type_symbol
_atom_site_label
_atom_site_fract_x
_atom_site_fract_y
_atom_site_fract_z
Si Si1 0.469149 0.454132 0.195923
Si Si2 0.407619 0.453456 0.903359
Si Si3 0.173940 0.969337 0.336632
Si Si4 0.742225 0.034530 0.396908
Si Si5 0.629620 0.329878 0.786139
Si Si6 0.192656 0.683940 0.566947
Si Si7 0.544602 0.688994 0.146405
Si Si8 0.485921 0.694514 0.854082
O O1 0.543982 0.505350 0.212518
O O2 0.397276 0.481793 0.286265
O O3 0.494266 0.375655 0.229994
O O4 0.457531 0.446082 0.037222
O O5 0.333610 0.496521 0.956064
O O6 0.392096 0.374477 0.847400
O O7 0.250000 0.990155 0.250000
O O8 0.188152 0.981200 0.496501
O O9 0.155823 0.886483 0.323763
O O10 0.750000 0.998513 0.250000
O O11 0.731154 0.116539 0.365113
O O12 0.645771 0.250000 0.750000
O O13 0.538266 0.343752 0.809006
O O14 0.683512 0.342930 0.914755
O O15 0.250000 0.750000 0.586318
O O16 0.107385 0.702284 0.624171
O O17 0.570940 0.750000 0.250000
O O18 0.532930 0.712505 0.991840
O O19 0.517171 0.750000 0.750000
#
# Coordination Sequence:
#
# PCOD8201352 Si02
#       8
#     8   8   8   8   8   8   8   8
#     4  10  19  37  66  88 113 158 215 257 295 360
#     4  10  18  38  63  85 119 160 203 252 307 367
#     4  12  21  37  62  90 116 158 214 258 304 361
#     4  12  26  39  53  89 129 159 198 252 319 381
#     4  10  19  33  54  88 120 154 205 256 290 351
#     4  11  22  34  53  82 128 174 194 228 301 381
#     4   9  19  37  61  86 114 154 207 253 302 362
#     4  10  22  38  58  87 121 158 203 250 301 370
#
# _framework density 19.695588000000001
#
# number of rings (size 3 to 8) (size 9 to 14) (size 15 to 20)
#    0.000    1.500    5.000    0.750    1.750    0.000 
#    2.250    0.625    0.000    0.750    0.000    0.000 
#    0.000    0.000    0.000    0.000    0.000    0.000 
#
# Total GULP energy -792890.159406 kJ/mol
# GULP energy per Si atom -12388.908741 kJ/mol
# Density = 1.965076 g / cm^3
# Si number density = 19.695588 Si / 1000 Ang^3
#
#
#
# Elastic Constant Matrix: (Units=GPa)
#
#
# Indices 1 2 3 4 5 6 
#
# 1 62.8388 50.2073 21.7063 0.0000 0.0000 0.0000
# 2 50.2073 146.3735 47.4358 0.0000 0.0000 0.0000
# 3 21.7063 47.4358 105.5342 0.0000 0.0000 0.0000
# 4 0.0000 0.0000 0.0000 23.7875 0.0000 0.0000
# 5 0.0000 0.0000 0.0000 0.0000 18.2746 0.0000
# 6 0.0000 0.0000 0.0000 0.0000 0.0000 24.6594
#
#
#
# Elastic Compliance Matrix: (Units=1/GPa)
#
#
# Indices 1 2 3 4 5 6 
#
# 1 0.022080 -0.007142 -0.001331 0.000000 0.000000 0.000000
# 2 -0.007142 0.010307 -0.003164 0.000000 0.000000 0.000000
# 3 -0.001331 -0.003164 0.011171 0.000000 0.000000 0.000000
# 4 0.000000 0.000000 0.000000 0.042039 0.000000 0.000000
# 5 0.000000 0.000000 0.000000 0.000000 0.054721 0.000000
# 6 0.000000 0.000000 0.000000 0.000000 0.000000 0.040552
#
#
# Mechanical properties :
#
#
# Convention : Reuss Voigt Hill
#
# Bulk Modulus (GPa) = 49.29941 61.49391 55.39666
# Shear Modulus (GPa) = 23.70720 26.37078 25.03899
#
# Velocity S-wave (km/s) = 3.47317 3.66309 3.56940
# Velocity P-wave (km/s) = 6.41630 7.01291 6.72123
#
# Compressibility (1/GPa) = 0.02028422
#
# Stress axis : x y z
#
# Youngs Moduli (GPa) = 45.28961 97.02143 89.51385
#
# Poissons Ratio (x) = 0.69295 0.11915
# Poissons Ratio (y) = 0.32347 0.28320
# Poissons Ratio (z) = 0.06029 0.30696
#
# Static dielectric constant tensor:
#      x y z
#    x 3.392920 0.000000 0.000000 
#    y 0.000000 3.671960 0.000000 
#    z 0.000000 0.000000 3.539090 
# 
# 
# High freq. dielectric constant tensor:
#      x y z
#    x 1.740790 0.000000 0.000000 
#    y 0.000000 1.768470 0.000000 
#    z 0.000000 0.000000 1.761610 
# 
# From -- ./inp_files/21568.got.cif
#   From: 2010.06.25/outbox.cif.g09.slc.cpg/sg48_11_cif.got.tgz:21568.got - 2010.06.26 18:06:46.
