data_PCOD8201122
_publ_section_title
;
Structure prediction by ZEFSAII (Michael W. Deem and Ramdas Pophale) SiO2 
 PCOD8201122
Probable space group: P M M M
;
_chemical_formula_sum "Si O2"
_cell_formula_units_Z 52
_cell_length_a 9.890535
_cell_length_b 35.347291
_cell_length_c 8.058660
_cell_angle_alpha 90.000000
_cell_angle_beta 90.000000
_cell_angle_gamma 90.000000
_cell_volume 2817.336699
_symmetry_space_group_name_H-M "P M M M"
_symmetry_group_IT_number 47
_symmetry_cell_setting 'orthorhombic'
loop_
_space_group_symop_operation_xyz
x,y,z
-x,-y,z
x,-y,-z
-x,y,-z
-x,-y,-z
x,y,-z
-x,y,z
x,-y,z
loop_
_atom_site_type_symbol
_atom_site_label
_atom_site_fract_x
_atom_site_fract_y
_atom_site_fract_z
Si Si1 0.848411 0.812535 0.804014
Si Si2 0.348648 0.748630 0.804822
Si Si3 0.348685 0.042055 0.302555
Si Si4 0.660953 0.589399 0.183810
Si Si5 0.660612 0.668318 0.686710
Si Si6 0.848202 0.105916 0.696605
Si Si7 0.338764 0.542863 0.500000
O O1 0.749176 0.780687 0.727565
O O2 0.790845 0.853551 0.753853
O O3 0.000000 0.807143 0.730523
O O4 0.852602 0.808666 0.000000
O O5 0.500000 0.753102 0.728540
O O6 0.285438 0.707584 0.762895
O O7 0.356884 0.753389 0.000000
O O8 0.346066 0.043713 0.500000
O O9 0.500000 0.051102 0.238651
O O10 0.246171 0.072994 0.226909
O O11 0.304919 0.000000 0.243230
O O12 0.500000 0.588724 0.191943
O O13 0.714428 0.632287 0.209987
O O14 0.717608 0.562899 0.332258
O O15 0.709371 0.575588 0.000000
O O16 0.714038 0.664146 0.500000
O O17 0.500000 0.668645 0.692972
O O18 0.847539 0.103846 0.500000
O O19 0.000000 0.100140 0.766295
O O20 0.285520 0.500000 0.500000
O O21 0.500000 0.544519 0.500000
#
# Coordination Sequence:
#
# PCOD8201122 Si02
#       7
#     8   8   8   8   8   8   4
#     4   9  18  32  46  59  82 116 145 169 208 262
#     4   9  17  28  42  61  81 102 136 179 214 249
#     4   8  14  25  41  62  87 111 134 165 209 256
#     4   9  15  23  35  49  69 101 138 178 227 276
#     4   9  15  24  38  56  78 101 129 170 219 266
#     4   9  17  28  43  63  83 104 135 173 206 241
#     4   9  16  24  32  46  70 100 141 189 229 273
#
# _framework density 18.457146999999999
#
# number of rings (size 3 to 8) (size 9 to 14) (size 15 to 20)
#    0.000    3.154    0.769    0.923    0.000    3.692 
#    0.000    3.077    0.000    0.462    0.000    3.231 
#    0.000    0.000    0.000    0.000    0.000    1.538 
#
# Total GULP energy -644425.898161 kJ/mol
# GULP energy per Si atom -12392.805734 kJ/mol
# Density = 1.841514 g / cm^3
# Si number density = 18.457147 Si / 1000 Ang^3
#
#
#
# Elastic Constant Matrix: (Units=GPa)
#
#
# Indices 1 2 3 4 5 6 
#
# 1 48.4477 59.6815 18.2974 0.0000 0.0000 0.0000
# 2 59.6815 180.1537 42.3348 0.0000 0.0000 0.0000
# 3 18.2974 42.3348 60.7054 0.0000 0.0000 0.0000
# 4 0.0000 0.0000 0.0000 16.8683 0.0000 0.0000
# 5 0.0000 0.0000 0.0000 0.0000 6.4178 0.0000
# 6 0.0000 0.0000 0.0000 0.0000 0.0000 6.5961
#
#
#
# Elastic Compliance Matrix: (Units=1/GPa)
#
#
# Indices 1 2 3 4 5 6 
#
# 1 0.035315 -0.011001 -0.002973 0.000000 0.000000 0.000000
# 2 -0.011001 0.010065 -0.003704 0.000000 0.000000 0.000000
# 3 -0.002973 -0.003704 0.019952 0.000000 0.000000 0.000000
# 4 0.000000 0.000000 0.000000 0.059283 0.000000 0.000000
# 5 0.000000 0.000000 0.000000 0.000000 0.155816 0.000000
# 6 0.000000 0.000000 0.000000 0.000000 0.000000 0.151605
#
#
# Mechanical properties :
#
#
# Convention : Reuss Voigt Hill
#
# Bulk Modulus (GPa) = 33.35769 58.88156 46.11963
# Shear Modulus (GPa) = 10.47378 17.24267 13.85822
#
# Velocity S-wave (km/s) = 2.38474 3.05978 2.74310
# Velocity P-wave (km/s) = 5.06901 6.66739 5.92237
#
# Compressibility (1/GPa) = 0.02997810
#
# Stress axis : x y z
#
# Youngs Moduli (GPa) = 28.31673 99.34993 50.12043
#
# Poissons Ratio (x) = 1.09290 0.14900
# Poissons Ratio (y) = 0.31150 0.18563
# Poissons Ratio (z) = 0.08418 0.36797
#
# Static dielectric constant tensor:
#      x y z
#    x 3.225190 0.000000 0.000000 
#    y 0.000000 3.674100 0.000000 
#    z 0.000000 0.000000 3.249550 
# 
# 
# High freq. dielectric constant tensor:
#      x y z
#    x 1.655170 0.000000 0.000000 
#    y 0.000000 1.725200 0.000000 
#    z 0.000000 0.000000 1.702150 
# 
# From -- ./inp_files/4551.got.cif
#   From: 2010.03.12/outbox.cif.g09.slc.cpg/sg47_3_cif.got.tgz:4551.got - 2010.04.14 03:12:58.
