data_PCOD8201693
_publ_section_title
;
Structure prediction by ZEFSAII (Michael W. Deem and Ramdas Pophale) SiO2 
 PCOD8201693
Probable space group: P N N N
;
_chemical_formula_sum "Si O2"
_cell_formula_units_Z 48
_cell_length_a 19.717831
_cell_length_b 8.761905
_cell_length_c 13.810097
_cell_angle_alpha 90.000000
_cell_angle_beta 90.000000
_cell_angle_gamma 90.000000
_cell_volume 2385.911932
_symmetry_space_group_name_H-M "P N N N"
_symmetry_group_IT_number 48
_space_group.IT_coordinate_system_code '2'
_symmetry_cell_setting 'orthorhombic'
loop_
_space_group_symop_operation_xyz
x,y,z
1/2-x,1/2-y,z
x,1/2-y,1/2-z
1/2-x,y,1/2-z
-x,-y,-z
1/2+x,1/2+y,-z
-x,1/2+y,1/2+z
1/2+x,-y,1/2+z
loop_
_atom_site_type_symbol
_atom_site_label
_atom_site_fract_x
_atom_site_fract_y
_atom_site_fract_z
Si Si1 0.197459 0.990360 0.336510
Si Si2 0.890786 0.250000 0.750000
Si Si3 0.964974 0.500579 0.640043
Si Si4 0.249334 0.430823 0.547091
Si Si5 0.892543 0.750000 0.750000
Si Si6 0.603300 0.434766 0.061386
Si Si7 0.818507 0.314717 0.140881
O O1 0.250000 0.979154 0.250000
O O2 0.234583 0.010078 0.438803
O O3 0.151839 0.137758 0.315798
O O4 0.155295 0.830687 0.333366
O O5 0.942256 0.378077 0.716727
O O6 0.939752 0.666400 0.672141
O O7 0.927330 0.452055 0.543276
O O8 0.046498 0.501118 0.634970
O O9 0.250000 0.250000 0.554236
O O10 0.173092 0.475355 0.577613
O O11 0.306528 0.502913 0.622003
O O12 0.617021 0.254174 0.083369
O O13 0.750000 0.250000 0.091261
O O14 0.823160 0.250000 0.250000
#
# Coordination Sequence:
#
# PCOD8201693 Si02
#       7
#     8   4   8   8   4   8   8
#     4  11  20  33  59  94 128 157 191 246 311 370
#     4  10  21  36  56  90 123 158 200 240 292 364
#     4  10  21  38  57  84 116 161 199 240 292 367
#     4  11  21  37  61  92 122 153 196 266 314 354
#     4  10  21  36  58  86 123 156 192 236 304 378
#     4  10  21  38  59  81 118 158 199 241 300 369
#     4   9  20  39  59  82 111 153 203 249 300 361
#
# _framework density 20.118092999999998
#
# number of rings (size 3 to 8) (size 9 to 14) (size 15 to 20)
#    0.000    1.833    0.000    5.500    1.167    2.667 
#    3.000    5.833    0.000    8.000    0.000    0.000 
#    0.000    0.000    0.000    0.000    0.000    0.000 
#
# Total GULP energy -594685.507263 kJ/mol
# GULP energy per Si atom -12389.281401 kJ/mol
# Density = 2.007230 g / cm^3
# Si number density = 20.118093 Si / 1000 Ang^3
#
#
#
# Elastic Constant Matrix: (Units=GPa)
#
#
# Indices 1 2 3 4 5 6 
#
# 1 133.3684 61.6793 50.4223 0.0000 0.0000 0.0000
# 2 61.6793 126.5959 41.0882 0.0000 0.0000 0.0000
# 3 50.4223 41.0882 91.3155 0.0000 0.0000 0.0000
# 4 0.0000 0.0000 0.0000 20.2158 0.0000 0.0000
# 5 0.0000 0.0000 0.0000 0.0000 35.8668 0.0000
# 6 0.0000 0.0000 0.0000 0.0000 0.0000 24.8016
#
#
#
# Elastic Compliance Matrix: (Units=1/GPa)
#
#
# Indices 1 2 3 4 5 6 
#
# 1 0.010933 -0.003943 -0.004263 0.000000 0.000000 0.000000
# 2 -0.003943 0.010672 -0.002625 0.000000 0.000000 0.000000
# 3 -0.004263 -0.002625 0.014486 0.000000 0.000000 0.000000
# 4 0.000000 0.000000 0.000000 0.049466 0.000000 0.000000
# 5 0.000000 0.000000 0.000000 0.000000 0.027881 0.000000
# 6 0.000000 0.000000 0.000000 0.000000 0.000000 0.040320
#
#
# Mechanical properties :
#
#
# Convention : Reuss Voigt Hill
#
# Bulk Modulus (GPa) = 69.30071 73.07326 71.18699
# Shear Modulus (GPa) = 27.74232 29.38286 28.56259
#
# Velocity S-wave (km/s) = 3.71748 3.82582 3.77204
# Velocity P-wave (km/s) = 7.27654 7.47776 7.37783
#
# Compressibility (1/GPa) = 0.01442987
#
# Stress axis : x y z
#
# Youngs Moduli (GPa) = 91.46343 93.70088 69.03293
#
# Poissons Ratio (x) = 0.36949 0.29427
# Poissons Ratio (y) = 0.36067 0.18119
# Poissons Ratio (z) = 0.38989 0.24593
#
# Static dielectric constant tensor:
#      x y z
#    x 4.022700 0.000000 0.000000 
#    y 0.000000 4.069450 0.000000 
#    z 0.000000 0.000000 3.781990 
# 
# 
# High freq. dielectric constant tensor:
#      x y z
#    x 1.785270 0.000000 0.000000 
#    y 0.000000 1.791200 0.000000 
#    z 0.000000 0.000000 1.776980 
# 
# From -- ./inp_files/27928.got.cif
#   From: 2010.06.25/outbox.cif.g09.slc.cpg/sg48_14_cif.got.tgz:27928.got - 2010.06.26 18:06:46.
