data_PCOD8201773
_publ_section_title
;
Structure prediction by ZEFSAII (Michael W. Deem and Ramdas Pophale) SiO2 
 PCOD8201773
Probable space group: P N N N
;
_chemical_formula_sum "Si O2"
_cell_formula_units_Z 58
_cell_length_a 9.681517
_cell_length_b 10.873298
_cell_length_c 26.429581
_cell_angle_alpha 90.000000
_cell_angle_beta 90.000000
_cell_angle_gamma 90.000000
_cell_volume 2782.242505
_symmetry_space_group_name_H-M "P N N N"
_symmetry_group_IT_number 48
_space_group.IT_coordinate_system_code '2'
_symmetry_cell_setting 'orthorhombic'
loop_
_space_group_symop_operation_xyz
x,y,z
1/2-x,1/2-y,z
x,1/2-y,1/2-z
1/2-x,y,1/2-z
-x,-y,-z
1/2+x,1/2+y,-z
-x,1/2+y,1/2+z
1/2+x,-y,1/2+z
loop_
_atom_site_type_symbol
_atom_site_label
_atom_site_fract_x
_atom_site_fract_y
_atom_site_fract_z
Si Si1 0.414124 0.492291 0.950012
Si Si2 0.280159 0.610167 0.190553
Si Si3 0.870777 0.583121 0.151905
Si Si4 0.250000 0.250000 0.250000
Si Si5 0.077741 0.092897 0.324835
Si Si6 0.097408 0.753881 0.897378
Si Si7 0.107191 0.975698 0.544175
Si Si8 0.564269 0.861513 0.353944
O O1 0.440623 0.609154 0.913736
O O2 0.258727 0.476394 0.970452
O O3 0.458926 0.376211 0.914754
O O4 0.500000 0.500000 0.000000
O O5 0.250000 0.750000 0.172474
O O6 0.250000 0.593849 0.250000
O O7 0.190365 0.511707 0.157791
O O8 0.440815 0.581025 0.178917
O O9 0.931247 0.541742 0.097148
O O10 0.706743 0.565750 0.157720
O O11 0.918265 0.720898 0.162356
O O12 0.943651 0.489258 0.191496
O O13 0.145796 0.164089 0.279431
O O14 0.029090 0.197118 0.364733
O O15 0.250000 0.750000 0.870027
O O16 0.111784 0.671100 0.947863
O O17 0.000000 0.000000 0.500000
#
# Coordination Sequence:
#
# PCOD8201773 Si02
#       8
#     8   8   8   2   8   8   8   8
#     4  10  22  37  57  94 129 168 216 271 326 391
#     4  11  23  42  68  97 137 169 218 292 351 405
#     4   9  20  41  67  92 124 177 221 268 338 398
#     4  12  28  44  68  96 140 164 230 294 328 416
#     4  11  23  45  66  95 127 173 219 270 347 395
#     4   9  21  42  63  84 127 177 217 267 324 394
#     4   9  19  37  59  85 124 165 219 271 318 390
#     4  10  21  40  67  93 133 173 218 278 334 405
#
# _framework density 20.846495000000001
#
# number of rings (size 3 to 8) (size 9 to 14) (size 15 to 20)
#    0.000    2.069    2.069    0.828    3.862    2.207 
#    0.000    2.414    0.000    0.000    0.000    0.000 
#    0.000    0.000    0.000    0.000    0.000    0.000 
#
# Total GULP energy -718536.160539 kJ/mol
# GULP energy per Si atom -12388.554492 kJ/mol
# Density = 2.079905 g / cm^3
# Si number density = 20.846495 Si / 1000 Ang^3
#
#
#
# Elastic Constant Matrix: (Units=GPa)
#
#
# Indices 1 2 3 4 5 6 
#
# 1 165.4130 51.6717 79.4294 0.0000 0.0000 0.0000
# 2 51.6717 100.9908 29.5712 0.0000 0.0000 0.0000
# 3 79.4294 29.5712 80.5669 0.0000 0.0000 0.0000
# 4 0.0000 0.0000 0.0000 15.7393 0.0000 0.0000
# 5 0.0000 0.0000 0.0000 0.0000 41.5324 0.0000
# 6 0.0000 0.0000 0.0000 0.0000 0.0000 41.4800
#
#
#
# Elastic Compliance Matrix: (Units=1/GPa)
#
#
# Indices 1 2 3 4 5 6 
#
# 1 0.012273 -0.003066 -0.010974 0.000000 0.000000 0.000000
# 2 -0.003066 0.011860 -0.001330 0.000000 0.000000 0.000000
# 3 -0.010974 -0.001330 0.023720 0.000000 0.000000 0.000000
# 4 0.000000 0.000000 0.000000 0.063535 0.000000 0.000000
# 5 0.000000 0.000000 0.000000 0.000000 0.024078 0.000000
# 6 0.000000 0.000000 0.000000 0.000000 0.000000 0.024108
#
#
# Mechanical properties :
#
#
# Convention : Reuss Voigt Hill
#
# Bulk Modulus (GPa) = 58.44078 74.25724 66.34901
# Shear Modulus (GPa) = 25.50773 32.17024 28.83899
#
# Velocity S-wave (km/s) = 3.50179 3.93262 3.72344
# Velocity P-wave (km/s) = 6.66669 7.50459 7.09802
#
# Compressibility (1/GPa) = 0.01711134
#
# Stress axis : x y z
#
# Youngs Moduli (GPa) = 81.47969 84.31577 42.15894
#
# Poissons Ratio (x) = 0.25851 0.46267
# Poissons Ratio (y) = 0.24982 0.05609
# Poissons Ratio (z) = 0.89419 0.11217
#
# Static dielectric constant tensor:
#      x y z
#    x 3.961550 0.000000 0.000000 
#    y 0.000000 3.980460 0.000000 
#    z 0.000000 0.000000 3.525570 
# 
# 
# High freq. dielectric constant tensor:
#      x y z
#    x 1.829750 0.000000 0.000000 
#    y 0.000000 1.833310 0.000000 
#    z 0.000000 0.000000 1.771940 
# 
# From -- ./inp_files/37525.got.cif
#   From: 2010.06.25/outbox.cif.g09.slc.cpg/sg48_19_cif.got.tgz:37525.got - 2010.06.26 18:06:46.
