data_PCOD8201356
_publ_section_title
;
Structure prediction by ZEFSAII (Michael W. Deem and Ramdas Pophale) SiO2 
 PCOD8201356
Probable space group: P N N N
;
_chemical_formula_sum "Si O2"
_cell_formula_units_Z 48
_cell_length_a 10.171935
_cell_length_b 28.475293
_cell_length_c 9.134647
_cell_angle_alpha 90.000000
_cell_angle_beta 90.000000
_cell_angle_gamma 90.000000
_cell_volume 2645.839811
_symmetry_space_group_name_H-M "P N N N"
_symmetry_group_IT_number 48
_space_group.IT_coordinate_system_code '2'
_symmetry_cell_setting 'orthorhombic'
loop_
_space_group_symop_operation_xyz
x,y,z
1/2-x,1/2-y,z
x,1/2-y,1/2-z
1/2-x,y,1/2-z
-x,-y,-z
1/2+x,1/2+y,-z
-x,1/2+y,1/2+z
1/2+x,-y,1/2+z
loop_
_atom_site_type_symbol
_atom_site_label
_atom_site_fract_x
_atom_site_fract_y
_atom_site_fract_z
Si Si1 0.581528 0.666019 0.407004
Si Si2 0.406628 0.253239 0.084805
Si Si3 0.290980 0.489893 0.417467
Si Si4 0.371813 0.059348 0.646553
Si Si5 0.621654 0.841257 0.423294
Si Si6 0.012224 0.564278 0.072918
O O1 0.524304 0.711208 0.493381
O O2 0.725632 0.654738 0.469342
O O3 0.595178 0.679343 0.237630
O O4 0.485957 0.620863 0.428834
O O5 0.250000 0.250000 0.065300
O O6 0.454397 0.250000 0.250000
O O7 0.452552 0.304761 0.029592
O O8 0.250000 0.483188 0.250000
O O9 0.168545 0.480120 0.528265
O O10 0.342727 0.542668 0.455101
O O11 0.408238 0.453300 0.451745
O O12 0.250000 0.077089 0.750000
O O13 0.430436 0.105187 0.563078
O O14 0.478163 0.041985 0.765221
#
# Coordination Sequence:
#
# PCOD8201356 Si02
#       6
#     8   8   8   8   8   8
#     4   9  14  26  40  54  79 120 152 171 207 269
#     4   9  17  22  32  59  88 111 141 177 213 262
#     4  10  19  29  46  68  86 118 159 199 236 268
#     4   9  15  30  45  62  89 121 154 191 224 269
#     4   9  13  24  39  56  76 118 153 167 209 271
#     4   9  18  32  46  62  90 125 158 190 231 275
#
# _framework density 18.141687999999998
#
# number of rings (size 3 to 8) (size 9 to 14) (size 15 to 20)
#    0.000    2.833    5.000    0.500    0.000    4.000 
#    0.000    0.000    0.000    0.000    0.000    0.000 
#    0.000   10.667    0.000    7.333    0.333    0.500 
#
# Total GULP energy -594635.780112 kJ/mol
# GULP energy per Si atom -12388.245419 kJ/mol
# Density = 1.810040 g / cm^3
# Si number density = 18.141688 Si / 1000 Ang^3
#
#
#
# Elastic Constant Matrix: (Units=GPa)
#
#
# Indices 1 2 3 4 5 6 
#
# 1 20.4118 28.7393 24.1886 0.0000 0.0000 0.0000
# 2 28.7393 126.0485 61.4745 0.0000 0.0000 0.0000
# 3 24.1886 61.4745 96.4991 0.0000 0.0000 0.0000
# 4 0.0000 0.0000 0.0000 24.4834 0.0000 0.0000
# 5 0.0000 0.0000 0.0000 0.0000 7.0899 0.0000
# 6 0.0000 0.0000 0.0000 0.0000 0.0000 15.0632
#
#
#
# Elastic Compliance Matrix: (Units=1/GPa)
#
#
# Indices 1 2 3 4 5 6 
#
# 1 0.081277 -0.012470 -0.012429 0.000000 0.000000 0.000000
# 2 -0.012470 0.013422 -0.005425 0.000000 0.000000 0.000000
# 3 -0.012429 -0.005425 0.016934 0.000000 0.000000 0.000000
# 4 0.000000 0.000000 0.000000 0.040844 0.000000 0.000000
# 5 0.000000 0.000000 0.000000 0.000000 0.141045 0.000000
# 6 0.000000 0.000000 0.000000 0.000000 0.000000 0.066387
#
#
# Mechanical properties :
#
#
# Convention : Reuss Voigt Hill
#
# Bulk Modulus (GPa) = 19.61321 52.41825 36.01573
# Shear Modulus (GPa) = 11.42717 17.89778 14.66248
#
# Velocity S-wave (km/s) = 2.51247 3.14436 2.84601
# Velocity P-wave (km/s) = 4.38763 6.49147 5.54033
#
# Compressibility (1/GPa) = 0.05098605
#
# Stress axis : x y z
#
# Youngs Moduli (GPa) = 12.30358 74.50258 59.05152
#
# Poissons Ratio (x) = 0.92901 0.73397
# Poissons Ratio (y) = 0.15342 0.32036
# Poissons Ratio (z) = 0.15293 0.40418
#
# Static dielectric constant tensor:
#      x y z
#    x 2.745580 0.000000 0.000000 
#    y 0.000000 3.452370 0.000000 
#    z 0.000000 0.000000 3.359620 
# 
# 
# High freq. dielectric constant tensor:
#      x y z
#    x 1.619510 0.000000 0.000000 
#    y 0.000000 1.706940 0.000000 
#    z 0.000000 0.000000 1.700630 
# 
# From -- ./inp_files/11484.got.cif
#   From: 2010.06.25/outbox.cif.g09.slc.cpg/sg48_6_cif.got.tgz:11484.got - 2010.06.26 18:06:46.
