data_PCOD8201669
_publ_section_title
;
Structure prediction by ZEFSAII (Michael W. Deem and Ramdas Pophale) SiO2 
 PCOD8201669
Probable space group: P N N N
;
_chemical_formula_sum "Si O2"
_cell_formula_units_Z 64
_cell_length_a 11.763170
_cell_length_b 8.066026
_cell_length_c 29.299840
_cell_angle_alpha 90.000000
_cell_angle_beta 90.000000
_cell_angle_gamma 90.000000
_cell_volume 2780.028446
_symmetry_space_group_name_H-M "P N N N"
_symmetry_group_IT_number 48
_space_group.IT_coordinate_system_code '2'
_symmetry_cell_setting 'orthorhombic'
loop_
_space_group_symop_operation_xyz
x,y,z
1/2-x,1/2-y,z
x,1/2-y,1/2-z
1/2-x,y,1/2-z
-x,-y,-z
1/2+x,1/2+y,-z
-x,1/2+y,1/2+z
1/2+x,-y,1/2+z
loop_
_atom_site_type_symbol
_atom_site_label
_atom_site_fract_x
_atom_site_fract_y
_atom_site_fract_z
Si Si1 0.038030 0.151302 0.424333
Si Si2 0.434284 0.419612 0.861112
Si Si3 0.337498 0.427788 0.114838
Si Si4 0.250856 0.566552 0.803083
Si Si5 0.521763 0.551420 0.340914
Si Si6 0.164924 0.616402 0.563340
Si Si7 0.266926 0.442101 0.476949
Si Si8 0.207037 0.060635 0.298234
O O1 0.150443 0.226601 0.395821
O O2 0.097762 0.041862 0.464355
O O3 0.957009 0.293198 0.446264
O O4 0.968849 0.041817 0.389016
O O5 0.533728 0.548285 0.869241
O O6 0.364736 0.467486 0.816047
O O7 0.493179 0.242151 0.855101
O O8 0.349414 0.453827 0.904326
O O9 0.305470 0.510341 0.066568
O O10 0.264374 0.508454 0.155787
O O11 0.250000 0.750000 0.825613
O O12 0.250000 0.586099 0.750000
O O13 0.141995 0.461462 0.816958
O O14 0.426859 0.478171 0.305596
O O15 0.250000 0.750000 0.586576
O O16 0.228694 0.559858 0.517559
O O17 0.250000 0.250000 0.490190
O O18 0.250000 0.250000 0.296675
O O19 0.250000 0.978671 0.250000
#
# Coordination Sequence:
#
# PCOD8201669 Si02
#       8
#     8   8   8   8   8   8   8   8
#     4  10  21  42  70  95 138 186 232 287 354 429
#     4  11  26  43  69  99 141 183 227 297 351 421
#     4  10  20  44  68  97 142 182 227 283 353 416
#     4  11  26  46  72  99 133 187 243 287 350 430
#     4  12  24  44  71 104 142 191 229 290 368 420
#     4  11  25  44  67 100 136 181 242 297 346 429
#     4  10  22  41  69  99 137 182 233 296 358 421
#     4  11  23  40  74 111 140 181 241 287 342 434
#
# _framework density 23.021348
#
# number of rings (size 3 to 8) (size 9 to 14) (size 15 to 20)
#    0.000    1.250    2.500    3.375    1.750   10.500 
#    0.000    0.625    0.000    0.000    0.000    0.000 
#    0.000    0.000    0.000    0.000    0.000    0.000 
#
# Total GULP energy -792843.040121 kJ/mol
# GULP energy per Si atom -12388.172502 kJ/mol
# Density = 2.296895 g / cm^3
# Si number density = 23.021348 Si / 1000 Ang^3
#
#
#
# Elastic Constant Matrix: (Units=GPa)
#
#
# Indices 1 2 3 4 5 6 
#
# 1 96.1865 24.0763 31.4827 0.0000 0.0000 0.0000
# 2 24.0763 81.1592 37.8995 0.0000 0.0000 0.0000
# 3 31.4827 37.8995 121.2600 0.0000 0.0000 0.0000
# 4 0.0000 0.0000 0.0000 25.7133 0.0000 0.0000
# 5 0.0000 0.0000 0.0000 0.0000 33.7076 0.0000
# 6 0.0000 0.0000 0.0000 0.0000 0.0000 24.9159
#
#
#
# Elastic Compliance Matrix: (Units=1/GPa)
#
#
# Indices 1 2 3 4 5 6 
#
# 1 0.011752 -0.002414 -0.002297 0.000000 0.000000 0.000000
# 2 -0.002414 0.014923 -0.004037 0.000000 0.000000 0.000000
# 3 -0.002297 -0.004037 0.010105 0.000000 0.000000 0.000000
# 4 0.000000 0.000000 0.000000 0.038890 0.000000 0.000000
# 5 0.000000 0.000000 0.000000 0.000000 0.029667 0.000000
# 6 0.000000 0.000000 0.000000 0.000000 0.000000 0.040135
#
#
# Mechanical properties :
#
#
# Convention : Reuss Voigt Hill
#
# Bulk Modulus (GPa) = 51.85615 53.94696 52.90156
# Shear Modulus (GPa) = 29.51649 30.54385 30.03017
#
# Velocity S-wave (km/s) = 3.58458 3.64643 3.61563
# Velocity P-wave (km/s) = 6.30130 6.41973 6.36079
#
# Compressibility (1/GPa) = 0.01928412
#
# Stress axis : x y z
#
# Youngs Moduli (GPa) = 85.08868 67.01099 98.96135
#
# Poissons Ratio (x) = 0.16175 0.22730
# Poissons Ratio (y) = 0.20539 0.39955
# Poissons Ratio (z) = 0.19543 0.27055
#
# Static dielectric constant tensor:
#      x y z
#    x 4.383800 0.000000 0.000000 
#    y 0.000000 3.970820 0.000000 
#    z 0.000000 0.000000 4.320740 
# 
# 
# High freq. dielectric constant tensor:
#      x y z
#    x 1.929320 0.000000 0.000000 
#    y 0.000000 1.883080 0.000000 
#    z 0.000000 0.000000 1.911310 
# 
# From -- ./inp_files/38978.got.cif
#   From: 2010.06.25/outbox.cif.g09.slc.cpg/sg48_20_cif.got.tgz:38978.got - 2010.06.26 18:06:46.
