data_PCOD8201181
_publ_section_title
;
Structure prediction by ZEFSAII (Michael W. Deem and Ramdas Pophale) SiO2 
 PCOD8201181
Probable space group: P M M M
;
_chemical_formula_sum "Si O2"
_cell_formula_units_Z 40
_cell_length_a 26.113774
_cell_length_b 9.103891
_cell_length_c 9.207170
_cell_angle_alpha 90.000000
_cell_angle_beta 90.000000
_cell_angle_gamma 90.000000
_cell_volume 2188.884533
_symmetry_space_group_name_H-M "P M M M"
_symmetry_group_IT_number 47
_symmetry_cell_setting 'orthorhombic'
loop_
_space_group_symop_operation_xyz
x,y,z
-x,-y,z
x,-y,-z
-x,y,-z
-x,-y,-z
x,y,-z
-x,y,z
x,-y,z
loop_
_atom_site_type_symbol
_atom_site_label
_atom_site_fract_x
_atom_site_fract_y
_atom_site_fract_z
Si Si1 0.099514 0.671341 0.169000
Si Si2 0.599950 0.833893 0.826845
Si Si3 0.500000 0.666141 0.826826
Si Si4 0.000000 0.674739 0.336094
Si Si5 0.799363 0.834252 0.172945
Si Si6 0.300079 0.333936 0.826746
O O1 0.108750 0.500000 0.198435
O O2 0.149054 0.756562 0.228643
O O3 0.050491 0.733325 0.254920
O O4 0.089795 0.702294 0.000000
O O5 0.550059 0.749615 0.767280
O O6 0.650210 0.751368 0.767469
O O7 0.599656 0.000000 0.767038
O O8 0.599886 0.834322 0.000000
O O9 0.500000 0.500000 0.767068
O O10 0.500000 0.665696 0.000000
O O11 0.000000 0.500000 0.331165
O O12 0.000000 0.734751 0.500000
O O13 0.750412 0.746657 0.234306
O O14 0.797606 0.000000 0.232766
O O15 0.798114 0.832333 0.000000
O O16 0.301067 0.500000 0.767258
O O17 0.299841 0.333655 0.000000
#
# Coordination Sequence:
#
# PCOD8201181 Si02
#       6
#     8   8   4   4   8   8
#     4   9  16  27  44  64  84 107 136 169 204 243
#     4   9  15  21  28  38  54  78 109 147 192 239
#     4   9  15  21  27  35  49  73 109 151 192 235
#     4   9  17  29  46  67  88 110 138 171 204 240
#     4   9  16  25  37  54  75  97 122 155 196 240
#     4   9  15  22  32  46  64  86 113 148 192 239
#
# _framework density 18.274148
#
# number of rings (size 3 to 8) (size 9 to 14) (size 15 to 20)
#    0.000    3.000    0.000    2.400    0.000    9.600 
#    0.000    0.500    0.000    3.600    0.000    0.000 
#    0.000    0.000    0.000    0.000    0.000    0.000 
#
# Total GULP energy -495940.671299 kJ/mol
# GULP energy per Si atom -12398.516782 kJ/mol
# Density = 1.823256 g / cm^3
# Si number density = 18.274148 Si / 1000 Ang^3
#
#
#
# Elastic Constant Matrix: (Units=GPa)
#
#
# Indices 1 2 3 4 5 6 
#
# 1 218.0948 103.2264 27.8091 0.0000 0.0000 0.0000
# 2 103.2264 154.1891 17.0194 0.0000 0.0000 0.0000
# 3 27.8091 17.0194 20.1156 0.0000 0.0000 0.0000
# 4 0.0000 0.0000 0.0000 3.4193 0.0000 0.0000
# 5 0.0000 0.0000 0.0000 0.0000 0.5542 0.0000
# 6 0.0000 0.0000 0.0000 0.0000 0.0000 27.3925
#
#
#
# Elastic Compliance Matrix: (Units=1/GPa)
#
#
# Indices 1 2 3 4 5 6 
#
# 1 0.007451 -0.004248 -0.006706 0.000000 0.000000 0.000000
# 2 -0.004248 0.009576 -0.002229 0.000000 0.000000 0.000000
# 3 -0.006706 -0.002229 0.060870 0.000000 0.000000 0.000000
# 4 0.000000 0.000000 0.000000 0.292454 0.000000 0.000000
# 5 0.000000 0.000000 0.000000 0.000000 1.804397 0.000000
# 6 0.000000 0.000000 0.000000 0.000000 0.000000 0.036506
#
#
# Mechanical properties :
#
#
# Convention : Reuss Voigt Hill
#
# Bulk Modulus (GPa) = 19.40634 76.50103 47.95369
# Shear Modulus (GPa) = 2.21749 22.56286 12.39018
#
# Velocity S-wave (km/s) = 1.10277 3.51762 2.60670
# Velocity P-wave (km/s) = 3.50201 7.64540 5.94627
#
# Compressibility (1/GPa) = 0.05152955
#
# Stress axis : x y z
#
# Youngs Moduli (GPa) = 134.21197 104.43313 16.42846
#
# Poissons Ratio (x) = 0.44363 0.11018
# Poissons Ratio (y) = 0.57013 0.03662
# Poissons Ratio (z) = 0.90009 0.23278
#
# Static dielectric constant tensor:
#      x y z
#    x 3.656420 0.000000 0.000000 
#    y 0.000000 3.451830 0.000000 
#    z 0.000000 0.000000 2.552260 
# 
# 
# High freq. dielectric constant tensor:
#      x y z
#    x 1.730760 0.000000 0.000000 
#    y 0.000000 1.710330 0.000000 
#    z 0.000000 0.000000 1.614510 
# 
# From -- ./inp_files/12978.got.cif
#   From: 2010.03.12/outbox.cif.g09.slc.cpg/sg47_7_cif.got.tgz:12978.got - 2010.04.14 03:12:58.
