data_PCOD8201322
_publ_section_title
;
Structure prediction by ZEFSAII (Michael W. Deem and Ramdas Pophale) SiO2 
 PCOD8201322
Probable space group: P N N N
;
_chemical_formula_sum "Si O2"
_cell_formula_units_Z 48
_cell_length_a 13.738671
_cell_length_b 12.560948
_cell_length_c 12.940755
_cell_angle_alpha 90.000000
_cell_angle_beta 90.000000
_cell_angle_gamma 90.000000
_cell_volume 2233.195563
_symmetry_space_group_name_H-M "P N N N"
_symmetry_group_IT_number 48
_space_group.IT_coordinate_system_code '2'
_symmetry_cell_setting 'orthorhombic'
loop_
_space_group_symop_operation_xyz
x,y,z
1/2-x,1/2-y,z
x,1/2-y,1/2-z
1/2-x,y,1/2-z
-x,-y,-z
1/2+x,1/2+y,-z
-x,1/2+y,1/2+z
1/2+x,-y,1/2+z
loop_
_atom_site_type_symbol
_atom_site_label
_atom_site_fract_x
_atom_site_fract_y
_atom_site_fract_z
Si Si1 0.137256 0.961906 0.278999
Si Si2 0.150579 0.043649 0.983065
Si Si3 0.882409 0.671835 0.671816
Si Si4 0.534716 0.365195 0.896179
Si Si5 0.998244 0.321353 0.035032
Si Si6 0.362257 0.500776 0.515223
O O1 0.250000 0.963381 0.250000
O O2 0.077897 0.867817 0.220199
O O3 0.084396 0.070962 0.240832
O O4 0.131667 0.949115 0.400610
O O5 0.079671 0.098906 0.899251
O O6 0.179142 0.128724 0.074197
O O7 0.254164 0.007781 0.936222
O O8 0.097063 0.943139 0.031543
O O9 0.823067 0.750000 0.750000
O O10 0.973905 0.739721 0.627263
O O11 0.547211 0.247111 0.941133
O O12 0.090439 0.383845 0.985768
O O13 0.922754 0.410383 0.079652
#
# Coordination Sequence:
#
# PCOD8201322 Si02
#       6
#     8   8   8   8   8   8
#     4  11  20  35  61  93 120 147 196 263 312 353
#     4   9  19  35  57  85 124 156 193 246 309 372
#     4  10  18  32  57  88 114 147 194 251 305 348
#     4   9  19  36  54  87 120 163 188 234 323 372
#     4  10  23  35  53  83 127 162 200 251 305 373
#     4  11  21  37  55  89 121 158 207 256 299 352
#
# _framework density 21.493863999999999
#
# number of rings (size 3 to 8) (size 9 to 14) (size 15 to 20)
#    0.000    2.000    5.000    1.000    0.000    5.667 
#    0.000    0.833    0.000    4.000    4.333    9.333 
#    0.000    0.000    0.000    0.000    0.000    0.000 
#
# Total GULP energy -594631.765713 kJ/mol
# GULP energy per Si atom -12388.161786 kJ/mol
# Density = 2.144494 g / cm^3
# Si number density = 21.493864 Si / 1000 Ang^3
#
#
#
# Elastic Constant Matrix: (Units=GPa)
#
#
# Indices 1 2 3 4 5 6 
#
# 1 130.7720 44.2829 9.4074 0.0000 0.0000 0.0000
# 2 44.2829 90.3156 13.5324 0.0000 0.0000 0.0000
# 3 9.4074 13.5324 42.8882 0.0000 0.0000 0.0000
# 4 0.0000 0.0000 0.0000 39.5088 0.0000 0.0000
# 5 0.0000 0.0000 0.0000 0.0000 19.6767 0.0000
# 6 0.0000 0.0000 0.0000 0.0000 0.0000 7.7601
#
#
#
# Elastic Compliance Matrix: (Units=1/GPa)
#
#
# Indices 1 2 3 4 5 6 
#
# 1 0.009185 -0.004410 -0.000623 0.000000 0.000000 0.000000
# 2 -0.004410 0.013739 -0.003368 0.000000 0.000000 0.000000
# 3 -0.000623 -0.003368 0.024516 0.000000 0.000000 0.000000
# 4 0.000000 0.000000 0.000000 0.025311 0.000000 0.000000
# 5 0.000000 0.000000 0.000000 0.000000 0.050822 0.000000
# 6 0.000000 0.000000 0.000000 0.000000 0.000000 0.128864
#
#
# Mechanical properties :
#
#
# Convention : Reuss Voigt Hill
#
# Bulk Modulus (GPa) = 32.63935 44.26903 38.45419
# Shear Modulus (GPa) = 17.89217 26.50599 22.19908
#
# Velocity S-wave (km/s) = 2.88832 3.51549 3.21722
# Velocity P-wave (km/s) = 5.13240 6.09254 5.63297
#
# Compressibility (1/GPa) = 0.03063786
#
# Stress axis : x y z
#
# Youngs Moduli (GPa) = 108.87146 72.78405 40.79007
#
# Poissons Ratio (x) = 0.32099 0.02542
# Poissons Ratio (y) = 0.48015 0.13737
# Poissons Ratio (z) = 0.06785 0.24512
#
# Static dielectric constant tensor:
#      x y z
#    x 3.846060 0.000000 0.000000 
#    y 0.000000 4.080530 0.000000 
#    z 0.000000 0.000000 3.807150 
# 
# 
# High freq. dielectric constant tensor:
#      x y z
#    x 1.825660 0.000000 0.000000 
#    y 0.000000 1.858860 0.000000 
#    z 0.000000 0.000000 1.804230 
# 
# From -- ./inp_files/21235.got.cif
#   From: 2010.06.25/outbox.cif.g09.slc.cpg/sg48_11_cif.got.tgz:21235.got - 2010.06.26 18:06:46.
