data_PCOD8201750
_publ_section_title
;
Structure prediction by ZEFSAII (Michael W. Deem and Ramdas Pophale) SiO2 
 PCOD8201750
Probable space group: P N N N
;
_chemical_formula_sum "Si O2"
_cell_formula_units_Z 48
_cell_length_a 8.605028
_cell_length_b 29.451136
_cell_length_c 8.949577
_cell_angle_alpha 90.000000
_cell_angle_beta 90.000000
_cell_angle_gamma 90.000000
_cell_volume 2268.072057
_symmetry_space_group_name_H-M "P N N N"
_symmetry_group_IT_number 48
_space_group.IT_coordinate_system_code '2'
_symmetry_cell_setting 'orthorhombic'
loop_
_space_group_symop_operation_xyz
x,y,z
1/2-x,1/2-y,z
x,1/2-y,1/2-z
1/2-x,y,1/2-z
-x,-y,-z
1/2+x,1/2+y,-z
-x,1/2+y,1/2+z
1/2+x,-y,1/2+z
loop_
_atom_site_type_symbol
_atom_site_label
_atom_site_fract_x
_atom_site_fract_y
_atom_site_fract_z
Si Si1 0.935180 0.159049 0.441282
Si Si2 0.573049 0.482058 0.774316
Si Si3 0.564625 0.936140 0.552637
Si Si4 0.923761 0.341152 0.411512
Si Si5 0.934495 0.248259 0.918344
Si Si6 0.642575 0.916609 0.107671
O O1 0.752098 0.150488 0.468850
O O2 0.951861 0.161887 0.264281
O O3 0.996808 0.207387 0.498446
O O4 0.037629 0.122450 0.531754
O O5 0.750000 0.470465 0.750000
O O6 0.540084 0.536862 0.789721
O O7 0.466240 0.459006 0.650229
O O8 0.542850 0.460370 0.934076
O O9 0.525766 0.883558 0.543624
O O10 0.747572 0.938906 0.516415
O O11 0.992096 0.296623 0.494004
O O12 0.750000 0.250000 0.919331
O O13 0.000044 0.250000 0.750000
O O14 0.750000 0.899897 0.250000
#
# Coordination Sequence:
#
# PCOD8201750 Si02
#       6
#     8   8   8   8   8   8
#     4  10  21  39  64  96 129 171 211 266 324 379
#     4  10  22  41  63  86 121 169 214 266 311 379
#     4  10  23  41  60  92 125 168 208 266 326 375
#     4  10  21  39  64  96 131 166 216 265 321 388
#     4   9  19  35  64  98 127 163 213 265 315 381
#     4  10  23  41  63  92 127 168 217 269 319 388
#
# _framework density 21.163347999999999
#
# number of rings (size 3 to 8) (size 9 to 14) (size 15 to 20)
#    0.000    2.167    0.000    1.500    7.000    2.667 
#   15.000    0.833    0.000    2.000    0.000    0.000 
#    0.000    0.000    0.000    0.000    0.000    0.000 
#
# Total GULP energy -594703.121003 kJ/mol
# GULP energy per Si atom -12389.648354 kJ/mol
# Density = 2.111518 g / cm^3
# Si number density = 21.163348 Si / 1000 Ang^3
#
#
#
# Elastic Constant Matrix: (Units=GPa)
#
#
# Indices 1 2 3 4 5 6 
#
# 1 101.4210 70.7183 39.0731 0.0000 0.0000 0.0000
# 2 70.7183 183.0527 71.0092 0.0000 0.0000 0.0000
# 3 39.0731 71.0092 78.7144 0.0000 0.0000 0.0000
# 4 0.0000 0.0000 0.0000 42.3387 0.0000 0.0000
# 5 0.0000 0.0000 0.0000 0.0000 23.1958 0.0000
# 6 0.0000 0.0000 0.0000 0.0000 0.0000 6.9782
#
#
#
# Elastic Compliance Matrix: (Units=1/GPa)
#
#
# Indices 1 2 3 4 5 6 
#
# 1 0.013995 -0.004172 -0.003184 0.000000 0.000000 0.000000
# 2 -0.004172 0.009647 -0.006632 0.000000 0.000000 0.000000
# 3 -0.003184 -0.006632 0.020267 0.000000 0.000000 0.000000
# 4 0.000000 0.000000 0.000000 0.023619 0.000000 0.000000
# 5 0.000000 0.000000 0.000000 0.000000 0.043111 0.000000
# 6 0.000000 0.000000 0.000000 0.000000 0.000000 0.143304
#
#
# Mechanical properties :
#
#
# Convention : Reuss Voigt Hill
#
# Bulk Modulus (GPa) = 62.75571 80.53215 71.64393
# Shear Modulus (GPa) = 17.40755 26.66169 22.03462
#
# Velocity S-wave (km/s) = 2.87110 3.55322 3.23022
# Velocity P-wave (km/s) = 6.38031 7.41412 6.91655
#
# Compressibility (1/GPa) = 0.01593480
#
# Stress axis : x y z
#
# Youngs Moduli (GPa) = 71.45253 103.65625 49.34018
#
# Poissons Ratio (x) = 0.43243 0.15709
# Poissons Ratio (y) = 0.29808 0.32723
# Poissons Ratio (z) = 0.22749 0.68746
#
# Static dielectric constant tensor:
#      x y z
#    x 3.686930 0.000000 0.000000 
#    y 0.000000 4.407430 0.000000 
#    z 0.000000 0.000000 3.963720 
# 
# 
# High freq. dielectric constant tensor:
#      x y z
#    x 1.814180 0.000000 0.000000 
#    y 0.000000 1.840240 0.000000 
#    z 0.000000 0.000000 1.836220 
# 
# From -- ./inp_files/9488.got.cif
#   From: 2010.06.25/outbox.cif.g09.slc.cpg/sg48_5_cif.got.tgz:9488.got - 2010.06.26 18:06:46.
