data_PCOD8201207
_publ_section_title
;
Structure prediction by ZEFSAII (Michael W. Deem and Ramdas Pophale) SiO2 
 PCOD8201207
Probable space group: P M M M
;
_chemical_formula_sum "Si O2"
_cell_formula_units_Z 52
_cell_length_a 13.902636
_cell_length_b 28.385107
_cell_length_c 8.011562
_cell_angle_alpha 90.000000
_cell_angle_beta 90.000000
_cell_angle_gamma 90.000000
_cell_volume 3161.585170
_symmetry_space_group_name_H-M "P M M M"
_symmetry_group_IT_number 47
_symmetry_cell_setting 'orthorhombic'
loop_
_space_group_symop_operation_xyz
x,y,z
-x,-y,z
x,-y,-z
-x,y,-z
-x,-y,-z
x,y,-z
-x,y,z
x,-y,z
loop_
_atom_site_type_symbol
_atom_site_label
_atom_site_fract_x
_atom_site_fract_y
_atom_site_fract_z
Si Si1 0.892615 0.103844 0.198179
Si Si2 0.284323 0.051539 0.695899
Si Si3 0.607414 0.142463 0.302243
Si Si4 0.784502 0.804823 0.196310
Si Si5 0.114172 0.611849 0.314748
Si Si6 0.110601 0.712864 0.803103
Si Si7 0.114829 0.553433 0.000000
O O1 0.827273 0.060955 0.261927
O O2 0.849206 0.152750 0.269834
O O3 0.000000 0.097152 0.269146
O O4 0.893159 0.104694 0.000000
O O5 0.299385 0.050561 0.500000
O O6 0.350688 0.093184 0.772941
O O7 0.312630 0.000000 0.769870
O O8 0.606271 0.139941 0.500000
O O9 0.500000 0.150079 0.231288
O O10 0.673312 0.186383 0.245360
O O11 0.823249 0.755269 0.267681
O O12 0.796348 0.803362 0.000000
O O13 0.149357 0.595466 0.500000
O O14 0.147616 0.665485 0.285574
O O15 0.155941 0.578412 0.168009
O O16 0.000000 0.609781 0.305027
O O17 0.000000 0.724170 0.757687
O O18 0.121862 0.705583 0.000000
O O19 0.152288 0.500000 0.000000
O O20 0.000000 0.555657 0.000000
#
# Coordination Sequence:
#
# PCOD8201207 Si02
#       7
#     8   8   8   8   8   8   4
#     4   9  17  29  43  60  83 108 133 160 194 241
#     4   9  18  31  45  61  79 100 130 166 203 245
#     4   9  18  32  47  61  79 102 128 164 208 251
#     4   9  17  28  44  64  82 104 135 166 200 247
#     4   9  16  25  37  55  79 109 148 190 229 266
#     4   9  15  25  41  59  83 112 139 172 214 256
#     4   9  16  26  38  52  76 112 153 197 236 263
#
# _framework density 16.447445999999999
#
# number of rings (size 3 to 8) (size 9 to 14) (size 15 to 20)
#    0.000    3.000    0.769    0.462    0.000    4.308 
#    0.000    4.615    0.000    2.769    0.000    4.308 
#    0.000    0.000    0.000    0.000    0.000    1.538 
#
# Total GULP energy -644478.554092 kJ/mol
# GULP energy per Si atom -12393.818348 kJ/mol
# Density = 1.641001 g / cm^3
# Si number density = 16.447446 Si / 1000 Ang^3
#
#
#
# Elastic Constant Matrix: (Units=GPa)
#
#
# Indices 1 2 3 4 5 6 
#
# 1 76.7406 39.5816 9.8589 0.0000 0.0000 0.0000
# 2 39.5816 118.6565 39.6813 0.0000 0.0000 0.0000
# 3 9.8589 39.6813 49.5107 0.0000 0.0000 0.0000
# 4 0.0000 0.0000 0.0000 17.5100 0.0000 0.0000
# 5 0.0000 0.0000 0.0000 0.0000 15.8430 0.0000
# 6 0.0000 0.0000 0.0000 0.0000 0.0000 11.4232
#
#
#
# Elastic Compliance Matrix: (Units=1/GPa)
#
#
# Indices 1 2 3 4 5 6 
#
# 1 0.015817 -0.005769 0.001474 0.000000 0.000000 0.000000
# 2 -0.005769 0.013618 -0.009766 0.000000 0.000000 0.000000
# 3 0.001474 -0.009766 0.027731 0.000000 0.000000 0.000000
# 4 0.000000 0.000000 0.000000 0.057110 0.000000 0.000000
# 5 0.000000 0.000000 0.000000 0.000000 0.063119 0.000000
# 6 0.000000 0.000000 0.000000 0.000000 0.000000 0.087541
#
#
# Mechanical properties :
#
#
# Convention : Reuss Voigt Hill
#
# Bulk Modulus (GPa) = 34.42944 47.01682 40.72313
# Shear Modulus (GPa) = 16.51584 19.34098 17.92841
#
# Velocity S-wave (km/s) = 3.17228 3.43290 3.30516
# Velocity P-wave (km/s) = 5.86483 6.66042 6.27525
#
# Compressibility (1/GPa) = 0.02904491
#
# Stress axis : x y z
#
# Youngs Moduli (GPa) = 63.22202 73.43166 36.06080
#
# Poissons Ratio (x) = 0.42366 -0.05317
# Poissons Ratio (y) = 0.36475 0.35216
# Poissons Ratio (z) = -0.09321 0.71711
#
# Static dielectric constant tensor:
#      x y z
#    x 2.949770 0.000000 0.000000 
#    y 0.000000 3.234140 0.000000 
#    z 0.000000 0.000000 3.045540 
# 
# 
# High freq. dielectric constant tensor:
#      x y z
#    x 1.584150 0.000000 0.000000 
#    y 0.000000 1.622410 0.000000 
#    z 0.000000 0.000000 1.629740 
# 
# From -- ./inp_files/8049.got.cif
#   From: 2010.03.12/outbox.cif.g09.slc.cpg/sg47_5_cif.got.tgz:8049.got - 2010.04.14 03:12:58.
