data_PCOD8201761
_publ_section_title
;
Structure prediction by ZEFSAII (Michael W. Deem and Ramdas Pophale) SiO2 
 PCOD8201761
Probable space group: P N N N
;
_chemical_formula_sum "Si O2"
_cell_formula_units_Z 28
_cell_length_a 15.538882
_cell_length_b 10.340976
_cell_length_c 7.968318
_cell_angle_alpha 90.000000
_cell_angle_beta 90.000000
_cell_angle_gamma 90.000000
_cell_volume 1280.406755
_symmetry_space_group_name_H-M "P N N N"
_symmetry_group_IT_number 48
_space_group.IT_coordinate_system_code '2'
_symmetry_cell_setting 'orthorhombic'
loop_
_space_group_symop_operation_xyz
x,y,z
1/2-x,1/2-y,z
x,1/2-y,1/2-z
1/2-x,y,1/2-z
-x,-y,-z
1/2+x,1/2+y,-z
-x,1/2+y,1/2+z
1/2+x,-y,1/2+z
loop_
_atom_site_type_symbol
_atom_site_label
_atom_site_fract_x
_atom_site_fract_y
_atom_site_fract_z
Si Si1 0.748817 0.600366 0.553972
Si Si2 0.579175 0.991557 0.122610
Si Si3 0.067721 0.392782 0.541702
Si Si4 0.984628 0.250000 0.250000
O O1 0.750000 0.750000 0.501320
O O2 0.750000 0.578280 0.750000
O O3 0.668909 0.525235 0.473311
O O4 0.838480 0.544389 0.487438
O O5 0.564070 0.872518 0.254992
O O6 0.577974 0.128548 0.221552
O O7 0.500000 0.000000 0.000000
O O8 0.000000 0.500000 0.500000
O O9 0.047734 0.270722 0.416195
#
# Coordination Sequence:
#
# PCOD8201761 Si02
#       4
#     8   8   8   4
#     4  11  22  39  64  93 122 158 211 267 319 388
#     4  11  23  39  64  95 127 169 215 268 334 394
#     4  10  21  40  62  89 124 162 207 260 319 386
#     4  10  22  42  64  90 132 170 210 276 332 392
#
# _framework density 21.868053
#
# number of rings (size 3 to 8) (size 9 to 14) (size 15 to 20)
#    0.000    1.429    0.000    7.714    0.000    5.714 
#    0.000   11.429    0.000    6.857    0.000    0.000 
#    0.000    0.000    0.000    0.000    0.000    0.000 
#
# Total GULP energy -346909.396719 kJ/mol
# GULP energy per Si atom -12389.621311 kJ/mol
# Density = 2.181828 g / cm^3
# Si number density = 21.868053 Si / 1000 Ang^3
#
#
#
# Elastic Constant Matrix: (Units=GPa)
#
#
# Indices 1 2 3 4 5 6 
#
# 1 206.0397 48.7774 72.8386 0.0000 0.0000 0.0000
# 2 48.7774 79.9331 43.4225 0.0000 0.0000 0.0000
# 3 72.8386 43.4225 169.2378 0.0000 0.0000 0.0000
# 4 0.0000 0.0000 0.0000 26.7968 0.0000 0.0000
# 5 0.0000 0.0000 0.0000 0.0000 47.4600 0.0000
# 6 0.0000 0.0000 0.0000 0.0000 0.0000 28.1211
#
#
#
# Elastic Compliance Matrix: (Units=1/GPa)
#
#
# Indices 1 2 3 4 5 6 
#
# 1 0.006191 -0.002708 -0.001970 0.000000 0.000000 0.000000
# 2 -0.002708 0.015721 -0.002868 0.000000 0.000000 0.000000
# 3 -0.001970 -0.002868 0.007493 0.000000 0.000000 0.000000
# 4 0.000000 0.000000 0.000000 0.037318 0.000000 0.000000
# 5 0.000000 0.000000 0.000000 0.000000 0.021070 0.000000
# 6 0.000000 0.000000 0.000000 0.000000 0.000000 0.035560
#
#
# Mechanical properties :
#
#
# Convention : Reuss Voigt Hill
#
# Bulk Modulus (GPa) = 69.86744 87.25418 78.56081
# Shear Modulus (GPa) = 34.91248 39.82040 37.36644
#
# Velocity S-wave (km/s) = 3.99996 4.27188 4.13815
# Velocity P-wave (km/s) = 7.30424 8.01990 7.67042
#
# Compressibility (1/GPa) = 0.01431282
#
# Stress axis : x y z
#
# Youngs Moduli (GPa) = 161.53009 63.60946 133.46655
#
# Poissons Ratio (x) = 0.17224 0.26289
# Poissons Ratio (y) = 0.43739 0.38281
# Poissons Ratio (z) = 0.31817 0.18245
#
# Static dielectric constant tensor:
#      x y z
#    x 4.159640 0.000000 0.000000 
#    y 0.000000 4.210260 0.000000 
#    z 0.000000 0.000000 4.798460 
# 
# 
# High freq. dielectric constant tensor:
#      x y z
#    x 1.867770 0.000000 0.000000 
#    y 0.000000 1.837130 0.000000 
#    z 0.000000 0.000000 1.891070 
# 
# From -- ./inp_files/11786.got.cif
#   From: 2010.06.25/outbox.cif.g09.slc.cpg/sg48_6_cif.got.tgz:11786.got - 2010.06.26 18:06:46.
