data_PCOD8201524
_publ_section_title
;
Structure prediction by ZEFSAII (Michael W. Deem and Ramdas Pophale) SiO2 
 PCOD8201524
Probable space group: P N N N
;
_chemical_formula_sum "Si O2"
_cell_formula_units_Z 48
_cell_length_a 17.634782
_cell_length_b 14.289140
_cell_length_c 8.921321
_cell_angle_alpha 90.000000
_cell_angle_beta 90.000000
_cell_angle_gamma 90.000000
_cell_volume 2248.046824
_symmetry_space_group_name_H-M "P N N N"
_symmetry_group_IT_number 48
_space_group.IT_coordinate_system_code '2'
_symmetry_cell_setting 'orthorhombic'
loop_
_space_group_symop_operation_xyz
x,y,z
1/2-x,1/2-y,z
x,1/2-y,1/2-z
1/2-x,y,1/2-z
-x,-y,-z
1/2+x,1/2+y,-z
-x,1/2+y,1/2+z
1/2+x,-y,1/2+z
loop_
_atom_site_type_symbol
_atom_site_label
_atom_site_fract_x
_atom_site_fract_y
_atom_site_fract_z
Si Si1 0.175742 0.202697 0.086512
Si Si2 0.387064 0.650883 0.195786
Si Si3 0.721672 0.009667 0.587919
Si Si4 0.999682 0.611887 0.834394
Si Si5 0.987479 0.696872 0.526876
Si Si6 0.613939 0.016311 0.972618
O O1 0.250000 0.250000 0.010816
O O2 0.163210 0.250000 0.250000
O O3 0.100790 0.218716 0.987560
O O4 0.184212 0.091267 0.094363
O O5 0.350618 0.750000 0.250000
O O6 0.338272 0.595367 0.065784
O O7 0.402029 0.592140 0.344383
O O8 0.469542 0.667775 0.122862
O O9 0.750000 0.037923 0.750000
O O10 0.796648 0.010045 0.481775
O O11 0.991303 0.616016 0.654662
O O12 0.024804 0.710580 0.903754
O O13 0.918372 0.580868 0.905002
O O14 0.067017 0.539930 0.877010
#
# Coordination Sequence:
#
# PCOD8201524 Si02
#       6
#     8   8   8   8   8   8
#     4  11  19  33  61  91 115 142 192 256 301 338
#     4  11  23  38  56  87 120 161 198 240 299 352
#     4  10  20  34  57  86 117 149 201 243 293 344
#     4  10  20  36  60  86 118 154 197 247 293 355
#     4  11  21  37  58  89 120 151 198 244 299 359
#     4  10  21  38  59  87 117 157 200 244 296 352
#
# _framework density 21.351869000000001
#
# number of rings (size 3 to 8) (size 9 to 14) (size 15 to 20)
#    0.000    1.500    5.000    3.000    0.000    5.667 
#    0.000    0.833    0.000    2.500    0.000    0.000 
#    0.000    0.000    0.000    0.000    0.000    0.000 
#
# Total GULP energy -594720.008646 kJ/mol
# GULP energy per Si atom -12390.000180 kJ/mol
# Density = 2.130327 g / cm^3
# Si number density = 21.351869 Si / 1000 Ang^3
#
#
#
# Elastic Constant Matrix: (Units=GPa)
#
#
# Indices 1 2 3 4 5 6 
#
# 1 131.3661 40.7231 14.0307 0.0000 0.0000 0.0000
# 2 40.7231 123.0191 20.5175 0.0000 0.0000 0.0000
# 3 14.0307 20.5175 31.4355 0.0000 0.0000 0.0000
# 4 0.0000 0.0000 0.0000 21.3572 0.0000 0.0000
# 5 0.0000 0.0000 0.0000 0.0000 29.5035 0.0000
# 6 0.0000 0.0000 0.0000 0.0000 0.0000 31.6665
#
#
#
# Elastic Compliance Matrix: (Units=1/GPa)
#
#
# Indices 1 2 3 4 5 6 
#
# 1 0.008620 -0.002482 -0.002227 0.000000 0.000000 0.000000
# 2 -0.002482 0.009836 -0.005312 0.000000 0.000000 0.000000
# 3 -0.002227 -0.005312 0.036273 0.000000 0.000000 0.000000
# 4 0.000000 0.000000 0.000000 0.046823 0.000000 0.000000
# 5 0.000000 0.000000 0.000000 0.000000 0.033894 0.000000
# 6 0.000000 0.000000 0.000000 0.000000 0.000000 0.031579
#
#
# Mechanical properties :
#
#
# Convention : Reuss Voigt Hill
#
# Bulk Modulus (GPa) = 28.83046 48.48479 38.65763
# Shear Modulus (GPa) = 25.17249 30.54207 27.85728
#
# Velocity S-wave (km/s) = 3.43729 3.78619 3.61595
# Velocity P-wave (km/s) = 5.41157 6.47074 5.96471
#
# Compressibility (1/GPa) = 0.03468554
#
# Stress axis : x y z
#
# Youngs Moduli (GPa) = 116.01500 101.66319 27.56902
#
# Poissons Ratio (x) = 0.25231 0.06140
# Poissons Ratio (y) = 0.28793 0.14646
# Poissons Ratio (z) = 0.25840 0.54007
#
# Static dielectric constant tensor:
#      x y z
#    x 4.729910 0.000000 0.000000 
#    y 0.000000 4.119590 0.000000 
#    z 0.000000 0.000000 3.305960 
# 
# 
# High freq. dielectric constant tensor:
#      x y z
#    x 1.847360 0.000000 0.000000 
#    y 0.000000 1.854490 0.000000 
#    z 0.000000 0.000000 1.771750 
# 
# From -- ./inp_files/14142.got.cif
#   From: 2010.06.25/outbox.cif.g09.slc.cpg/sg48_8_cif.got.tgz:14142.got - 2010.06.26 18:06:46.
