data_PCOD8201224
_publ_section_title
;
Structure prediction by ZEFSAII (Michael W. Deem and Ramdas Pophale) SiO2 
 PCOD8201224
Probable space group: P M M M
;
_chemical_formula_sum "Si O2"
_cell_formula_units_Z 40
_cell_length_a 8.004427
_cell_length_b 27.855962
_cell_length_c 9.392726
_cell_angle_alpha 90.000000
_cell_angle_beta 90.000000
_cell_angle_gamma 90.000000
_cell_volume 2094.305644
_symmetry_space_group_name_H-M "P M M M"
_symmetry_group_IT_number 47
_symmetry_cell_setting 'orthorhombic'
loop_
_space_group_symop_operation_xyz
x,y,z
-x,-y,z
x,-y,-z
-x,y,-z
-x,-y,-z
x,y,-z
-x,y,z
x,-y,z
loop_
_atom_site_type_symbol
_atom_site_label
_atom_site_fract_x
_atom_site_fract_y
_atom_site_fract_z
Si Si1 0.693705 0.311887 0.162594
Si Si2 0.500000 0.946396 0.668701
Si Si3 0.195920 0.211430 0.159031
Si Si4 0.807527 0.881312 0.667702
Si Si5 0.199858 0.500000 0.659868
Si Si6 0.193309 0.412013 0.158977
O O1 0.500000 0.320209 0.178599
O O2 0.745375 0.261265 0.234252
O O3 0.779734 0.359259 0.229681
O O4 0.754877 0.307886 0.000000
O O5 0.500000 0.948426 0.500000
O O6 0.672742 0.920985 0.719220
O O7 0.500000 0.000000 0.733614
O O8 0.252413 0.167535 0.257431
O O9 0.000000 0.212239 0.146685
O O10 0.274803 0.205466 0.000000
O O11 0.795892 0.872886 0.500000
O O12 0.000000 0.895808 0.709465
O O13 0.271669 0.500000 0.500000
O O14 0.271850 0.547031 0.740556
O O15 0.000000 0.500000 0.656138
O O16 0.000000 0.423049 0.144677
O O17 0.275301 0.413907 0.000000
#
# Coordination Sequence:
#
# PCOD8201224 Si02
#       6
#     8   4   8   8   4   8
#     4   9  17  28  44  68  94 119 151 191 231 275
#     4   9  18  32  51  75 101 131 169 210 249 288
#     4   9  17  30  49  72  97 127 161 196 238 287
#     4   9  18  32  50  73 100 129 164 206 249 293
#     4   9  17  29  46  67  88 112 146 187 230 276
#     4   9  16  28  47  67  86 111 147 189 228 269
#
# _framework density 19.099411
#
# number of rings (size 3 to 8) (size 9 to 14) (size 15 to 20)
#    0.000    3.000    0.000    0.900    1.400    4.000 
#    0.000    3.500    0.000   10.800    0.000    2.800 
#    0.000    0.000    0.000    0.000    0.000    0.000 
#
# Total GULP energy -495651.788210 kJ/mol
# GULP energy per Si atom -12391.294705 kJ/mol
# Density = 1.905594 g / cm^3
# Si number density = 19.099411 Si / 1000 Ang^3
#
#
#
# Elastic Constant Matrix: (Units=GPa)
#
#
# Indices 1 2 3 4 5 6 
#
# 1 53.7763 56.9125 20.1494 0.0000 0.0000 0.0000
# 2 56.9125 197.4160 54.8852 0.0000 0.0000 0.0000
# 3 20.1494 54.8852 53.1953 0.0000 0.0000 0.0000
# 4 0.0000 0.0000 0.0000 21.1246 0.0000 0.0000
# 5 0.0000 0.0000 0.0000 0.0000 10.4382 0.0000
# 6 0.0000 0.0000 0.0000 0.0000 0.0000 16.5397
#
#
#
# Elastic Compliance Matrix: (Units=1/GPa)
#
#
# Indices 1 2 3 4 5 6 
#
# 1 0.027118 -0.006958 -0.003093 0.000000 0.000000 0.000000
# 2 -0.006958 0.008888 -0.006535 0.000000 0.000000 0.000000
# 3 -0.003093 -0.006535 0.026713 0.000000 0.000000 0.000000
# 4 0.000000 0.000000 0.000000 0.047338 0.000000 0.000000
# 5 0.000000 0.000000 0.000000 0.000000 0.095802 0.000000
# 6 0.000000 0.000000 0.000000 0.000000 0.000000 0.060460
#
#
# Mechanical properties :
#
#
# Convention : Reuss Voigt Hill
#
# Bulk Modulus (GPa) = 33.84385 63.14243 48.49314
# Shear Modulus (GPa) = 16.16341 21.11654 18.63997
#
# Velocity S-wave (km/s) = 2.91224 3.32868 3.12740
# Velocity P-wave (km/s) = 5.39134 6.92135 6.20369
#
# Compressibility (1/GPa) = 0.02954747
#
# Stress axis : x y z
#
# Youngs Moduli (GPa) = 36.87569 112.50907 37.43522
#
# Poissons Ratio (x) = 0.78283 0.11578
# Poissons Ratio (y) = 0.25658 0.24464
# Poissons Ratio (z) = 0.11405 0.73525
#
# Static dielectric constant tensor:
#      x y z
#    x 3.321010 0.000000 0.000000 
#    y 0.000000 3.851530 0.000000 
#    z 0.000000 0.000000 3.404250 
# 
# 
# High freq. dielectric constant tensor:
#      x y z
#    x 1.731900 0.000000 0.000000 
#    y 0.000000 1.754580 0.000000 
#    z 0.000000 0.000000 1.692400 
# 
# From -- ./inp_files/1705.got.cif
#   From: 2010.03.12/outbox.cif.g09.slc.cpg/sg47_1_cif.got.tgz:1705.got - 2010.04.14 03:12:58.
