data_PCOD8201426
_publ_section_title
;
Structure prediction by ZEFSAII (Michael W. Deem and Ramdas Pophale) SiO2 
 PCOD8201426
Probable space group: P N N N
;
_chemical_formula_sum "Si O2"
_cell_formula_units_Z 42
_cell_length_a 10.915308
_cell_length_b 19.339505
_cell_length_c 10.566964
_cell_angle_alpha 90.000000
_cell_angle_beta 90.000000
_cell_angle_gamma 90.000000
_cell_volume 2230.650740
_symmetry_space_group_name_H-M "P N N N"
_symmetry_group_IT_number 48
_space_group.IT_coordinate_system_code '2'
_symmetry_cell_setting 'orthorhombic'
loop_
_space_group_symop_operation_xyz
x,y,z
1/2-x,1/2-y,z
x,1/2-y,1/2-z
1/2-x,y,1/2-z
-x,-y,-z
1/2+x,1/2+y,-z
-x,1/2+y,1/2+z
1/2+x,-y,1/2+z
loop_
_atom_site_type_symbol
_atom_site_label
_atom_site_fract_x
_atom_site_fract_y
_atom_site_fract_z
Si Si1 0.203785 0.175213 0.111433
Si Si2 0.964139 0.017733 0.303594
Si Si3 0.424861 0.856028 0.620344
Si Si4 0.750000 0.250000 0.250000
Si Si5 0.180031 0.455035 0.016679
Si Si6 0.905006 0.457611 0.583651
O O1 0.250000 0.250000 0.068940
O O2 0.250000 0.153510 0.250000
O O3 0.254439 0.119765 0.010315
O O4 0.058306 0.176989 0.117459
O O5 0.054396 0.051772 0.405996
O O6 0.913487 0.079325 0.216247
O O7 0.038271 0.958877 0.224809
O O8 0.849924 0.981221 0.374566
O O9 0.331445 0.796607 0.658243
O O10 0.392610 0.881386 0.477393
O O11 0.271943 0.507463 0.085967
O O12 0.000000 0.500000 0.500000
#
# Coordination Sequence:
#
# PCOD8201426 Si02
#       6
#     8   8   8   2   8   8
#     4  11  20  35  58  81 117 154 194 237 291 352
#     4  10  21  34  60  89 111 147 196 247 297 340
#     4  11  22  38  56  86 118 152 185 244 299 345
#     4  12  24  36  54  88 122 152 202 230 296 386
#     4  11  19  35  58  88 113 146 197 244 287 355
#     4  10  19  35  55  84 117 144 185 241 296 337
#
# _framework density 18.828588
#
# number of rings (size 3 to 8) (size 9 to 14) (size 15 to 20)
#    0.000    1.333    5.714    2.857    0.000    2.286 
#    0.000    0.000    0.000    2.286    0.000    0.000 
#    0.000    0.000    0.000    0.000    0.000    0.000 
#
# Total GULP energy -520762.656301 kJ/mol
# GULP energy per Si atom -12399.110864 kJ/mol
# Density = 1.878573 g / cm^3
# Si number density = 18.828588 Si / 1000 Ang^3
#
#
#
# Elastic Constant Matrix: (Units=GPa)
#
#
# Indices 1 2 3 4 5 6 
#
# 1 104.1354 58.1105 27.8212 0.0000 0.0000 0.0000
# 2 58.1105 124.6461 44.3100 0.0000 0.0000 0.0000
# 3 27.8212 44.3100 72.4704 0.0000 0.0000 0.0000
# 4 0.0000 0.0000 0.0000 23.7905 0.0000 0.0000
# 5 0.0000 0.0000 0.0000 0.0000 32.7917 0.0000
# 6 0.0000 0.0000 0.0000 0.0000 0.0000 34.8565
#
#
#
# Elastic Compliance Matrix: (Units=1/GPa)
#
#
# Indices 1 2 3 4 5 6 
#
# 1 0.013134 -0.005533 -0.001659 0.000000 0.000000 0.000000
# 2 -0.005533 0.012582 -0.005569 0.000000 0.000000 0.000000
# 3 -0.001659 -0.005569 0.017840 0.000000 0.000000 0.000000
# 4 0.000000 0.000000 0.000000 0.042034 0.000000 0.000000
# 5 0.000000 0.000000 0.000000 0.000000 0.030495 0.000000
# 6 0.000000 0.000000 0.000000 0.000000 0.000000 0.028689
#
#
# Mechanical properties :
#
#
# Convention : Reuss Voigt Hill
#
# Bulk Modulus (GPa) = 55.44933 62.41503 58.93218
# Shear Modulus (GPa) = 28.35956 29.68843 29.02400
#
# Velocity S-wave (km/s) = 3.88519 3.97517 3.93043
# Velocity P-wave (km/s) = 7.04554 7.36820 7.20868
#
# Compressibility (1/GPa) = 0.01803448
#
# Stress axis : x y z
#
# Youngs Moduli (GPa) = 76.13930 79.47884 56.05269
#
# Poissons Ratio (x) = 0.43978 0.09298
# Poissons Ratio (y) = 0.42130 0.31214
# Poissons Ratio (z) = 0.12630 0.44259
#
# Static dielectric constant tensor:
#      x y z
#    x 3.597710 0.000000 0.000000 
#    y 0.000000 3.484480 0.000000 
#    z 0.000000 0.000000 3.720890 
# 
# 
# High freq. dielectric constant tensor:
#      x y z
#    x 1.751340 0.000000 0.000000 
#    y 0.000000 1.708520 0.000000 
#    z 0.000000 0.000000 1.713780 
# 
# From -- ./inp_files/19981.got.cif
#   From: 2010.06.25/outbox.cif.g09.slc.cpg/sg48_10_cif.got.tgz:19981.got - 2010.06.26 18:06:46.
