data_PCOD8201698
_publ_section_title
;
Structure prediction by ZEFSAII (Michael W. Deem and Ramdas Pophale) SiO2 
 PCOD8201698
Probable space group: P N N N
;
_chemical_formula_sum "Si O2"
_cell_formula_units_Z 48
_cell_length_a 28.885860
_cell_length_b 9.015153
_cell_length_c 9.090182
_cell_angle_alpha 90.000000
_cell_angle_beta 90.000000
_cell_angle_gamma 90.000000
_cell_volume 2367.178362
_symmetry_space_group_name_H-M "P N N N"
_symmetry_group_IT_number 48
_space_group.IT_coordinate_system_code '2'
_symmetry_cell_setting 'orthorhombic'
loop_
_space_group_symop_operation_xyz
x,y,z
1/2-x,1/2-y,z
x,1/2-y,1/2-z
1/2-x,y,1/2-z
-x,-y,-z
1/2+x,1/2+y,-z
-x,1/2+y,1/2+z
1/2+x,-y,1/2+z
loop_
_atom_site_type_symbol
_atom_site_label
_atom_site_fract_x
_atom_site_fract_y
_atom_site_fract_z
Si Si1 0.915998 0.110796 0.150223
Si Si2 0.675019 0.560374 0.097583
Si Si3 0.168130 0.392040 0.936102
Si Si4 0.755628 0.075085 0.585926
Si Si5 0.438514 0.060339 0.925392
Si Si6 0.526828 0.218740 0.916127
O O1 0.898120 0.250000 0.250000
O O2 0.872938 0.028667 0.071532
O O3 0.943521 0.000639 0.258479
O O4 0.952117 0.158313 0.024604
O O5 0.678008 0.721879 0.021748
O O6 0.683206 0.574759 0.270463
O O7 0.716633 0.472929 0.026892
O O8 0.113867 0.403857 0.960797
O O9 0.194576 0.512172 0.035642
O O10 0.750000 0.250000 0.587692
O O11 0.750000 0.011319 0.750000
O O12 0.470798 0.207539 0.935091
O O13 0.453682 0.943065 0.047322
O O14 0.541918 0.250000 0.750000
#
# Coordination Sequence:
#
# PCOD8201698 Si02
#       6
#     8   8   8   8   8   8
#     4   9  20  38  62  91 125 164 213 259 304 371
#     4  10  22  39  66  95 119 166 208 259 308 368
#     4  10  22  42  65  91 124 160 215 259 305 374
#     4  11  26  42  63  93 129 162 199 255 322 383
#     4   9  21  40  59  88 124 166 205 260 309 358
#     4  10  21  36  61  87 123 165 206 263 305 365
#
# _framework density 20.277304999999998
#
# number of rings (size 3 to 8) (size 9 to 14) (size 15 to 20)
#    0.000    2.167    0.000    1.000   11.667    5.333 
#    0.000    0.000    7.333    0.000    0.000    0.000 
#    0.000    0.000    0.000    0.000    0.000    0.000 
#
# Total GULP energy -595022.485351 kJ/mol
# GULP energy per Si atom -12396.301778 kJ/mol
# Density = 2.023115 g / cm^3
# Si number density = 20.277305 Si / 1000 Ang^3
#
#
#
# Elastic Constant Matrix: (Units=GPa)
#
#
# Indices 1 2 3 4 5 6 
#
# 1 116.7426 42.6014 63.5738 0.0000 0.0000 0.0000
# 2 42.6014 76.2718 25.5697 0.0000 0.0000 0.0000
# 3 63.5738 25.5697 76.5450 0.0000 0.0000 0.0000
# 4 0.0000 0.0000 0.0000 14.9466 0.0000 0.0000
# 5 0.0000 0.0000 0.0000 0.0000 24.0977 0.0000
# 6 0.0000 0.0000 0.0000 0.0000 0.0000 35.3361
#
#
#
# Elastic Compliance Matrix: (Units=1/GPa)
#
#
# Indices 1 2 3 4 5 6 
#
# 1 0.017482 -0.005514 -0.012677 0.000000 0.000000 0.000000
# 2 -0.005514 0.016504 -0.000933 0.000000 0.000000 0.000000
# 3 -0.012677 -0.000933 0.023905 0.000000 0.000000 0.000000
# 4 0.000000 0.000000 0.000000 0.066905 0.000000 0.000000
# 5 0.000000 0.000000 0.000000 0.000000 0.041498 0.000000
# 6 0.000000 0.000000 0.000000 0.000000 0.000000 0.028300
#
#
# Mechanical properties :
#
#
# Convention : Reuss Voigt Hill
#
# Bulk Modulus (GPa) = 50.91402 59.22768 55.07085
# Shear Modulus (GPa) = 20.88647 24.06371 22.47509
#
# Velocity S-wave (km/s) = 3.21291 3.44863 3.33286
# Velocity P-wave (km/s) = 6.23916 6.71786 6.48293
#
# Compressibility (1/GPa) = 0.01964096
#
# Stress axis : x y z
#
# Youngs Moduli (GPa) = 57.20269 60.59183 41.83245
#
# Poissons Ratio (x) = 0.33413 0.53032
# Poissons Ratio (y) = 0.31544 0.03904
# Poissons Ratio (z) = 0.72517 0.05654
#
# Static dielectric constant tensor:
#      x y z
#    x 3.743530 0.000000 0.000000 
#    y 0.000000 4.053720 0.000000 
#    z 0.000000 0.000000 3.708500 
# 
# 
# High freq. dielectric constant tensor:
#      x y z
#    x 1.797420 0.000000 0.000000 
#    y 0.000000 1.800380 0.000000 
#    z 0.000000 0.000000 1.783010 
# 
# From -- ./inp_files/16780.got.cif
#   From: 2010.06.25/outbox.cif.g09.slc.cpg/sg48_9_cif.got.tgz:16780.got - 2010.06.26 18:06:46.
