data_PCOD8201954
_publ_section_title
;
Structure prediction by ZEFSAII (Michael W. Deem and Ramdas Pophale) SiO2 
 PCOD8201954
Probable space group: P N N N
;
_chemical_formula_sum "Si O2"
_cell_formula_units_Z 26
_cell_length_a 12.505969
_cell_length_b 19.556275
_cell_length_c 4.968449
_cell_angle_alpha 90.000000
_cell_angle_beta 90.000000
_cell_angle_gamma 90.000000
_cell_volume 1215.134411
_symmetry_space_group_name_H-M "P N N N"
_symmetry_group_IT_number 48
_space_group.IT_coordinate_system_code '2'
_symmetry_cell_setting 'orthorhombic'
loop_
_space_group_symop_operation_xyz
x,y,z
1/2-x,1/2-y,z
x,1/2-y,1/2-z
1/2-x,y,1/2-z
-x,-y,-z
1/2+x,1/2+y,-z
-x,1/2+y,1/2+z
1/2+x,-y,1/2+z
loop_
_atom_site_type_symbol
_atom_site_label
_atom_site_fract_x
_atom_site_fract_y
_atom_site_fract_z
Si Si1 0.496058 0.064156 0.198194
Si Si2 0.544766 0.292908 0.509724
Si Si3 0.679666 0.004555 0.502392
Si Si4 0.750000 0.250000 0.750000
O O1 0.494575 0.132093 0.019494
O O2 0.389793 0.059166 0.382800
O O3 0.599675 0.064010 0.395805
O O4 0.500000 0.000000 0.000000
O O5 0.519133 0.250000 0.250000
O O6 0.673192 0.297968 0.565425
O O7 0.488486 0.250000 0.750000
O O8 0.750000 0.034456 0.750000
O O9 0.750000 0.978168 0.250000
#
# Coordination Sequence:
#
# PCOD8201954 Si02
#       4
#     8   8   8   2
#     4  11  25  43  69 104 136 186 234 287 344 414
#     4  10  24  40  62  95 136 178 220 270 344 417
#     4  11  24  40  65 102 139 178 231 294 346 399
#     4   8  22  40  62  92 138 182 208 260 358 412
#
# _framework density 21.396811
#
# number of rings (size 3 to 8) (size 9 to 14) (size 15 to 20)
#    0.923    0.615    3.077    0.462    8.615    4.923 
#    2.769    0.000    0.000    0.923    8.000    0.000 
#    0.000    0.000    0.000    0.000    0.000    0.000 
#
# Total GULP energy -322194.005872 kJ/mol
# GULP energy per Si atom -12392.077149 kJ/mol
# Density = 2.134811 g / cm^3
# Si number density = 21.396811 Si / 1000 Ang^3
#
#
#
# Elastic Constant Matrix: (Units=GPa)
#
#
# Indices 1 2 3 4 5 6 
#
# 1 92.4144 27.6150 50.3602 0.0000 0.0000 0.0000
# 2 27.6150 148.1362 68.4821 0.0000 0.0000 0.0000
# 3 50.3602 68.4821 177.5270 0.0000 0.0000 0.0000
# 4 0.0000 0.0000 0.0000 42.7333 0.0000 0.0000
# 5 0.0000 0.0000 0.0000 0.0000 107.6564 0.0000
# 6 0.0000 0.0000 0.0000 0.0000 0.0000 20.3995
#
#
#
# Elastic Compliance Matrix: (Units=1/GPa)
#
#
# Indices 1 2 3 4 5 6 
#
# 1 0.012890 -0.000867 -0.003322 0.000000 0.000000 0.000000
# 2 -0.000867 0.008274 -0.002946 0.000000 0.000000 0.000000
# 3 -0.003322 -0.002946 0.007712 0.000000 0.000000 0.000000
# 4 0.000000 0.000000 0.000000 0.023401 0.000000 0.000000
# 5 0.000000 0.000000 0.000000 0.000000 0.009289 0.000000
# 6 0.000000 0.000000 0.000000 0.000000 0.000000 0.049021
#
#
# Mechanical properties :
#
#
# Convention : Reuss Voigt Hill
#
# Bulk Modulus (GPa) = 68.46563 78.99914 73.73238
# Shear Modulus (GPa) = 38.54300 52.26587 45.40444
#
# Velocity S-wave (km/s) = 4.24883 4.94772 4.61154
# Velocity P-wave (km/s) = 7.49250 8.34512 7.93028
#
# Compressibility (1/GPa) = 0.01460587
#
# Stress axis : x y z
#
# Youngs Moduli (GPa) = 77.57759 120.86061 129.67293
#
# Poissons Ratio (x) = 0.10481 0.43080
# Poissons Ratio (y) = 0.06727 0.38198
# Poissons Ratio (z) = 0.25773 0.35603
#
# Static dielectric constant tensor:
#      x y z
#    x 4.019200 0.000000 0.000000 
#    y 0.000000 2.633520 0.000000 
#    z 0.000000 0.000000 4.311990 
# 
# 
# High freq. dielectric constant tensor:
#      x y z
#    x 1.821240 0.000000 0.000000 
#    y 0.000000 1.794130 0.000000 
#    z 0.000000 0.000000 1.872310 
# 
# From -- ./inp_files/2912.got.cif
#   From: 2010.06.25/outbox.cif.g09.slc.cpg/sg48_2_cif.got.tgz:2912.got - 2010.06.26 18:06:46.
