data_PCOD8201526
_publ_section_title
;
Structure prediction by ZEFSAII (Michael W. Deem and Ramdas Pophale) SiO2 
 PCOD8201526
Probable space group: P N N N
;
_chemical_formula_sum "Si O2"
_cell_formula_units_Z 58
_cell_length_a 9.251604
_cell_length_b 11.309810
_cell_length_c 26.278999
_cell_angle_alpha 90.000000
_cell_angle_beta 90.000000
_cell_angle_gamma 90.000000
_cell_volume 2749.673718
_symmetry_space_group_name_H-M "P N N N"
_symmetry_group_IT_number 48
_space_group.IT_coordinate_system_code '2'
_symmetry_cell_setting 'orthorhombic'
loop_
_space_group_symop_operation_xyz
x,y,z
1/2-x,1/2-y,z
x,1/2-y,1/2-z
1/2-x,y,1/2-z
-x,-y,-z
1/2+x,1/2+y,-z
-x,1/2+y,1/2+z
1/2+x,-y,1/2+z
loop_
_atom_site_type_symbol
_atom_site_label
_atom_site_fract_x
_atom_site_fract_y
_atom_site_fract_z
Si Si1 0.155455 0.413619 0.637646
Si Si2 0.159503 0.136487 0.171201
Si Si3 0.100138 0.814280 0.018941
Si Si4 0.889557 0.051766 0.690875
Si Si5 0.047314 0.443647 0.429497
Si Si6 0.103245 0.562184 0.731864
Si Si7 0.250000 0.750000 0.250000
Si Si8 0.041306 0.179338 0.607957
O O1 0.091970 0.515393 0.601926
O O2 0.164496 0.456892 0.695806
O O3 0.050335 0.299995 0.640713
O O4 0.302777 0.381865 0.608683
O O5 0.250000 0.250000 0.186363
O O6 0.150768 0.124271 0.110219
O O7 0.003753 0.146097 0.199148
O O8 0.241983 0.022686 0.193041
O O9 0.250000 0.750000 0.003772
O O10 0.010953 0.717841 0.051864
O O11 0.002175 0.845626 0.970233
O O12 0.127617 0.940624 0.047076
O O13 0.859042 0.175010 0.716714
O O14 0.931735 0.084609 0.632827
O O15 0.021199 0.985709 0.718438
O O16 0.250000 0.630037 0.750000
#
# Coordination Sequence:
#
# PCOD8201526 Si02
#       8
#     8   8   8   8   8   8   2   8
#     4   9  19  37  59  91 135 168 206 268 328 393
#     4  11  25  47  65  90 133 181 225 273 323 394
#     4  10  20  39  65  95 125 165 216 279 348 400
#     4  12  23  38  65 100 135 173 219 271 328 403
#     4   9  21  42  63  89 125 170 218 276 332 397
#     4  11  21  41  65  96 130 170 218 262 326 388
#     4  12  24  36  60 104 136 172 214 270 328 400
#     4  10  20  34  61  95 130 168 208 270 337 401
#
# _framework density 21.093411
#
# number of rings (size 3 to 8) (size 9 to 14) (size 15 to 20)
#    0.000    1.655    2.759    1.655    4.828    1.103 
#    9.931    2.069    0.000    0.000    0.000    0.000 
#    0.000    0.000    0.000    0.000    0.000    0.000 
#
# Total GULP energy -718836.729126 kJ/mol
# GULP energy per Si atom -12393.736709 kJ/mol
# Density = 2.104540 g / cm^3
# Si number density = 21.093411 Si / 1000 Ang^3
#
#
#
# Elastic Constant Matrix: (Units=GPa)
#
#
# Indices 1 2 3 4 5 6 
#
# 1 116.7357 43.8416 39.4293 0.0000 0.0000 0.0000
# 2 43.8416 81.8248 36.3424 0.0000 0.0000 0.0000
# 3 39.4293 36.3424 107.8600 0.0000 0.0000 0.0000
# 4 0.0000 0.0000 0.0000 15.8960 0.0000 0.0000
# 5 0.0000 0.0000 0.0000 0.0000 27.3771 0.0000
# 6 0.0000 0.0000 0.0000 0.0000 0.0000 29.5807
#
#
#
# Elastic Compliance Matrix: (Units=1/GPa)
#
#
# Indices 1 2 3 4 5 6 
#
# 1 0.011248 -0.004940 -0.002448 0.000000 0.000000 0.000000
# 2 -0.004940 0.016541 -0.003768 0.000000 0.000000 0.000000
# 3 -0.002448 -0.003768 0.011435 0.000000 0.000000 0.000000
# 4 0.000000 0.000000 0.000000 0.062909 0.000000 0.000000
# 5 0.000000 0.000000 0.000000 0.000000 0.036527 0.000000
# 6 0.000000 0.000000 0.000000 0.000000 0.000000 0.033806
#
#
# Mechanical properties :
#
#
# Convention : Reuss Voigt Hill
#
# Bulk Modulus (GPa) = 59.11838 60.62745 59.87292
# Shear Modulus (GPa) = 24.94825 27.02457 25.98641
#
# Velocity S-wave (km/s) = 3.44285 3.58325 3.51375
# Velocity P-wave (km/s) = 6.62511 6.77675 6.70136
#
# Compressibility (1/GPa) = 0.01691521
#
# Stress axis : x y z
#
# Youngs Moduli (GPa) = 88.90289 60.45454 87.44719
#
# Poissons Ratio (x) = 0.29863 0.21403
# Poissons Ratio (y) = 0.43916 0.32947
# Poissons Ratio (z) = 0.21759 0.22777
#
# Static dielectric constant tensor:
#      x y z
#    x 3.809090 0.000000 0.000000 
#    y 0.000000 3.691400 0.000000 
#    z 0.000000 0.000000 3.858710 
# 
# 
# High freq. dielectric constant tensor:
#      x y z
#    x 1.827920 0.000000 0.000000 
#    y 0.000000 1.811500 0.000000 
#    z 0.000000 0.000000 1.825130 
# 
# From -- ./inp_files/18948.got.cif
#   From: 2010.06.25/outbox.cif.g09.slc.cpg/sg48_10_cif.got.tgz:18948.got - 2010.06.26 18:06:46.
