data_PCOD8201714
_publ_section_title
;
Structure prediction by ZEFSAII (Michael W. Deem and Ramdas Pophale) SiO2 
 PCOD8201714
Probable space group: P N N N
;
_chemical_formula_sum "Si O2"
_cell_formula_units_Z 48
_cell_length_a 15.398858
_cell_length_b 9.793199
_cell_length_c 16.319740
_cell_angle_alpha 90.000000
_cell_angle_beta 90.000000
_cell_angle_gamma 90.000000
_cell_volume 2461.083389
_symmetry_space_group_name_H-M "P N N N"
_symmetry_group_IT_number 48
_space_group.IT_coordinate_system_code '2'
_symmetry_cell_setting 'orthorhombic'
loop_
_space_group_symop_operation_xyz
x,y,z
1/2-x,1/2-y,z
x,1/2-y,1/2-z
1/2-x,y,1/2-z
-x,-y,-z
1/2+x,1/2+y,-z
-x,1/2+y,1/2+z
1/2+x,-y,1/2+z
loop_
_atom_site_type_symbol
_atom_site_label
_atom_site_fract_x
_atom_site_fract_y
_atom_site_fract_z
Si Si1 0.040372 0.490697 0.884504
Si Si2 0.250000 0.042029 0.250000
Si Si3 0.648611 0.250129 0.152996
Si Si4 0.568916 0.410435 0.760821
Si Si5 0.588747 0.663837 0.528915
Si Si6 0.750000 0.750000 0.614250
Si Si7 0.997031 0.069561 0.087315
O O1 0.110624 0.611951 0.886571
O O2 0.011856 0.464150 0.792209
O O3 0.952303 0.527965 0.932665
O O4 0.078199 0.353707 0.929940
O O5 0.285584 0.132127 0.325863
O O6 0.164197 0.955357 0.271820
O O7 0.750000 0.250000 0.129373
O O8 0.634342 0.250000 0.250000
O O9 0.599998 0.385264 0.116673
O O10 0.568826 0.250000 0.750000
O O11 0.546089 0.465779 0.851260
O O12 0.688239 0.671959 0.551604
O O13 0.548639 0.791433 0.576185
O O14 0.000000 0.000000 0.000000
#
# Coordination Sequence:
#
# PCOD8201714 Si02
#       7
#     8   4   8   8   8   4   8
#     4  10  21  39  62  90 122 167 215 251 317 386
#     4  11  23  38  62  98 125 163 206 254 328 385
#     4  10  21  40  68  92 120 166 218 270 319 381
#     4  12  23  40  62  90 132 169 212 262 319 389
#     4  10  21  37  62  90 125 166 203 259 310 380
#     4  11  20  36  66  92 127 156 210 263 310 386
#     4  11  23  40  62  94 128 166 215 262 323 384
#
# _framework density 19.503606000000001
#
# number of rings (size 3 to 8) (size 9 to 14) (size 15 to 20)
#    0.000    1.333    5.000    1.250    0.000    1.333 
#    0.000    0.000    0.000    1.000    0.000    0.000 
#    0.000    0.000    0.000    0.000    0.000    0.000 
#
# Total GULP energy -594667.372069 kJ/mol
# GULP energy per Si atom -12388.903585 kJ/mol
# Density = 1.945921 g / cm^3
# Si number density = 19.503606 Si / 1000 Ang^3
#
#
#
# Elastic Constant Matrix: (Units=GPa)
#
#
# Indices 1 2 3 4 5 6 
#
# 1 117.9410 48.9351 52.2367 0.0000 0.0000 0.0000
# 2 48.9351 102.0454 42.0705 0.0000 0.0000 0.0000
# 3 52.2367 42.0705 124.8433 0.0000 0.0000 0.0000
# 4 0.0000 0.0000 0.0000 28.6446 0.0000 0.0000
# 5 0.0000 0.0000 0.0000 0.0000 28.0502 0.0000
# 6 0.0000 0.0000 0.0000 0.0000 0.0000 6.1516
#
#
#
# Elastic Compliance Matrix: (Units=1/GPa)
#
#
# Indices 1 2 3 4 5 6 
#
# 1 0.011777 -0.004199 -0.003513 0.000000 0.000000 0.000000
# 2 -0.004199 0.012878 -0.002583 0.000000 0.000000 0.000000
# 3 -0.003513 -0.002583 0.010350 0.000000 0.000000 0.000000
# 4 0.000000 0.000000 0.000000 0.034911 0.000000 0.000000
# 5 0.000000 0.000000 0.000000 0.000000 0.035650 0.000000
# 6 0.000000 0.000000 0.000000 0.000000 0.000000 0.162560
#
#
# Mechanical properties :
#
#
# Convention : Reuss Voigt Hill
#
# Bulk Modulus (GPa) = 69.36771 70.14602 69.75687
# Shear Modulus (GPa) = 17.03461 26.00844 21.52152
#
# Velocity S-wave (km/s) = 2.95855 3.65570 3.32545
# Velocity P-wave (km/s) = 6.87856 7.33911 7.11256
#
# Compressibility (1/GPa) = 0.01441593
#
# Stress axis : x y z
#
# Youngs Moduli (GPa) = 84.91186 77.65114 96.61782
#
# Poissons Ratio (x) = 0.32609 0.33937
# Poissons Ratio (y) = 0.35658 0.24953
# Poissons Ratio (z) = 0.29826 0.20055
#
# Static dielectric constant tensor:
#      x y z
#    x 3.600590 0.000000 0.000000 
#    y 0.000000 3.173480 0.000000 
#    z 0.000000 0.000000 3.602620 
# 
# 
# High freq. dielectric constant tensor:
#      x y z
#    x 1.755280 0.000000 0.000000 
#    y 0.000000 1.755170 0.000000 
#    z 0.000000 0.000000 1.762810 
# 
# From -- ./inp_files/12819.got.cif
#   From: 2010.06.25/outbox.cif.g09.slc.cpg/sg48_7_cif.got.tgz:12819.got - 2010.06.26 18:06:46.
