data_PCOD8201780
_publ_section_title
;
Structure prediction by ZEFSAII (Michael W. Deem and Ramdas Pophale) SiO2 
 PCOD8201780
Probable space group: P N N N
;
_chemical_formula_sum "Si O2"
_cell_formula_units_Z 64
_cell_length_a 14.214067
_cell_length_b 8.855162
_cell_length_c 24.532701
_cell_angle_alpha 90.000000
_cell_angle_beta 90.000000
_cell_angle_gamma 90.000000
_cell_volume 3087.878721
_symmetry_space_group_name_H-M "P N N N"
_symmetry_group_IT_number 48
_space_group.IT_coordinate_system_code '2'
_symmetry_cell_setting 'orthorhombic'
loop_
_space_group_symop_operation_xyz
x,y,z
1/2-x,1/2-y,z
x,1/2-y,1/2-z
1/2-x,y,1/2-z
-x,-y,-z
1/2+x,1/2+y,-z
-x,1/2+y,1/2+z
1/2+x,-y,1/2+z
loop_
_atom_site_type_symbol
_atom_site_label
_atom_site_fract_x
_atom_site_fract_y
_atom_site_fract_z
Si Si1 0.338627 0.934881 0.372907
Si Si2 0.004833 0.145477 0.404916
Si Si3 0.350315 0.058484 0.876607
Si Si4 0.127450 0.595171 0.146231
Si Si5 0.642311 0.895110 0.406833
Si Si6 0.538144 0.916264 0.227904
Si Si7 0.084812 0.095018 0.023438
Si Si8 0.490236 0.916620 0.666504
O O1 0.235602 0.954124 0.346712
O O2 0.372521 0.762772 0.378515
O O3 0.350573 0.012250 0.431983
O O4 0.404107 0.020312 0.329913
O O5 0.993233 0.239317 0.347803
O O6 0.039850 0.249099 0.454372
O O7 0.904605 0.061614 0.415993
O O8 0.082186 0.015604 0.397984
O O9 0.383178 0.228797 0.887037
O O10 0.239199 0.039222 0.882562
O O11 0.383905 0.028927 0.815003
O O12 0.067501 0.586090 0.202342
O O13 0.653184 0.880968 0.471960
O O14 0.560553 0.005522 0.385840
O O15 0.562425 0.750000 0.250000
O O16 0.553672 0.040762 0.275546
O O17 0.000000 0.000000 0.000000
#
# Coordination Sequence:
#
# PCOD8201780 Si02
#       8
#     8   8   8   8   8   8   8   8
#     4  10  21  41  62  93 131 163 214 269 319 389
#     4  10  23  42  66  93 133 168 218 267 330 387
#     4  10  24  40  63  99 127 168 219 277 310 399
#     4  10  22  39  63  98 126 167 220 266 319 397
#     4  11  22  43  62  95 133 162 226 264 327 389
#     4  11  20  40  70  92 129 177 212 260 335 382
#     4  11  23  42  66  89 126 181 211 269 343 381
#     4  11  21  39  64  92 131 174 204 272 316 389
#
# _framework density 20.726202000000001
#
# number of rings (size 3 to 8) (size 9 to 14) (size 15 to 20)
#    0.000    1.500    5.000    0.750    0.000    8.000 
#    4.500    0.000    0.000    9.000    0.000    0.000 
#    0.000    0.000    0.000    0.000    0.000    0.000 
#
# Total GULP energy -793269.807853 kJ/mol
# GULP energy per Si atom -12394.840748 kJ/mol
# Density = 2.067903 g / cm^3
# Si number density = 20.726202 Si / 1000 Ang^3
#
#
#
# Elastic Constant Matrix: (Units=GPa)
#
#
# Indices 1 2 3 4 5 6 
#
# 1 98.4841 41.6500 27.9653 0.0000 0.0000 0.0000
# 2 41.6500 91.6031 16.2982 0.0000 0.0000 0.0000
# 3 27.9653 16.2982 117.5030 0.0000 0.0000 0.0000
# 4 0.0000 0.0000 0.0000 29.8655 0.0000 0.0000
# 5 0.0000 0.0000 0.0000 0.0000 22.2148 0.0000
# 6 0.0000 0.0000 0.0000 0.0000 0.0000 26.0968
#
#
#
# Elastic Compliance Matrix: (Units=1/GPa)
#
#
# Indices 1 2 3 4 5 6 
#
# 1 0.013182 -0.005573 -0.002364 0.000000 0.000000 0.000000
# 2 -0.005573 0.013549 -0.000553 0.000000 0.000000 0.000000
# 3 -0.002364 -0.000553 0.009150 0.000000 0.000000 0.000000
# 4 0.000000 0.000000 0.000000 0.033483 0.000000 0.000000
# 5 0.000000 0.000000 0.000000 0.000000 0.045015 0.000000
# 6 0.000000 0.000000 0.000000 0.000000 0.000000 0.038319
#
#
# Mechanical properties :
#
#
# Convention : Reuss Voigt Hill
#
# Bulk Modulus (GPa) = 52.90881 53.26858 53.08869
# Shear Modulus (GPa) = 28.41249 30.41387 29.41318
#
# Velocity S-wave (km/s) = 3.70651 3.83484 3.77122
# Velocity P-wave (km/s) = 6.62575 6.73534 6.68077
#
# Compressibility (1/GPa) = 0.01890044
#
# Stress axis : x y z
#
# Youngs Moduli (GPa) = 75.86004 73.80636 109.29180
#
# Poissons Ratio (x) = 0.41132 0.25840
# Poissons Ratio (y) = 0.42277 0.06043
# Poissons Ratio (z) = 0.17936 0.04081
#
# Static dielectric constant tensor:
#      x y z
#    x 3.762310 0.000000 0.000000 
#    y 0.000000 3.867570 0.000000 
#    z 0.000000 0.000000 3.919720 
# 
# 
# High freq. dielectric constant tensor:
#      x y z
#    x 1.809600 0.000000 0.000000 
#    y 0.000000 1.819250 0.000000 
#    z 0.000000 0.000000 1.801400 
# 
# From -- ./inp_files/36560.got.cif
#   From: 2010.06.25/outbox.cif.g09.slc.cpg/sg48_19_cif.got.tgz:36560.got - 2010.06.26 18:06:46.
