data_PCOD8201716
_publ_section_title
;
Structure prediction by ZEFSAII (Michael W. Deem and Ramdas Pophale) SiO2 
 PCOD8201716
Probable space group: P N N N
;
_chemical_formula_sum "Si O2"
_cell_formula_units_Z 56
_cell_length_a 22.713282
_cell_length_b 8.604289
_cell_length_c 14.129238
_cell_angle_alpha 90.000000
_cell_angle_beta 90.000000
_cell_angle_gamma 90.000000
_cell_volume 2761.300189
_symmetry_space_group_name_H-M "P N N N"
_symmetry_group_IT_number 48
_space_group.IT_coordinate_system_code '2'
_symmetry_cell_setting 'orthorhombic'
loop_
_space_group_symop_operation_xyz
x,y,z
1/2-x,1/2-y,z
x,1/2-y,1/2-z
1/2-x,y,1/2-z
-x,-y,-z
1/2+x,1/2+y,-z
-x,1/2+y,1/2+z
1/2+x,-y,1/2+z
loop_
_atom_site_type_symbol
_atom_site_label
_atom_site_fract_x
_atom_site_fract_y
_atom_site_fract_z
Si Si1 0.544585 0.132692 0.970766
Si Si2 0.914513 0.165391 0.153017
Si Si3 0.257560 0.070325 0.464214
Si Si4 0.278030 0.589548 0.849847
Si Si5 0.367903 0.417203 0.148022
Si Si6 0.858181 0.560982 0.865685
Si Si7 0.491108 0.561534 0.102888
O O1 0.509255 0.251326 0.901958
O O2 0.592849 0.055218 0.903868
O O3 0.571684 0.223548 0.062352
O O4 0.500000 0.000000 0.000000
O O5 0.929629 0.250000 0.250000
O O6 0.847792 0.107822 0.154572
O O7 0.954514 0.009880 0.160912
O O8 0.250000 0.250000 0.441841
O O9 0.317901 0.004904 0.418189
O O10 0.200332 0.995305 0.416472
O O11 0.259399 0.041692 0.576089
O O12 0.250000 0.750000 0.885036
O O13 0.250000 0.539701 0.750000
O O14 0.376537 0.239471 0.112561
O O15 0.346189 0.442285 0.254307
O O16 0.428950 0.505267 0.141815
O O17 0.500000 0.500000 0.000000
#
# Coordination Sequence:
#
# PCOD8201716 Si02
#       7
#     8   8   8   8   8   8   8
#     4  11  24  41  62  93 129 164 215 267 325 390
#     4  11  23  42  68  91 125 171 214 266 330 396
#     4  10  21  38  63  91 126 162 211 264 315 380
#     4  11  22  41  65  90 119 165 216 261 321 389
#     4  10  21  39  62  91 128 168 207 252 325 383
#     4  10  21  37  63  92 125 167 207 260 314 389
#     4  10  22  39  63  89 123 165 207 257 319 384
#
# _framework density 20.2803
#
# number of rings (size 3 to 8) (size 9 to 14) (size 15 to 20)
#    0.000    1.571    1.429    4.714    4.000    3.714 
#    0.000    0.000    3.143    2.571    0.000    0.000 
#    0.000    0.000    0.000    0.000    0.000    0.000 
#
# Total GULP energy -694091.113311 kJ/mol
# GULP energy per Si atom -12394.484166 kJ/mol
# Density = 2.023414 g / cm^3
# Si number density = 20.280300 Si / 1000 Ang^3
#
#
#
# Elastic Constant Matrix: (Units=GPa)
#
#
# Indices 1 2 3 4 5 6 
#
# 1 166.0576 65.2326 47.1380 0.0000 0.0000 0.0000
# 2 65.2326 96.1968 42.5018 0.0000 0.0000 0.0000
# 3 47.1380 42.5018 111.1012 0.0000 0.0000 0.0000
# 4 0.0000 0.0000 0.0000 33.6856 0.0000 0.0000
# 5 0.0000 0.0000 0.0000 0.0000 92.3801 0.0000
# 6 0.0000 0.0000 0.0000 0.0000 0.0000 22.7743
#
#
#
# Elastic Compliance Matrix: (Units=1/GPa)
#
#
# Indices 1 2 3 4 5 6 
#
# 1 0.008461 -0.004996 -0.001679 0.000000 0.000000 0.000000
# 2 -0.004996 0.015460 -0.003794 0.000000 0.000000 0.000000
# 3 -0.001679 -0.003794 0.011165 0.000000 0.000000 0.000000
# 4 0.000000 0.000000 0.000000 0.029686 0.000000 0.000000
# 5 0.000000 0.000000 0.000000 0.000000 0.010825 0.000000
# 6 0.000000 0.000000 0.000000 0.000000 0.000000 0.043909
#
#
# Mechanical properties :
#
#
# Convention : Reuss Voigt Hill
#
# Bulk Modulus (GPa) = 70.68504 75.90005 73.29255
# Shear Modulus (GPa) = 34.44492 44.33356 39.38924
#
# Velocity S-wave (km/s) = 4.12569 4.68058 4.41187
# Velocity P-wave (km/s) = 7.59110 8.16806 7.88486
#
# Compressibility (1/GPa) = 0.01414727
#
# Stress axis : x y z
#
# Youngs Moduli (GPa) = 118.18818 64.68455 89.56895
#
# Poissons Ratio (x) = 0.32316 0.15036
# Poissons Ratio (y) = 0.59046 0.33986
# Poissons Ratio (z) = 0.19840 0.24544
#
# Static dielectric constant tensor:
#      x y z
#    x 4.136990 0.000000 0.000000 
#    y 0.000000 4.326920 0.000000 
#    z 0.000000 0.000000 3.816240 
# 
# 
# High freq. dielectric constant tensor:
#      x y z
#    x 1.808790 0.000000 0.000000 
#    y 0.000000 1.781770 0.000000 
#    z 0.000000 0.000000 1.797790 
# 
# From -- ./inp_files/28334.got.cif
#   From: 2010.06.25/outbox.cif.g09.slc.cpg/sg48_15_cif.got.tgz:28334.got - 2010.06.26 18:06:46.
