data_PCOD8201470
_publ_section_title
;
Structure prediction by ZEFSAII (Michael W. Deem and Ramdas Pophale) SiO2 
 PCOD8201470
Probable space group: P N N N
;
_chemical_formula_sum "Si O2"
_cell_formula_units_Z 44
_cell_length_a 10.311185
_cell_length_b 19.187670
_cell_length_c 12.227683
_cell_angle_alpha 90.000000
_cell_angle_beta 90.000000
_cell_angle_gamma 90.000000
_cell_volume 2419.217920
_symmetry_space_group_name_H-M "P N N N"
_symmetry_group_IT_number 48
_space_group.IT_coordinate_system_code '2'
_symmetry_cell_setting 'orthorhombic'
loop_
_space_group_symop_operation_xyz
x,y,z
1/2-x,1/2-y,z
x,1/2-y,1/2-z
1/2-x,y,1/2-z
-x,-y,-z
1/2+x,1/2+y,-z
-x,1/2+y,1/2+z
1/2+x,-y,1/2+z
loop_
_atom_site_type_symbol
_atom_site_label
_atom_site_fract_x
_atom_site_fract_y
_atom_site_fract_z
Si Si1 0.617718 0.446297 0.378823
Si Si2 0.123418 0.337135 0.439614
Si Si3 0.750000 0.750000 0.750000
Si Si4 0.750000 0.250000 0.250000
Si Si5 0.869784 0.119217 0.146253
Si Si6 0.899768 0.736499 0.133305
Si Si7 0.616340 0.595978 0.473187
O O1 0.613357 0.430450 0.250889
O O2 0.748319 0.409080 0.426028
O O3 0.629991 0.528435 0.398003
O O4 0.487782 0.415582 0.431605
O O5 0.158728 0.295794 0.328839
O O6 0.064349 0.286206 0.532246
O O7 0.245641 0.382956 0.475729
O O8 0.003663 0.388554 0.418365
O O9 0.842453 0.200095 0.177520
O O10 0.750000 0.750000 0.152475
O O11 0.972000 0.750000 0.250000
O O12 0.934588 0.657436 0.103848
#
# Coordination Sequence:
#
# PCOD8201470 Si02
#       7
#     8   8   2   2   8   8   8
#     4   9  21  36  54  77 115 153 183 216 287 354
#     4  11  21  32  60  88 115 137 186 253 277 328
#     4  12  18  32  54  98 114 132 176 250 306 312
#     4   8  18  32  52  78 124 148 162 234 286 370
#     4  10  21  34  54  89 109 148 187 231 292 335
#     4   9  19  34  54  82 106 146 188 222 278 327
#     4  10  19  38  55  77 111 154 183 231 274 335
#
# _framework density 18.187697
#
# number of rings (size 3 to 8) (size 9 to 14) (size 15 to 20)
#    0.000    2.364    2.727    1.636    5.091    6.545 
#    0.000    0.000    0.000    4.364    0.000    0.000 
#    0.000    0.000    0.000    0.000    0.000    0.000 
#
# Total GULP energy -545197.689146 kJ/mol
# GULP energy per Si atom -12390.856571 kJ/mol
# Density = 1.814630 g / cm^3
# Si number density = 18.187697 Si / 1000 Ang^3
#
#
#
# Elastic Constant Matrix: (Units=GPa)
#
#
# Indices 1 2 3 4 5 6 
#
# 1 113.0547 55.9280 39.2040 0.0000 0.0000 0.0000
# 2 55.9280 131.0908 51.6242 0.0000 0.0000 0.0000
# 3 39.2040 51.6242 100.4105 0.0000 0.0000 0.0000
# 4 0.0000 0.0000 0.0000 13.8988 0.0000 0.0000
# 5 0.0000 0.0000 0.0000 0.0000 3.4843 0.0000
# 6 0.0000 0.0000 0.0000 0.0000 0.0000 10.4259
#
#
#
# Elastic Compliance Matrix: (Units=1/GPa)
#
#
# Indices 1 2 3 4 5 6 
#
# 1 0.011695 -0.004001 -0.002509 0.000000 0.000000 0.000000
# 2 -0.004001 0.010934 -0.004059 0.000000 0.000000 0.000000
# 3 -0.002509 -0.004059 0.013026 0.000000 0.000000 0.000000
# 4 0.000000 0.000000 0.000000 0.071949 0.000000 0.000000
# 5 0.000000 0.000000 0.000000 0.000000 0.287000 0.000000
# 6 0.000000 0.000000 0.000000 0.000000 0.000000 0.095915
#
#
# Mechanical properties :
#
#
# Convention : Reuss Voigt Hill
#
# Bulk Modulus (GPa) = 68.89195 70.89650 69.89423
# Shear Modulus (GPa) = 9.68063 18.74845 14.21454
#
# Velocity S-wave (km/s) = 2.30958 3.21414 2.79865
# Velocity P-wave (km/s) = 6.71363 7.26907 6.99686
#
# Compressibility (1/GPa) = 0.01451548
#
# Stress axis : x y z
#
# Youngs Moduli (GPa) = 85.50845 91.45794 76.77171
#
# Poissons Ratio (x) = 0.36596 0.19261
# Poissons Ratio (y) = 0.34215 0.31163
# Poissons Ratio (z) = 0.21453 0.37125
#
# Static dielectric constant tensor:
#      x y z
#    x 3.460170 0.000000 0.000000 
#    y 0.000000 3.382910 0.000000 
#    z 0.000000 0.000000 4.086040 
# 
# 
# High freq. dielectric constant tensor:
#      x y z
#    x 1.698190 0.000000 0.000000 
#    y 0.000000 1.705100 0.000000 
#    z 0.000000 0.000000 1.695440 
# 
# From -- ./inp_files/20028.got.cif
#   From: 2010.06.25/outbox.cif.g09.slc.cpg/sg48_11_cif.got.tgz:20028.got - 2010.06.26 18:06:46.
