data_PCOD8201918
_publ_section_title
;
Structure prediction by ZEFSAII (Michael W. Deem and Ramdas Pophale) SiO2 
 PCOD8201918
Probable space group: P N N N
;
_chemical_formula_sum "Si O2"
_cell_formula_units_Z 32
_cell_length_a 7.713189
_cell_length_b 34.410037
_cell_length_c 5.139519
_cell_angle_alpha 90.000000
_cell_angle_beta 90.000000
_cell_angle_gamma 90.000000
_cell_volume 1364.085488
_symmetry_space_group_name_H-M "P N N N"
_symmetry_group_IT_number 48
_space_group.IT_coordinate_system_code '2'
_symmetry_cell_setting 'orthorhombic'
loop_
_space_group_symop_operation_xyz
x,y,z
1/2-x,1/2-y,z
x,1/2-y,1/2-z
1/2-x,y,1/2-z
-x,-y,-z
1/2+x,1/2+y,-z
-x,1/2+y,1/2+z
1/2+x,-y,1/2+z
loop_
_atom_site_type_symbol
_atom_site_label
_atom_site_fract_x
_atom_site_fract_y
_atom_site_fract_z
Si Si1 0.941275 0.109981 0.817512
Si Si2 0.950913 0.975511 0.245990
Si Si3 0.437867 0.150861 0.157850
Si Si4 0.443601 0.732536 0.505210
O O1 0.750000 0.125243 0.750000
O O2 0.941026 0.063636 0.797432
O O3 0.077958 0.123666 0.596090
O O4 0.979174 0.126731 0.104718
O O5 0.750000 0.964688 0.250000
O O6 0.000000 0.000000 0.500000
O O7 0.000000 0.000000 0.000000
O O8 0.250000 0.165619 0.250000
O O9 0.554908 0.186281 0.046276
O O10 0.250000 0.750000 0.501037
O O11 0.546818 0.750000 0.750000
O O12 0.538989 0.750000 0.250000
#
# Coordination Sequence:
#
# PCOD8201918 Si02
#       4
#     8   8   8   8
#     4  12  27  45  73 106 143 194 243 289 366 432
#     4  12  25  46  73 105 149 190 241 296 354 429
#     4  12  26  46  71 106 145 184 238 310 364 425
#     4  10  23  41  70  97 133 177 237 280 365 418
#
# _framework density 23.458942
#
# number of rings (size 3 to 8) (size 9 to 14) (size 15 to 20)
#    0.000    0.500    0.000    8.250   10.500    0.500 
#    0.000    1.250    0.000    0.000    0.000    0.000 
#    0.000    0.000    0.000    0.000    0.000    0.000 
#
# Total GULP energy -396549.428008 kJ/mol
# GULP energy per Si atom -12392.169625 kJ/mol
# Density = 2.340555 g / cm^3
# Si number density = 23.458942 Si / 1000 Ang^3
#
#
#
# Elastic Constant Matrix: (Units=GPa)
#
#
# Indices 1 2 3 4 5 6 
#
# 1 82.6024 22.3805 10.0901 0.0000 0.0000 0.0000
# 2 22.3805 186.9034 92.8453 0.0000 0.0000 0.0000
# 3 10.0901 92.8453 235.5610 0.0000 0.0000 0.0000
# 4 0.0000 0.0000 0.0000 64.6218 0.0000 0.0000
# 5 0.0000 0.0000 0.0000 0.0000 30.6978 0.0000
# 6 0.0000 0.0000 0.0000 0.0000 0.0000 32.3998
#
#
#
# Elastic Compliance Matrix: (Units=1/GPa)
#
#
# Indices 1 2 3 4 5 6 
#
# 1 0.012513 -0.001532 0.000068 0.000000 0.000000 0.000000
# 2 -0.001532 0.006841 -0.002631 0.000000 0.000000 0.000000
# 3 0.000068 -0.002631 0.005279 0.000000 0.000000 0.000000
# 4 0.000000 0.000000 0.000000 0.015475 0.000000 0.000000
# 5 0.000000 0.000000 0.000000 0.000000 0.032576 0.000000
# 6 0.000000 0.000000 0.000000 0.000000 0.000000 0.030864
#
#
# Mechanical properties :
#
#
# Convention : Reuss Voigt Hill
#
# Bulk Modulus (GPa) = 60.81556 83.96651 72.39103
# Shear Modulus (GPa) = 42.65561 50.86060 46.75811
#
# Velocity S-wave (km/s) = 4.26879 4.66130 4.46936
# Velocity P-wave (km/s) = 7.09065 8.05239 7.58677
#
# Compressibility (1/GPa) = 0.01644316
#
# Stress axis : x y z
#
# Youngs Moduli (GPa) = 79.91689 146.18703 189.42631
#
# Poissons Ratio (x) = 0.22397 -0.01286
# Poissons Ratio (y) = 0.12244 0.49830
# Poissons Ratio (z) = -0.00542 0.38455
#
# Static dielectric constant tensor:
#      x y z
#    x 4.051190 0.000000 0.000000 
#    y 0.000000 4.448270 0.000000 
#    z 0.000000 0.000000 2.771860 
# 
# 
# High freq. dielectric constant tensor:
#      x y z
#    x 1.917910 0.000000 0.000000 
#    y 0.000000 1.939970 0.000000 
#    z 0.000000 0.000000 1.961720 
# 
# From -- ./inp_files/1030.got.cif
#   From: 2010.06.25/outbox.cif.g09.slc.cpg/sg48_1_cif.got.tgz:1030.got - 2010.06.26 18:06:46.
