data_PCOD8201925
_publ_section_title
;
Structure prediction by ZEFSAII (Michael W. Deem and Ramdas Pophale) SiO2 
 PCOD8201925
Probable space group: P N N N
;
_chemical_formula_sum "Si O2"
_cell_formula_units_Z 64
_cell_length_a 11.832088
_cell_length_b 14.615000
_cell_length_c 17.337001
_cell_angle_alpha 90.000000
_cell_angle_beta 90.000000
_cell_angle_gamma 90.000000
_cell_volume 2998.017648
_symmetry_space_group_name_H-M "P N N N"
_symmetry_group_IT_number 48
_space_group.IT_coordinate_system_code '2'
_symmetry_cell_setting 'orthorhombic'
loop_
_space_group_symop_operation_xyz
x,y,z
1/2-x,1/2-y,z
x,1/2-y,1/2-z
1/2-x,y,1/2-z
-x,-y,-z
1/2+x,1/2+y,-z
-x,1/2+y,1/2+z
1/2+x,-y,1/2+z
loop_
_atom_site_type_symbol
_atom_site_label
_atom_site_fract_x
_atom_site_fract_y
_atom_site_fract_z
Si Si1 0.617454 0.648359 0.259427
Si Si2 0.470250 0.909064 0.858959
Si Si3 0.967892 0.470123 0.309119
Si Si4 0.287792 0.650274 0.439285
Si Si5 0.335055 0.164925 0.065219
Si Si6 0.035693 0.095231 0.573032
Si Si7 0.228745 0.643280 0.610006
Si Si8 0.785302 0.988980 0.838411
O O1 0.563904 0.750000 0.250000
O O2 0.750000 0.655384 0.250000
O O3 0.578454 0.574152 0.195373
O O4 0.577152 0.612858 0.341028
O O5 0.510577 0.934854 0.773987
O O6 0.542577 0.820661 0.890526
O O7 0.336699 0.900443 0.849457
O O8 0.492080 0.986045 0.926351
O O9 0.881580 0.399216 0.349466
O O10 0.082957 0.473701 0.357461
O O11 0.250000 0.750000 0.413993
O O12 0.423198 0.649891 0.451205
O O13 0.226108 0.620970 0.518944
O O14 0.251762 0.587431 0.368779
O O15 0.250000 0.250000 0.063771
O O16 0.279694 0.085982 0.113995
O O17 0.359651 0.129709 0.979029
O O18 0.250000 0.750000 0.624451
O O19 0.750000 0.982924 0.750000
#
# Coordination Sequence:
#
# PCOD8201925 Si02
#       8
#     8   8   8   8   8   8   8   8
#     4  10  23  42  68 104 136 176 230 289 345 412
#     4  11  21  46  70  93 133 186 235 274 340 425
#     4  11  24  42  68  98 143 179 226 295 349 407
#     4  11  25  44  71 100 139 180 235 288 345 428
#     4  12  26  41  71 104 131 181 232 285 346 416
#     4  11  22  46  72  94 135 187 231 277 348 429
#     4  11  25  44  68 102 132 183 238 283 348 415
#     4  12  25  47  66 103 138 181 231 289 356 418
#
# _framework density 21.347438
#
# number of rings (size 3 to 8) (size 9 to 14) (size 15 to 20)
#    0.000    0.875    3.750    3.750    5.250    2.000 
#    0.000    0.000    0.000    0.000    0.000    0.000 
#    0.000    0.000    0.000    0.000    0.000    0.000 
#
# Total GULP energy -793293.778251 kJ/mol
# GULP energy per Si atom -12395.215285 kJ/mol
# Density = 2.129885 g / cm^3
# Si number density = 21.347438 Si / 1000 Ang^3
#
#
#
# Elastic Constant Matrix: (Units=GPa)
#
#
# Indices 1 2 3 4 5 6 
#
# 1 129.8169 61.1516 61.2254 0.0000 0.0000 0.0000
# 2 61.1516 107.6507 38.0546 0.0000 0.0000 0.0000
# 3 61.2254 38.0546 68.3557 0.0000 0.0000 0.0000
# 4 0.0000 0.0000 0.0000 74.4253 0.0000 0.0000
# 5 0.0000 0.0000 0.0000 0.0000 28.0020 0.0000
# 6 0.0000 0.0000 0.0000 0.0000 0.0000 41.8651
#
#
#
# Elastic Compliance Matrix: (Units=1/GPa)
#
#
# Indices 1 2 3 4 5 6 
#
# 1 0.015036 -0.004707 -0.010848 0.000000 0.000000 0.000000
# 2 -0.004707 0.013039 -0.003043 0.000000 0.000000 0.000000
# 3 -0.010848 -0.003043 0.026039 0.000000 0.000000 0.000000
# 4 0.000000 0.000000 0.000000 0.013436 0.000000 0.000000
# 5 0.000000 0.000000 0.000000 0.000000 0.035712 0.000000
# 6 0.000000 0.000000 0.000000 0.000000 0.000000 0.023886
#
#
# Mechanical properties :
#
#
# Convention : Reuss Voigt Hill
#
# Bulk Modulus (GPa) = 59.10229 69.63184 64.36707
# Shear Modulus (GPa) = 29.41460 38.55126 33.98293
#
# Velocity S-wave (km/s) = 3.71603 4.25419 3.99419
# Velocity P-wave (km/s) = 6.79396 7.53791 7.17558
#
# Compressibility (1/GPa) = 0.01691982
#
# Stress axis : x y z
#
# Youngs Moduli (GPa) = 66.50522 76.69434 38.40334
#
# Poissons Ratio (x) = 0.36099 0.41658
# Poissons Ratio (y) = 0.31303 0.11686
# Poissons Ratio (z) = 0.72142 0.23338
#
# Static dielectric constant tensor:
#      x y z
#    x 3.878570 0.000000 0.000000 
#    y 0.000000 4.155010 0.000000 
#    z 0.000000 0.000000 3.949910 
# 
# 
# High freq. dielectric constant tensor:
#      x y z
#    x 1.851610 0.000000 0.000000 
#    y 0.000000 1.833210 0.000000 
#    z 0.000000 0.000000 1.843320 
# 
# From -- ./inp_files/31173.got.cif
#   From: 2010.06.25/outbox.cif.g09.slc.cpg/sg48_16_cif.got.tgz:31173.got - 2010.06.26 18:06:46.
