data_PCOD8201680
_publ_section_title
;
Structure prediction by ZEFSAII (Michael W. Deem and Ramdas Pophale) SiO2 
 PCOD8201680
Probable space group: P N N N
;
_chemical_formula_sum "Si O2"
_cell_formula_units_Z 48
_cell_length_a 15.171419
_cell_length_b 9.652713
_cell_length_c 18.040286
_cell_angle_alpha 90.000000
_cell_angle_beta 90.000000
_cell_angle_gamma 90.000000
_cell_volume 2641.916059
_symmetry_space_group_name_H-M "P N N N"
_symmetry_group_IT_number 48
_space_group.IT_coordinate_system_code '2'
_symmetry_cell_setting 'orthorhombic'
loop_
_space_group_symop_operation_xyz
x,y,z
1/2-x,1/2-y,z
x,1/2-y,1/2-z
1/2-x,y,1/2-z
-x,-y,-z
1/2+x,1/2+y,-z
-x,1/2+y,1/2+z
1/2+x,-y,1/2+z
loop_
_atom_site_type_symbol
_atom_site_label
_atom_site_fract_x
_atom_site_fract_y
_atom_site_fract_z
Si Si1 0.168365 0.340479 0.431498
Si Si2 0.168365 0.840479 0.068502
Si Si3 0.012934 0.661409 0.321402
Si Si4 0.667868 0.839647 0.397646
Si Si5 0.832132 0.339647 0.397646
Si Si6 0.987066 0.838591 0.821402
O O1 0.250000 0.250000 0.402374
O O2 0.194594 0.500000 0.420762
O O3 0.146836 0.306587 0.516800
O O4 0.082101 0.301269 0.385382
O O5 0.250000 0.750000 0.097626
O O6 0.082101 0.801269 0.114617
O O7 0.146836 0.806587 0.983200
O O8 0.037727 0.750000 0.250000
O O9 0.017105 0.500000 0.300787
O O10 0.916563 0.703800 0.349999
O O11 0.750000 0.750000 0.368667
O O12 0.691693 1.000000 0.386563
O O13 0.750000 0.250000 0.368666
O O14 0.916563 0.296200 0.349999
O O15 0.962273 0.750000 0.750000
#
# Coordination Sequence:
#
# PCOD8201680 Si02
#       6
#     8   8   8   8   8   8
#     4   9  18  34  55  76  98 128 167 208 248 291
#     4   9  18  34  55  76  98 128 167 208 248 291
#     4  10  21  35  51  73 103 136 166 200 246 298
#     4   9  18  34  55  76  98 128 167 208 248 291
#     4   9  18  34  55  76  98 128 167 208 248 291
#     4  10  21  35  51  73 103 136 166 200 246 298
#
# _framework density 18.168633
#
# number of rings (size 3 to 8) (size 9 to 14) (size 15 to 20)
#    0.000    2.667    0.000    1.000    0.000    8.000 
#    0.000    6.667    0.000   10.000    0.000    0.000 
#    0.000    0.000    0.000    0.000    0.000    0.000 
#
# Total GULP energy -595362.710548 kJ/mol
# GULP energy per Si atom -12403.389803 kJ/mol
# Density = 1.812728 g / cm^3
# Si number density = 18.168633 Si / 1000 Ang^3
#
#
#
# Elastic Constant Matrix: (Units=GPa)
#
#
# Indices 1 2 3 4 5 6 
#
# 1 78.1645 35.0665 9.4052 0.0000 0.0000 0.0000
# 2 35.0665 48.2906 21.4457 0.0000 0.0000 0.0000
# 3 9.4052 21.4457 39.2978 0.0000 0.0000 0.0000
# 4 0.0000 0.0000 0.0000 22.5526 0.0000 0.0000
# 5 0.0000 0.0000 0.0000 0.0000 12.2027 0.0000
# 6 0.0000 0.0000 0.0000 0.0000 0.0000 36.0235
#
#
#
# Elastic Compliance Matrix: (Units=1/GPa)
#
#
# Indices 1 2 3 4 5 6 
#
# 1 0.019446 -0.015910 0.004028 0.000000 0.000000 0.000000
# 2 -0.015910 0.040349 -0.018211 0.000000 0.000000 0.000000
# 3 0.004028 -0.018211 0.034421 0.000000 0.000000 0.000000
# 4 0.000000 0.000000 0.000000 0.044341 0.000000 0.000000
# 5 0.000000 0.000000 0.000000 0.000000 0.081949 0.000000
# 6 0.000000 0.000000 0.000000 0.000000 0.000000 0.027760
#
#
# Mechanical properties :
#
#
# Convention : Reuss Voigt Hill
#
# Bulk Modulus (GPa) = 29.38596 33.06529 31.22562
# Shear Modulus (GPa) = 15.63500 20.81146 18.22323
#
# Velocity S-wave (km/s) = 2.93669 3.38814 3.17046
# Velocity P-wave (km/s) = 5.26384 5.79177 5.53410
#
# Compressibility (1/GPa) = 0.03402985
#
# Stress axis : x y z
#
# Youngs Moduli (GPa) = 51.42320 24.78389 29.05203
#
# Poissons Ratio (x) = 0.39431 -0.11703
# Poissons Ratio (y) = 0.81815 0.52908
# Poissons Ratio (z) = -0.20715 0.45135
#
# Static dielectric constant tensor:
#      x y z
#    x 3.447130 0.000000 0.000000 
#    y 0.000000 3.345940 0.000000 
#    z 0.000000 0.000000 3.242560 
# 
# 
# High freq. dielectric constant tensor:
#      x y z
#    x 1.711110 0.000000 0.000000 
#    y 0.000000 1.698650 0.000000 
#    z 0.000000 0.000000 1.698530 
# 
# From -- ./inp_files/12749.got.cif
#   From: 2010.06.25/outbox.cif.g09.slc.cpg/sg48_7_cif.got.tgz:12749.got - 2010.06.26 18:06:46.
