data_PCOD8201748
_publ_section_title
;
Structure prediction by ZEFSAII (Michael W. Deem and Ramdas Pophale) SiO2 
 PCOD8201748
Probable space group: P N N N
;
_chemical_formula_sum "Si O2"
_cell_formula_units_Z 58
_cell_length_a 17.165930
_cell_length_b 8.602283
_cell_length_c 18.831591
_cell_angle_alpha 90.000000
_cell_angle_beta 90.000000
_cell_angle_gamma 90.000000
_cell_volume 2780.789254
_symmetry_space_group_name_H-M "P N N N"
_symmetry_group_IT_number 48
_space_group.IT_coordinate_system_code '2'
_symmetry_cell_setting 'orthorhombic'
loop_
_space_group_symop_operation_xyz
x,y,z
1/2-x,1/2-y,z
x,1/2-y,1/2-z
1/2-x,y,1/2-z
-x,-y,-z
1/2+x,1/2+y,-z
-x,1/2+y,1/2+z
1/2+x,-y,1/2+z
loop_
_atom_site_type_symbol
_atom_site_label
_atom_site_fract_x
_atom_site_fract_y
_atom_site_fract_z
Si Si1 0.464498 0.426506 0.570654
Si Si2 0.730330 0.077240 0.883458
Si Si3 0.617861 0.583248 0.834691
Si Si4 0.418085 0.071615 0.171391
Si Si5 0.194931 0.937953 0.547553
Si Si6 0.250000 0.750000 0.750000
Si Si7 0.662379 0.115051 0.377551
Si Si8 0.010831 0.437401 0.578143
O O1 0.500000 0.500000 0.500000
O O2 0.498524 0.517414 0.639601
O O3 0.372009 0.439901 0.564714
O O4 0.479385 0.245431 0.577224
O O5 0.750000 0.250000 0.859654
O O6 0.791239 0.958721 0.845727
O O7 0.644823 0.050708 0.854246
O O8 0.725211 0.060058 0.967486
O O9 0.603971 0.759647 0.860050
O O10 0.583614 0.568958 0.755919
O O11 0.570036 0.465046 0.882562
O O12 0.269765 0.995607 0.591865
O O13 0.163098 0.768794 0.572437
O O14 0.311050 0.848866 0.702871
O O15 0.579916 0.027937 0.380474
O O16 0.000000 0.500000 0.500000
#
# Coordination Sequence:
#
# PCOD8201748 Si02
#       8
#     8   8   8   8   8   2   8   8
#     4  12  24  42  65  96 128 171 214 269 330 383
#     4  12  22  39  66  95 133 170 213 264 319 385
#     4  11  26  44  65  95 128 177 217 265 328 387
#     4  11  25  45  66  91 134 173 218 266 323 395
#     4  10  21  39  64  94 129 166 211 262 321 380
#     4   8  20  40  72  94 124 176 216 266 328 400
#     4  10  21  42  66  97 128 170 219 266 325 392
#     4  12  26  41  66  96 131 166 220 273 323 390
#
# _framework density 20.857386999999999
#
# number of rings (size 3 to 8) (size 9 to 14) (size 15 to 20)
#    0.000    1.103    2.759    4.966    0.000    7.724 
#    2.483    0.000    0.000    3.310    0.000    0.000 
#    0.000    0.000    0.000    0.000    0.000    0.000 
#
# Total GULP energy -719095.756726 kJ/mol
# GULP energy per Si atom -12398.202702 kJ/mol
# Density = 2.080991 g / cm^3
# Si number density = 20.857387 Si / 1000 Ang^3
#
#
#
# Elastic Constant Matrix: (Units=GPa)
#
#
# Indices 1 2 3 4 5 6 
#
# 1 70.6495 7.1109 19.7251 0.0000 0.0000 0.0000
# 2 7.1109 105.2654 29.0655 0.0000 0.0000 0.0000
# 3 19.7251 29.0655 103.5847 0.0000 0.0000 0.0000
# 4 0.0000 0.0000 0.0000 27.2001 0.0000 0.0000
# 5 0.0000 0.0000 0.0000 0.0000 38.5171 0.0000
# 6 0.0000 0.0000 0.0000 0.0000 0.0000 42.1335
#
#
#
# Elastic Compliance Matrix: (Units=1/GPa)
#
#
# Indices 1 2 3 4 5 6 
#
# 1 0.014955 -0.000243 -0.002780 0.000000 0.000000 0.000000
# 2 -0.000243 0.010302 -0.002844 0.000000 0.000000 0.000000
# 3 -0.002780 -0.002844 0.010981 0.000000 0.000000 0.000000
# 4 0.000000 0.000000 0.000000 0.036765 0.000000 0.000000
# 5 0.000000 0.000000 0.000000 0.000000 0.025963 0.000000
# 6 0.000000 0.000000 0.000000 0.000000 0.000000 0.023734
#
#
# Mechanical properties :
#
#
# Convention : Reuss Voigt Hill
#
# Bulk Modulus (GPa) = 40.80916 43.47808 42.14362
# Shear Modulus (GPa) = 35.06297 36.47668 35.76983
#
# Velocity S-wave (km/s) = 4.10455 4.18648 4.14571
# Velocity P-wave (km/s) = 6.48624 6.65278 6.57004
#
# Compressibility (1/GPa) = 0.02450430
#
# Stress axis : x y z
#
# Youngs Moduli (GPa) = 66.86778 97.07261 91.06335
#
# Poissons Ratio (x) = 0.02356 0.25313
# Poissons Ratio (y) = 0.01623 0.25902
# Poissons Ratio (z) = 0.18587 0.27611
#
# Static dielectric constant tensor:
#      x y z
#    x -7.344530 0.000000 0.000000 
#    y 0.000000 3.735160 0.000000 
#    z 0.000000 0.000000 5.065830 
# 
# 
# High freq. dielectric constant tensor:
#      x y z
#    x 1.831480 0.000000 0.000000 
#    y 0.000000 1.811360 0.000000 
#    z 0.000000 0.000000 1.822420 
# 
# From -- ./inp_files/32018.got.cif
#   From: 2010.06.25/outbox.cif.g09.slc.cpg/sg48_17_cif.got.tgz:32018.got - 2010.06.26 18:06:46.
