data_PCOD8201206
_publ_section_title
;
Structure prediction by ZEFSAII (Michael W. Deem and Ramdas Pophale) SiO2 
 PCOD8201206
Probable space group: P M M M
;
_chemical_formula_sum "Si O2"
_cell_formula_units_Z 52
_cell_length_a 17.618145
_cell_length_b 18.594616
_cell_length_c 9.372733
_cell_angle_alpha 90.000000
_cell_angle_beta 90.000000
_cell_angle_gamma 90.000000
_cell_volume 3070.532083
_symmetry_space_group_name_H-M "P M M M"
_symmetry_group_IT_number 47
_symmetry_cell_setting 'orthorhombic'
loop_
_space_group_symop_operation_xyz
x,y,z
-x,-y,z
x,-y,-z
-x,y,-z
-x,-y,-z
x,y,-z
-x,y,z
x,-y,z
loop_
_atom_site_type_symbol
_atom_site_label
_atom_site_fract_x
_atom_site_fract_y
_atom_site_fract_z
Si Si1 0.914364 0.769722 0.333788
Si Si2 0.855016 0.077940 0.337305
Si Si3 0.500000 0.581492 0.669704
Si Si4 0.777048 0.281802 0.161320
Si Si5 0.639534 0.675514 0.664505
Si Si6 0.414164 0.162703 0.337418
Si Si7 0.718714 0.120252 0.159515
O O1 0.895383 0.758382 0.500000
O O2 0.907569 0.854690 0.292545
O O3 0.857887 0.719622 0.242818
O O4 0.000000 0.745770 0.298147
O O5 0.828725 0.089042 0.500000
O O6 0.780167 0.073217 0.241670
O O7 0.897214 0.000000 0.319528
O O8 0.500000 0.500000 0.725967
O O9 0.500000 0.586505 0.500000
O O10 0.576749 0.619935 0.725261
O O11 0.716959 0.332704 0.243760
O O12 0.744250 0.202369 0.160528
O O13 0.788985 0.310462 0.000000
O O14 0.660117 0.659378 0.500000
O O15 0.603641 0.753662 0.681885
O O16 0.400119 0.139495 0.500000
O O17 0.500000 0.148414 0.290138
O O18 0.361917 0.113304 0.237749
O O19 0.710477 0.090201 0.000000
#
# Coordination Sequence:
#
# PCOD8201206 Si02
#       7
#     8   8   4   8   8   8   8
#     4   9  17  29  45  66  90 113 139 176 222 267
#     4   9  17  29  44  60  79 107 140 170 205 256
#     4   9  16  26  43  69  99 129 160 191 218 245
#     4   9  17  28  42  61  85 115 148 182 220 260
#     4   9  15  26  43  63  88 119 154 185 214 251
#     4   9  15  24  40  60  80 103 135 175 217 258
#     4   9  17  27  39  57  79 103 134 174 217 257
#
# _framework density 16.935175000000001
#
# number of rings (size 3 to 8) (size 9 to 14) (size 15 to 20)
#    0.000    3.000    0.769    0.923    0.000    4.923 
#    0.000    1.923    0.000    1.385    0.000    7.538 
#    0.000    0.615    0.000    7.077    0.000    2.000 
#
# Total GULP energy -644515.022842 kJ/mol
# GULP energy per Si atom -12394.519670 kJ/mol
# Density = 1.689663 g / cm^3
# Si number density = 16.935175 Si / 1000 Ang^3
#
#
#
# Elastic Constant Matrix: (Units=GPa)
#
#
# Indices 1 2 3 4 5 6 
#
# 1 126.3052 25.8978 59.0354 0.0000 0.0000 0.0000
# 2 25.8978 34.7582 16.7654 0.0000 0.0000 0.0000
# 3 59.0354 16.7654 85.7508 0.0000 0.0000 0.0000
# 4 0.0000 0.0000 0.0000 8.4552 0.0000 0.0000
# 5 0.0000 0.0000 0.0000 0.0000 13.2787 0.0000
# 6 0.0000 0.0000 0.0000 0.0000 0.0000 11.8670
#
#
#
# Elastic Compliance Matrix: (Units=1/GPa)
#
#
# Indices 1 2 3 4 5 6 
#
# 1 0.012640 -0.005764 -0.007575 0.000000 0.000000 0.000000
# 2 -0.005764 0.034394 -0.002756 0.000000 0.000000 0.000000
# 3 -0.007575 -0.002756 0.017416 0.000000 0.000000 0.000000
# 4 0.000000 0.000000 0.000000 0.118270 0.000000 0.000000
# 5 0.000000 0.000000 0.000000 0.000000 0.075308 0.000000
# 6 0.000000 0.000000 0.000000 0.000000 0.000000 0.084267
#
#
# Mechanical properties :
#
#
# Convention : Reuss Voigt Hill
#
# Bulk Modulus (GPa) = 30.99893 50.02350 40.51122
# Shear Modulus (GPa) = 12.97897 16.39457 14.68677
#
# Velocity S-wave (km/s) = 2.77138 3.11477 2.94808
# Velocity P-wave (km/s) = 5.34649 6.52212 5.96335
#
# Compressibility (1/GPa) = 0.03225918
#
# Stress axis : x y z
#
# Youngs Moduli (GPa) = 79.11567 29.07459 57.41981
#
# Poissons Ratio (x) = 0.16758 0.43495
# Poissons Ratio (y) = 0.45602 0.15827
# Poissons Ratio (z) = 0.59930 0.08014
#
# Static dielectric constant tensor:
#      x y z
#    x 3.193410 0.000000 0.000000 
#    y 0.000000 2.770030 0.000000 
#    z 0.000000 0.000000 3.237740 
# 
# 
# High freq. dielectric constant tensor:
#      x y z
#    x 1.650870 0.000000 0.000000 
#    y 0.000000 1.598060 0.000000 
#    z 0.000000 0.000000 1.645770 
# 
# From -- ./inp_files/9517.got.cif
#   From: 2010.03.12/outbox.cif.g09.slc.cpg/sg47_5_cif.got.tgz:9517.got - 2010.04.14 03:12:58.
