data_PCOD8201163
_publ_section_title
;
Structure prediction by ZEFSAII (Michael W. Deem and Ramdas Pophale) SiO2 
 PCOD8201163
Probable space group: P M M M
;
_chemical_formula_sum "Si O2"
_cell_formula_units_Z 52
_cell_length_a 9.964011
_cell_length_b 7.968195
_cell_length_c 34.999953
_cell_angle_alpha 90.000000
_cell_angle_beta 90.000000
_cell_angle_gamma 90.000000
_cell_volume 2778.827660
_symmetry_space_group_name_H-M "P M M M"
_symmetry_group_IT_number 47
_symmetry_cell_setting 'orthorhombic'
loop_
_space_group_symop_operation_xyz
x,y,z
-x,-y,z
x,-y,-z
-x,y,-z
-x,-y,-z
x,y,-z
-x,y,z
x,-y,z
loop_
_atom_site_type_symbol
_atom_site_label
_atom_site_fract_x
_atom_site_fract_y
_atom_site_fract_z
Si Si1 0.651154 0.303618 0.164804
Si Si2 0.350584 0.698014 0.457731
Si Si3 0.841807 0.000000 0.957641
Si Si4 0.853089 0.803647 0.393440
Si Si5 0.849365 0.800225 0.309233
Si Si6 0.351521 0.195071 0.247020
Si Si7 0.156957 0.694118 0.095577
O O1 0.500000 0.240573 0.154305
O O2 0.650474 0.500000 0.171113
O O3 0.702556 0.221026 0.204077
O O4 0.755847 0.253048 0.132128
O O5 0.305676 0.760743 0.500000
O O6 0.500000 0.766424 0.448792
O O7 0.351571 0.500000 0.457058
O O8 0.251040 0.763010 0.426071
O O9 0.797769 0.173330 0.936892
O O10 0.000000 0.000000 0.961057
O O11 0.776753 0.000000 0.000000
O O12 0.805978 0.736921 0.351722
O O13 0.000000 0.727015 0.403673
O O14 0.868463 0.000000 0.389924
O O15 0.748706 0.720520 0.277864
O O16 0.000000 0.736877 0.300334
O O17 0.845008 0.000000 0.306893
O O18 0.500000 0.277198 0.251006
O O19 0.361103 0.000000 0.255883
O O20 0.186358 0.500000 0.082881
O O21 0.000000 0.715180 0.105721
#
# Coordination Sequence:
#
# PCOD8201163 Si02
#       7
#     8   8   4   8   8   8   8
#     4   9  18  32  48  67  95 130 162 196 243 291
#     4   9  19  35  51  68  93 123 155 193 237 286
#     4   9  18  32  51  77 105 131 165 209 253 299
#     4   9  18  32  50  72  97 124 156 195 237 285
#     4   8  15  29  46  65  92 123 153 188 233 281
#     4   9  17  28  44  67  91 118 156 196 231 275
#     4   9  18  32  50  73 100 130 166 207 249 296
#
# _framework density 18.712928000000002
#
# number of rings (size 3 to 8) (size 9 to 14) (size 15 to 20)
#    0.000    3.154    0.000    1.385    1.077    2.769 
#    0.000    6.154    0.000    3.692    0.000    2.154 
#    0.000    0.000    0.000    0.000    0.000    0.000 
#
# Total GULP energy -644340.940856 kJ/mol
# GULP energy per Si atom -12391.171940 kJ/mol
# Density = 1.867034 g / cm^3
# Si number density = 18.712928 Si / 1000 Ang^3
#
#
#
# Elastic Constant Matrix: (Units=GPa)
#
#
# Indices 1 2 3 4 5 6 
#
# 1 98.3894 24.1509 97.8366 0.0000 0.0000 0.0000
# 2 24.1509 39.7566 39.6892 0.0000 0.0000 0.0000
# 3 97.8366 39.6892 175.7282 0.0000 0.0000 0.0000
# 4 0.0000 0.0000 0.0000 159.7922 0.0000 0.0000
# 5 0.0000 0.0000 0.0000 0.0000 7.7063 0.0000
# 6 0.0000 0.0000 0.0000 0.0000 0.0000 -353.0543
#
#
#
# Elastic Compliance Matrix: (Units=1/GPa)
#
#
# Indices 1 2 3 4 5 6 
#
# 1 0.022840 -0.001524 -0.012372 0.000000 0.000000 0.000000
# 2 -0.001524 0.032577 -0.006509 0.000000 0.000000 0.000000
# 3 -0.012372 -0.006509 0.014049 0.000000 0.000000 0.000000
# 4 0.000000 0.000000 0.000000 0.006258 0.000000 0.000000
# 5 0.000000 0.000000 0.000000 0.000000 0.129764 0.000000
# 6 0.000000 0.000000 0.000000 0.000000 0.000000 -0.002832
#
#
# Mechanical properties :
#
#
# Convention : Reuss Voigt Hill
#
# Bulk Modulus (GPa) = 34.89679 70.80304 52.84991
# Shear Modulus (GPa) = 19.76136 -26.96465 -3.60165
#
# Velocity S-wave (km/s) = 3.25318 -3.80012 -1.38883
# Velocity P-wave (km/s) = 5.72712 4.32019 5.07267
#
# Compressibility (1/GPa) = 0.02865593
#
# Stress axis : x y z
#
# Youngs Moduli (GPa) = 43.78191 30.69651 71.17895
#
# Poissons Ratio (x) = 0.04677 0.88065
# Poissons Ratio (y) = 0.06670 0.46334
# Poissons Ratio (z) = 0.54168 0.19982
#
# Static dielectric constant tensor:
#      x y z
#    x 3.449190 0.000000 0.000000 
#    y 0.000000 3.233460 0.000000 
#    z 0.000000 0.000000 2.743440 
# 
# 
# High freq. dielectric constant tensor:
#      x y z
#    x 1.716860 0.000000 0.000000 
#    y 0.000000 1.708560 0.000000 
#    z 0.000000 0.000000 1.726370 
# 
# From -- ./inp_files/34508.got.cif
#   From: 2010.03.12/outbox.cif.g09.slc.cpg/sg47_18_cif.got.tgz:34508.got - 2010.04.14 03:12:58.
