data_PCOD8201071
_publ_section_title
;
Structure prediction by ZEFSAII (Michael W. Deem and Ramdas Pophale) SiO2 
 PCOD8201071
Probable space group: P M M M
;
_chemical_formula_sum "Si O2"
_cell_formula_units_Z 52
_cell_length_a 28.171376
_cell_length_b 15.363288
_cell_length_c 9.182240
_cell_angle_alpha 90.000000
_cell_angle_beta 90.000000
_cell_angle_gamma 90.000000
_cell_volume 3974.119042
_symmetry_space_group_name_H-M "P M M M"
_symmetry_group_IT_number 47
_symmetry_cell_setting 'orthorhombic'
loop_
_space_group_symop_operation_xyz
x,y,z
-x,-y,z
x,-y,-z
-x,y,-z
-x,-y,-z
x,y,-z
-x,y,z
x,-y,z
loop_
_atom_site_type_symbol
_atom_site_label
_atom_site_fract_x
_atom_site_fract_y
_atom_site_fract_z
Si Si1 0.500000 0.603738 0.665188
Si Si2 0.775917 0.396472 0.835572
Si Si3 0.684437 0.396195 0.665040
Si Si4 0.053676 0.738068 0.329104
Si Si5 0.943610 0.904925 0.164226
Si Si6 0.407798 0.396281 0.165135
Si Si7 0.869260 0.400107 0.669994
O O1 0.500000 0.500000 0.663378
O O2 0.500000 0.639619 0.500000
O O3 0.453807 0.639102 0.749567
O O4 0.773929 0.500000 0.835890
O O5 0.731087 0.359582 0.746036
O O6 0.824028 0.364875 0.758373
O O7 0.774242 0.359977 0.000000
O O8 0.683336 0.360449 0.500000
O O9 0.684724 0.500000 0.663999
O O10 0.638617 0.361095 0.751564
O O11 0.054204 0.751194 0.500000
O O12 0.076112 0.826209 0.262064
O O13 0.085243 0.655864 0.281729
O O14 0.000000 0.720778 0.272973
O O15 0.000000 0.904370 0.171140
O O16 0.925402 0.000000 0.219971
O O17 0.925895 0.889798 0.000000
O O18 0.407912 0.500000 0.163299
O O19 0.408089 0.360338 0.000000
O O20 0.857658 0.389389 0.500000
O O21 0.880887 0.500000 0.708738
#
# Coordination Sequence:
#
# PCOD8201071 Si02
#       7
#     4   8   8   8   8   8   8
#     4   9  15  21  27  35  49  69  91 113 141 181
#     4   9  16  25  36  48  60  75  99 131 163 193
#     4   9  15  22  32  44  56  70  90 118 153 191
#     4   9  17  27  39  56  74  91 113 139 165 195
#     4   8  14  25  40  56  73  92 111 131 159 195
#     4   9  15  21  28  38  52  69  89 114 145 182
#     4   9  17  28  39  50  67  91 115 138 166 200
#
# _framework density 13.084661000000001
#
# number of rings (size 3 to 8) (size 9 to 14) (size 15 to 20)
#    0.000    3.154    0.000    2.077    0.000    7.692 
#    0.000    3.077    0.000    0.000    0.000    4.308 
#    0.000    0.000    0.000    0.000    0.000    0.000 
#
# Total GULP energy -644550.147329 kJ/mol
# GULP energy per Si atom -12395.195141 kJ/mol
# Density = 1.305488 g / cm^3
# Si number density = 13.084661 Si / 1000 Ang^3
#
#
#
# Elastic Constant Matrix: (Units=GPa)
#
#
# Indices 1 2 3 4 5 6 
#
# 1 101.0840 32.5465 56.3247 0.0000 0.0000 0.0000
# 2 32.5465 40.3385 24.4136 0.0000 0.0000 0.0000
# 3 56.3247 24.4136 91.3613 0.0000 0.0000 0.0000
# 4 0.0000 0.0000 0.0000 11.1725 0.0000 0.0000
# 5 0.0000 0.0000 0.0000 0.0000 21.8162 0.0000
# 6 0.0000 0.0000 0.0000 0.0000 0.0000 0.4905
#
#
#
# Elastic Compliance Matrix: (Units=1/GPa)
#
#
# Indices 1 2 3 4 5 6 
#
# 1 0.017450 -0.009028 -0.008345 0.000000 0.000000 0.000000
# 2 -0.009028 0.034244 -0.003585 0.000000 0.000000 0.000000
# 3 -0.008345 -0.003585 0.017048 0.000000 0.000000 0.000000
# 4 0.000000 0.000000 0.000000 0.089506 0.000000 0.000000
# 5 0.000000 0.000000 0.000000 0.000000 0.045837 0.000000
# 6 0.000000 0.000000 0.000000 0.000000 0.000000 2.038657
#
#
# Mechanical properties :
#
#
# Convention : Reuss Voigt Hill
#
# Bulk Modulus (GPa) = 37.27787 51.03926 44.15857
# Shear Modulus (GPa) = 2.17998 14.66244 8.42121
#
# Velocity S-wave (km/s) = 1.29216 3.35114 2.53967
# Velocity P-wave (km/s) = 5.54778 7.35290 6.51318
#
# Compressibility (1/GPa) = 0.02682557
#
# Stress axis : x y z
#
# Youngs Moduli (GPa) = 57.30751 29.20209 58.65656
#
# Poissons Ratio (x) = 0.26365 0.48951
# Poissons Ratio (y) = 0.51739 0.21027
# Poissons Ratio (z) = 0.47825 0.10468
#
# Static dielectric constant tensor:
#      x y z
#    x 2.690830 0.000000 0.000000 
#    y 0.000000 2.283180 0.000000 
#    z 0.000000 0.000000 2.804400 
# 
# 
# High freq. dielectric constant tensor:
#      x y z
#    x 1.491880 0.000000 0.000000 
#    y 0.000000 1.422960 0.000000 
#    z 0.000000 0.000000 1.512140 
# 
# From -- ./inp_files/13416.got.cif
#   From: 2010.03.12/outbox.cif.g09.slc.cpg/sg47_7_cif.got.tgz:13416.got - 2010.04.14 03:12:58.
