data_PCOD8201152
_publ_section_title
;
Structure prediction by ZEFSAII (Michael W. Deem and Ramdas Pophale) SiO2 
 PCOD8201152
Probable space group: P M M M
;
_chemical_formula_sum "Si O2"
_cell_formula_units_Z 36
_cell_length_a 13.327694
_cell_length_b 14.079432
_cell_length_c 9.506269
_cell_angle_alpha 90.000000
_cell_angle_beta 90.000000
_cell_angle_gamma 90.000000
_cell_volume 1783.816788
_symmetry_space_group_name_H-M "P M M M"
_symmetry_group_IT_number 47
_symmetry_cell_setting 'orthorhombic'
loop_
_space_group_symop_operation_xyz
x,y,z
-x,-y,z
x,-y,-z
-x,y,-z
-x,-y,-z
x,y,-z
-x,y,z
x,-y,z
loop_
_atom_site_type_symbol
_atom_site_label
_atom_site_fract_x
_atom_site_fract_y
_atom_site_fract_z
Si Si1 0.390265 0.387298 0.342640
Si Si2 0.690412 0.112494 0.161808
Si Si3 0.500000 0.113276 0.661139
Si Si4 0.891552 0.207204 0.164389
Si Si5 0.791884 0.394379 0.162476
O O1 0.359312 0.357305 0.500000
O O2 0.500000 0.343475 0.305399
O O3 0.397025 0.500000 0.330252
O O4 0.306413 0.349762 0.236210
O O5 0.599345 0.151526 0.258356
O O6 0.796034 0.150837 0.226525
O O7 0.694323 0.000000 0.168400
O O8 0.674579 0.146717 0.000000
O O9 0.500000 0.150623 0.500000
O O10 0.500000 0.000000 0.664480
O O11 0.881536 0.320769 0.191108
O O12 0.000000 0.176305 0.230240
O O13 0.894213 0.184838 0.000000
O O14 0.820959 0.500000 0.219252
O O15 0.764492 0.400063 0.000000
#
# Coordination Sequence:
#
# PCOD8201152 Si02
#       5
#     8   8   4   8   8
#     4   8  14  26  44  64  88 120 155 193 240 290
#     4   9  17  31  53  78 102 130 163 199 242 291
#     4   9  17  31  53  79 106 133 160 196 243 295
#     4   9  18  32  49  72 101 129 163 208 249 287
#     4   9  17  29  46  68  93 124 162 201 242 287
#
# _framework density 20.181443999999999
#
# number of rings (size 3 to 8) (size 9 to 14) (size 15 to 20)
#    0.000    3.222    0.000    1.000    0.000    2.667 
#    2.000    7.778    0.000    2.667    0.000    6.222 
#    0.000    0.000    0.000    0.000    0.000    0.000 
#
# Total GULP energy -446069.176231 kJ/mol
# GULP energy per Si atom -12390.810451 kJ/mol
# Density = 2.013551 g / cm^3
# Si number density = 20.181444 Si / 1000 Ang^3
#
#
#
# Elastic Constant Matrix: (Units=GPa)
#
#
# Indices 1 2 3 4 5 6 
#
# 1 184.1333 31.7294 55.7611 0.0000 0.0000 0.0000
# 2 31.7294 19.0028 12.9660 0.0000 0.0000 0.0000
# 3 55.7611 12.9660 59.6548 0.0000 0.0000 0.0000
# 4 0.0000 0.0000 0.0000 10.1235 0.0000 0.0000
# 5 0.0000 0.0000 0.0000 0.0000 8.2983 0.0000
# 6 0.0000 0.0000 0.0000 0.0000 0.0000 18.7943
#
#
#
# Elastic Compliance Matrix: (Units=1/GPa)
#
#
# Indices 1 2 3 4 5 6 
#
# 1 0.009238 -0.011193 -0.006202 0.000000 0.000000 0.000000
# 2 -0.011193 0.075348 -0.005915 0.000000 0.000000 0.000000
# 3 -0.006202 -0.005915 0.023846 0.000000 0.000000 0.000000
# 4 0.000000 0.000000 0.000000 0.098780 0.000000 0.000000
# 5 0.000000 0.000000 0.000000 0.000000 0.120506 0.000000
# 6 0.000000 0.000000 0.000000 0.000000 0.000000 0.053208
#
#
# Mechanical properties :
#
#
# Convention : Reuss Voigt Hill
#
# Bulk Modulus (GPa) = 16.17788 51.52266 33.85027
# Shear Modulus (GPa) = 11.15701 18.26553 14.71127
#
# Velocity S-wave (km/s) = 2.35380 3.01169 2.70284
# Velocity P-wave (km/s) = 3.92693 6.13831 5.15265
#
# Compressibility (1/GPa) = 0.06181281
#
# Stress axis : x y z
#
# Youngs Moduli (GPa) = 108.25205 13.27172 41.93595
#
# Poissons Ratio (x) = 0.14855 0.26009
# Poissons Ratio (y) = 1.21163 0.24804
# Poissons Ratio (z) = 0.67138 0.07850
#
# Static dielectric constant tensor:
#      x y z
#    x 4.172940 0.000000 0.000000 
#    y 0.000000 3.584210 0.000000 
#    z 0.000000 0.000000 3.462430 
# 
# 
# High freq. dielectric constant tensor:
#      x y z
#    x 1.788000 0.000000 0.000000 
#    y 0.000000 1.786820 0.000000 
#    z 0.000000 0.000000 1.745100 
# 
# From -- ./inp_files/3741.got.cif
#   From: 2010.03.12/outbox.cif.g09.slc.cpg/sg47_2_cif.got.tgz:3741.got - 2010.04.14 03:12:58.
