data_PCOD8201890
_publ_section_title
;
Structure prediction by ZEFSAII (Michael W. Deem and Ramdas Pophale) SiO2 
 PCOD8201890
Probable space group: P N N N
;
_chemical_formula_sum "Si O2"
_cell_formula_units_Z 50
_cell_length_a 15.258101
_cell_length_b 17.170462
_cell_length_c 8.429390
_cell_angle_alpha 90.000000
_cell_angle_beta 90.000000
_cell_angle_gamma 90.000000
_cell_volume 2208.404451
_symmetry_space_group_name_H-M "P N N N"
_symmetry_group_IT_number 48
_space_group.IT_coordinate_system_code '2'
_symmetry_cell_setting 'orthorhombic'
loop_
_space_group_symop_operation_xyz
x,y,z
1/2-x,1/2-y,z
x,1/2-y,1/2-z
1/2-x,y,1/2-z
-x,-y,-z
1/2+x,1/2+y,-z
-x,1/2+y,1/2+z
1/2+x,-y,1/2+z
loop_
_atom_site_type_symbol
_atom_site_label
_atom_site_fract_x
_atom_site_fract_y
_atom_site_fract_z
Si Si1 0.464588 0.775284 0.579765
Si Si2 0.238581 0.489050 0.566528
Si Si3 0.250000 0.250000 0.250000
Si Si4 0.380191 0.374689 0.105710
Si Si5 0.412390 0.010809 0.102983
Si Si6 0.195334 0.657010 0.473618
Si Si7 0.120197 0.834210 0.358625
O O1 0.501956 0.750000 0.750000
O O2 0.534836 0.838430 0.518501
O O3 0.368244 0.814343 0.614751
O O4 0.461746 0.703462 0.453174
O O5 0.250000 0.508938 0.750000
O O6 0.166062 0.424439 0.531563
O O7 0.332643 0.459655 0.505931
O O8 0.204518 0.564464 0.472374
O O9 0.312473 0.306478 0.149144
O O10 0.415932 0.427534 0.252591
O O11 0.389516 0.925641 0.165985
O O12 0.500000 0.000000 0.000000
O O13 0.294553 0.689552 0.467441
O O14 0.137510 0.692065 0.323815
#
# Coordination Sequence:
#
# PCOD8201890 Si02
#       7
#     8   8   2   8   8   8   8
#     4  12  26  39  65 110 141 181 240 296 359 426
#     4  11  25  45  72 108 138 186 242 304 368 431
#     4  12  24  48  78  88 134 190 246 288 356 444
#     4  12  25  48  73 101 141 195 241 297 369 439
#     4  11  23  42  72 100 140 186 245 291 356 443
#     4  10  23  43  71  97 148 186 225 290 366 437
#     4  10  22  44  67 100 141 195 229 278 366 439
#
# _framework density 22.640778999999998
#
# number of rings (size 3 to 8) (size 9 to 14) (size 15 to 20)
#    0.000    0.960    4.000    1.920    6.720    3.840 
#    0.000    3.600    0.000    0.000    0.000    0.000 
#    0.000    0.000    0.000    0.000    0.000    0.000 
#
# Total GULP energy -619642.591212 kJ/mol
# GULP energy per Si atom -12392.851824 kJ/mol
# Density = 2.258925 g / cm^3
# Si number density = 22.640779 Si / 1000 Ang^3
#
#
#
# Elastic Constant Matrix: (Units=GPa)
#
#
# Indices 1 2 3 4 5 6 
#
# 1 116.1213 45.6336 38.4460 0.0000 0.0000 0.0000
# 2 45.6336 101.7982 37.9964 0.0000 0.0000 0.0000
# 3 38.4460 37.9964 94.2748 0.0000 0.0000 0.0000
# 4 0.0000 0.0000 0.0000 33.9866 0.0000 0.0000
# 5 0.0000 0.0000 0.0000 0.0000 31.7007 0.0000
# 6 0.0000 0.0000 0.0000 0.0000 0.0000 52.6817
#
#
#
# Elastic Compliance Matrix: (Units=1/GPa)
#
#
# Indices 1 2 3 4 5 6 
#
# 1 0.011119 -0.003875 -0.002973 0.000000 0.000000 0.000000
# 2 -0.003875 0.012913 -0.003624 0.000000 0.000000 0.000000
# 3 -0.002973 -0.003624 0.013280 0.000000 0.000000 0.000000
# 4 0.000000 0.000000 0.000000 0.029423 0.000000 0.000000
# 5 0.000000 0.000000 0.000000 0.000000 0.031545 0.000000
# 6 0.000000 0.000000 0.000000 0.000000 0.000000 0.018982
#
#
# Mechanical properties :
#
#
# Convention : Reuss Voigt Hill
#
# Bulk Modulus (GPa) = 61.09218 61.81626 61.45422
# Shear Modulus (GPa) = 34.80401 36.34835 35.57618
#
# Velocity S-wave (km/s) = 3.92500 4.01114 3.96830
# Velocity P-wave (km/s) = 6.89802 6.98675 6.94253
#
# Compressibility (1/GPa) = 0.01636871
#
# Stress axis : x y z
#
# Youngs Moduli (GPa) = 89.93994 77.44098 75.29955
#
# Poissons Ratio (x) = 0.30006 0.22383
# Poissons Ratio (y) = 0.34848 0.27291
# Poissons Ratio (z) = 0.26735 0.28067
#
# Static dielectric constant tensor:
#      x y z
#    x 4.236150 0.000000 0.000000 
#    y 0.000000 4.449920 0.000000 
#    z 0.000000 0.000000 3.743900 
# 
# 
# High freq. dielectric constant tensor:
#      x y z
#    x 1.897800 0.000000 0.000000 
#    y 0.000000 1.925070 0.000000 
#    z 0.000000 0.000000 1.870150 
# 
# From -- ./inp_files/12825.got.cif
#   From: 2010.06.25/outbox.cif.g09.slc.cpg/sg48_7_cif.got.tgz:12825.got - 2010.06.26 18:06:46.
