data_PCOD8201854
_publ_section_title
;
Structure prediction by ZEFSAII (Michael W. Deem and Ramdas Pophale) SiO2 
 PCOD8201854
Probable space group: P N N N
;
_chemical_formula_sum "Si O2"
_cell_formula_units_Z 56
_cell_length_a 11.862039
_cell_length_b 15.869014
_cell_length_c 14.413549
_cell_angle_alpha 90.000000
_cell_angle_beta 90.000000
_cell_angle_gamma 90.000000
_cell_volume 2713.190075
_symmetry_space_group_name_H-M "P N N N"
_symmetry_group_IT_number 48
_space_group.IT_coordinate_system_code '2'
_symmetry_cell_setting 'orthorhombic'
loop_
_space_group_symop_operation_xyz
x,y,z
1/2-x,1/2-y,z
x,1/2-y,1/2-z
1/2-x,y,1/2-z
-x,-y,-z
1/2+x,1/2+y,-z
-x,1/2+y,1/2+z
1/2+x,-y,1/2+z
loop_
_atom_site_type_symbol
_atom_site_label
_atom_site_fract_x
_atom_site_fract_y
_atom_site_fract_z
Si Si1 0.124864 0.283543 0.958108
Si Si2 0.337140 0.967683 0.168498
Si Si3 0.980451 0.840987 0.281069
Si Si4 0.830805 0.038490 0.995288
Si Si5 0.268557 0.849014 0.857669
Si Si6 0.006393 0.421832 0.073024
Si Si7 0.946360 0.892980 0.084820
O O1 0.250000 0.250000 0.974815
O O2 0.045675 0.201022 0.956278
O O3 0.114687 0.334327 0.860816
O O4 0.082392 0.344732 0.037870
O O5 0.250000 0.987328 0.250000
O O6 0.403846 0.881336 0.182954
O O7 0.428257 0.043293 0.163714
O O8 0.279265 0.959761 0.068109
O O9 0.022062 0.750000 0.250000
O O10 0.924943 0.891437 0.195569
O O11 0.824637 0.103679 0.080547
O O12 0.844829 0.944428 0.036867
O O13 0.935998 0.060478 0.930669
O O14 0.250000 0.750000 0.874614
O O15 0.250000 0.871547 0.750000
O O16 0.388230 0.884121 0.893396
O O17 0.000000 0.500000 0.000000
#
# Coordination Sequence:
#
# PCOD8201854 Si02
#       7
#     8   8   8   8   8   8   8
#     4  11  23  42  66  99 144 179 232 291 362 416
#     4  12  24  42  66 101 137 181 233 283 355 420
#     4  10  22  40  61 101 135 175 222 291 350 429
#     4  11  22  41  66  95 132 184 227 284 349 415
#     4  11  26  45  69 101 137 184 237 295 358 417
#     4  12  24  44  73 102 137 185 242 288 346 432
#     4  10  23  38  63  96 135 178 226 284 350 421
#
# _framework density 20.639911000000001
#
# number of rings (size 3 to 8) (size 9 to 14) (size 15 to 20)
#    0.000    1.000    4.286    1.714    2.000    4.000 
#    0.000    2.857    0.000    0.857    0.000    0.000 
#    0.000    0.000    0.000    0.000    0.000    0.000 
#
# Total GULP energy -694325.760226 kJ/mol
# GULP energy per Si atom -12398.674290 kJ/mol
# Density = 2.059293 g / cm^3
# Si number density = 20.639911 Si / 1000 Ang^3
#
#
#
# Elastic Constant Matrix: (Units=GPa)
#
#
# Indices 1 2 3 4 5 6 
#
# 1 99.9144 40.8224 40.5208 0.0000 0.0000 0.0000
# 2 40.8224 105.8161 56.7105 0.0000 0.0000 0.0000
# 3 40.5208 56.7105 110.1732 0.0000 0.0000 0.0000
# 4 0.0000 0.0000 0.0000 38.8082 0.0000 0.0000
# 5 0.0000 0.0000 0.0000 0.0000 43.9916 0.0000
# 6 0.0000 0.0000 0.0000 0.0000 0.0000 40.8231
#
#
#
# Elastic Compliance Matrix: (Units=1/GPa)
#
#
# Indices 1 2 3 4 5 6 
#
# 1 0.012530 -0.003265 -0.002928 0.000000 0.000000 0.000000
# 2 -0.003265 0.013901 -0.005955 0.000000 0.000000 0.000000
# 3 -0.002928 -0.005955 0.013219 0.000000 0.000000 0.000000
# 4 0.000000 0.000000 0.000000 0.025768 0.000000 0.000000
# 5 0.000000 0.000000 0.000000 0.000000 0.022732 0.000000
# 6 0.000000 0.000000 0.000000 0.000000 0.000000 0.024496
#
#
# Mechanical properties :
#
#
# Convention : Reuss Voigt Hill
#
# Bulk Modulus (GPa) = 65.12556 65.77901 65.45228
# Shear Modulus (GPa) = 35.19687 36.58124 35.88906
#
# Velocity S-wave (km/s) = 4.13399 4.21450 4.17444
# Velocity P-wave (km/s) = 7.37619 7.45800 7.41721
#
# Compressibility (1/GPa) = 0.01535496
#
# Stress axis : x y z
#
# Youngs Moduli (GPa) = 79.80933 71.93627 75.65077
#
# Poissons Ratio (x) = 0.23485 0.22150
# Poissons Ratio (y) = 0.26055 0.45048
# Poissons Ratio (z) = 0.23368 0.42836
#
# Static dielectric constant tensor:
#      x y z
#    x 3.707980 0.000000 0.000000 
#    y 0.000000 3.983840 0.000000 
#    z 0.000000 0.000000 3.889090 
# 
# 
# High freq. dielectric constant tensor:
#      x y z
#    x 1.808920 0.000000 0.000000 
#    y 0.000000 1.817300 0.000000 
#    z 0.000000 0.000000 1.809360 
# 
# From -- ./inp_files/21318.got.cif
#   From: 2010.06.25/outbox.cif.g09.slc.cpg/sg48_11_cif.got.tgz:21318.got - 2010.06.26 18:06:46.
