data_PCOD8201455
_publ_section_title
;
Structure prediction by ZEFSAII (Michael W. Deem and Ramdas Pophale) SiO2 
 PCOD8201455
Probable space group: P N N N
;
_chemical_formula_sum "Si O2"
_cell_formula_units_Z 64
_cell_length_a 22.556614
_cell_length_b 15.393488
_cell_length_c 8.750902
_cell_angle_alpha 90.000000
_cell_angle_beta 90.000000
_cell_angle_gamma 90.000000
_cell_volume 3038.531658
_symmetry_space_group_name_H-M "P N N N"
_symmetry_group_IT_number 48
_space_group.IT_coordinate_system_code '2'
_symmetry_cell_setting 'orthorhombic'
loop_
_space_group_symop_operation_xyz
x,y,z
1/2-x,1/2-y,z
x,1/2-y,1/2-z
1/2-x,y,1/2-z
-x,-y,-z
1/2+x,1/2+y,-z
-x,1/2+y,1/2+z
1/2+x,-y,1/2+z
loop_
_atom_site_type_symbol
_atom_site_label
_atom_site_fract_x
_atom_site_fract_y
_atom_site_fract_z
Si Si1 0.534446 0.611512 0.660542
Si Si2 0.572163 0.332477 0.166757
Si Si3 0.609257 0.978776 0.285136
Si Si4 0.165707 0.159632 0.322362
Si Si5 0.178217 0.008532 0.080673
Si Si6 0.012602 0.918156 0.332971
Si Si7 0.718230 0.921710 0.099434
Si Si8 0.616441 0.334295 0.831677
O O1 0.498551 0.659037 0.797767
O O2 0.596162 0.660650 0.640497
O O3 0.495600 0.612359 0.506532
O O4 0.545887 0.510033 0.693636
O O5 0.600438 0.250000 0.250000
O O6 0.600145 0.419237 0.234168
O O7 0.587574 0.315065 0.993459
O O8 0.628359 0.959033 0.459724
O O9 0.550718 0.921709 0.253645
O O10 0.656779 0.962970 0.152787
O O11 0.185527 0.250000 0.250000
O O12 0.182755 0.079382 0.213536
O O13 0.202995 0.153676 0.479047
O O14 0.163594 0.913907 0.153326
O O15 0.240021 0.005944 0.984432
O O16 0.058121 0.849973 0.267700
O O17 0.750000 0.881751 0.250000
O O18 0.647453 0.250000 0.750000
#
# Coordination Sequence:
#
# PCOD8201455 Si02
#       8
#     8   8   8   8   8   8   8   8
#     4  10  20  35  60  91 130 165 206 250 315 384
#     4  10  21  35  58  95 129 170 207 259 315 383
#     4   9  20  39  66  88 123 169 210 256 329 381
#     4  12  24  40  65  95 124 163 212 267 322 384
#     4  10  23  41  64  91 126 167 214 268 317 376
#     4  10  19  36  61  94 127 169 203 254 316 388
#     4  10  22  45  67  88 118 167 220 270 323 383
#     4  11  23  38  63  95 134 172 212 256 326 389
#
# _framework density 21.062806999999999
#
# number of rings (size 3 to 8) (size 9 to 14) (size 15 to 20)
#    0.000    1.750    2.500    1.500    1.750    3.500 
#    0.000    4.375    0.000   18.375    0.000    0.000 
#    0.000    0.000    0.000    0.000    0.000    0.000 
#
# Total GULP energy -793193.284138 kJ/mol
# GULP energy per Si atom -12393.645065 kJ/mol
# Density = 2.101487 g / cm^3
# Si number density = 21.062807 Si / 1000 Ang^3
#
#
#
# Elastic Constant Matrix: (Units=GPa)
#
#
# Indices 1 2 3 4 5 6 
#
# 1 88.0653 31.7039 34.5677 0.0000 0.0000 0.0000
# 2 31.7039 106.7259 63.2252 0.0000 0.0000 0.0000
# 3 34.5677 63.2252 114.2062 0.0000 0.0000 0.0000
# 4 0.0000 0.0000 0.0000 33.9585 0.0000 0.0000
# 5 0.0000 0.0000 0.0000 0.0000 4.5385 0.0000
# 6 0.0000 0.0000 0.0000 0.0000 0.0000 -7.1441
#
#
#
# Elastic Compliance Matrix: (Units=1/GPa)
#
#
# Indices 1 2 3 4 5 6 
#
# 1 0.013263 -0.002324 -0.002728 0.000000 0.000000 0.000000
# 2 -0.002324 0.014349 -0.007241 0.000000 0.000000 0.000000
# 3 -0.002728 -0.007241 0.013590 0.000000 0.000000 0.000000
# 4 0.000000 0.000000 0.000000 0.029448 0.000000 0.000000
# 5 0.000000 0.000000 0.000000 0.000000 0.220335 0.000000
# 6 0.000000 0.000000 0.000000 0.000000 0.000000 -0.139975
#
#
# Mechanical properties :
#
#
# Convention : Reuss Voigt Hill
#
# Bulk Modulus (GPa) = 60.17646 63.11011 61.64328
# Shear Modulus (GPa) = 27.60401 18.23728 22.92065
#
# Velocity S-wave (km/s) = 3.62409 2.94573 3.30237
# Velocity P-wave (km/s) = 6.79294 6.44962 6.62351
#
# Compressibility (1/GPa) = 0.01661779
#
# Stress axis : x y z
#
# Youngs Moduli (GPa) = 75.40052 69.68898 73.58255
#
# Poissons Ratio (x) = 0.16194 0.20072
# Poissons Ratio (y) = 0.17521 0.53278
# Poissons Ratio (z) = 0.20568 0.50459
#
# Static dielectric constant tensor:
#      x y z
#    x 3.900160 0.000000 0.000000 
#    y 0.000000 3.701570 0.000000 
#    z 0.000000 0.000000 4.300540 
# 
# 
# High freq. dielectric constant tensor:
#      x y z
#    x 1.822440 0.000000 0.000000 
#    y 0.000000 1.807800 0.000000 
#    z 0.000000 0.000000 1.841340 
# 
# From -- ./inp_files/16069.got.cif
#   From: 2010.06.25/outbox.cif.g09.slc.cpg/sg48_9_cif.got.tgz:16069.got - 2010.06.26 18:06:46.
