data_PCOD8201140
_publ_section_title
;
Structure prediction by ZEFSAII (Michael W. Deem and Ramdas Pophale) SiO2 
 PCOD8201140
Probable space group: P M M M
;
_chemical_formula_sum "Si O2"
_cell_formula_units_Z 52
_cell_length_a 9.702123
_cell_length_b 30.209492
_cell_length_c 10.223222
_cell_angle_alpha 90.000000
_cell_angle_beta 90.000000
_cell_angle_gamma 90.000000
_cell_volume 2996.387593
_symmetry_space_group_name_H-M "P M M M"
_symmetry_group_IT_number 47
_symmetry_cell_setting 'orthorhombic'
loop_
_space_group_symop_operation_xyz
x,y,z
-x,-y,z
x,-y,-z
-x,y,-z
-x,-y,-z
x,y,-z
-x,y,z
x,-y,z
loop_
_atom_site_type_symbol
_atom_site_label
_atom_site_fract_x
_atom_site_fract_y
_atom_site_fract_z
Si Si1 0.340478 0.716312 0.651921
Si Si2 0.340684 0.206909 0.149276
Si Si3 0.836477 0.049297 0.353906
Si Si4 0.839538 0.121367 0.850577
Si Si5 0.652900 0.551984 0.000000
Si Si6 0.851058 0.360444 0.648911
Si Si7 0.158411 0.450327 0.237265
O O1 0.306428 0.728046 0.500000
O O2 0.500000 0.705387 0.668648
O O3 0.295175 0.756155 0.746314
O O4 0.262840 0.672612 0.707231
O O5 0.500000 0.193691 0.169820
O O6 0.246656 0.164987 0.180283
O O7 0.316384 0.223631 0.000000
O O8 0.789148 0.064041 0.500000
O O9 0.780648 0.083258 0.245031
O O10 0.000000 0.048125 0.347281
O O11 0.779075 0.000000 0.323339
O O12 0.000000 0.131593 0.823209
O O13 0.817413 0.105655 0.000000
O O14 0.740884 0.566439 0.875865
O O15 0.635728 0.500000 0.000000
O O16 0.500000 0.574070 0.000000
O O17 0.863731 0.347194 0.500000
O O18 0.814787 0.412890 0.653976
O O19 0.000000 0.352327 0.718247
O O20 0.196359 0.500000 0.288433
O O21 0.000000 0.450503 0.188208
#
# Coordination Sequence:
#
# PCOD8201140 Si02
#       7
#     8   8   8   8   4   8   8
#     4   9  18  33  51  68  89 120 155 189 229 278
#     4   9  18  33  50  67  91 121 152 188 232 282
#     4   8  14  25  41  63  93 126 157 190 228 269
#     4   9  17  28  44  68  94 118 149 191 234 272
#     4   9  17  29  45  65  89 117 151 189 223 257
#     4   9  18  32  49  70  95 120 149 186 226 270
#     4   9  17  30  48  68  93 124 153 183 223 271
#
# _framework density 17.354230999999999
#
# number of rings (size 3 to 8) (size 9 to 14) (size 15 to 20)
#    0.000    3.154    0.000    0.692    0.000    3.385 
#    1.385    3.077    0.000    0.462    0.000    7.538 
#    0.000    0.000    0.000    0.000    0.000    0.000 
#
# Total GULP energy -644262.104007 kJ/mol
# GULP energy per Si atom -12389.655846 kJ/mol
# Density = 1.731473 g / cm^3
# Si number density = 17.354231 Si / 1000 Ang^3
#
#
#
# Elastic Constant Matrix: (Units=GPa)
#
#
# Indices 1 2 3 4 5 6 
#
# 1 58.0017 53.0005 36.4045 0.0000 0.0000 0.0000
# 2 53.0005 139.6587 74.1670 0.0000 0.0000 0.0000
# 3 36.4045 74.1670 82.0270 0.0000 0.0000 0.0000
# 4 0.0000 0.0000 0.0000 29.0561 0.0000 0.0000
# 5 0.0000 0.0000 0.0000 0.0000 17.3167 0.0000
# 6 0.0000 0.0000 0.0000 0.0000 0.0000 13.4852
#
#
#
# Elastic Compliance Matrix: (Units=1/GPa)
#
#
# Indices 1 2 3 4 5 6 
#
# 1 0.027557 -0.007624 -0.005337 0.000000 0.000000 0.000000
# 2 -0.007624 0.015883 -0.010978 0.000000 0.000000 0.000000
# 3 -0.005337 -0.010978 0.024486 0.000000 0.000000 0.000000
# 4 0.000000 0.000000 0.000000 0.034416 0.000000 0.000000
# 5 0.000000 0.000000 0.000000 0.000000 0.057748 0.000000
# 6 0.000000 0.000000 0.000000 0.000000 0.000000 0.074156
#
#
# Mechanical properties :
#
#
# Convention : Reuss Voigt Hill
#
# Bulk Modulus (GPa) = 49.87799 67.42571 58.65185
# Shear Modulus (GPa) = 17.31268 19.71261 18.51264
#
# Velocity S-wave (km/s) = 3.16192 3.37396 3.26966
# Velocity P-wave (km/s) = 6.49105 7.35630 6.93718
#
# Compressibility (1/GPa) = 0.02004892
#
# Stress axis : x y z
#
# Youngs Moduli (GPa) = 36.28867 62.95869 40.84000
#
# Poissons Ratio (x) = 0.47997 0.21796
# Poissons Ratio (y) = 0.27665 0.44834
# Poissons Ratio (z) = 0.19367 0.69116
#
# Static dielectric constant tensor:
#      x y z
#    x 3.343780 0.000000 0.000000 
#    y 0.000000 3.254310 0.000000 
#    z 0.000000 0.000000 3.264060 
# 
# 
# High freq. dielectric constant tensor:
#      x y z
#    x 1.654820 0.000000 0.000000 
#    y 0.000000 1.663560 0.000000 
#    z 0.000000 0.000000 1.660210 
# 
# From -- ./inp_files/15475.got.cif
#   From: 2010.03.12/outbox.cif.g09.slc.cpg/sg47_8_cif.got.tgz:15475.got - 2010.04.14 03:12:58.
