data_PCOD8201210
_publ_section_title
;
Structure prediction by ZEFSAII (Michael W. Deem and Ramdas Pophale) SiO2 
 PCOD8201210
Probable space group: P M M M
;
_chemical_formula_sum "Si O2"
_cell_formula_units_Z 56
_cell_length_a 19.222960
_cell_length_b 9.512954
_cell_length_c 18.885032
_cell_angle_alpha 90.000000
_cell_angle_beta 90.000000
_cell_angle_gamma 90.000000
_cell_volume 3453.451682
_symmetry_space_group_name_H-M "P M M M"
_symmetry_group_IT_number 47
_symmetry_cell_setting 'orthorhombic'
loop_
_space_group_symop_operation_xyz
x,y,z
-x,-y,z
x,-y,-z
-x,y,-z
-x,-y,-z
x,y,-z
-x,y,z
x,-y,z
loop_
_atom_site_type_symbol
_atom_site_label
_atom_site_fract_x
_atom_site_fract_y
_atom_site_fract_z
Si Si1 0.222078 0.660882 0.332732
Si Si2 0.075275 0.339152 0.701803
Si Si3 0.212748 0.833711 0.077704
Si Si4 0.351646 0.335578 0.580058
Si Si5 0.077336 0.163133 0.842579
Si Si6 0.290978 0.164402 0.213418
Si Si7 0.421623 0.837615 0.699998
O O1 0.235196 0.500000 0.310142
O O2 0.140322 0.686774 0.351944
O O3 0.271412 0.698160 0.399124
O O4 0.239575 0.756633 0.265971
O O5 0.076271 0.500000 0.727596
O O6 0.086287 0.244728 0.769952
O O7 0.000000 0.304858 0.665454
O O8 0.136080 0.783473 0.102764
O O9 0.272783 0.785860 0.133406
O O10 0.213254 0.000000 0.071309
O O11 0.228214 0.767557 0.000000
O O12 0.363127 0.283532 0.500000
O O13 0.368251 0.500000 0.587258
O O14 0.403987 0.253030 0.630856
O O15 0.000000 0.188660 0.874969
O O16 0.089061 0.000000 0.824872
O O17 0.370976 0.200083 0.233997
O O18 0.275459 0.000000 0.221922
O O19 0.500000 0.803530 0.724576
O O20 0.413005 0.000000 0.678426
#
# Coordination Sequence:
#
# PCOD8201210 Si02
#       7
#     8   8   8   8   8   8   8
#     4   9  16  27  44  62  82 110 142 175 208 243
#     4   9  16  25  39  59  82 108 138 174 214 249
#     4   9  16  25  39  60  84 110 140 175 213 248
#     4   9  18  31  46  66  91 116 140 167 202 245
#     4   9  16  25  38  57  81 108 139 174 210 249
#     4   9  16  28  45  62  82 108 140 175 208 246
#     4   9  18  31  47  67  89 113 139 168 204 246
#
# _framework density 16.215661000000001
#
# number of rings (size 3 to 8) (size 9 to 14) (size 15 to 20)
#    0.000    3.000    1.429    0.000    0.000    1.143 
#    0.000    2.857    0.000    2.571    0.000    8.000 
#    0.000    0.000    0.000   17.857    0.000   18.571 
#
# Total GULP energy -693814.975949 kJ/mol
# GULP energy per Si atom -12389.553142 kJ/mol
# Density = 1.617875 g / cm^3
# Si number density = 16.215661 Si / 1000 Ang^3
#
#
#
# Elastic Constant Matrix: (Units=GPa)
#
#
# Indices 1 2 3 4 5 6 
#
# 1 137.8323 23.5870 52.3879 0.0000 0.0000 0.0000
# 2 23.5870 27.2644 17.0434 0.0000 0.0000 0.0000
# 3 52.3879 17.0434 74.3572 0.0000 0.0000 0.0000
# 4 0.0000 0.0000 0.0000 7.7663 0.0000 0.0000
# 5 0.0000 0.0000 0.0000 0.0000 18.0102 0.0000
# 6 0.0000 0.0000 0.0000 0.0000 0.0000 17.5815
#
#
#
# Elastic Compliance Matrix: (Units=1/GPa)
#
#
# Indices 1 2 3 4 5 6 
#
# 1 0.010506 -0.005208 -0.006208 0.000000 0.000000 0.000000
# 2 -0.005208 0.045394 -0.006735 0.000000 0.000000 0.000000
# 3 -0.006208 -0.006735 0.019366 0.000000 0.000000 0.000000
# 4 0.000000 0.000000 0.000000 0.128762 0.000000 0.000000
# 5 0.000000 0.000000 0.000000 0.000000 0.055524 0.000000
# 6 0.000000 0.000000 0.000000 0.000000 0.000000 0.056878
#
#
# Mechanical properties :
#
#
# Convention : Reuss Voigt Hill
#
# Bulk Modulus (GPa) = 25.66544 47.27673 36.47109
# Shear Modulus (GPa) = 13.67159 18.43395 16.05277
#
# Velocity S-wave (km/s) = 2.90679 3.37530 3.14977
# Velocity P-wave (km/s) = 5.20844 6.66397 5.98065
#
# Compressibility (1/GPa) = 0.03896290
#
# Stress axis : x y z
#
# Youngs Moduli (GPa) = 95.18256 22.02933 51.63579
#
# Poissons Ratio (x) = 0.11473 0.32057
# Poissons Ratio (y) = 0.49573 0.34779
# Poissons Ratio (z) = 0.59092 0.14838
#
# Static dielectric constant tensor:
#      x y z
#    x 3.403590 0.000000 0.000000 
#    y 0.000000 2.983890 0.000000 
#    z 0.000000 0.000000 3.023600 
# 
# 
# High freq. dielectric constant tensor:
#      x y z
#    x 1.634630 0.000000 0.000000 
#    y 0.000000 1.609780 0.000000 
#    z 0.000000 0.000000 1.588190 
# 
# From -- ./inp_files/9800.got.cif
#   From: 2010.03.12/outbox.cif.g09.slc.cpg/sg47_5_cif.got.tgz:9800.got - 2010.04.14 03:12:58.
