data_PCOD8201727
_publ_section_title
;
Structure prediction by ZEFSAII (Michael W. Deem and Ramdas Pophale) SiO2 
 PCOD8201727
Probable space group: P N N N
;
_chemical_formula_sum "Si O2"
_cell_formula_units_Z 64
_cell_length_a 9.292667
_cell_length_b 13.859181
_cell_length_c 23.866140
_cell_angle_alpha 90.000000
_cell_angle_beta 90.000000
_cell_angle_gamma 90.000000
_cell_volume 3073.690432
_symmetry_space_group_name_H-M "P N N N"
_symmetry_group_IT_number 48
_space_group.IT_coordinate_system_code '2'
_symmetry_cell_setting 'orthorhombic'
loop_
_space_group_symop_operation_xyz
x,y,z
1/2-x,1/2-y,z
x,1/2-y,1/2-z
1/2-x,y,1/2-z
-x,-y,-z
1/2+x,1/2+y,-z
-x,1/2+y,1/2+z
1/2+x,-y,1/2+z
loop_
_atom_site_type_symbol
_atom_site_label
_atom_site_fract_x
_atom_site_fract_y
_atom_site_fract_z
Si Si1 0.482731 0.310545 0.533095
Si Si2 0.902372 0.199919 0.416848
Si Si3 0.592212 0.706318 0.690918
Si Si4 0.261869 0.855062 0.111192
Si Si5 0.667805 0.519797 0.412923
Si Si6 0.943539 0.872300 0.100744
Si Si7 0.910403 0.852737 0.230117
Si Si8 0.453272 0.981815 0.185563
O O1 0.497474 0.272206 0.469425
O O2 0.639743 0.337528 0.556922
O O3 0.389287 0.407502 0.539268
O O4 0.403608 0.224178 0.566268
O O5 0.750000 0.250000 0.415993
O O6 0.984075 0.230815 0.359916
O O7 0.872442 0.087966 0.427999
O O8 0.750000 0.750000 0.678145
O O9 0.534197 0.750000 0.750000
O O10 0.594912 0.591143 0.695851
O O11 0.250000 0.750000 0.141262
O O12 0.320005 0.931065 0.155557
O O13 0.110140 0.898056 0.089206
O O14 0.840185 0.536793 0.412492
O O15 0.595374 0.538017 0.352183
O O16 0.919118 0.846877 0.164461
O O17 0.967931 0.750000 0.250000
O O18 0.750000 0.874168 0.250000
O O19 0.015212 0.935870 0.253962
#
# Coordination Sequence:
#
# PCOD8201727 Si02
#       8
#     8   8   8   8   8   8   8   8
#     4  10  21  41  62  86 129 166 200 249 316 375
#     4  11  24  43  66  91 123 158 208 266 313 365
#     4  10  25  47  67  88 119 164 216 266 313 364
#     4   9  19  35  58  90 131 164 195 243 315 383
#     4  10  21  38  62  90 119 161 207 251 311 369
#     4  11  21  34  59  93 122 161 207 252 300 373
#     4  11  21  32  57  92 132 161 201 246 303 387
#     4  10  21  41  60  86 128 168 203 254 317 366
#
# _framework density 20.821874999999999
#
# number of rings (size 3 to 8) (size 9 to 14) (size 15 to 20)
#    0.000    1.750    1.250    4.125    1.750    5.750 
#    0.000    5.000    0.000    0.000    0.000    0.000 
#    0.000    0.000    0.000    0.000    0.000    0.000 
#
# Total GULP energy -793335.982199 kJ/mol
# GULP energy per Si atom -12395.874722 kJ/mol
# Density = 2.077448 g / cm^3
# Si number density = 20.821875 Si / 1000 Ang^3
#
#
#
# Elastic Constant Matrix: (Units=GPa)
#
#
# Indices 1 2 3 4 5 6 
#
# 1 99.0237 39.7832 29.2014 0.0000 0.0000 0.0000
# 2 39.7832 98.7444 43.0166 0.0000 0.0000 0.0000
# 3 29.2014 43.0166 141.4291 0.0000 0.0000 0.0000
# 4 0.0000 0.0000 0.0000 17.2665 0.0000 0.0000
# 5 0.0000 0.0000 0.0000 0.0000 16.6284 0.0000
# 6 0.0000 0.0000 0.0000 0.0000 0.0000 35.1895
#
#
#
# Elastic Compliance Matrix: (Units=1/GPa)
#
#
# Indices 1 2 3 4 5 6 
#
# 1 0.012218 -0.004408 -0.001182 0.000000 0.000000 0.000000
# 2 -0.004408 0.013264 -0.003124 0.000000 0.000000 0.000000
# 3 -0.001182 -0.003124 0.008265 0.000000 0.000000 0.000000
# 4 0.000000 0.000000 0.000000 0.057916 0.000000 0.000000
# 5 0.000000 0.000000 0.000000 0.000000 0.060138 0.000000
# 6 0.000000 0.000000 0.000000 0.000000 0.000000 0.028418
#
#
# Mechanical properties :
#
#
# Convention : Reuss Voigt Hill
#
# Bulk Modulus (GPa) = 61.27792 62.57773 61.92782
# Shear Modulus (GPa) = 24.62013 28.96326 26.79170
#
# Velocity S-wave (km/s) = 3.44236 3.73366 3.59096
# Velocity P-wave (km/s) = 6.73003 6.97897 6.85563
#
# Compressibility (1/GPa) = 0.01631909
#
# Stress axis : x y z
#
# Youngs Moduli (GPa) = 81.84698 75.39227 120.99168
#
# Poissons Ratio (x) = 0.33229 0.14302
# Poissons Ratio (y) = 0.36074 0.37801
# Poissons Ratio (z) = 0.09675 0.23555
#
# Static dielectric constant tensor:
#      x y z
#    x 4.347410 0.000000 0.000000 
#    y 0.000000 3.799250 0.000000 
#    z 0.000000 0.000000 3.733740 
# 
# 
# High freq. dielectric constant tensor:
#      x y z
#    x 1.818120 0.000000 0.000000 
#    y 0.000000 1.810190 0.000000 
#    z 0.000000 0.000000 1.810780 
# 
# From -- ./inp_files/36011.got.cif
#   From: 2010.06.25/outbox.cif.g09.slc.cpg/sg48_19_cif.got.tgz:36011.got - 2010.06.26 18:06:46.
