data_PCOD8201345
_publ_section_title
;
Structure prediction by ZEFSAII (Michael W. Deem and Ramdas Pophale) SiO2 
 PCOD8201345
Probable space group: P N N N
;
_chemical_formula_sum "Si O2"
_cell_formula_units_Z 56
_cell_length_a 19.255952
_cell_length_b 16.653355
_cell_length_c 8.421248
_cell_angle_alpha 90.000000
_cell_angle_beta 90.000000
_cell_angle_gamma 90.000000
_cell_volume 2700.493846
_symmetry_space_group_name_H-M "P N N N"
_symmetry_group_IT_number 48
_space_group.IT_coordinate_system_code '2'
_symmetry_cell_setting 'orthorhombic'
loop_
_space_group_symop_operation_xyz
x,y,z
1/2-x,1/2-y,z
x,1/2-y,1/2-z
1/2-x,y,1/2-z
-x,-y,-z
1/2+x,1/2+y,-z
-x,1/2+y,1/2+z
1/2+x,-y,1/2+z
loop_
_atom_site_type_symbol
_atom_site_label
_atom_site_fract_x
_atom_site_fract_y
_atom_site_fract_z
Si Si1 0.124939 0.571007 0.881418
Si Si2 0.755693 0.340822 0.938620
Si Si3 0.177392 0.418262 0.692350
Si Si4 0.853007 0.467811 0.550708
Si Si5 0.474493 0.597613 0.870115
Si Si6 0.943028 0.473679 0.817566
Si Si7 0.034815 0.335733 0.675914
O O1 0.164980 0.499261 0.793855
O O2 0.084740 0.628951 0.754597
O O3 0.172854 0.625542 0.991405
O O4 0.067743 0.525453 0.992878
O O5 0.750000 0.250000 0.998351
O O6 0.750000 0.346530 0.750000
O O7 0.691556 0.391583 0.009043
O O8 0.250000 0.378694 0.750000
O O9 0.182899 0.449619 0.509202
O O10 0.116772 0.352359 0.700477
O O11 0.932185 0.467268 0.478072
O O12 0.865138 0.463700 0.740086
O O13 0.530753 0.557140 0.755655
O O14 0.510539 0.662278 0.988787
O O15 0.992892 0.400151 0.776268
O O16 0.016660 0.250000 0.750000
#
# Coordination Sequence:
#
# PCOD8201345 Si02
#       7
#     8   8   8   8   8   8   8
#     4  11  22  34  66  94 118 164 212 250 304 382
#     4  11  23  38  56  90 133 164 197 248 304 376
#     4  11  21  38  63  88 115 155 212 262 304 369
#     4  10  18  36  60  83 114 162 203 240 300 362
#     4  10  21  38  60  89 117 157 210 260 299 374
#     4  11  19  37  63  88 120 158 209 250 310 382
#     4  11  23  40  61  86 123 163 202 265 328 371
#
# _framework density 20.736946
#
# number of rings (size 3 to 8) (size 9 to 14) (size 15 to 20)
#    0.000    1.286    7.143    1.286    0.000    2.571 
#    0.000    9.286    0.000    0.000    0.000    0.000 
#    0.000    0.000    0.000    0.000    0.000    0.000 
#
# Total GULP energy -693752.587520 kJ/mol
# GULP energy per Si atom -12388.439063 kJ/mol
# Density = 2.068975 g / cm^3
# Si number density = 20.736946 Si / 1000 Ang^3
#
#
#
# Elastic Constant Matrix: (Units=GPa)
#
#
# Indices 1 2 3 4 5 6 
#
# 1 102.0977 17.6636 39.3435 0.0000 0.0000 0.0000
# 2 17.6636 60.9545 25.1696 0.0000 0.0000 0.0000
# 3 39.3435 25.1696 112.4203 0.0000 0.0000 0.0000
# 4 0.0000 0.0000 0.0000 24.2723 0.0000 0.0000
# 5 0.0000 0.0000 0.0000 0.0000 36.2884 0.0000
# 6 0.0000 0.0000 0.0000 0.0000 0.0000 21.3609
#
#
#
# Elastic Compliance Matrix: (Units=1/GPa)
#
#
# Indices 1 2 3 4 5 6 
#
# 1 0.011506 -0.001842 -0.003614 0.000000 0.000000 0.000000
# 2 -0.001842 0.018372 -0.003469 0.000000 0.000000 0.000000
# 3 -0.003614 -0.003469 0.010937 0.000000 0.000000 0.000000
# 4 0.000000 0.000000 0.000000 0.041199 0.000000 0.000000
# 5 0.000000 0.000000 0.000000 0.000000 0.027557 0.000000
# 6 0.000000 0.000000 0.000000 0.000000 0.000000 0.046815
#
#
# Mechanical properties :
#
#
# Convention : Reuss Voigt Hill
#
# Bulk Modulus (GPa) = 43.54493 48.86952 46.20722
# Shear Modulus (GPa) = 27.48920 29.27071 28.37996
#
# Velocity S-wave (km/s) = 3.64485 3.76110 3.70343
# Velocity P-wave (km/s) = 6.22556 6.51757 6.37324
#
# Compressibility (1/GPa) = 0.02296479
#
# Stress axis : x y z
#
# Youngs Moduli (GPa) = 86.91135 54.43157 91.43535
#
# Poissons Ratio (x) = 0.10025 0.33048
# Poissons Ratio (y) = 0.16007 0.31716
# Poissons Ratio (z) = 0.31413 0.18880
#
# Static dielectric constant tensor:
#      x y z
#    x 3.936090 0.000000 0.000000 
#    y 0.000000 3.245260 0.000000 
#    z 0.000000 0.000000 4.185770 
# 
# 
# High freq. dielectric constant tensor:
#      x y z
#    x 1.824340 0.000000 0.000000 
#    y 0.000000 1.753670 0.000000 
#    z 0.000000 0.000000 1.828750 
# 
# From -- ./inp_files/15280.got.cif
#   From: 2010.06.25/outbox.cif.g09.slc.cpg/sg48_8_cif.got.tgz:15280.got - 2010.06.26 18:06:46.
