data_PCOD8201879
_publ_section_title
;
Structure prediction by ZEFSAII (Michael W. Deem and Ramdas Pophale) SiO2 
 PCOD8201879
Probable space group: P N N N
;
_chemical_formula_sum "Si O2"
_cell_formula_units_Z 48
_cell_length_a 17.064563
_cell_length_b 9.084976
_cell_length_c 14.866903
_cell_angle_alpha 90.000000
_cell_angle_beta 90.000000
_cell_angle_gamma 90.000000
_cell_volume 2304.832999
_symmetry_space_group_name_H-M "P N N N"
_symmetry_group_IT_number 48
_space_group.IT_coordinate_system_code '2'
_symmetry_cell_setting 'orthorhombic'
loop_
_space_group_symop_operation_xyz
x,y,z
1/2-x,1/2-y,z
x,1/2-y,1/2-z
1/2-x,y,1/2-z
-x,-y,-z
1/2+x,1/2+y,-z
-x,1/2+y,1/2+z
1/2+x,-y,1/2+z
loop_
_atom_site_type_symbol
_atom_site_label
_atom_site_fract_x
_atom_site_fract_y
_atom_site_fract_z
Si Si1 0.941285 0.658285 0.338775
Si Si2 0.542343 0.411996 0.577546
Si Si3 0.787068 0.592745 0.659666
Si Si4 0.285389 0.903257 0.008041
Si Si5 0.955367 0.911528 0.761091
Si Si6 0.729371 0.582857 0.152290
O O1 0.918428 0.750000 0.250000
O O2 0.862157 0.583710 0.377410
O O3 0.989731 0.766776 0.404322
O O4 0.992585 0.516088 0.321108
O O5 0.500000 0.500000 0.500000
O O6 0.628065 0.369729 0.543433
O O7 0.556813 0.512679 0.664675
O O8 0.750000 0.750000 0.633201
O O9 0.750000 0.526717 0.750000
O O10 0.770905 0.476584 0.581929
O O11 0.877990 0.614701 0.679793
O O12 0.250000 0.750000 0.977907
O O13 0.285393 0.003413 0.919327
O O14 0.994679 0.750000 0.750000
O O15 0.750000 0.750000 0.153648
O O16 0.750000 0.511981 0.250000
#
# Coordination Sequence:
#
# PCOD8201879 Si02
#       6
#     8   8   8   8   8   8
#     4  10  22  42  64  95 124 171 220 266 325 389
#     4  11  24  42  66  96 134 169 218 273 336 395
#     4  11  20  41  65  95 131 169 221 258 326 403
#     4  12  26  41  65 102 134 171 213 279 335 387
#     4  11  22  40  66  97 130 171 213 272 332 389
#     4  11  23  45  71  90 126 181 229 264 316 397
#
# _framework density 20.825804000000002
#
# number of rings (size 3 to 8) (size 9 to 14) (size 15 to 20)
#    0.000    1.000    5.000    2.500    2.333    3.333 
#    0.000    2.500    0.000    0.000    0.000    0.000 
#    0.000    0.000    0.000    0.000    0.000    0.000 
#
# Total GULP energy -595063.504576 kJ/mol
# GULP energy per Si atom -12397.156345 kJ/mol
# Density = 2.077840 g / cm^3
# Si number density = 20.825804 Si / 1000 Ang^3
#
#
#
# Elastic Constant Matrix: (Units=GPa)
#
#
# Indices 1 2 3 4 5 6 
#
# 1 126.1631 36.7143 29.0474 0.0000 0.0000 0.0000
# 2 36.7143 87.4105 29.2456 0.0000 0.0000 0.0000
# 3 29.0474 29.2456 97.2174 0.0000 0.0000 0.0000
# 4 0.0000 0.0000 0.0000 50.3462 0.0000 0.0000
# 5 0.0000 0.0000 0.0000 0.0000 27.3350 0.0000
# 6 0.0000 0.0000 0.0000 0.0000 0.0000 17.4193
#
#
#
# Elastic Compliance Matrix: (Units=1/GPa)
#
#
# Indices 1 2 3 4 5 6 
#
# 1 0.009300 -0.003310 -0.001783 0.000000 0.000000 0.000000
# 2 -0.003310 0.013898 -0.003192 0.000000 0.000000 0.000000
# 3 -0.001783 -0.003192 0.011779 0.000000 0.000000 0.000000
# 4 0.000000 0.000000 0.000000 0.019862 0.000000 0.000000
# 5 0.000000 0.000000 0.000000 0.000000 0.036583 0.000000
# 6 0.000000 0.000000 0.000000 0.000000 0.000000 0.057407
#
#
# Mechanical properties :
#
#
# Convention : Reuss Voigt Hill
#
# Bulk Modulus (GPa) = 54.32443 55.64509 54.98476
# Shear Modulus (GPa) = 29.14837 33.40569 31.27703
#
# Velocity S-wave (km/s) = 3.74522 4.00941 3.87956
# Velocity P-wave (km/s) = 6.69657 6.94342 6.82111
#
# Compressibility (1/GPa) = 0.01840793
#
# Stress axis : x y z
#
# Youngs Moduli (GPa) = 107.52817 71.95079 84.89488
#
# Poissons Ratio (x) = 0.23813 0.15138
# Poissons Ratio (y) = 0.35587 0.27100
# Poissons Ratio (z) = 0.19173 0.22968
#
# Static dielectric constant tensor:
#      x y z
#    x 3.304250 0.000000 0.000000 
#    y 0.000000 3.797280 0.000000 
#    z 0.000000 0.000000 3.987180 
# 
# 
# High freq. dielectric constant tensor:
#      x y z
#    x 1.826910 0.000000 0.000000 
#    y 0.000000 1.816300 0.000000 
#    z 0.000000 0.000000 1.813100 
# 
# From -- ./inp_files/27875.got.cif
#   From: 2010.06.25/outbox.cif.g09.slc.cpg/sg48_14_cif.got.tgz:27875.got - 2010.06.26 18:06:46.
