data_PCOD8201943
_publ_section_title
;
Structure prediction by ZEFSAII (Michael W. Deem and Ramdas Pophale) SiO2 
 PCOD8201943
Probable space group: P N N N
;
_chemical_formula_sum "Si O2"
_cell_formula_units_Z 64
_cell_length_a 9.535218
_cell_length_b 10.709330
_cell_length_c 31.766138
_cell_angle_alpha 90.000000
_cell_angle_beta 90.000000
_cell_angle_gamma 90.000000
_cell_volume 3243.824474
_symmetry_space_group_name_H-M "P N N N"
_symmetry_group_IT_number 48
_space_group.IT_coordinate_system_code '2'
_symmetry_cell_setting 'orthorhombic'
loop_
_space_group_symop_operation_xyz
x,y,z
1/2-x,1/2-y,z
x,1/2-y,1/2-z
1/2-x,y,1/2-z
-x,-y,-z
1/2+x,1/2+y,-z
-x,1/2+y,1/2+z
1/2+x,-y,1/2+z
loop_
_atom_site_type_symbol
_atom_site_label
_atom_site_fract_x
_atom_site_fract_y
_atom_site_fract_z
Si Si1 0.664195 0.375672 0.527164
Si Si2 0.529126 0.494263 0.673010
Si Si3 0.333939 0.127217 0.976836
Si Si4 0.903790 0.892894 0.245515
Si Si5 0.238307 0.607860 0.378822
Si Si6 0.522539 0.504147 0.159626
Si Si7 0.283995 0.109435 0.879845
Si Si8 0.082987 0.245252 0.200785
O O1 0.750000 0.250000 0.513531
O O2 0.500027 0.345024 0.520694
O O3 0.706864 0.499970 0.501363
O O4 0.697862 0.411643 0.575051
O O5 0.510855 0.438223 0.719175
O O6 0.686140 0.472438 0.657082
O O7 0.433154 0.429237 0.638220
O O8 0.508204 0.641564 0.676680
O O9 0.250000 0.250000 0.994393
O O10 0.284959 0.101956 0.929707
O O11 0.874273 0.750000 0.250000
O O12 0.750000 0.960532 0.250000
O O13 0.977892 0.911320 0.201037
O O14 0.250000 0.750000 0.365198
O O15 0.078344 0.561363 0.376340
O O16 0.674978 0.508515 0.138284
O O17 0.481827 0.367858 0.174951
O O18 0.250000 0.250000 0.864262
O O19 0.250000 0.250000 0.196692
O O20 0.039160 0.250000 0.250000
#
# Coordination Sequence:
#
# PCOD8201943 Si02
#       8
#     8   8   8   8   8   8   8   8
#     4  10  23  45  69 100 137 170 213 269 323 394
#     4  12  22  41  64  88 128 168 213 263 321 371
#     4  10  23  45  70  99 135 174 211 263 332 392
#     4  11  22  37  60  92 128 162 207 268 319 376
#     4  11  23  40  65  96 124 164 214 272 321 374
#     4  12  24  41  62  94 125 169 220 258 323 380
#     4  11  23  42  67  98 128 162 208 272 323 380
#     4  11  24  44  59  82 131 176 215 262 313 379
#
# _framework density 19.729797000000001
#
# number of rings (size 3 to 8) (size 9 to 14) (size 15 to 20)
#    0.000    1.000    5.000    2.250    5.250    1.500 
#    4.500    2.500    0.000    0.000    0.000    0.000 
#    0.000    0.000    0.000    0.000    0.000    0.000 
#
# Total GULP energy -793467.706629 kJ/mol
# GULP energy per Si atom -12397.932916 kJ/mol
# Density = 1.968489 g / cm^3
# Si number density = 19.729797 Si / 1000 Ang^3
#
#
#
# Elastic Constant Matrix: (Units=GPa)
#
#
# Indices 1 2 3 4 5 6 
#
# 1 64.6726 37.2051 33.2804 0.0000 0.0000 0.0000
# 2 37.2051 146.1556 55.7582 0.0000 0.0000 0.0000
# 3 33.2804 55.7582 81.0466 0.0000 0.0000 0.0000
# 4 0.0000 0.0000 0.0000 11.9716 0.0000 0.0000
# 5 0.0000 0.0000 0.0000 0.0000 41.8604 0.0000
# 6 0.0000 0.0000 0.0000 0.0000 0.0000 38.4877
#
#
#
# Elastic Compliance Matrix: (Units=1/GPa)
#
#
# Indices 1 2 3 4 5 6 
#
# 1 0.020364 -0.002703 -0.006502 0.000000 0.000000 0.000000
# 2 -0.002703 0.009636 -0.005519 0.000000 0.000000 0.000000
# 3 -0.006502 -0.005519 0.018806 0.000000 0.000000 0.000000
# 4 0.000000 0.000000 0.000000 0.083531 0.000000 0.000000
# 5 0.000000 0.000000 0.000000 0.000000 0.023889 0.000000
# 6 0.000000 0.000000 0.000000 0.000000 0.000000 0.025982
#
#
# Mechanical properties :
#
#
# Convention : Reuss Voigt Hill
#
# Bulk Modulus (GPa) = 51.66386 60.48469 56.07428
# Shear Modulus (GPa) = 22.92438 29.50602 26.21520
#
# Velocity S-wave (km/s) = 3.41239 3.87137 3.64910
# Velocity P-wave (km/s) = 6.46285 7.12085 6.79981
#
# Compressibility (1/GPa) = 0.01935589
#
# Stress axis : x y z
#
# Youngs Moduli (GPa) = 49.10711 103.78116 53.17547
#
# Poissons Ratio (x) = 0.28053 0.34576
# Poissons Ratio (y) = 0.13274 0.29348
# Poissons Ratio (z) = 0.31931 0.57278
#
# Static dielectric constant tensor:
#      x y z
#    x 3.785140 0.000000 0.000000 
#    y 0.000000 0.528410 0.000000 
#    z 0.000000 0.000000 3.537100 
# 
# 
# High freq. dielectric constant tensor:
#      x y z
#    x 1.777250 0.000000 0.000000 
#    y 0.000000 1.772450 0.000000 
#    z 0.000000 0.000000 1.767030 
# 
# From -- ./inp_files/38814.got.cif
#   From: 2010.06.25/outbox.cif.g09.slc.cpg/sg48_20_cif.got.tgz:38814.got - 2010.06.26 18:06:46.
