data_PCOD8201494
_publ_section_title
;
Structure prediction by ZEFSAII (Michael W. Deem and Ramdas Pophale) SiO2 
 PCOD8201494
Probable space group: P N N N
;
_chemical_formula_sum "Si O2"
_cell_formula_units_Z 48
_cell_length_a 15.656931
_cell_length_b 6.919094
_cell_length_c 23.577440
_cell_angle_alpha 90.000000
_cell_angle_beta 90.000000
_cell_angle_gamma 90.000000
_cell_volume 2554.185980
_symmetry_space_group_name_H-M "P N N N"
_symmetry_group_IT_number 48
_space_group.IT_coordinate_system_code '2'
_symmetry_cell_setting 'orthorhombic'
loop_
_space_group_symop_operation_xyz
x,y,z
1/2-x,1/2-y,z
x,1/2-y,1/2-z
1/2-x,y,1/2-z
-x,-y,-z
1/2+x,1/2+y,-z
-x,1/2+y,1/2+z
1/2+x,-y,1/2+z
loop_
_atom_site_type_symbol
_atom_site_label
_atom_site_fract_x
_atom_site_fract_y
_atom_site_fract_z
Si Si1 0.750000 0.750000 0.395632
Si Si2 0.447817 0.137437 0.080117
Si Si3 0.916442 0.672446 0.049170
Si Si4 0.855567 0.584418 0.297987
Si Si5 0.250000 0.750000 0.750000
Si Si6 0.836021 0.168873 0.641609
Si Si7 0.250000 0.750000 0.250000
Si Si8 0.009633 0.546370 0.371543
O O1 0.817600 0.864770 0.434581
O O2 0.805952 0.615730 0.356050
O O3 0.470516 0.323110 0.117109
O O4 0.532653 0.009510 0.074162
O O5 0.371839 0.022288 0.111590
O O6 0.417170 0.196819 0.018037
O O7 0.957492 0.866661 0.075181
O O8 0.841008 0.750000 0.250000
O O9 0.817461 0.379959 0.282410
O O10 0.955375 0.566650 0.313228
O O11 0.750000 0.250000 0.610300
O O12 0.810708 0.122199 0.707755
O O13 0.903235 0.341836 0.638866
#
# Coordination Sequence:
#
# PCOD8201494 Si02
#       8
#     4   8   8   8   2   8   2   8
#     4  10  19  40  56  78 120 165 182 244 304 352
#     4  10  20  40  61  92 115 157 203 248 297 371
#     4   9  21  37  60  85 127 151 196 252 299 353
#     4  11  23  38  57  85 123 158 199 249 294 360
#     4  12  22  36  60  84 112 162 198 248 288 356
#     4   9  21  40  62  82 121 155 197 255 305 355
#     4   8  20  44  58  78 120 156 180 264 304 348
#     4  10  22  37  62  87 119 161 196 246 308 362
#
# _framework density 18.792681000000002
#
# number of rings (size 3 to 8) (size 9 to 14) (size 15 to 20)
#    0.500    1.667    1.667    0.500    3.500    3.333 
#    0.000    4.167    0.000    0.000    0.000    0.000 
#    0.000    0.000    0.000    0.000    0.000    0.000 
#
# Total GULP energy -594693.469718 kJ/mol
# GULP energy per Si atom -12389.447286 kJ/mol
# Density = 1.874991 g / cm^3
# Si number density = 18.792681 Si / 1000 Ang^3
#
#
#
# Elastic Constant Matrix: (Units=GPa)
#
#
# Indices 1 2 3 4 5 6 
#
# 1 154.9503 53.5305 58.4087 0.0000 0.0000 0.0000
# 2 53.5305 114.8688 41.0114 0.0000 0.0000 0.0000
# 3 58.4087 41.0114 100.3421 0.0000 0.0000 0.0000
# 4 0.0000 0.0000 0.0000 7.4703 0.0000 0.0000
# 5 0.0000 0.0000 0.0000 0.0000 36.5188 0.0000
# 6 0.0000 0.0000 0.0000 0.0000 0.0000 19.3788
#
#
#
# Elastic Compliance Matrix: (Units=1/GPa)
#
#
# Indices 1 2 3 4 5 6 
#
# 1 0.008930 -0.002699 -0.004095 0.000000 0.000000 0.000000
# 2 -0.002699 0.011009 -0.002928 0.000000 0.000000 0.000000
# 3 -0.004095 -0.002928 0.013546 0.000000 0.000000 0.000000
# 4 0.000000 0.000000 0.000000 0.133864 0.000000 0.000000
# 5 0.000000 0.000000 0.000000 0.000000 0.027383 0.000000
# 6 0.000000 0.000000 0.000000 0.000000 0.000000 0.051603
#
#
# Mechanical properties :
#
#
# Convention : Reuss Voigt Hill
#
# Bulk Modulus (GPa) = 71.22356 75.11802 73.17079
# Shear Modulus (GPa) = 18.48704 27.15428 22.82066
#
# Velocity S-wave (km/s) = 3.13986 3.80536 3.48852
# Velocity P-wave (km/s) = 7.15030 7.70496 7.43281
#
# Compressibility (1/GPa) = 0.01404030
#
# Stress axis : x y z
#
# Youngs Moduli (GPa) = 111.98516 90.83447 73.82146
#
# Poissons Ratio (x) = 0.24521 0.30227
# Poissons Ratio (y) = 0.30230 0.21616
# Poissons Ratio (z) = 0.45854 0.26598
#
# Static dielectric constant tensor:
#      x y z
#    x 4.340630 0.000000 0.000000 
#    y 0.000000 3.231260 0.000000 
#    z 0.000000 0.000000 3.669030 
# 
# 
# High freq. dielectric constant tensor:
#      x y z
#    x 1.747290 0.000000 0.000000 
#    y 0.000000 1.714360 0.000000 
#    z 0.000000 0.000000 1.728290 
# 
# From -- ./inp_files/37923.got.cif
#   From: 2010.06.25/outbox.cif.g09.slc.cpg/sg48_19_cif.got.tgz:37923.got - 2010.06.26 18:06:46.
