data_PCOD8201486
_publ_section_title
;
Structure prediction by ZEFSAII (Michael W. Deem and Ramdas Pophale) SiO2 
 PCOD8201486
Probable space group: P N N N
;
_chemical_formula_sum "Si O2"
_cell_formula_units_Z 46
_cell_length_a 11.489523
_cell_length_b 8.496580
_cell_length_c 20.051255
_cell_angle_alpha 90.000000
_cell_angle_beta 90.000000
_cell_angle_gamma 90.000000
_cell_volume 1957.436624
_symmetry_space_group_name_H-M "P N N N"
_symmetry_group_IT_number 48
_space_group.IT_coordinate_system_code '2'
_symmetry_cell_setting 'orthorhombic'
loop_
_space_group_symop_operation_xyz
x,y,z
1/2-x,1/2-y,z
x,1/2-y,1/2-z
1/2-x,y,1/2-z
-x,-y,-z
1/2+x,1/2+y,-z
-x,1/2+y,1/2+z
1/2+x,-y,1/2+z
loop_
_atom_site_type_symbol
_atom_site_label
_atom_site_fract_x
_atom_site_fract_y
_atom_site_fract_z
Si Si1 0.583119 0.992240 0.768910
Si Si2 0.843027 0.556910 0.301179
Si Si3 0.055120 0.676492 0.540771
Si Si4 0.750000 0.250000 0.750000
Si Si5 0.373352 0.208950 0.352958
Si Si6 0.366788 0.163299 0.555618
Si Si7 0.750000 0.250000 0.124890
O O1 0.457817 0.041509 0.742430
O O2 0.661960 0.140294 0.793328
O O3 0.652248 0.909129 0.707962
O O4 0.563804 0.869705 0.828635
O O5 0.750000 0.630514 0.250000
O O6 0.868382 0.672281 0.363723
O O7 0.793501 0.391154 0.328630
O O8 0.129943 0.516958 0.528195
O O9 0.143414 0.801674 0.574956
O O10 0.955888 0.625766 0.593895
O O11 0.985625 0.742688 0.475620
O O12 0.250000 0.250000 0.386558
O O13 0.250000 0.250000 0.529638
#
# Coordination Sequence:
#
# PCOD8201486 Si02
#       7
#     8   8   8   2   8   8   4
#     4  11  22  38  63  97 141 175 237 286 354 425
#     4  11  23  39  65  96 134 180 219 295 355 427
#     4  10  21  40  68  94 129 173 235 297 343 417
#     4  12  24  42  56  96 146 186 212 298 358 446
#     4  11  19  38  67 100 125 186 235 291 342 414
#     4  10  22  41  63  91 132 177 223 284 355 423
#     4  10  19  38  67 100 125 163 240 292 350 402
#
# _framework density 23.500122000000001
#
# number of rings (size 3 to 8) (size 9 to 14) (size 15 to 20)
#    0.000    1.391    5.217    2.348    2.435    1.739 
#    0.000    4.348    0.000    0.000    0.000    0.000 
#    0.000    0.000    0.000    0.000    0.000    0.000 
#
# Total GULP energy -569873.402482 kJ/mol
# GULP energy per Si atom -12388.552228 kJ/mol
# Density = 2.344663 g / cm^3
# Si number density = 23.500122 Si / 1000 Ang^3
#
#
#
# Elastic Constant Matrix: (Units=GPa)
#
#
# Indices 1 2 3 4 5 6 
#
# 1 177.4805 48.3217 57.4585 0.0000 0.0000 0.0000
# 2 48.3217 77.7771 23.2019 0.0000 0.0000 0.0000
# 3 57.4585 23.2019 118.8953 0.0000 0.0000 0.0000
# 4 0.0000 0.0000 0.0000 15.8136 0.0000 0.0000
# 5 0.0000 0.0000 0.0000 0.0000 40.6205 0.0000
# 6 0.0000 0.0000 0.0000 0.0000 0.0000 40.9879
#
#
#
# Elastic Compliance Matrix: (Units=1/GPa)
#
#
# Indices 1 2 3 4 5 6 
#
# 1 0.007639 -0.003870 -0.002936 0.000000 0.000000 0.000000
# 2 -0.003870 0.015612 -0.001177 0.000000 0.000000 0.000000
# 3 -0.002936 -0.001177 0.010059 0.000000 0.000000 0.000000
# 4 0.000000 0.000000 0.000000 0.063237 0.000000 0.000000
# 5 0.000000 0.000000 0.000000 0.000000 0.024618 0.000000
# 6 0.000000 0.000000 0.000000 0.000000 0.000000 0.024397
#
#
# Mechanical properties :
#
#
# Convention : Reuss Voigt Hill
#
# Bulk Modulus (GPa) = 57.65312 70.23525 63.94419
# Shear Modulus (GPa) = 29.88468 35.82914 32.85691
#
# Velocity S-wave (km/s) = 3.56993 3.90890 3.74325
# Velocity P-wave (km/s) = 6.44817 7.09399 6.77878
#
# Compressibility (1/GPa) = 0.01734512
#
# Stress axis : x y z
#
# Youngs Moduli (GPa) = 130.91274 64.05127 99.40942
#
# Poissons Ratio (x) = 0.24787 0.29190
# Poissons Ratio (y) = 0.50661 0.11696
# Poissons Ratio (z) = 0.38441 0.07536
#
# Static dielectric constant tensor:
#      x y z
#    x 4.618040 0.000000 0.000000 
#    y 0.000000 4.032460 0.000000 
#    z 0.000000 0.000000 4.300310 
# 
# 
# High freq. dielectric constant tensor:
#      x y z
#    x 1.953760 0.000000 0.000000 
#    y 0.000000 1.901940 0.000000 
#    z 0.000000 0.000000 1.909580 
# 
# From -- ./inp_files/36290.got.cif
#   From: 2010.06.25/outbox.cif.g09.slc.cpg/sg48_19_cif.got.tgz:36290.got - 2010.06.26 18:06:46.
