data_PCOD8201092
_publ_section_title
;
Structure prediction by ZEFSAII (Michael W. Deem and Ramdas Pophale) SiO2 
 PCOD8201092
Probable space group: P M M M
;
_chemical_formula_sum "Si O2"
_cell_formula_units_Z 36
_cell_length_a 7.693728
_cell_length_b 24.987599
_cell_length_c 9.836223
_cell_angle_alpha 90.000000
_cell_angle_beta 90.000000
_cell_angle_gamma 90.000000
_cell_volume 1890.992134
_symmetry_space_group_name_H-M "P M M M"
_symmetry_group_IT_number 47
_symmetry_cell_setting 'orthorhombic'
loop_
_space_group_symop_operation_xyz
x,y,z
-x,-y,z
x,-y,-z
-x,y,-z
-x,-y,-z
x,y,-z
-x,y,z
x,-y,z
loop_
_atom_site_type_symbol
_atom_site_label
_atom_site_fract_x
_atom_site_fract_y
_atom_site_fract_z
Si Si1 0.797949 0.148481 0.650431
Si Si2 0.000000 0.559233 0.160326
Si Si3 0.298782 0.638581 0.158717
Si Si4 0.295324 0.735059 0.347748
Si Si5 0.793327 0.940570 0.848339
O O1 0.712445 0.144590 0.500000
O O2 0.768587 0.207889 0.709941
O O3 0.711006 0.104000 0.748231
O O4 0.000000 0.136171 0.639860
O O5 0.823743 0.589601 0.205346
O O6 0.000000 0.500000 0.227197
O O7 0.000000 0.553673 0.000000
O O8 0.500000 0.623787 0.190024
O O9 0.232128 0.689471 0.244356
O O10 0.273449 0.652176 0.000000
O O11 0.218894 0.724990 0.500000
O O12 0.500000 0.735085 0.353964
O O13 0.000000 0.936229 0.850530
O O14 0.737128 0.000000 0.799125
O O15 0.721163 0.930056 0.000000
#
# Coordination Sequence:
#
# PCOD8201092 Si02
#       5
#     8   4   8   8   8
#     4   9  17  27  41  64  88 111 146 190 232 276
#     4   9  18  32  51  77 105 131 162 201 242 281
#     4   9  18  32  50  73  99 128 164 202 239 283
#     4   9  18  32  48  66  92 126 157 189 236 287
#     4   8  14  25  40  59  85 115 146 183 230 281
#
# _framework density 19.037624000000001
#
# number of rings (size 3 to 8) (size 9 to 14) (size 15 to 20)
#    0.000    3.222    0.000    0.667    1.556    1.778 
#    0.000    4.444    0.000    2.000    0.000    7.778 
#    0.000    0.000    0.000    0.000    0.000    0.000 
#
# Total GULP energy -446168.656386 kJ/mol
# GULP energy per Si atom -12393.573789 kJ/mol
# Density = 1.899429 g / cm^3
# Si number density = 19.037624 Si / 1000 Ang^3
#
#
#
# Elastic Constant Matrix: (Units=GPa)
#
#
# Indices 1 2 3 4 5 6 
#
# 1 44.5930 42.8178 22.1727 0.0000 0.0000 0.0000
# 2 42.8178 195.5321 88.6293 0.0000 0.0000 0.0000
# 3 22.1727 88.6293 80.3027 0.0000 0.0000 0.0000
# 4 0.0000 0.0000 0.0000 15.0205 0.0000 0.0000
# 5 0.0000 0.0000 0.0000 0.0000 9.6744 0.0000
# 6 0.0000 0.0000 0.0000 0.0000 0.0000 -20.0417
#
#
#
# Elastic Compliance Matrix: (Units=1/GPa)
#
#
# Indices 1 2 3 4 5 6 
#
# 1 0.028550 -0.005360 -0.001967 0.000000 0.000000 0.000000
# 2 -0.005360 0.011241 -0.010926 0.000000 0.000000 0.000000
# 3 -0.001967 -0.010926 0.025055 0.000000 0.000000 0.000000
# 4 0.000000 0.000000 0.000000 0.066576 0.000000 0.000000
# 5 0.000000 0.000000 0.000000 0.000000 0.103365 0.000000
# 6 0.000000 0.000000 0.000000 0.000000 0.000000 -0.049896
#
#
# Mechanical properties :
#
#
# Convention : Reuss Voigt Hill
#
# Bulk Modulus (GPa) = 35.28709 69.74081 52.51395
# Shear Modulus (GPa) = 21.65972 12.05117 16.85544
#
# Velocity S-wave (km/s) = 3.37669 2.51872 2.97875
# Velocity P-wave (km/s) = 5.81192 6.72096 6.28290
#
# Compressibility (1/GPa) = 0.02833898
#
# Stress axis : x y z
#
# Youngs Moduli (GPa) = 35.02622 88.96399 39.91253
#
# Poissons Ratio (x) = 0.47688 0.07850
# Poissons Ratio (y) = 0.18775 0.43608
# Poissons Ratio (z) = 0.06889 0.97202
#
# Static dielectric constant tensor:
#      x y z
#    x 3.237190 0.000000 0.000000 
#    y 0.000000 3.752250 0.000000 
#    z 0.000000 0.000000 3.756170 
# 
# 
# High freq. dielectric constant tensor:
#      x y z
#    x 1.723860 0.000000 0.000000 
#    y 0.000000 1.738170 0.000000 
#    z 0.000000 0.000000 1.720990 
# 
# From -- ./inp_files/1397.got.cif
#   From: 2010.03.12/outbox.cif.g09.slc.cpg/sg47_1_cif.got.tgz:1397.got - 2010.04.14 03:12:58.
