data_PCOD8201823
_publ_section_title
;
Structure prediction by ZEFSAII (Michael W. Deem and Ramdas Pophale) SiO2 
 PCOD8201823
Probable space group: P N N N
;
_chemical_formula_sum "Si O2"
_cell_formula_units_Z 26
_cell_length_a 19.906214
_cell_length_b 4.831562
_cell_length_c 12.511295
_cell_angle_alpha 90.000000
_cell_angle_beta 90.000000
_cell_angle_gamma 90.000000
_cell_volume 1203.312671
_symmetry_space_group_name_H-M "P N N N"
_symmetry_group_IT_number 48
_space_group.IT_coordinate_system_code '2'
_symmetry_cell_setting 'orthorhombic'
loop_
_space_group_symop_operation_xyz
x,y,z
1/2-x,1/2-y,z
x,1/2-y,1/2-z
1/2-x,y,1/2-z
-x,-y,-z
1/2+x,1/2+y,-z
-x,1/2+y,1/2+z
1/2+x,-y,1/2+z
loop_
_atom_site_type_symbol
_atom_site_label
_atom_site_fract_x
_atom_site_fract_y
_atom_site_fract_z
Si Si1 0.312620 0.585209 0.046112
Si Si2 0.397824 0.081895 0.005426
Si Si3 0.750000 0.250000 0.750000
Si Si4 0.496097 0.502469 0.678120
O O1 0.250000 0.750000 0.989440
O O2 0.330425 0.274758 0.007117
O O3 0.378338 0.762291 0.019486
O O4 0.297276 0.561743 0.173538
O O5 0.436192 0.122007 0.894139
O O6 0.446270 0.144932 0.105544
O O7 0.466830 0.750000 0.750000
O O8 0.523945 0.250000 0.750000
#
# Coordination Sequence:
#
# PCOD8201823 Si02
#       4
#     8   8   2   8
#     4  10  22  37  60  89 128 151 203 247 316 375
#     4  11  23  40  60  92 125 161 204 254 309 372
#     4   8  24  34  60  98 114 170 196 246 330 386
#     4  11  24  39  63  89 123 168 209 253 307 365
#
# _framework density 21.607019999999999
#
# number of rings (size 3 to 8) (size 9 to 14) (size 15 to 20)
#    0.923    0.615    0.000    4.615    6.462    6.154 
#    0.000    0.000    0.000   13.846    0.000    0.000 
#    0.000    0.000    0.000    0.000    0.000    0.000 
#
# Total GULP energy -322210.186553 kJ/mol
# GULP energy per Si atom -12392.699483 kJ/mol
# Density = 2.155784 g / cm^3
# Si number density = 21.607020 Si / 1000 Ang^3
#
#
#
# Elastic Constant Matrix: (Units=GPa)
#
#
# Indices 1 2 3 4 5 6 
#
# 1 74.7086 20.4822 35.2960 0.0000 0.0000 0.0000
# 2 20.4822 112.6761 40.1462 0.0000 0.0000 0.0000
# 3 35.2960 40.1462 97.0074 0.0000 0.0000 0.0000
# 4 0.0000 0.0000 0.0000 17.5075 0.0000 0.0000
# 5 0.0000 0.0000 0.0000 0.0000 16.6466 0.0000
# 6 0.0000 0.0000 0.0000 0.0000 0.0000 48.1738
#
#
#
# Elastic Compliance Matrix: (Units=1/GPa)
#
#
# Indices 1 2 3 4 5 6 
#
# 1 0.016258 -0.000994 -0.005504 0.000000 0.000000 0.000000
# 2 -0.000994 0.010471 -0.003971 0.000000 0.000000 0.000000
# 3 -0.005504 -0.003971 0.013955 0.000000 0.000000 0.000000
# 4 0.000000 0.000000 0.000000 0.057118 0.000000 0.000000
# 5 0.000000 0.000000 0.000000 0.000000 0.060072 0.000000
# 6 0.000000 0.000000 0.000000 0.000000 0.000000 0.020758
#
#
# Mechanical properties :
#
#
# Convention : Reuss Voigt Hill
#
# Bulk Modulus (GPa) = 50.64826 52.91565 51.78195
# Shear Modulus (GPa) = 24.25376 29.03011 26.64194
#
# Velocity S-wave (km/s) = 3.35400 3.66942 3.51525
# Velocity P-wave (km/s) = 6.20408 6.51890 6.36344
#
# Compressibility (1/GPa) = 0.01974402
#
# Stress axis : x y z
#
# Youngs Moduli (GPa) = 61.50694 95.50388 71.66035
#
# Poissons Ratio (x) = 0.09496 0.39442
# Poissons Ratio (y) = 0.06116 0.28460
# Poissons Ratio (z) = 0.33854 0.37929
#
# Static dielectric constant tensor:
#      x y z
#    x 3.739130 0.000000 0.000000 
#    y 0.000000 3.644570 0.000000 
#    z 0.000000 0.000000 3.653970 
# 
# 
# High freq. dielectric constant tensor:
#      x y z
#    x 1.842590 0.000000 0.000000 
#    y 0.000000 1.854950 0.000000 
#    z 0.000000 0.000000 1.820760 
# 
# From -- ./inp_files/17280.got.cif
#   From: 2010.06.25/outbox.cif.g09.slc.cpg/sg48_9_cif.got.tgz:17280.got - 2010.06.26 18:06:46.
