data_PCOD8201063
_publ_section_title
;
Structure prediction by ZEFSAII (Michael W. Deem and Ramdas Pophale) SiO2 
 PCOD8201063
Probable space group: P M M M
;
_chemical_formula_sum "Si O2"
_cell_formula_units_Z 44
_cell_length_a 7.830971
_cell_length_b 30.132780
_cell_length_c 9.980195
_cell_angle_alpha 90.000000
_cell_angle_beta 90.000000
_cell_angle_gamma 90.000000
_cell_volume 2355.015899
_symmetry_space_group_name_H-M "P M M M"
_symmetry_group_IT_number 47
_symmetry_cell_setting 'orthorhombic'
loop_
_space_group_symop_operation_xyz
x,y,z
-x,-y,z
x,-y,-z
-x,y,-z
-x,-y,-z
x,y,-z
-x,y,z
x,-y,z
loop_
_atom_site_type_symbol
_atom_site_label
_atom_site_fract_x
_atom_site_fract_y
_atom_site_fract_z
Si Si1 0.298268 0.377288 0.850093
Si Si2 0.810118 0.108870 0.659379
Si Si3 0.799002 0.719434 0.850351
Si Si4 0.500000 0.949855 0.340013
Si Si5 0.703171 0.549452 0.350234
Si Si6 0.202112 0.792184 0.351207
O O1 0.500000 0.381781 0.853134
O O2 0.246469 0.329132 0.793549
O O3 0.218325 0.414869 0.753307
O O4 0.222907 0.383712 0.000000
O O5 0.817081 0.107044 0.500000
O O6 0.670282 0.074350 0.715722
O O7 0.753874 0.158491 0.702542
O O8 0.000000 0.097103 0.715847
O O9 0.718091 0.756258 0.751255
O O10 0.000000 0.725781 0.856322
O O11 0.720864 0.725238 0.000000
O O12 0.500000 0.948720 0.500000
O O13 0.500000 0.000000 0.285605
O O14 0.769316 0.560497 0.500000
O O15 0.500000 0.551655 0.348265
O O16 0.763706 0.500000 0.308247
O O17 0.280364 0.784586 0.500000
O O18 0.000000 0.786789 0.360099
#
# Coordination Sequence:
#
# PCOD8201063 Si02
#       6
#     8   8   8   4   8   8
#     4   9  17  28  41  59  83 106 130 166 209 250
#     4   8  14  25  39  55  80 113 146 183 224 264
#     4   9  17  29  44  61  83 111 140 171 209 253
#     4   9  16  24  36  58  87 117 149 183 222 271
#     4   8  14  25  41  60  81 105 134 170 209 246
#     4   8  14  26  43  60  80 109 142 173 208 252
#
# _framework density 18.683527000000002
#
# number of rings (size 3 to 8) (size 9 to 14) (size 15 to 20)
#    0.000    3.545    0.000    1.636    0.000    1.455 
#    1.636    3.636    0.000    0.545    0.000    3.818 
#    0.000    1.455    0.000    7.091    0.000    7.273 
#
# Total GULP energy -545264.069474 kJ/mol
# GULP energy per Si atom -12392.365215 kJ/mol
# Density = 1.864100 g / cm^3
# Si number density = 18.683527 Si / 1000 Ang^3
#
#
#
# Elastic Constant Matrix: (Units=GPa)
#
#
# Indices 1 2 3 4 5 6 
#
# 1 44.3985 41.1577 18.8402 0.0000 0.0000 0.0000
# 2 41.1577 187.4220 78.8305 0.0000 0.0000 0.0000
# 3 18.8402 78.8305 71.2962 0.0000 0.0000 0.0000
# 4 0.0000 0.0000 0.0000 11.8987 0.0000 0.0000
# 5 0.0000 0.0000 0.0000 0.0000 6.3338 0.0000
# 6 0.0000 0.0000 0.0000 0.0000 0.0000 1509.4475
#
#
#
# Elastic Compliance Matrix: (Units=1/GPa)
#
#
# Indices 1 2 3 4 5 6 
#
# 1 0.028329 -0.005743 -0.001136 0.000000 0.000000 0.000000
# 2 -0.005743 0.011138 -0.010798 0.000000 0.000000 0.000000
# 3 -0.001136 -0.010798 0.026265 0.000000 0.000000 0.000000
# 4 0.000000 0.000000 0.000000 0.084042 0.000000 0.000000
# 5 0.000000 0.000000 0.000000 0.000000 0.157882 0.000000
# 6 0.000000 0.000000 0.000000 0.000000 0.000000 0.000662
#
#
# Mechanical properties :
#
#
# Convention : Reuss Voigt Hill
#
# Bulk Modulus (GPa) = 32.91764 64.53039 48.72402
# Shear Modulus (GPa) = 14.13230 316.48858 165.31044
#
# Velocity S-wave (km/s) = 2.75326 13.02928 9.41655
# Velocity P-wave (km/s) = 5.26916 16.15436 12.01514
#
# Compressibility (1/GPa) = 0.03037885
#
# Stress axis : x y z
#
# Youngs Moduli (GPa) = 35.29906 89.77990 38.07363
#
# Poissons Ratio (x) = 0.51564 0.04324
# Poissons Ratio (y) = 0.20274 0.41111
# Poissons Ratio (z) = 0.04009 0.96942
#
# Static dielectric constant tensor:
#      x y z
#    x 3.206570 0.000000 0.000000 
#    y 0.000000 3.670880 0.000000 
#    z 0.000000 0.000000 3.517150 
# 
# 
# High freq. dielectric constant tensor:
#      x y z
#    x 1.700310 0.000000 0.000000 
#    y 0.000000 1.728140 0.000000 
#    z 0.000000 0.000000 1.683830 
# 
# From -- ./inp_files/2095.got.cif
#   From: 2010.03.12/outbox.cif.g09.slc.cpg/sg47_2_cif.got.tgz:2095.got - 2010.04.14 03:12:58.
