data_PCOD8201484
_publ_section_title
;
Structure prediction by ZEFSAII (Michael W. Deem and Ramdas Pophale) SiO2 
 PCOD8201484
Probable space group: P N N N
;
_chemical_formula_sum "Si O2"
_cell_formula_units_Z 58
_cell_length_a 11.622999
_cell_length_b 17.311436
_cell_length_c 14.011730
_cell_angle_alpha 90.000000
_cell_angle_beta 90.000000
_cell_angle_gamma 90.000000
_cell_volume 2819.311449
_symmetry_space_group_name_H-M "P N N N"
_symmetry_group_IT_number 48
_space_group.IT_coordinate_system_code '2'
_symmetry_cell_setting 'orthorhombic'
loop_
_space_group_symop_operation_xyz
x,y,z
1/2-x,1/2-y,z
x,1/2-y,1/2-z
1/2-x,y,1/2-z
-x,-y,-z
1/2+x,1/2+y,-z
-x,1/2+y,1/2+z
1/2+x,-y,1/2+z
loop_
_atom_site_type_symbol
_atom_site_label
_atom_site_fract_x
_atom_site_fract_y
_atom_site_fract_z
Si Si1 0.920006 0.639364 0.139190
Si Si2 0.615663 0.967643 0.614874
Si Si3 0.647164 0.548332 0.540283
Si Si4 0.750000 0.750000 0.250000
Si Si5 0.874514 0.225740 0.558857
Si Si6 0.698416 0.100320 0.083640
Si Si7 0.069847 0.889173 0.000977
Si Si8 0.969287 0.024476 0.299361
O O1 0.829914 0.697812 0.183923
O O2 0.048006 0.676736 0.132496
O O3 0.929843 0.564693 0.208581
O O4 0.872804 0.618194 0.033801
O O5 0.746168 0.935889 0.613129
O O6 0.552560 0.920202 0.531890
O O7 0.552543 0.950609 0.714309
O O8 0.612350 0.058985 0.590743
O O9 0.671956 0.470516 0.485148
O O10 0.532993 0.536165 0.600414
O O11 0.750000 0.250000 0.603936
O O12 0.852489 0.178739 0.461098
O O13 0.947316 0.302050 0.535310
O O14 0.837563 0.106666 0.086598
O O15 0.642771 0.081163 0.188119
#
# Coordination Sequence:
#
# PCOD8201484 Si02
#       8
#     8   8   8   2   8   8   8   8
#     4  11  24  42  63  87 132 164 202 252 320 381
#     4  10  22  35  56  91 122 157 206 258 302 373
#     4  10  19  39  62  85 118 167 203 246 313 371
#     4  12  32  40  58 104 126 168 210 246 312 396
#     4  10  19  38  66  86 113 159 206 247 304 377
#     4   9  17  36  61  85 110 157 207 244 307 369
#     4   9  21  36  56  84 122 160 197 247 316 361
#     4  11  20  37  64  88 116 156 212 260 299 368
#
# _framework density 20.572399000000001
#
# number of rings (size 3 to 8) (size 9 to 14) (size 15 to 20)
#    0.000    1.931    2.759    1.241    3.862    3.862 
#    0.000    1.034    0.000    2.483    0.000    0.000 
#    0.000    0.000    0.000    0.000    0.000    0.000 
#
# Total GULP energy -718923.624030 kJ/mol
# GULP energy per Si atom -12395.234897 kJ/mol
# Density = 2.052558 g / cm^3
# Si number density = 20.572399 Si / 1000 Ang^3
#
#
#
# Elastic Constant Matrix: (Units=GPa)
#
#
# Indices 1 2 3 4 5 6 
#
# 1 87.0401 20.1729 7.1139 0.0000 0.0000 0.0000
# 2 20.1729 83.1901 2.2305 0.0000 0.0000 0.0000
# 3 7.1139 2.2305 41.6610 0.0000 0.0000 0.0000
# 4 0.0000 0.0000 0.0000 15.7319 0.0000 0.0000
# 5 0.0000 0.0000 0.0000 0.0000 35.7562 0.0000
# 6 0.0000 0.0000 0.0000 0.0000 0.0000 28.4428
#
#
#
# Elastic Compliance Matrix: (Units=1/GPa)
#
#
# Indices 1 2 3 4 5 6 
#
# 1 0.012329 -0.002937 -0.001948 0.000000 0.000000 0.000000
# 2 -0.002937 0.012738 -0.000180 0.000000 0.000000 0.000000
# 3 -0.001948 -0.000180 0.024346 0.000000 0.000000 0.000000
# 4 0.000000 0.000000 0.000000 0.063565 0.000000 0.000000
# 5 0.000000 0.000000 0.000000 0.000000 0.027967 0.000000
# 6 0.000000 0.000000 0.000000 0.000000 0.000000 0.035158
#
#
# Mechanical properties :
#
#
# Convention : Reuss Voigt Hill
#
# Bulk Modulus (GPa) = 25.45778 30.10286 27.78032
# Shear Modulus (GPa) = 25.08428 28.14444 26.61436
#
# Velocity S-wave (km/s) = 3.49566 3.70275 3.60070
# Velocity P-wave (km/s) = 5.35672 5.73977 5.55155
#
# Compressibility (1/GPa) = 0.03928072
#
# Stress axis : x y z
#
# Youngs Moduli (GPa) = 81.10984 78.50644 41.07522
#
# Poissons Ratio (x) = 0.23061 0.08001
# Poissons Ratio (y) = 0.23826 0.00741
# Poissons Ratio (z) = 0.15800 0.01416
#
# Static dielectric constant tensor:
#      x y z
#    x 4.177950 0.000000 0.000000 
#    y 0.000000 3.783120 0.000000 
#    z 0.000000 0.000000 3.492190 
# 
# 
# High freq. dielectric constant tensor:
#      x y z
#    x 1.825460 0.000000 0.000000 
#    y 0.000000 1.795550 0.000000 
#    z 0.000000 0.000000 1.770110 
# 
# From -- ./inp_files/26699.got.cif
#   From: 2010.06.25/outbox.cif.g09.slc.cpg/sg48_14_cif.got.tgz:26699.got - 2010.06.26 18:06:46.
