data_PCOD8201638
_publ_section_title
;
Structure prediction by ZEFSAII (Michael W. Deem and Ramdas Pophale) SiO2 
 PCOD8201638
Probable space group: P N N N
;
_chemical_formula_sum "Si O2"
_cell_formula_units_Z 64
_cell_length_a 19.613338
_cell_length_b 9.664173
_cell_length_c 15.983274
_cell_angle_alpha 90.000000
_cell_angle_beta 90.000000
_cell_angle_gamma 90.000000
_cell_volume 3029.576707
_symmetry_space_group_name_H-M "P N N N"
_symmetry_group_IT_number 48
_space_group.IT_coordinate_system_code '2'
_symmetry_cell_setting 'orthorhombic'
loop_
_space_group_symop_operation_xyz
x,y,z
1/2-x,1/2-y,z
x,1/2-y,1/2-z
1/2-x,y,1/2-z
-x,-y,-z
1/2+x,1/2+y,-z
-x,1/2+y,1/2+z
1/2+x,-y,1/2+z
loop_
_atom_site_type_symbol
_atom_site_label
_atom_site_fract_x
_atom_site_fract_y
_atom_site_fract_z
Si Si1 0.146503 0.059071 0.965223
Si Si2 0.757715 0.448540 0.604733
Si Si3 0.946430 0.163661 0.988139
Si Si4 0.144487 0.592138 0.974296
Si Si5 0.250710 0.585552 0.846231
Si Si6 0.085387 0.317115 0.026403
Si Si7 0.150167 0.118442 0.300308
Si Si8 0.115339 0.630432 0.312155
O O1 0.186059 0.000154 0.884849
O O2 0.187237 0.030719 0.050007
O O3 0.137655 0.225436 0.969220
O O4 0.070256 0.986810 0.970271
O O5 0.701282 0.380369 0.545825
O O6 0.719929 0.551175 0.667444
O O7 0.805945 0.343493 0.657334
O O8 0.938617 0.145420 0.888189
O O9 0.888436 0.258457 0.030955
O O10 0.014291 0.240269 0.015593
O O11 0.180299 0.539114 0.889465
O O12 0.088118 0.475090 0.994369
O O13 0.250000 0.750000 0.861404
O O14 0.250000 0.545054 0.750000
O O15 0.102456 0.327299 0.124354
O O16 0.174207 0.250000 0.250000
O O17 0.108953 0.014174 0.238545
O O18 0.094121 0.750000 0.250000
#
# Coordination Sequence:
#
# PCOD8201638 Si02
#       8
#     8   8   8   8   8   8   8   8
#     4  10  21  38  63  90 114 159 203 240 302 373
#     4   9  21  34  58  85 120 146 180 234 298 366
#     4  11  22  41  61  80 119 168 208 245 288 362
#     4  10  21  38  62  91 115 160 204 242 309 376
#     4  10  20  39  66  93 122 146 199 274 320 356
#     4  11  24  41  59  84 123 165 206 243 294 365
#     4  11  23  38  56  88 122 155 190 243 304 357
#     4  11  23  36  57  89 118 151 197 249 302 352
#
# _framework density 21.125063999999998
#
# number of rings (size 3 to 8) (size 9 to 14) (size 15 to 20)
#    0.000    1.625    1.250    4.125    0.000   12.500 
#    0.000    5.000    0.000    0.000    0.000    0.000 
#    0.000    0.000    0.000    0.000    0.000    0.000 
#
# Total GULP energy -792951.345086 kJ/mol
# GULP energy per Si atom -12389.864767 kJ/mol
# Density = 2.107698 g / cm^3
# Si number density = 21.125064 Si / 1000 Ang^3
#
#
#
# Elastic Constant Matrix: (Units=GPa)
#
#
# Indices 1 2 3 4 5 6 
#
# 1 58.3584 -9.1039 25.5668 0.0000 0.0000 0.0000
# 2 -9.1039 59.2189 17.2755 0.0000 0.0000 0.0000
# 3 25.5668 17.2755 120.1350 0.0000 0.0000 0.0000
# 4 0.0000 0.0000 0.0000 30.6718 0.0000 0.0000
# 5 0.0000 0.0000 0.0000 0.0000 10.3092 0.0000
# 6 0.0000 0.0000 0.0000 0.0000 0.0000 15.3486
#
#
#
# Elastic Compliance Matrix: (Units=1/GPa)
#
#
# Indices 1 2 3 4 5 6 
#
# 1 0.019985 0.004502 -0.004900 0.000000 0.000000 0.000000
# 2 0.004502 0.018640 -0.003639 0.000000 0.000000 0.000000
# 3 -0.004900 -0.003639 0.009890 0.000000 0.000000 0.000000
# 4 0.000000 0.000000 0.000000 0.032603 0.000000 0.000000
# 5 0.000000 0.000000 0.000000 0.000000 0.097000 0.000000
# 6 0.000000 0.000000 0.000000 0.000000 0.000000 0.065153
#
#
# Mechanical properties :
#
#
# Convention : Reuss Voigt Hill
#
# Bulk Modulus (GPa) = 24.72765 33.90990 29.31877
# Shear Modulus (GPa) = 18.88035 24.86417 21.87226
#
# Velocity S-wave (km/s) = 2.99279 3.43446 3.22121
# Velocity P-wave (km/s) = 4.86551 5.64041 5.26723
#
# Compressibility (1/GPa) = 0.04044057
#
# Stress axis : x y z
#
# Youngs Moduli (GPa) = 50.03838 53.64799 101.11128
#
# Poissons Ratio (x) = -0.24152 0.49549
# Poissons Ratio (y) = -0.22527 0.36790
# Poissons Ratio (z) = 0.24521 0.19520
#
# Static dielectric constant tensor:
#      x y z
#    x 3.753400 0.000000 0.000000 
#    y 0.000000 4.251250 0.000000 
#    z 0.000000 0.000000 3.928130 
# 
# 
# High freq. dielectric constant tensor:
#      x y z
#    x 1.811510 0.000000 0.000000 
#    y 0.000000 1.841390 0.000000 
#    z 0.000000 0.000000 1.820570 
# 
# From -- ./inp_files/32244.got.cif
#   From: 2010.06.25/outbox.cif.g09.slc.cpg/sg48_17_cif.got.tgz:32244.got - 2010.06.26 18:06:46.
