data_PCOD8201245
_publ_section_title
;
Structure prediction by ZEFSAII (Michael W. Deem and Ramdas Pophale) SiO2 
 PCOD8201245
Probable space group: P N N N
;
_chemical_formula_sum "Si O2"
_cell_formula_units_Z 44
_cell_length_a 14.673100
_cell_length_b 10.127967
_cell_length_c 13.652109
_cell_angle_alpha 90.000000
_cell_angle_beta 90.000000
_cell_angle_gamma 90.000000
_cell_volume 2028.821797
_symmetry_space_group_name_H-M "P N N N"
_symmetry_group_IT_number 48
_space_group.IT_coordinate_system_code '2'
_symmetry_cell_setting 'orthorhombic'
loop_
_space_group_symop_operation_xyz
x,y,z
1/2-x,1/2-y,z
x,1/2-y,1/2-z
1/2-x,y,1/2-z
-x,-y,-z
1/2+x,1/2+y,-z
-x,1/2+y,1/2+z
1/2+x,-y,1/2+z
loop_
_atom_site_type_symbol
_atom_site_label
_atom_site_fract_x
_atom_site_fract_y
_atom_site_fract_z
Si Si1 0.918433 0.183188 0.131590
Si Si2 0.894820 0.014995 0.389257
Si Si3 0.371372 0.642122 0.078805
Si Si4 0.541420 0.491992 0.749790
Si Si5 0.750000 0.088433 0.250000
Si Si6 0.675820 0.448717 0.593242
O O1 0.935946 0.336938 0.114686
O O2 0.820273 0.175550 0.185224
O O3 0.915320 0.110117 0.026897
O O4 0.997471 0.122367 0.200408
O O5 0.803440 0.995840 0.325933
O O6 0.872043 0.975705 0.500954
O O7 0.973975 0.930305 0.334823
O O8 0.443940 0.613249 0.164047
O O9 0.344471 0.793641 0.087524
O O10 0.285317 0.542022 0.091361
O O11 0.637223 0.515981 0.692542
#
# Coordination Sequence:
#
# PCOD8201245 Si02
#       6
#     8   8   8   8   4   8
#     4  10  19  32  53  78 105 135 171 213 256 304
#     4  10  19  32  53  78 105 135 171 213 256 304
#     4  10  20  35  54  77 106 137 171 212 260 307
#     4  11  20  30  49  82 112 133 163 212 266 310
#     4  10  15  28  52  76  99 128 165 212 256 294
#     4  10  20  35  54  77 106 137 171 212 260 307
#
# _framework density 21.687466000000001
#
# number of rings (size 3 to 8) (size 9 to 14) (size 15 to 20)
#    0.000    1.818    1.818    5.455    0.000    1.455 
#    0.000    0.000    0.000    8.727    0.000   40.727 
#    0.000    0.000    0.000    0.000    0.000    0.000 
#
# Total GULP energy -545120.955765 kJ/mol
# GULP energy per Si atom -12389.112631 kJ/mol
# Density = 2.163810 g / cm^3
# Si number density = 21.687466 Si / 1000 Ang^3
#
#
#
# Elastic Constant Matrix: (Units=GPa)
#
#
# Indices 1 2 3 4 5 6 
#
# 1 86.1763 19.8168 58.1924 0.0000 0.0000 0.0000
# 2 19.8168 13.6003 19.6496 0.0000 0.0000 0.0000
# 3 58.1924 19.6496 189.4480 0.0000 0.0000 0.0000
# 4 0.0000 0.0000 0.0000 29.7042 0.0000 0.0000
# 5 0.0000 0.0000 0.0000 0.0000 39.6550 0.0000
# 6 0.0000 0.0000 0.0000 0.0000 0.0000 23.3878
#
#
#
# Elastic Compliance Matrix: (Units=1/GPa)
#
#
# Indices 1 2 3 4 5 6 
#
# 1 0.019277 -0.022976 -0.003538 0.000000 0.000000 0.000000
# 2 -0.022976 0.113873 -0.004754 0.000000 0.000000 0.000000
# 3 -0.003538 -0.004754 0.006858 0.000000 0.000000 0.000000
# 4 0.000000 0.000000 0.000000 0.033665 0.000000 0.000000
# 5 0.000000 0.000000 0.000000 0.000000 0.025218 0.000000
# 6 0.000000 0.000000 0.000000 0.000000 0.000000 0.042757
#
#
# Mechanical properties :
#
#
# Convention : Reuss Voigt Hill
#
# Bulk Modulus (GPa) = 12.90770 53.83803 33.37287
# Shear Modulus (GPa) = 15.15117 31.32047 23.23582
#
# Velocity S-wave (km/s) = 2.64600 3.80435 3.27677
# Velocity P-wave (km/s) = 3.91148 6.64649 5.45323
#
# Compressibility (1/GPa) = 0.07747312
#
# Stress axis : x y z
#
# Youngs Moduli (GPa) = 51.87596 8.78171 145.80796
#
# Poissons Ratio (x) = 0.20177 0.51589
# Poissons Ratio (y) = 1.19190 0.69310
# Poissons Ratio (z) = 0.18354 0.04174
#
# Static dielectric constant tensor:
#      x y z
#    x 4.157790 0.000000 0.000000 
#    y 0.000000 3.144490 0.000000 
#    z 0.000000 0.000000 4.581450 
# 
# 
# High freq. dielectric constant tensor:
#      x y z
#    x 1.851930 0.000000 0.000000 
#    y 0.000000 1.769400 0.000000 
#    z 0.000000 0.000000 1.891750 
# 
# From -- ./inp_files/27180.got.cif
#   From: 2010.06.25/outbox.cif.g09.slc.cpg/sg48_14_cif.got.tgz:27180.got - 2010.06.26 18:06:46.
