data_PCOD8201479
_publ_section_title
;
Structure prediction by ZEFSAII (Michael W. Deem and Ramdas Pophale) SiO2 
 PCOD8201479
Probable space group: P N N N
;
_chemical_formula_sum "Si O2"
_cell_formula_units_Z 34
_cell_length_a 9.001720
_cell_length_b 9.049072
_cell_length_c 20.705536
_cell_angle_alpha 90.000000
_cell_angle_beta 90.000000
_cell_angle_gamma 90.000000
_cell_volume 1686.615244
_symmetry_space_group_name_H-M "P N N N"
_symmetry_group_IT_number 48
_space_group.IT_coordinate_system_code '2'
_symmetry_cell_setting 'orthorhombic'
loop_
_space_group_symop_operation_xyz
x,y,z
1/2-x,1/2-y,z
x,1/2-y,1/2-z
1/2-x,y,1/2-z
-x,-y,-z
1/2+x,1/2+y,-z
-x,1/2+y,1/2+z
1/2+x,-y,1/2+z
loop_
_atom_site_type_symbol
_atom_site_label
_atom_site_fract_x
_atom_site_fract_y
_atom_site_fract_z
Si Si1 0.090792 0.175233 0.937397
Si Si2 0.590052 0.816063 0.683720
Si Si3 0.750000 0.750000 0.250000
Si Si4 0.406276 0.674035 0.939619
Si Si5 0.970327 0.148300 0.806558
O O1 0.250000 0.250000 0.928180
O O2 0.974158 0.217185 0.879227
O O3 0.116280 0.000424 0.939023
O O4 0.015843 0.228197 0.003649
O O5 0.750000 0.750000 0.666781
O O6 0.525988 0.750000 0.750000
O O7 0.476771 0.772112 0.627609
O O8 0.610209 0.991618 0.692636
O O9 0.852656 0.862495 0.208795
O O10 0.250000 0.750000 0.950360
O O11 0.894310 0.250000 0.750000
#
# Coordination Sequence:
#
# PCOD8201479 Si02
#       5
#     8   8   2   8   8
#     4  10  19  38  61  83 119 151 193 248 289 346
#     4  10  22  40  59  84 123 156 191 241 299 358
#     4   8  16  32  62  90 112 144 200 250 284 340
#     4  10  23  38  58  87 115 156 197 239 297 348
#     4   9  18  36  62  90 115 152 200 245 292 347
#
# _framework density 20.158718
#
# number of rings (size 3 to 8) (size 9 to 14) (size 15 to 20)
#    0.706    1.647    1.176    0.706    0.000    7.059 
#    0.000   16.471    0.000    0.000    0.000    0.000 
#    0.000    0.000    0.000    0.000    0.000    0.000 
#
# Total GULP energy -421310.164939 kJ/mol
# GULP energy per Si atom -12391.475439 kJ/mol
# Density = 2.011284 g / cm^3
# Si number density = 20.158718 Si / 1000 Ang^3
#
#
#
# Elastic Constant Matrix: (Units=GPa)
#
#
# Indices 1 2 3 4 5 6 
#
# 1 92.1258 50.8209 41.6155 0.0000 0.0000 0.0000
# 2 50.8209 71.9298 44.6822 0.0000 0.0000 0.0000
# 3 41.6155 44.6822 170.7911 0.0000 0.0000 0.0000
# 4 0.0000 0.0000 0.0000 27.7948 0.0000 0.0000
# 5 0.0000 0.0000 0.0000 0.0000 -18.7090 0.0000
# 6 0.0000 0.0000 0.0000 0.0000 0.0000 34.6059
#
#
#
# Elastic Compliance Matrix: (Units=1/GPa)
#
#
# Indices 1 2 3 4 5 6 
#
# 1 0.018014 -0.011941 -0.001265 0.000000 0.000000 0.000000
# 2 -0.011941 0.024516 -0.003504 0.000000 0.000000 0.000000
# 3 -0.001265 -0.003504 0.007080 0.000000 0.000000 0.000000
# 4 0.000000 0.000000 0.000000 0.035978 0.000000 0.000000
# 5 0.000000 0.000000 0.000000 0.000000 -0.053450 0.000000
# 6 0.000000 0.000000 0.000000 0.000000 0.000000 0.028897
#
#
# Mechanical properties :
#
#
# Convention : Reuss Voigt Hill
#
# Bulk Modulus (GPa) = 61.77226 67.67598 64.72412
# Shear Modulus (GPa) = 50.07397 21.92020 35.99709
#
# Velocity S-wave (km/s) = 4.98937 3.30112 4.23032
# Velocity P-wave (km/s) = 7.99382 6.94077 7.48584
#
# Compressibility (1/GPa) = 0.01618850
#
# Stress axis : x y z
#
# Youngs Moduli (GPa) = 55.51352 40.78935 141.23977
#
# Poissons Ratio (x) = 0.48708 0.17869
# Poissons Ratio (y) = 0.66290 0.49494
# Poissons Ratio (z) = 0.07023 0.14294
#
# Static dielectric constant tensor:
#      x y z
#    x 3.385430 0.000000 0.000000 
#    y 0.000000 3.411700 0.000000 
#    z 0.000000 0.000000 4.159880 
# 
# 
# High freq. dielectric constant tensor:
#      x y z
#    x 1.777210 0.000000 0.000000 
#    y 0.000000 1.766120 0.000000 
#    z 0.000000 0.000000 1.813310 
# 
# From -- ./inp_files/33222.got.cif
#   From: 2010.06.25/outbox.cif.g09.slc.cpg/sg48_17_cif.got.tgz:33222.got - 2010.06.26 18:06:46.
