data_PCOD8201605
_publ_section_title
;
Structure prediction by ZEFSAII (Michael W. Deem and Ramdas Pophale) SiO2 
 PCOD8201605
Probable space group: P N N N
;
_chemical_formula_sum "Si O2"
_cell_formula_units_Z 46
_cell_length_a 8.056257
_cell_length_b 20.414287
_cell_length_c 12.969782
_cell_angle_alpha 90.000000
_cell_angle_beta 90.000000
_cell_angle_gamma 90.000000
_cell_volume 2133.045918
_symmetry_space_group_name_H-M "P N N N"
_symmetry_group_IT_number 48
_space_group.IT_coordinate_system_code '2'
_symmetry_cell_setting 'orthorhombic'
loop_
_space_group_symop_operation_xyz
x,y,z
1/2-x,1/2-y,z
x,1/2-y,1/2-z
1/2-x,y,1/2-z
-x,-y,-z
1/2+x,1/2+y,-z
-x,1/2+y,1/2+z
1/2+x,-y,1/2+z
loop_
_atom_site_type_symbol
_atom_site_label
_atom_site_fract_x
_atom_site_fract_y
_atom_site_fract_z
Si Si1 0.250000 0.014642 0.250000
Si Si2 0.792478 0.955695 0.423884
Si Si3 0.710646 0.174263 0.008408
Si Si4 0.073815 0.587182 0.388507
Si Si5 0.250000 0.250000 0.750000
Si Si6 0.012783 0.351838 0.815696
Si Si7 0.998180 0.921563 0.611531
O O1 0.294643 0.968231 0.348481
O O2 0.409333 0.060468 0.220166
O O3 0.595382 0.950763 0.414797
O O4 0.889234 0.919633 0.331835
O O5 0.848706 0.922179 0.529995
O O6 0.850801 0.030463 0.418606
O O7 0.750000 0.250000 0.030747
O O8 0.871050 0.126813 0.992339
O O9 0.629260 0.162758 0.896829
O O10 0.590456 0.149362 0.102336
O O11 0.056306 0.642554 0.300036
O O12 0.359399 0.207312 0.827202
#
# Coordination Sequence:
#
# PCOD8201605 Si02
#       7
#     4   8   8   8   2   8   8
#     4  12  22  38  63  92 125 162 214 274 336 362
#     4  10  20  38  59  89 128 163 212 260 316 371
#     4  11  24  40  58  89 134 175 212 257 322 394
#     4  12  20  36  63  96 130 170 204 257 325 392
#     4  12  20  28  54  88 136 178 204 232 308 390
#     4  11  20  33  53  90 134 173 207 251 305 396
#     4  10  23  41  59  89 127 161 216 278 311 379
#
# _framework density 21.565405999999999
#
# number of rings (size 3 to 8) (size 9 to 14) (size 15 to 20)
#    0.000    1.043    5.217    3.130    0.000    3.478 
#    0.000    0.000    0.000    0.000    0.000   19.478 
#    0.000    0.000    0.000    0.000    0.000    0.000 
#
# Total GULP energy -570098.438108 kJ/mol
# GULP energy per Si atom -12393.444307 kJ/mol
# Density = 2.151632 g / cm^3
# Si number density = 21.565406 Si / 1000 Ang^3
#
#
#
# Elastic Constant Matrix: (Units=GPa)
#
#
# Indices 1 2 3 4 5 6 
#
# 1 111.0659 51.1711 14.6353 0.0000 0.0000 0.0000
# 2 51.1711 125.4828 33.8534 0.0000 0.0000 0.0000
# 3 14.6353 33.8534 35.1802 0.0000 0.0000 0.0000
# 4 0.0000 0.0000 0.0000 21.8499 0.0000 0.0000
# 5 0.0000 0.0000 0.0000 0.0000 21.3674 0.0000
# 6 0.0000 0.0000 0.0000 0.0000 0.0000 45.4440
#
#
#
# Elastic Compliance Matrix: (Units=1/GPa)
#
#
# Indices 1 2 3 4 5 6 
#
# 1 0.011090 -0.004427 -0.000353 0.000000 0.000000 0.000000
# 2 -0.004427 0.012531 -0.010217 0.000000 0.000000 0.000000
# 3 -0.000353 -0.010217 0.038403 0.000000 0.000000 0.000000
# 4 0.000000 0.000000 0.000000 0.045767 0.000000 0.000000
# 5 0.000000 0.000000 0.000000 0.000000 0.046800 0.000000
# 6 0.000000 0.000000 0.000000 0.000000 0.000000 0.022005
#
#
# Mechanical properties :
#
#
# Convention : Reuss Voigt Hill
#
# Bulk Modulus (GPa) = 31.22070 52.33872 41.77971
# Shear Modulus (GPa) = 23.01318 29.20353 26.10835
#
# Velocity S-wave (km/s) = 3.27025 3.68392 3.48323
# Velocity P-wave (km/s) = 5.36358 6.51287 5.96596
#
# Compressibility (1/GPa) = 0.03203003
#
# Stress axis : x y z
#
# Youngs Moduli (GPa) = 90.17224 79.80342 26.03943
#
# Poissons Ratio (x) = 0.35329 0.00920
# Poissons Ratio (y) = 0.39920 0.26603
# Poissons Ratio (z) = 0.03187 0.81531
#
# Static dielectric constant tensor:
#      x y z
#    x 4.109230 0.000000 0.000000 
#    y 0.000000 3.866260 0.000000 
#    z 0.000000 0.000000 3.565060 
# 
# 
# High freq. dielectric constant tensor:
#      x y z
#    x 1.864290 0.000000 0.000000 
#    y 0.000000 1.830800 0.000000 
#    z 0.000000 0.000000 1.806810 
# 
# From -- ./inp_files/15203.got.cif
#   From: 2010.06.25/outbox.cif.g09.slc.cpg/sg48_8_cif.got.tgz:15203.got - 2010.06.26 18:06:46.
