data_PCOD8201647
_publ_section_title
;
Structure prediction by ZEFSAII (Michael W. Deem and Ramdas Pophale) SiO2 
 PCOD8201647
Probable space group: P N N N
;
_chemical_formula_sum "Si O2"
_cell_formula_units_Z 50
_cell_length_a 19.157574
_cell_length_b 8.601486
_cell_length_c 14.196830
_cell_angle_alpha 90.000000
_cell_angle_beta 90.000000
_cell_angle_gamma 90.000000
_cell_volume 2339.404821
_symmetry_space_group_name_H-M "P N N N"
_symmetry_group_IT_number 48
_space_group.IT_coordinate_system_code '2'
_symmetry_cell_setting 'orthorhombic'
loop_
_space_group_symop_operation_xyz
x,y,z
1/2-x,1/2-y,z
x,1/2-y,1/2-z
1/2-x,y,1/2-z
-x,-y,-z
1/2+x,1/2+y,-z
-x,1/2+y,1/2+z
1/2+x,-y,1/2+z
loop_
_atom_site_type_symbol
_atom_site_label
_atom_site_fract_x
_atom_site_fract_y
_atom_site_fract_z
Si Si1 0.250000 0.250000 0.250000
Si Si2 0.812726 0.374542 0.432210
Si Si3 0.954326 0.071402 0.777968
Si Si4 0.427576 0.113187 0.093096
Si Si5 0.911932 0.393038 0.061767
Si Si6 0.155230 0.423000 0.396281
Si Si7 0.599273 0.429915 0.235056
O O1 0.208166 0.369801 0.315407
O O2 0.750000 0.250000 0.424271
O O3 0.882188 0.278176 0.453140
O O4 0.802650 0.504305 0.513835
O O5 0.831559 0.453865 0.330317
O O6 0.956040 0.250000 0.750000
O O7 0.925468 0.954029 0.698168
O O8 0.898816 0.055086 0.861845
O O9 0.032783 0.021696 0.807732
O O10 0.505881 0.132143 0.058561
O O11 0.390028 0.275001 0.076813
O O12 0.386223 0.995477 0.025415
O O13 0.885389 0.482924 0.157019
O O14 0.577243 0.250000 0.250000
#
# Coordination Sequence:
#
# PCOD8201647 Si02
#       7
#     2   8   8   8   8   8   8
#     4  12  28  44  66  84 130 180 216 260 336 412
#     4  11  25  40  62  93 126 170 226 272 324 398
#     4  11  21  37  67  99 136 165 219 277 332 394
#     4  10  20  40  65  96 132 170 212 270 330 387
#     4   9  20  38  65  98 131 165 213 271 324 387
#     4  12  25  42  65  88 127 175 216 271 334 404
#     4   9  20  40  64  94 129 171 213 265 328 390
#
# _framework density 21.372957
#
# number of rings (size 3 to 8) (size 9 to 14) (size 15 to 20)
#    0.000    1.600    1.600    3.840    2.240   10.560 
#    0.000    0.000    0.000    0.000    0.000    0.000 
#    0.000    0.000    0.000    0.000    0.000    0.000 
#
# Total GULP energy -619588.591423 kJ/mol
# GULP energy per Si atom -12391.771828 kJ/mol
# Density = 2.132431 g / cm^3
# Si number density = 21.372957 Si / 1000 Ang^3
#
#
#
# Elastic Constant Matrix: (Units=GPa)
#
#
# Indices 1 2 3 4 5 6 
#
# 1 60.8163 20.2685 36.9290 0.0000 0.0000 0.0000
# 2 20.2685 69.3494 12.9684 0.0000 0.0000 0.0000
# 3 36.9290 12.9684 96.8481 0.0000 0.0000 0.0000
# 4 0.0000 0.0000 0.0000 36.8783 0.0000 0.0000
# 5 0.0000 0.0000 0.0000 0.0000 26.4175 0.0000
# 6 0.0000 0.0000 0.0000 0.0000 0.0000 0.8848
#
#
#
# Elastic Compliance Matrix: (Units=1/GPa)
#
#
# Indices 1 2 3 4 5 6 
#
# 1 0.023115 -0.005239 -0.008112 0.000000 0.000000 0.000000
# 2 -0.005239 0.015977 -0.000142 0.000000 0.000000 0.000000
# 3 -0.008112 -0.000142 0.013438 0.000000 0.000000 0.000000
# 4 0.000000 0.000000 0.000000 0.027116 0.000000 0.000000
# 5 0.000000 0.000000 0.000000 0.000000 0.037854 0.000000
# 6 0.000000 0.000000 0.000000 0.000000 0.000000 1.130181
#
#
# Mechanical properties :
#
#
# Convention : Reuss Voigt Hill
#
# Bulk Modulus (GPa) = 39.14804 40.81618 39.98211
# Shear Modulus (GPa) = 3.89657 23.29265 13.59461
#
# Velocity S-wave (km/s) = 1.35170 3.30482 2.52477
# Velocity P-wave (km/s) = 4.55988 5.80526 5.21984
#
# Compressibility (1/GPa) = 0.02554406
#
# Stress axis : x y z
#
# Youngs Moduli (GPa) = 43.26219 62.58858 74.41714
#
# Poissons Ratio (x) = 0.32788 0.60370
# Poissons Ratio (y) = 0.22664 0.01056
# Poissons Ratio (z) = 0.35096 0.00888
#
# Static dielectric constant tensor:
#      x y z
#    x 3.815040 0.000000 0.000000 
#    y 0.000000 3.786080 0.000000 
#    z 0.000000 0.000000 4.565390 
# 
# 
# High freq. dielectric constant tensor:
#      x y z
#    x 1.827010 0.000000 0.000000 
#    y 0.000000 1.826080 0.000000 
#    z 0.000000 0.000000 1.849300 
# 
# From -- ./inp_files/27913.got.cif
#   From: 2010.06.25/outbox.cif.g09.slc.cpg/sg48_14_cif.got.tgz:27913.got - 2010.06.26 18:06:46.
