data_PCOD8201402
_publ_section_title
;
Structure prediction by ZEFSAII (Michael W. Deem and Ramdas Pophale) SiO2 
 PCOD8201402
Probable space group: P N N N
;
_chemical_formula_sum "Si O2"
_cell_formula_units_Z 64
_cell_length_a 24.003894
_cell_length_b 8.713882
_cell_length_c 15.523510
_cell_angle_alpha 90.000000
_cell_angle_beta 90.000000
_cell_angle_gamma 90.000000
_cell_volume 3247.007566
_symmetry_space_group_name_H-M "P N N N"
_symmetry_group_IT_number 48
_space_group.IT_coordinate_system_code '2'
_symmetry_cell_setting 'orthorhombic'
loop_
_space_group_symop_operation_xyz
x,y,z
1/2-x,1/2-y,z
x,1/2-y,1/2-z
1/2-x,y,1/2-z
-x,-y,-z
1/2+x,1/2+y,-z
-x,1/2+y,1/2+z
1/2+x,-y,1/2+z
loop_
_atom_site_type_symbol
_atom_site_label
_atom_site_fract_x
_atom_site_fract_y
_atom_site_fract_z
Si Si1 0.250000 0.568294 0.651639
Si Si2 0.936883 0.932209 0.250000
Si Si3 0.368116 0.932138 0.086603
Si Si4 0.750000 0.431886 0.654022
Si Si5 0.438087 0.567486 0.250000
Si Si6 0.631884 0.067863 0.586603
Si Si7 0.363612 0.431512 0.590965
Si Si8 0.363612 0.068488 0.590965
O O1 0.250000 0.750000 0.646291
O O2 0.250000 0.509118 0.750000
O O3 0.303538 0.506383 0.602589
O O4 0.196462 0.506383 0.602589
O O5 0.939402 0.750000 0.250000
O O6 0.904758 0.992009 0.334448
O O7 0.904758 0.992009 0.165553
O O8 0.999370 0.999666 0.250000
O O9 0.304835 0.986906 0.103795
O O10 0.406519 0.991398 0.164806
O O11 0.372260 0.750000 0.075658
O O12 0.389204 0.014019 0.999811
O O13 0.750000 0.250000 0.662036
O O14 0.750000 0.502862 0.750000
O O15 0.804835 0.486906 0.603795
O O16 0.437770 0.750000 0.250000
O O17 0.406519 0.508602 0.164806
O O18 0.610796 0.985981 0.499811
O O19 0.357623 0.250000 0.594280
#
# Coordination Sequence:
#
# PCOD8201402 Si02
#       8
#     8   8   8   8   8   8   8   8
#     4  11  22  37  60  87 113 140 182 237 281 328
#     4   9  20  37  55  77 109 153 196 230 275 340
#     4  10  19  33  57  85 112 144 188 239 281 328
#     4   9  15  28  52  81 107 134 171 220 279 332
#     4   9  18  35  58  81 108 149 199 240 278 326
#     4  10  19  33  57  85 112 144 188 239 281 328
#     4  11  22  37  57  81 115 154 185 222 282 349
#     4  11  22  37  57  81 115 154 185 222 282 349
#
# _framework density 19.710457000000002
#
# number of rings (size 3 to 8) (size 9 to 14) (size 15 to 20)
#    0.000    2.000    2.500    1.875    0.000    2.500 
#    0.000    0.625    0.000    5.250    0.000    0.000 
#    0.000    0.000    0.000    0.000    0.000    0.000 
#
# Total GULP energy -793734.641061 kJ/mol
# GULP energy per Si atom -12402.103767 kJ/mol
# Density = 1.966560 g / cm^3
# Si number density = 19.710457 Si / 1000 Ang^3
#
#
#
# Elastic Constant Matrix: (Units=GPa)
#
#
# Indices 1 2 3 4 5 6 
#
# 1 157.9778 20.0883 77.5706 0.0000 0.0000 0.0000
# 2 20.0883 37.1805 29.4415 0.0000 0.0000 0.0000
# 3 77.5706 29.4415 189.7704 0.0000 0.0000 0.0000
# 4 0.0000 0.0000 0.0000 28.1969 0.0000 0.0000
# 5 0.0000 0.0000 0.0000 0.0000 22.7992 0.0000
# 6 0.0000 0.0000 0.0000 0.0000 0.0000 5.3718
#
#
#
# Elastic Compliance Matrix: (Units=1/GPa)
#
#
# Indices 1 2 3 4 5 6 
#
# 1 0.008046 -0.001987 -0.002981 0.000000 0.000000 0.000000
# 2 -0.001987 0.031153 -0.004021 0.000000 0.000000 0.000000
# 3 -0.002981 -0.004021 0.007112 0.000000 0.000000 0.000000
# 4 0.000000 0.000000 0.000000 0.035465 0.000000 0.000000
# 5 0.000000 0.000000 0.000000 0.000000 0.043861 0.000000
# 6 0.000000 0.000000 0.000000 0.000000 0.000000 0.186157
#
#
# Mechanical properties :
#
#
# Convention : Reuss Voigt Hill
#
# Bulk Modulus (GPa) = 35.29336 71.01440 53.15388
# Shear Modulus (GPa) = 14.73986 28.46214 21.60100
#
# Velocity S-wave (km/s) = 2.73760 3.80414 3.31405
# Velocity P-wave (km/s) = 5.28558 7.44327 6.45522
#
# Compressibility (1/GPa) = 0.02833394
#
# Stress axis : x y z
#
# Youngs Moduli (GPa) = 124.28107 32.09919 140.61226
#
# Poissons Ratio (x) = 0.06378 0.41913
# Poissons Ratio (y) = 0.24695 0.56540
# Poissons Ratio (z) = 0.37045 0.12907
#
# Static dielectric constant tensor:
#      x y z
#    x 3.751330 0.000000 0.000000 
#    y 0.000000 3.119750 0.000000 
#    z 0.000000 0.000000 3.849890 
# 
# 
# High freq. dielectric constant tensor:
#      x y z
#    x 1.766950 0.000000 0.000000 
#    y 0.000000 1.725740 0.000000 
#    z 0.000000 0.000000 1.788670 
# 
# From -- ./inp_files/28643.got.cif
#   From: 2010.06.25/outbox.cif.g09.slc.cpg/sg48_15_cif.got.tgz:28643.got - 2010.06.26 18:06:46.
