data_PCOD8201198
_publ_section_title
;
Structure prediction by ZEFSAII (Michael W. Deem and Ramdas Pophale) SiO2 
 PCOD8201198
Probable space group: P M M M
;
_chemical_formula_sum "Si O2"
_cell_formula_units_Z 32
_cell_length_a 9.192174
_cell_length_b 22.593310
_cell_length_c 7.818509
_cell_angle_alpha 90.000000
_cell_angle_beta 90.000000
_cell_angle_gamma 90.000000
_cell_volume 1623.760746
_symmetry_space_group_name_H-M "P M M M"
_symmetry_group_IT_number 47
_symmetry_cell_setting 'orthorhombic'
loop_
_space_group_symop_operation_xyz
x,y,z
-x,-y,z
x,-y,-z
-x,y,-z
-x,-y,-z
x,y,-z
-x,y,z
x,-y,z
loop_
_atom_site_type_symbol
_atom_site_label
_atom_site_fract_x
_atom_site_fract_y
_atom_site_fract_z
Si Si1 0.334761 0.227971 0.702766
Si Si2 0.835932 0.886009 0.703836
Si Si3 0.335557 0.000000 0.703992
Si Si4 0.673846 0.566704 0.500000
Si Si5 0.327416 0.355071 0.189598
O O1 0.328340 0.232796 0.500000
O O2 0.500000 0.217420 0.764456
O O3 0.238435 0.173865 0.772694
O O4 0.269082 0.288636 0.779208
O O5 0.834517 0.886516 0.500000
O O6 0.746838 0.942133 0.774739
O O7 0.000000 0.889293 0.774305
O O8 0.500000 0.000000 0.774474
O O9 0.335700 0.000000 0.500000
O O10 0.734600 0.500000 0.500000
O O11 0.500000 0.566689 0.500000
O O12 0.735309 0.599690 0.330945
O O13 0.500000 0.353278 0.208450
O O14 0.280228 0.376532 0.000000
#
# Coordination Sequence:
#
# PCOD8201198 Si02
#       5
#     8   8   4   4   8
#     4   9  15  25  41  59  83 118 158 198 241 290
#     4   9  16  24  36  57  86 119 156 201 249 292
#     4   9  15  23  35  55  86 123 162 200 241 293
#     4   9  16  26  40  62  95 130 161 196 239 287
#     4   9  16  26  41  62  89 123 162 201 241 287
#
# _framework density 19.707336000000002
#
# number of rings (size 3 to 8) (size 9 to 14) (size 15 to 20)
#    0.000    3.000    1.250    1.125    0.000    5.000 
#    0.000    2.500    0.000    0.750    0.000    0.875 
#    0.000    9.000    0.000    2.250    0.000    2.500 
#
# Total GULP energy -396693.939511 kJ/mol
# GULP energy per Si atom -12396.685610 kJ/mol
# Density = 1.966248 g / cm^3
# Si number density = 19.707336 Si / 1000 Ang^3
#
#
#
# Elastic Constant Matrix: (Units=GPa)
#
#
# Indices 1 2 3 4 5 6 
#
# 1 89.7590 60.1809 19.0959 0.0000 0.0000 0.0000
# 2 60.1809 199.1463 64.2429 0.0000 0.0000 0.0000
# 3 19.0959 64.2429 78.2308 0.0000 0.0000 0.0000
# 4 0.0000 0.0000 0.0000 4.1529 0.0000 0.0000
# 5 0.0000 0.0000 0.0000 0.0000 2.0404 0.0000
# 6 0.0000 0.0000 0.0000 0.0000 0.0000 6.2098
#
#
#
# Elastic Compliance Matrix: (Units=1/GPa)
#
#
# Indices 1 2 3 4 5 6 
#
# 1 0.013972 -0.004247 0.000077 0.000000 0.000000 0.000000
# 2 -0.004247 0.008122 -0.005633 0.000000 0.000000 0.000000
# 3 0.000077 -0.005633 0.017390 0.000000 0.000000 0.000000
# 4 0.000000 0.000000 0.000000 0.240797 0.000000 0.000000
# 5 0.000000 0.000000 0.000000 0.000000 0.490096 0.000000
# 6 0.000000 0.000000 0.000000 0.000000 0.000000 0.161037
#
#
# Mechanical properties :
#
#
# Convention : Reuss Voigt Hill
#
# Bulk Modulus (GPa) = 50.30739 72.68619 61.49679
# Shear Modulus (GPa) = 5.22113 17.38837 11.30475
#
# Velocity S-wave (km/s) = 1.62944 2.97363 2.39766
# Velocity P-wave (km/s) = 5.39655 6.98232 6.24002
#
# Compressibility (1/GPa) = 0.01987779
#
# Stress axis : x y z
#
# Youngs Moduli (GPa) = 71.57095 123.12062 57.50519
#
# Poissons Ratio (x) = 0.52292 -0.00444
# Poissons Ratio (y) = 0.30398 0.32393
# Poissons Ratio (z) = -0.00553 0.69355
#
# Static dielectric constant tensor:
#      x y z
#    x 3.241270 0.000000 0.000000 
#    y 0.000000 3.797630 0.000000 
#    z 0.000000 0.000000 3.294040 
# 
# 
# High freq. dielectric constant tensor:
#      x y z
#    x 1.715720 0.000000 0.000000 
#    y 0.000000 1.776000 0.000000 
#    z 0.000000 0.000000 1.743730 
# 
# From -- ./inp_files/1282.got.cif
#   From: 2010.03.12/outbox.cif.g09.slc.cpg/sg47_1_cif.got.tgz:1282.got - 2010.04.14 03:12:58.
