data_PCOD8201240
_publ_section_title
;
Structure prediction by ZEFSAII (Michael W. Deem and Ramdas Pophale) SiO2 
 PCOD8201240
Probable space group: P M M M
;
_chemical_formula_sum "Si O2"
_cell_formula_units_Z 48
_cell_length_a 18.000000
_cell_length_b 15.000000
_cell_length_c 9.000000
_cell_angle_alpha 90.000000
_cell_angle_beta 90.000000
_cell_angle_gamma 90.000000
_cell_volume 2430.000000
_symmetry_space_group_name_H-M "P M M M"
_symmetry_group_IT_number 47
_symmetry_cell_setting 'orthorhombic'
loop_
_space_group_symop_operation_xyz
x,y,z
-x,-y,z
x,-y,-z
-x,y,-z
-x,-y,-z
x,y,-z
-x,y,z
x,-y,z
loop_
_atom_site_type_symbol
_atom_site_label
_atom_site_fract_x
_atom_site_fract_y
_atom_site_fract_z
Si Si1 0.411609 0.903670 0.168239
Si Si2 0.294574 0.397944 0.327574
Si Si3 0.581898 0.733804 0.327650
Si Si4 0.154019 0.662392 0.825877
Si Si5 0.085703 0.500000 0.661896
Si Si6 0.088363 0.000000 0.167284
Si Si7 0.088148 0.173443 0.332633
O O1 0.500000 0.900932 0.180453
O O2 0.377636 0.820770 0.258640
O O3 0.383597 0.000000 0.230163
O O4 0.384971 0.893147 0.000000
O O5 0.273710 0.388161 0.500000
O O6 0.294312 0.500000 0.276049
O O7 0.374681 0.356815 0.292808
O O8 0.238021 0.341909 0.229315
O O9 0.577604 0.753369 0.500000
O O10 0.500000 0.719574 0.259535
O O11 0.106244 0.585841 0.752691
O O12 0.117946 0.753752 0.778865
O O13 0.150540 0.651045 0.000000
O O14 0.126534 0.500000 0.500000
O O15 0.000000 0.500000 0.631662
O O16 0.118008 0.917175 0.261522
O O17 0.000000 0.000000 0.157976
O O18 0.121497 0.000000 0.000000
O O19 0.119533 0.185171 0.500000
O O20 0.000000 0.176621 0.336392
#
# Coordination Sequence:
#
# PCOD8201240 Si02
#       7
#     8   8   8   8   4   4   8
#     4   8  14  26  46  73 105 140 173 207 258 321
#     4  10  21  38  58  76 104 147 185 222 276 340
#     4   9  18  32  53  83 111 137 178 228 272 319
#     4  12  24  37  56  82 111 145 186 233 280 328
#     4  11  23  39  59  83 112 145 182 225 275 334
#     4   9  17  31  53  83 117 149 184 229 276 321
#     4  10  20  35  57  84 114 150 189 227 273 331
#
# _framework density 19.753086
#
# number of rings (size 3 to 8) (size 9 to 14) (size 15 to 20)
#    0.000    2.167    0.833    3.500    0.000    6.000 
#    0.000    3.333    1.833    0.000    0.000    3.500 
#    0.000    0.000    0.000    0.000    0.000    0.000 
#
# Total GULP energy -594958.850512 kJ/mol
# GULP energy per Si atom -12394.976052 kJ/mol
# Density = 1.970813 g / cm^3
# Si number density = 19.753086 Si / 1000 Ang^3
#
#
#
# Elastic Constant Matrix: (Units=GPa)
#
#
# Indices 1 2 3 4 5 6 
#
# 1 32.8964 23.1015 27.6248 0.0000 0.0000 0.0000
# 2 23.1015 100.0043 35.0448 0.0000 0.0000 0.0000
# 3 27.6248 35.0448 87.4105 0.0000 0.0000 0.0000
# 4 0.0000 0.0000 0.0000 28.3163 0.0000 0.0000
# 5 0.0000 0.0000 0.0000 0.0000 56.5246 0.0000
# 6 0.0000 0.0000 0.0000 0.0000 0.0000 19.3461
#
#
#
# Elastic Compliance Matrix: (Units=1/GPa)
#
#
# Indices 1 2 3 4 5 6 
#
# 1 0.044477 -0.006223 -0.011561 0.000000 0.000000 0.000000
# 2 -0.006223 0.012505 -0.003047 0.000000 0.000000 0.000000
# 3 -0.011561 -0.003047 0.016316 0.000000 0.000000 0.000000
# 4 0.000000 0.000000 0.000000 0.035315 0.000000 0.000000
# 5 0.000000 0.000000 0.000000 0.000000 0.017691 0.000000
# 6 0.000000 0.000000 0.000000 0.000000 0.000000 0.051690
#
#
# Mechanical properties :
#
#
# Convention : Reuss Voigt Hill
#
# Bulk Modulus (GPa) = 31.61025 43.53925 37.57475
# Shear Modulus (GPa) = 21.72006 29.80673 25.76340
#
# Velocity S-wave (km/s) = 3.31959 3.88876 3.61539
# Velocity P-wave (km/s) = 5.54349 6.50022 6.04082
#
# Compressibility (1/GPa) = 0.03163531
#
# Stress axis : x y z
#
# Youngs Moduli (GPa) = 22.48340 79.96933 61.29098
#
# Poissons Ratio (x) = 0.49765 0.70861
# Poissons Ratio (y) = 0.13991 0.18674
# Poissons Ratio (z) = 0.25994 0.24365
#
# Static dielectric constant tensor:
#      x y z
#    x 3.367950 0.000000 0.000000 
#    y 0.000000 3.648790 0.000000 
#    z 0.000000 0.000000 3.689420 
# 
# 
# High freq. dielectric constant tensor:
#      x y z
#    x 1.726970 0.000000 0.000000 
#    y 0.000000 1.774940 0.000000 
#    z 0.000000 0.000000 1.764770 
# 
# From -- ./inp_files/9240.got.cif
#   From: 2010.03.12/outbox.ucp.g09.slc.cvg/sg47_5_cif.got.tgz:9240.got - 2010.05.04 21:26:29.
