data_PCOD8201124
_publ_section_title
;
Structure prediction by ZEFSAII (Michael W. Deem and Ramdas Pophale) SiO2 
 PCOD8201124
Probable space group: P M M M
;
_chemical_formula_sum "Si O2"
_cell_formula_units_Z 40
_cell_length_a 9.145805
_cell_length_b 25.826365
_cell_length_c 9.848775
_cell_angle_alpha 90.000000
_cell_angle_beta 90.000000
_cell_angle_gamma 90.000000
_cell_volume 2326.309198
_symmetry_space_group_name_H-M "P M M M"
_symmetry_group_IT_number 47
_symmetry_cell_setting 'orthorhombic'
loop_
_space_group_symop_operation_xyz
x,y,z
-x,-y,z
x,-y,-z
-x,y,-z
-x,-y,-z
x,y,-z
-x,y,z
x,-y,z
loop_
_atom_site_type_symbol
_atom_site_label
_atom_site_fract_x
_atom_site_fract_y
_atom_site_fract_z
Si Si1 0.164856 0.500000 0.338676
Si Si2 0.326303 0.192589 0.152115
Si Si3 0.835144 0.000000 0.661324
Si Si4 0.328110 0.898127 0.656940
Si Si5 0.671890 0.601873 0.656940
Si Si6 0.673697 0.692589 0.152115
O O1 0.167224 0.500000 0.500000
O O2 0.248111 0.550922 0.285911
O O3 0.000000 0.500000 0.281871
O O4 0.500000 0.192693 0.157262
O O5 0.265709 0.150564 0.258388
O O6 0.268611 0.250000 0.192163
O O7 0.273182 0.178387 0.000000
O O8 0.751889 0.949078 0.714089
O O9 0.832777 0.000000 0.500000
O O10 0.000000 0.000000 0.718129
O O11 0.290535 0.887682 0.500000
O O12 0.500000 0.906390 0.678503
O O13 0.709465 0.612318 0.500000
O O14 0.500000 0.593610 0.678503
O O15 0.734291 0.650564 0.741612
O O16 0.500000 0.692693 0.157262
O O17 0.726819 0.678387 0.000000
#
# Coordination Sequence:
#
# PCOD8201124 Si02
#       6
#     4   8   4   8   8   8
#     4   9  17  29  44  61  84 114 142 169 208 254
#     4   8  14  25  41  62  88 114 137 165 206 252
#     4   9  17  29  44  61  84 114 142 169 208 254
#     4   9  16  26  43  66  87 107 137 176 209 239
#     4   9  16  26  43  66  87 107 137 176 209 239
#     4   8  14  25  41  62  88 114 137 165 206 252
#
# _framework density 17.194618999999999
#
# number of rings (size 3 to 8) (size 9 to 14) (size 15 to 20)
#    0.000    3.400    0.000    1.800    0.000    3.200 
#    0.000    5.000    0.000    8.400    0.000    8.400 
#    0.000    0.000    0.000    0.000    0.000    0.000 
#
# Total GULP energy -495788.546872 kJ/mol
# GULP energy per Si atom -12394.713672 kJ/mol
# Density = 1.715548 g / cm^3
# Si number density = 17.194619 Si / 1000 Ang^3
#
#
#
# Elastic Constant Matrix: (Units=GPa)
#
#
# Indices 1 2 3 4 5 6 
#
# 1 38.8742 44.0913 25.2890 0.0000 0.0000 0.0000
# 2 44.0913 190.4339 86.8693 0.0000 0.0000 0.0000
# 3 25.2890 86.8693 76.6518 0.0000 0.0000 0.0000
# 4 0.0000 0.0000 0.0000 18.7192 0.0000 0.0000
# 5 0.0000 0.0000 0.0000 0.0000 7.0827 0.0000
# 6 0.0000 0.0000 0.0000 0.0000 0.0000 2.8176
#
#
#
# Elastic Compliance Matrix: (Units=1/GPa)
#
#
# Indices 1 2 3 4 5 6 
#
# 1 0.035788 -0.006004 -0.005003 0.000000 0.000000 0.000000
# 2 -0.006004 0.011879 -0.011481 0.000000 0.000000 0.000000
# 3 -0.005003 -0.011481 0.027708 0.000000 0.000000 0.000000
# 4 0.000000 0.000000 0.000000 0.053421 0.000000 0.000000
# 5 0.000000 0.000000 0.000000 0.000000 0.141189 0.000000
# 6 0.000000 0.000000 0.000000 0.000000 0.000000 0.354908
#
#
# Mechanical properties :
#
#
# Convention : Reuss Voigt Hill
#
# Bulk Modulus (GPa) = 32.89607 68.71769 50.80688
# Shear Modulus (GPa) = 7.35291 15.70458 11.52875
#
# Velocity S-wave (km/s) = 2.07016 3.02543 2.59218
# Velocity P-wave (km/s) = 4.98871 7.22881 6.21060
#
# Compressibility (1/GPa) = 0.03039877
#
# Stress axis : x y z
#
# Youngs Moduli (GPa) = 27.94208 84.18554 36.09040
#
# Poissons Ratio (x) = 0.50543 0.18057
# Poissons Ratio (y) = 0.16776 0.41436
# Poissons Ratio (z) = 0.13980 0.96654
#
# Static dielectric constant tensor:
#      x y z
#    x 2.832480 0.000000 0.000000 
#    y 0.000000 3.617870 0.000000 
#    z 0.000000 0.000000 3.144370 
# 
# 
# High freq. dielectric constant tensor:
#      x y z
#    x 1.617690 0.000000 0.000000 
#    y 0.000000 1.678450 0.000000 
#    z 0.000000 0.000000 1.640390 
# 
# From -- ./inp_files/1650.got.cif
#   From: 2010.03.12/outbox.cif.g09.slc.cpg/sg47_1_cif.got.tgz:1650.got - 2010.04.14 03:12:58.
