data_PCOD8201673
_publ_section_title
;
Structure prediction by ZEFSAII (Michael W. Deem and Ramdas Pophale) SiO2 
 PCOD8201673
Probable space group: P N N N
;
_chemical_formula_sum "Si O2"
_cell_formula_units_Z 34
_cell_length_a 16.448879
_cell_length_b 21.255544
_cell_length_c 5.120617
_cell_angle_alpha 90.000000
_cell_angle_beta 90.000000
_cell_angle_gamma 90.000000
_cell_volume 1790.320663
_symmetry_space_group_name_H-M "P N N N"
_symmetry_group_IT_number 48
_space_group.IT_coordinate_system_code '2'
_symmetry_cell_setting 'orthorhombic'
loop_
_space_group_symop_operation_xyz
x,y,z
1/2-x,1/2-y,z
x,1/2-y,1/2-z
1/2-x,y,1/2-z
-x,-y,-z
1/2+x,1/2+y,-z
-x,1/2+y,1/2+z
1/2+x,-y,1/2+z
loop_
_atom_site_type_symbol
_atom_site_label
_atom_site_fract_x
_atom_site_fract_y
_atom_site_fract_z
Si Si1 0.926358 0.061217 0.739823
Si Si2 0.250000 0.540535 0.250000
Si Si3 0.750000 0.750000 0.250000
Si Si4 0.175753 0.141307 0.439763
Si Si5 0.525607 0.580963 0.767000
Si Si6 0.250000 0.457936 0.750000
O O1 0.831531 0.082121 0.717705
O O2 0.962680 0.082146 0.467475
O O3 0.929056 0.985991 0.782818
O O4 0.975072 0.096015 0.970994
O O5 0.227572 0.499978 0.504399
O O6 0.810346 0.790461 0.432402
O O7 0.250000 0.124666 0.250000
O O8 0.091841 0.136455 0.278991
O O9 0.174473 0.088072 0.670014
#
# Coordination Sequence:
#
# PCOD8201673 Si02
#       6
#     8   4   2   8   8   4
#     4  10  21  32  49  78 105 148 186 229 258 334
#     4  12  20  34  50  77 112 147 192 220 276 328
#     4  10  26  36  60  82 104 152 196 234 286 358
#     4  11  22  38  55  77 109 148 189 233 280 335
#     4  10  21  33  51  75 108 141 193 224 270 318
#     4  11  20  29  54  74  98 158 180 223 267 320
#
# _framework density 18.991009999999999
#
# number of rings (size 3 to 8) (size 9 to 14) (size 15 to 20)
#    0.000    1.412    3.529    1.765   13.176    0.000 
#    0.000    0.000    0.000    0.000    0.000    0.000 
#    0.000    0.941    1.882    0.000    0.000    0.000 
#
# Total GULP energy -421471.945151 kJ/mol
# GULP energy per Si atom -12396.233681 kJ/mol
# Density = 1.894779 g / cm^3
# Si number density = 18.991010 Si / 1000 Ang^3
#
#
#
# Elastic Constant Matrix: (Units=GPa)
#
#
# Indices 1 2 3 4 5 6 
#
# 1 150.3600 26.8829 34.6237 0.0000 0.0000 0.0000
# 2 26.8829 44.8674 15.9833 0.0000 0.0000 0.0000
# 3 34.6237 15.9833 103.8112 0.0000 0.0000 0.0000
# 4 0.0000 0.0000 0.0000 16.7028 0.0000 0.0000
# 5 0.0000 0.0000 0.0000 0.0000 26.8134 0.0000
# 6 0.0000 0.0000 0.0000 0.0000 0.0000 10.7125
#
#
#
# Elastic Compliance Matrix: (Units=1/GPa)
#
#
# Indices 1 2 3 4 5 6 
#
# 1 0.007821 -0.003975 -0.001997 0.000000 0.000000 0.000000
# 2 -0.003975 0.025601 -0.002616 0.000000 0.000000 0.000000
# 3 -0.001997 -0.002616 0.010702 0.000000 0.000000 0.000000
# 4 0.000000 0.000000 0.000000 0.059870 0.000000 0.000000
# 5 0.000000 0.000000 0.000000 0.000000 0.037295 0.000000
# 6 0.000000 0.000000 0.000000 0.000000 0.000000 0.093349
#
#
# Mechanical properties :
#
#
# Convention : Reuss Voigt Hill
#
# Bulk Modulus (GPa) = 37.10684 50.44647 43.77665
# Shear Modulus (GPa) = 19.17209 25.61565 22.39387
#
# Velocity S-wave (km/s) = 3.18077 3.67663 3.43765
# Velocity P-wave (km/s) = 5.75076 6.68165 6.23361
#
# Compressibility (1/GPa) = 0.02694921
#
# Stress axis : x y z
#
# Youngs Moduli (GPa) = 127.85887 39.06037 93.44442
#
# Poissons Ratio (x) = 0.15526 0.18657
# Poissons Ratio (y) = 0.50822 0.24445
# Poissons Ratio (z) = 0.25528 0.10218
#
# Static dielectric constant tensor:
#      x y z
#    x 3.596480 0.000000 0.000000 
#    y 0.000000 2.911100 0.000000 
#    z 0.000000 0.000000 4.004180 
# 
# 
# High freq. dielectric constant tensor:
#      x y z
#    x 1.736700 0.000000 0.000000 
#    y 0.000000 1.653820 0.000000 
#    z 0.000000 0.000000 1.770660 
# 
# From -- ./inp_files/3248.got.cif
#   From: 2010.06.25/outbox.cif.g09.slc.cpg/sg48_2_cif.got.tgz:3248.got - 2010.06.26 18:06:46.
