data_PCOD8201194
_publ_section_title
;
Structure prediction by ZEFSAII (Michael W. Deem and Ramdas Pophale) SiO2 
 PCOD8201194
Probable space group: P M M M
;
_chemical_formula_sum "Si O2"
_cell_formula_units_Z 40
_cell_length_a 9.725828
_cell_length_b 27.731702
_cell_length_c 8.111140
_cell_angle_alpha 90.000000
_cell_angle_beta 90.000000
_cell_angle_gamma 90.000000
_cell_volume 2187.686098
_symmetry_space_group_name_H-M "P M M M"
_symmetry_group_IT_number 47
_symmetry_cell_setting 'orthorhombic'
loop_
_space_group_symop_operation_xyz
x,y,z
-x,-y,z
x,-y,-z
-x,y,-z
-x,-y,-z
x,y,-z
-x,y,z
x,-y,z
loop_
_atom_site_type_symbol
_atom_site_label
_atom_site_fract_x
_atom_site_fract_y
_atom_site_fract_z
Si Si1 0.345987 0.815412 0.194550
Si Si2 0.837456 0.000000 0.312885
Si Si3 0.663687 0.386850 0.183071
Si Si4 0.663883 0.554713 0.500000
Si Si5 0.663333 0.286503 0.685754
Si Si6 0.846519 0.101157 0.192977
O O1 0.500000 0.820776 0.268863
O O2 0.280041 0.763681 0.241072
O O3 0.250483 0.857503 0.271023
O O4 0.352692 0.820149 0.000000
O O5 0.779868 0.048652 0.228744
O O6 0.789117 0.000000 0.500000
O O7 0.000000 0.000000 0.290390
O O8 0.500000 0.388138 0.190017
O O9 0.721153 0.420145 0.332306
O O10 0.717326 0.332117 0.209482
O O11 0.713421 0.404263 0.000000
O O12 0.717099 0.500000 0.500000
O O13 0.500000 0.557389 0.500000
O O14 0.716360 0.292826 0.500000
O O15 0.500000 0.285452 0.693475
O O16 0.000000 0.105199 0.271333
O O17 0.856665 0.109052 0.000000
#
# Coordination Sequence:
#
# PCOD8201194 Si02
#       6
#     8   4   8   4   8   8
#     4   9  17  28  42  62  85 107 136 175 215 255
#     4   9  17  29  46  65  82 104 138 175 206 246
#     4   9  15  23  35  49  68  98 136 176 218 263
#     4   9  16  24  32  46  70  98 135 182 223 260
#     4   9  15  24  38  55  76 102 133 170 211 256
#     4   9  17  30  47  64  83 109 140 172 209 255
#
# _framework density 18.284158000000001
#
# number of rings (size 3 to 8) (size 9 to 14) (size 15 to 20)
#    0.000    3.000    1.000    0.900    0.000    4.800 
#    0.000    2.500    0.000    3.000    0.000    0.000 
#    0.000    0.000    0.000    0.000    0.000    2.000 
#
# Total GULP energy -495662.324743 kJ/mol
# GULP energy per Si atom -12391.558119 kJ/mol
# Density = 1.824254 g / cm^3
# Si number density = 18.284158 Si / 1000 Ang^3
#
#
#
# Elastic Constant Matrix: (Units=GPa)
#
#
# Indices 1 2 3 4 5 6 
#
# 1 24.1616 33.1290 15.3338 0.0000 0.0000 0.0000
# 2 33.1290 173.4842 56.1299 0.0000 0.0000 0.0000
# 3 15.3338 56.1299 87.2127 0.0000 0.0000 0.0000
# 4 0.0000 0.0000 0.0000 30.8159 0.0000 0.0000
# 5 0.0000 0.0000 0.0000 0.0000 5.4632 0.0000
# 6 0.0000 0.0000 0.0000 0.0000 0.0000 4.1213
#
#
#
# Elastic Compliance Matrix: (Units=1/GPa)
#
#
# Indices 1 2 3 4 5 6 
#
# 1 0.057056 -0.009662 -0.003813 0.000000 0.000000 0.000000
# 2 -0.009662 0.008916 -0.004040 0.000000 0.000000 0.000000
# 3 -0.003813 -0.004040 0.014737 0.000000 0.000000 0.000000
# 4 0.000000 0.000000 0.000000 0.032451 0.000000 0.000000
# 5 0.000000 0.000000 0.000000 0.000000 0.183044 0.000000
# 6 0.000000 0.000000 0.000000 0.000000 0.000000 0.242642
#
#
# Mechanical properties :
#
#
# Convention : Reuss Voigt Hill
#
# Bulk Modulus (GPa) = 21.89185 54.89379 38.39282
# Shear Modulus (GPa) = 8.48750 20.09778 14.29264
#
# Velocity S-wave (km/s) = 2.15687 3.31900 2.79891
# Velocity P-wave (km/s) = 4.26637 6.69145 5.61148
#
# Compressibility (1/GPa) = 0.04567909
#
# Stress axis : x y z
#
# Youngs Moduli (GPa) = 17.52669 112.15419 67.85792
#
# Poissons Ratio (x) = 1.08361 0.25876
# Poissons Ratio (y) = 0.16934 0.27413
# Poissons Ratio (z) = 0.06684 0.45308
#
# Static dielectric constant tensor:
#      x y z
#    x 2.914310 0.000000 0.000000 
#    y 0.000000 3.673970 0.000000 
#    z 0.000000 0.000000 3.401500 
# 
# 
# High freq. dielectric constant tensor:
#      x y z
#    x 1.619320 0.000000 0.000000 
#    y 0.000000 1.722330 0.000000 
#    z 0.000000 0.000000 1.710540 
# 
# From -- ./inp_files/4041.got.cif
#   From: 2010.03.12/outbox.cif.g09.slc.cpg/sg47_3_cif.got.tgz:4041.got - 2010.04.14 03:12:58.
