data_PCOD8201763
_publ_section_title
;
Structure prediction by ZEFSAII (Michael W. Deem and Ramdas Pophale) SiO2 
 PCOD8201763
Probable space group: P N N N
;
_chemical_formula_sum "Si O2"
_cell_formula_units_Z 64
_cell_length_a 14.760940
_cell_length_b 10.906187
_cell_length_c 18.098990
_cell_angle_alpha 90.000000
_cell_angle_beta 90.000000
_cell_angle_gamma 90.000000
_cell_volume 2913.676257
_symmetry_space_group_name_H-M "P N N N"
_symmetry_group_IT_number 48
_space_group.IT_coordinate_system_code '2'
_symmetry_cell_setting 'orthorhombic'
loop_
_space_group_symop_operation_xyz
x,y,z
1/2-x,1/2-y,z
x,1/2-y,1/2-z
1/2-x,y,1/2-z
-x,-y,-z
1/2+x,1/2+y,-z
-x,1/2+y,1/2+z
1/2+x,-y,1/2+z
loop_
_atom_site_type_symbol
_atom_site_label
_atom_site_fract_x
_atom_site_fract_y
_atom_site_fract_z
Si Si1 0.075162 0.321887 0.368695
Si Si2 0.192804 0.443972 0.484997
Si Si3 0.840215 0.811783 0.137272
Si Si4 0.884096 0.335382 0.440544
Si Si5 0.473476 0.414063 0.279783
Si Si6 0.128285 0.923100 0.510099
Si Si7 0.477504 0.401672 0.609205
Si Si8 0.656021 0.440796 0.210593
O O1 0.163968 0.358051 0.415852
O O2 0.074549 0.185755 0.333232
O O3 0.073784 0.418746 0.300693
O O4 0.991302 0.328800 0.424960
O O5 0.188099 0.361396 0.557367
O O6 0.128905 0.563568 0.494652
O O7 0.294880 0.494007 0.471249
O O8 0.750000 0.750000 0.170689
O O9 0.925917 0.722042 0.130144
O O10 0.869822 0.916999 0.194824
O O11 0.836145 0.207746 0.462237
O O12 0.831427 0.375627 0.367545
O O13 0.469684 0.546042 0.319039
O O14 0.578669 0.379736 0.262030
O O15 0.049054 0.881727 0.455161
O O16 0.093387 0.996107 0.581715
O O17 0.750000 0.425626 0.250000
#
# Coordination Sequence:
#
# PCOD8201763 Si02
#       8
#     8   8   8   8   8   8   8   8
#     4  10  21  40  62  90 129 170 219 277 325 406
#     4  11  23  38  64  95 127 165 223 277 334 397
#     4  11  22  38  61  94 134 172 218 273 341 410
#     4  10  21  40  64  92 130 169 215 270 337 403
#     4  10  22  39  62  88 126 179 216 268 345 401
#     4  11  23  39  63  94 126 170 219 279 332 405
#     4  11  23  40  63  90 129 174 220 270 343 402
#     4  10  23  39  62  98 135 177 217 270 339 428
#
# _framework density 21.965378000000001
#
# number of rings (size 3 to 8) (size 9 to 14) (size 15 to 20)
#    0.000    1.500    2.500    2.250    3.500    4.750 
#    0.000    6.250    0.000    1.500    0.000    1.750 
#    0.000    0.000    0.000    0.000    0.000    0.000 
#
# Total GULP energy -793377.526388 kJ/mol
# GULP energy per Si atom -12396.523850 kJ/mol
# Density = 2.191538 g / cm^3
# Si number density = 21.965378 Si / 1000 Ang^3
#
#
#
# Elastic Constant Matrix: (Units=GPa)
#
#
# Indices 1 2 3 4 5 6 
#
# 1 68.1319 39.3312 26.3468 0.0000 0.0000 0.0000
# 2 39.3312 115.7456 26.7998 0.0000 0.0000 0.0000
# 3 26.3468 26.7998 65.0973 0.0000 0.0000 0.0000
# 4 0.0000 0.0000 0.0000 26.1514 0.0000 0.0000
# 5 0.0000 0.0000 0.0000 0.0000 21.5133 0.0000
# 6 0.0000 0.0000 0.0000 0.0000 0.0000 33.1210
#
#
#
# Elastic Compliance Matrix: (Units=1/GPa)
#
#
# Indices 1 2 3 4 5 6 
#
# 1 0.020113 -0.005471 -0.005888 0.000000 0.000000 0.000000
# 2 -0.005471 0.011038 -0.002330 0.000000 0.000000 0.000000
# 3 -0.005888 -0.002330 0.018704 0.000000 0.000000 0.000000
# 4 0.000000 0.000000 0.000000 0.038239 0.000000 0.000000
# 5 0.000000 0.000000 0.000000 0.000000 0.046483 0.000000
# 6 0.000000 0.000000 0.000000 0.000000 0.000000 0.030192
#
#
# Mechanical properties :
#
#
# Convention : Reuss Voigt Hill
#
# Bulk Modulus (GPa) = 44.49017 48.21449 46.35233
# Shear Modulus (GPa) = 25.04522 26.59026 25.81774
#
# Velocity S-wave (km/s) = 3.38037 3.48308 3.43211
# Velocity P-wave (km/s) = 5.96108 6.17848 6.07075
#
# Compressibility (1/GPa) = 0.02247688
#
# Stress axis : x y z
#
# Youngs Moduli (GPa) = 49.71999 90.59390 53.46508
#
# Poissons Ratio (x) = 0.49565 0.31479
# Poissons Ratio (y) = 0.27203 0.12457
# Poissons Ratio (z) = 0.29274 0.21108
#
# Static dielectric constant tensor:
#      x y z
#    x 3.678210 0.000000 0.000000 
#    y 0.000000 4.111430 0.000000 
#    z 0.000000 0.000000 3.975370 
# 
# 
# High freq. dielectric constant tensor:
#      x y z
#    x 1.841090 0.000000 0.000000 
#    y 0.000000 1.870810 0.000000 
#    z 0.000000 0.000000 1.861090 
# 
# From -- ./inp_files/21555.got.cif
#   From: 2010.06.25/outbox.cif.g09.slc.cpg/sg48_11_cif.got.tgz:21555.got - 2010.06.26 18:06:46.
