data_PCOD8201990
_publ_section_title
;
Structure prediction by ZEFSAII (Michael W. Deem and Ramdas Pophale) SiO2 
 PCOD8201990
Probable space group: P N N N
;
_chemical_formula_sum "Si O2"
_cell_formula_units_Z 40
_cell_length_a 16.634761
_cell_length_b 6.225023
_cell_length_c 19.253975
_cell_angle_alpha 90.000000
_cell_angle_beta 90.000000
_cell_angle_gamma 90.000000
_cell_volume 1993.783187
_symmetry_space_group_name_H-M "P N N N"
_symmetry_group_IT_number 48
_space_group.IT_coordinate_system_code '2'
_symmetry_cell_setting 'orthorhombic'
loop_
_space_group_symop_operation_xyz
x,y,z
1/2-x,1/2-y,z
x,1/2-y,1/2-z
1/2-x,y,1/2-z
-x,-y,-z
1/2+x,1/2+y,-z
-x,1/2+y,1/2+z
1/2+x,-y,1/2+z
loop_
_atom_site_type_symbol
_atom_site_label
_atom_site_fract_x
_atom_site_fract_y
_atom_site_fract_z
Si Si1 0.189638 0.948624 0.630795
Si Si2 0.750000 0.750000 0.487447
Si Si3 0.037328 0.815959 0.549793
Si Si4 0.750000 0.750000 0.750000
Si Si5 0.168058 0.630944 0.314049
Si Si6 0.603900 0.521982 0.944986
Si Si7 0.250000 0.250000 0.750000
O O1 0.250000 0.750000 0.644789
O O2 0.096147 0.889802 0.613246
O O3 0.216202 0.062527 0.560494
O O4 0.194101 0.102501 0.699246
O O5 0.683161 0.844649 0.537807
O O6 0.083903 0.629719 0.508950
O O7 0.961459 0.693147 0.581279
O O8 0.000000 0.000000 0.500000
O O9 0.810146 0.613548 0.702662
O O10 0.250000 0.750000 0.331416
O O11 0.123352 0.750000 0.250000
O O12 0.112737 0.641547 0.381068
#
# Coordination Sequence:
#
# PCOD8201990 Si02
#       7
#     8   4   8   2   8   8   2
#     4  11  22  44  69 100 130 173 221 279 337 395
#     4  11  21  35  68 105 120 162 230 264 333 405
#     4  11  24  40  64  95 138 165 207 280 342 395
#     4   8  16  36  58  82 114 156 196 250 280 372
#     4   9  20  35  58  86 121 163 210 250 300 380
#     4  11  23  37  63  99 126 169 214 273 327 391
#     4  10  26  40  78  98 126 176 238 276 318 418
#
# _framework density 20.062363999999999
#
# number of rings (size 3 to 8) (size 9 to 14) (size 15 to 20)
#    0.000    1.800    4.000    0.900    2.800    3.200 
#    0.000    0.000   22.000    0.000    2.600    0.000 
#    0.000    0.000    0.000    0.000    0.000    0.000 
#
# Total GULP energy -495610.434941 kJ/mol
# GULP energy per Si atom -12390.260874 kJ/mol
# Density = 2.001670 g / cm^3
# Si number density = 20.062364 Si / 1000 Ang^3
#
#
#
# Elastic Constant Matrix: (Units=GPa)
#
#
# Indices 1 2 3 4 5 6 
#
# 1 114.2989 44.2965 59.2090 0.0000 0.0000 0.0000
# 2 44.2965 106.3150 39.7418 0.0000 0.0000 0.0000
# 3 59.2090 39.7418 119.5323 0.0000 0.0000 0.0000
# 4 0.0000 0.0000 0.0000 30.1149 0.0000 0.0000
# 5 0.0000 0.0000 0.0000 0.0000 17.5989 0.0000
# 6 0.0000 0.0000 0.0000 0.0000 0.0000 25.7252
#
#
#
# Elastic Compliance Matrix: (Units=1/GPa)
#
#
# Indices 1 2 3 4 5 6 
#
# 1 0.012745 -0.003369 -0.005193 0.000000 0.000000 0.000000
# 2 -0.003369 0.011631 -0.002198 0.000000 0.000000 0.000000
# 3 -0.005193 -0.002198 0.011669 0.000000 0.000000 0.000000
# 4 0.000000 0.000000 0.000000 0.033206 0.000000 0.000000
# 5 0.000000 0.000000 0.000000 0.000000 0.056822 0.000000
# 6 0.000000 0.000000 0.000000 0.000000 0.000000 0.038872
#
#
# Mechanical properties :
#
#
# Convention : Reuss Voigt Hill
#
# Bulk Modulus (GPa) = 68.84779 69.62673 69.23726
# Shear Modulus (GPa) = 26.13596 27.81441 26.97518
#
# Velocity S-wave (km/s) = 3.61326 3.72747 3.67081
# Velocity P-wave (km/s) = 7.19715 7.30109 7.24930
#
# Compressibility (1/GPa) = 0.01452479
#
# Stress axis : x y z
#
# Youngs Moduli (GPa) = 78.46468 85.97348 85.69666
#
# Poissons Ratio (x) = 0.28964 0.44500
# Poissons Ratio (y) = 0.26434 0.18840
# Poissons Ratio (z) = 0.40745 0.18901
#
# Static dielectric constant tensor:
#      x y z
#    x 3.595460 0.000000 0.000000 
#    y 0.000000 3.855520 0.000000 
#    z 0.000000 0.000000 3.662830 
# 
# 
# High freq. dielectric constant tensor:
#      x y z
#    x 1.769160 0.000000 0.000000 
#    y 0.000000 1.804240 0.000000 
#    z 0.000000 0.000000 1.775850 
# 
# From -- ./inp_files/4432.got.cif
#   From: 2010.06.25/outbox.cif.g09.slc.cpg/sg48_3_cif.got.tgz:4432.got - 2010.06.26 18:06:46.
