data_PCOD8201203
_publ_section_title
;
Structure prediction by ZEFSAII (Michael W. Deem and Ramdas Pophale) SiO2 
 PCOD8201203
Probable space group: P M M M
;
_chemical_formula_sum "Si O2"
_cell_formula_units_Z 40
_cell_length_a 27.921601
_cell_length_b 9.273063
_cell_length_c 8.020613
_cell_angle_alpha 90.000000
_cell_angle_beta 90.000000
_cell_angle_gamma 90.000000
_cell_volume 2076.687214
_symmetry_space_group_name_H-M "P M M M"
_symmetry_group_IT_number 47
_symmetry_cell_setting 'orthorhombic'
loop_
_space_group_symop_operation_xyz
x,y,z
-x,-y,z
x,-y,-z
-x,y,-z
-x,-y,-z
x,y,-z
-x,y,z
x,-y,z
loop_
_atom_site_type_symbol
_atom_site_label
_atom_site_fract_x
_atom_site_fract_y
_atom_site_fract_z
Si Si1 0.117942 0.669691 0.308641
Si Si2 0.599009 0.664108 0.806233
Si Si3 0.500000 0.662096 0.695217
Si Si4 0.946563 0.670774 0.000000
Si Si5 0.786799 0.839429 0.303099
Si Si6 0.301253 0.338924 0.693635
O O1 0.102024 0.708827 0.500000
O O2 0.127573 0.500000 0.294972
O O3 0.078897 0.721541 0.172195
O O4 0.166345 0.749415 0.256115
O O5 0.595510 0.500000 0.740178
O O6 0.548794 0.742258 0.756393
O O7 0.646375 0.733892 0.722946
O O8 0.606848 0.674589 0.000000
O O9 0.500000 0.500000 0.772324
O O10 0.500000 0.658899 0.500000
O O11 0.948877 0.500000 0.000000
O O12 0.000000 0.736983 0.000000
O O13 0.781340 0.850427 0.500000
O O14 0.740212 0.759837 0.225139
O O15 0.790512 0.000000 0.225960
O O16 0.290657 0.351867 0.500000
O O17 0.299806 0.500000 0.774394
#
# Coordination Sequence:
#
# PCOD8201203 Si02
#       6
#     8   8   4   4   8   8
#     4   9  17  31  52  76 102 134 169 204 245 291
#     4   9  16  25  37  57  86 117 148 185 230 279
#     4   9  15  23  37  57  82 113 148 185 228 278
#     4   9  18  32  51  79 109 133 165 208 247 286
#     4   9  17  30  49  71  95 125 161 201 244 288
#     4   9  16  27  44  65  90 120 154 192 234 283
#
# _framework density 19.261447
#
# number of rings (size 3 to 8) (size 9 to 14) (size 15 to 20)
#    0.000    3.000    0.000    1.500    0.000    6.400 
#    1.800    2.500    0.000    1.200    0.000    3.500 
#    0.000    5.600    0.000    0.000    0.000    0.000 
#
# Total GULP energy -495627.618995 kJ/mol
# GULP energy per Si atom -12390.690475 kJ/mol
# Density = 1.921761 g / cm^3
# Si number density = 19.261447 Si / 1000 Ang^3
#
#
#
# Elastic Constant Matrix: (Units=GPa)
#
#
# Indices 1 2 3 4 5 6 
#
# 1 202.5310 51.5074 54.6682 0.0000 0.0000 0.0000
# 2 51.5074 50.9588 18.9101 0.0000 0.0000 0.0000
# 3 54.6682 18.9101 65.8599 0.0000 0.0000 0.0000
# 4 0.0000 0.0000 0.0000 6.2003 0.0000 0.0000
# 5 0.0000 0.0000 0.0000 0.0000 21.9647 0.0000
# 6 0.0000 0.0000 0.0000 0.0000 0.0000 2.3816
#
#
#
# Elastic Compliance Matrix: (Units=1/GPa)
#
#
# Indices 1 2 3 4 5 6 
#
# 1 0.007753 -0.006098 -0.004684 0.000000 0.000000 0.000000
# 2 -0.006098 0.026760 -0.002622 0.000000 0.000000 0.000000
# 3 -0.004684 -0.002622 0.019825 0.000000 0.000000 0.000000
# 4 0.000000 0.000000 0.000000 0.161284 0.000000 0.000000
# 5 0.000000 0.000000 0.000000 0.000000 0.045528 0.000000
# 6 0.000000 0.000000 0.000000 0.000000 0.000000 0.419885
#
#
# Mechanical properties :
#
#
# Convention : Reuss Voigt Hill
#
# Bulk Modulus (GPa) = 36.32475 63.28014 49.80244
# Shear Modulus (GPa) = 6.97332 19.06024 13.01678
#
# Velocity S-wave (km/s) = 1.90479 3.14913 2.60243
# Velocity P-wave (km/s) = 4.87210 6.79318 5.91120
#
# Compressibility (1/GPa) = 0.02752944
#
# Stress axis : x y z
#
# Youngs Moduli (GPa) = 128.98602 37.36896 50.44140
#
# Poissons Ratio (x) = 0.22787 0.23629
# Poissons Ratio (y) = 0.78654 0.13225
# Poissons Ratio (z) = 0.60423 0.09798
#
# Static dielectric constant tensor:
#      x y z
#    x 3.895380 0.000000 0.000000 
#    y 0.000000 3.221670 0.000000 
#    z 0.000000 0.000000 3.308370 
# 
# 
# High freq. dielectric constant tensor:
#      x y z
#    x 1.765460 0.000000 0.000000 
#    y 0.000000 1.683790 0.000000 
#    z 0.000000 0.000000 1.736640 
# 
# From -- ./inp_files/13056.got.cif
#   From: 2010.03.12/outbox.cif.g09.slc.cpg/sg47_7_cif.got.tgz:13056.got - 2010.04.14 03:12:58.
