data_PCOD8201926
_publ_section_title
;
Structure prediction by ZEFSAII (Michael W. Deem and Ramdas Pophale) SiO2 
 PCOD8201926
Probable space group: P N N N
;
_chemical_formula_sum "Si O2"
_cell_formula_units_Z 48
_cell_length_a 5.684144
_cell_length_b 26.993606
_cell_length_c 13.707701
_cell_angle_alpha 90.000000
_cell_angle_beta 90.000000
_cell_angle_gamma 90.000000
_cell_volume 2103.248554
_symmetry_space_group_name_H-M "P N N N"
_symmetry_group_IT_number 48
_space_group.IT_coordinate_system_code '2'
_symmetry_cell_setting 'orthorhombic'
loop_
_space_group_symop_operation_xyz
x,y,z
1/2-x,1/2-y,z
x,1/2-y,1/2-z
1/2-x,y,1/2-z
-x,-y,-z
1/2+x,1/2+y,-z
-x,1/2+y,1/2+z
1/2+x,-y,1/2+z
loop_
_atom_site_type_symbol
_atom_site_label
_atom_site_fract_x
_atom_site_fract_y
_atom_site_fract_z
Si Si1 0.610342 0.297728 0.116031
Si Si2 0.582943 0.295420 0.900643
Si Si3 0.393510 0.891775 0.113408
Si Si4 0.420681 0.893273 0.896631
Si Si5 0.250000 0.973509 0.250000
Si Si6 0.750000 0.837679 0.250000
Si Si7 0.250000 0.531480 0.750000
Si Si8 0.250000 0.348629 0.250000
O O1 0.750000 0.250000 0.152275
O O2 0.793503 0.341145 0.100922
O O3 0.432705 0.311485 0.201009
O O4 0.485415 0.287025 0.010969
O O5 0.750000 0.250000 0.869382
O O6 0.713390 0.347324 0.895535
O O7 0.373239 0.299398 0.823879
O O8 0.257432 0.939642 0.153539
O O9 0.593367 0.875493 0.188283
O O10 0.495453 0.907109 0.007053
O O11 0.254993 0.934831 0.847744
O O12 0.652005 0.886199 0.831194
O O13 0.500411 0.002510 0.255334
#
# Coordination Sequence:
#
# PCOD8201926 Si02
#       8
#     8   8   8   8   4   4   4   4
#     4  10  23  42  68 106 146 189 240 296 367 448
#     4  10  23  42  68 106 146 189 240 296 367 448
#     4  11  25  45  70 106 146 189 243 308 376 448
#     4  11  25  45  70 106 146 189 243 308 376 448
#     4  12  27  50  76 110 149 195 258 321 386 456
#     4  12  21  43  71 102 144 199 242 301 359 448
#     4  12  27  50  76 110 149 195 258 321 386 456
#     4  12  21  43  71 102 144 199 242 301 359 448
#
# _framework density 22.821840999999999
#
# number of rings (size 3 to 8) (size 9 to 14) (size 15 to 20)
#    0.000    1.000    3.333    2.000    0.000    6.667 
#    0.000    5.000    0.000    3.000    0.000    0.000 
#    0.000    0.000    0.000    0.000    0.000    0.000 
#
# Total GULP energy -595050.020623 kJ/mol
# GULP energy per Si atom -12396.875430 kJ/mol
# Density = 2.276990 g / cm^3
# Si number density = 22.821841 Si / 1000 Ang^3
#
#
#
# Elastic Constant Matrix: (Units=GPa)
#
#
# Indices 1 2 3 4 5 6 
#
# 1 66.9694 18.7504 25.2129 0.0000 0.0000 0.0000
# 2 18.7504 108.4942 24.1742 0.0000 0.0000 0.0000
# 3 25.2129 24.1742 159.2888 0.0000 0.0000 0.0000
# 4 0.0000 0.0000 0.0000 50.4018 0.0000 0.0000
# 5 0.0000 0.0000 0.0000 0.0000 97.7406 0.0000
# 6 0.0000 0.0000 0.0000 0.0000 0.0000 32.4332
#
#
#
# Elastic Compliance Matrix: (Units=1/GPa)
#
#
# Indices 1 2 3 4 5 6 
#
# 1 0.016433 -0.002340 -0.002246 0.000000 0.000000 0.000000
# 2 -0.002340 0.009873 -0.001128 0.000000 0.000000 0.000000
# 3 -0.002246 -0.001128 0.006805 0.000000 0.000000 0.000000
# 4 0.000000 0.000000 0.000000 0.019841 0.000000 0.000000
# 5 0.000000 0.000000 0.000000 0.000000 0.010231 0.000000
# 6 0.000000 0.000000 0.000000 0.000000 0.000000 0.030833
#
#
# Mechanical properties :
#
#
# Convention : Reuss Voigt Hill
#
# Bulk Modulus (GPa) = 46.11895 52.33638 49.22766
# Shear Modulus (GPa) = 44.37766 53.88945 49.13355
#
# Velocity S-wave (km/s) = 4.41446 4.86460 4.64499
# Velocity P-wave (km/s) = 6.79966 7.38477 7.09825
#
# Compressibility (1/GPa) = 0.02168306
#
# Stress axis : x y z
#
# Youngs Moduli (GPa) = 60.85386 101.28893 146.95933
#
# Poissons Ratio (x) = 0.23697 0.33007
# Poissons Ratio (y) = 0.14237 0.16577
# Poissons Ratio (z) = 0.13668 0.11425
#
# Static dielectric constant tensor:
#      x y z
#    x 4.055880 0.000000 0.000000 
#    y 0.000000 4.176440 0.000000 
#    z 0.000000 0.000000 5.036600 
# 
# 
# High freq. dielectric constant tensor:
#      x y z
#    x 1.890690 0.000000 0.000000 
#    y 0.000000 1.904740 0.000000 
#    z 0.000000 0.000000 1.925410 
# 
# From -- ./inp_files/24474.got.cif
#   From: 2010.06.25/outbox.cif.g09.slc.cpg/sg48_13_cif.got.tgz:24474.got - 2010.06.26 18:06:46.
