data_PCOD8201308
_publ_section_title
;
Structure prediction by ZEFSAII (Michael W. Deem and Ramdas Pophale) SiO2 
 PCOD8201308
Probable space group: P N N N
;
_chemical_formula_sum "Si O2"
_cell_formula_units_Z 56
_cell_length_a 11.691704
_cell_length_b 21.565822
_cell_length_c 12.611893
_cell_angle_alpha 90.000000
_cell_angle_beta 90.000000
_cell_angle_gamma 90.000000
_cell_volume 3179.977928
_symmetry_space_group_name_H-M "P N N N"
_symmetry_group_IT_number 48
_space_group.IT_coordinate_system_code '2'
_symmetry_cell_setting 'orthorhombic'
loop_
_space_group_symop_operation_xyz
x,y,z
1/2-x,1/2-y,z
x,1/2-y,1/2-z
1/2-x,y,1/2-z
-x,-y,-z
1/2+x,1/2+y,-z
-x,1/2+y,1/2+z
1/2+x,-y,1/2+z
loop_
_atom_site_type_symbol
_atom_site_label
_atom_site_fract_x
_atom_site_fract_y
_atom_site_fract_z
Si Si1 0.021031 0.530475 0.822047
Si Si2 0.354677 0.059739 0.690848
Si Si3 0.947011 0.366520 0.338959
Si Si4 0.272381 0.484738 0.374156
Si Si5 0.852167 0.871023 0.985614
Si Si6 0.747209 0.057930 0.426132
Si Si7 0.250000 0.250000 0.416141
Si Si8 0.450241 0.250000 0.250000
O O1 0.048474 0.461261 0.775341
O O2 0.000153 0.574859 0.722149
O O3 0.120011 0.561146 0.894095
O O4 0.907453 0.525850 0.892455
O O5 0.250000 0.093250 0.750000
O O6 0.392822 0.107523 0.601657
O O7 0.309418 0.997012 0.638700
O O8 0.819179 0.379824 0.386317
O O9 0.027247 0.352643 0.437786
O O10 0.960089 0.306546 0.264063
O O11 0.250000 0.498658 0.250000
O O12 0.208880 0.423658 0.415251
O O13 0.234845 0.543584 0.447566
O O14 0.769935 0.810807 0.988919
O O15 0.364514 0.262428 0.347877
#
# Coordination Sequence:
#
# PCOD8201308 Si02
#       8
#     8   8   8   8   8   8   4   4
#     4  10  18  32  48  69 103 134 162 200 250 303
#     4   8  17  31  47  67  96 132 163 196 246 294
#     4  10  18  31  50  71  99 130 163 203 250 298
#     4  11  20  29  48  75  99 132 168 202 247 302
#     4  10  19  30  48  73  98 128 166 207 248 296
#     4   9  20  32  46  69 102 134 161 199 244 299
#     4   9  18  30  47  72 106 130 159 204 257 294
#     4   9  18  30  49  74 100 130 160 206 248 296
#
# _framework density 17.610185000000001
#
# number of rings (size 3 to 8) (size 9 to 14) (size 15 to 20)
#    0.000    2.429    1.429    2.571    4.000    1.714 
#    0.000    1.786    0.000    0.000    0.000    0.000 
#    0.000    1.143    0.000    0.000    0.000    0.000 
#
# Total GULP energy -693763.256760 kJ/mol
# GULP energy per Si atom -12388.629585 kJ/mol
# Density = 1.757010 g / cm^3
# Si number density = 17.610185 Si / 1000 Ang^3
#
#
#
# Elastic Constant Matrix: (Units=GPa)
#
#
# Indices 1 2 3 4 5 6 
#
# 1 91.0585 29.8081 18.4769 0.0000 0.0000 0.0000
# 2 29.8081 74.5025 28.0842 0.0000 0.0000 0.0000
# 3 18.4769 28.0842 66.6733 0.0000 0.0000 0.0000
# 4 0.0000 0.0000 0.0000 22.5924 0.0000 0.0000
# 5 0.0000 0.0000 0.0000 0.0000 18.0865 0.0000
# 6 0.0000 0.0000 0.0000 0.0000 0.0000 23.0372
#
#
#
# Elastic Compliance Matrix: (Units=1/GPa)
#
#
# Indices 1 2 3 4 5 6 
#
# 1 0.012788 -0.004494 -0.001651 0.000000 0.000000 0.000000
# 2 -0.004494 0.017535 -0.006141 0.000000 0.000000 0.000000
# 3 -0.001651 -0.006141 0.018043 0.000000 0.000000 0.000000
# 4 0.000000 0.000000 0.000000 0.044263 0.000000 0.000000
# 5 0.000000 0.000000 0.000000 0.000000 0.055290 0.000000
# 6 0.000000 0.000000 0.000000 0.000000 0.000000 0.043408
#
#
# Mechanical properties :
#
#
# Convention : Reuss Voigt Hill
#
# Bulk Modulus (GPa) = 42.02674 42.77475 42.40075
# Shear Modulus (GPa) = 22.33841 23.13422 22.73632
#
# Velocity S-wave (km/s) = 3.56546 3.62841 3.59707
# Velocity P-wave (km/s) = 6.39271 6.47274 6.43285
#
# Compressibility (1/GPa) = 0.02379437
#
# Stress axis : x y z
#
# Youngs Moduli (GPa) = 78.19762 57.02787 55.42428
#
# Poissons Ratio (x) = 0.25629 0.09150
# Poissons Ratio (y) = 0.35143 0.34035
# Poissons Ratio (z) = 0.12910 0.35020
#
# Static dielectric constant tensor:
#      x y z
#    x 3.369380 0.000000 0.000000 
#    y 0.000000 3.107660 0.000000 
#    z 0.000000 0.000000 3.440220 
# 
# 
# High freq. dielectric constant tensor:
#      x y z
#    x 1.681920 0.000000 0.000000 
#    y 0.000000 1.640940 0.000000 
#    z 0.000000 0.000000 1.673830 
# 
# From -- ./inp_files/20426.got.cif
#   From: 2010.06.25/outbox.cif.g09.slc.cpg/sg48_11_cif.got.tgz:20426.got - 2010.06.26 18:06:46.
