data_PCOD8201913
_publ_section_title
;
Structure prediction by ZEFSAII (Michael W. Deem and Ramdas Pophale) SiO2 
 PCOD8201913
Probable space group: P N N N
;
_chemical_formula_sum "Si O2"
_cell_formula_units_Z 40
_cell_length_a 14.252505
_cell_length_b 8.225528
_cell_length_c 15.908755
_cell_angle_alpha 90.000000
_cell_angle_beta 90.000000
_cell_angle_gamma 90.000000
_cell_volume 1865.053012
_symmetry_space_group_name_H-M "P N N N"
_symmetry_group_IT_number 48
_space_group.IT_coordinate_system_code '2'
_symmetry_cell_setting 'orthorhombic'
loop_
_space_group_symop_operation_xyz
x,y,z
1/2-x,1/2-y,z
x,1/2-y,1/2-z
1/2-x,y,1/2-z
-x,-y,-z
1/2+x,1/2+y,-z
-x,1/2+y,1/2+z
1/2+x,-y,1/2+z
loop_
_atom_site_type_symbol
_atom_site_label
_atom_site_fract_x
_atom_site_fract_y
_atom_site_fract_z
Si Si1 0.157247 0.473091 0.508313
Si Si2 0.750000 0.750000 0.613150
Si Si3 0.516565 0.036000 0.134711
Si Si4 0.273736 0.439048 0.659618
Si Si5 0.592172 0.750000 0.750000
Si Si6 0.518394 0.247477 0.522226
O O1 0.240145 0.407500 0.446694
O O2 0.211789 0.535640 0.590999
O O3 0.101924 0.619184 0.464032
O O4 0.083774 0.332441 0.535364
O O5 0.656455 0.765801 0.668026
O O6 0.471936 0.093135 0.224828
O O7 0.617413 0.963165 0.148230
O O8 0.459324 0.890502 0.089128
O O9 0.520362 0.191103 0.073701
O O10 0.250000 0.250000 0.652077
O O11 0.250000 0.512556 0.750000
#
# Coordination Sequence:
#
# PCOD8201913 Si02
#       6
#     8   4   8   8   4   8
#     4  11  21  44  68 101 135 188 230 290 360 426
#     4  11  22  46  69  94 134 184 239 278 358 425
#     4  11  23  46  64 102 139 180 238 293 353 433
#     4  11  24  41  65  99 139 182 226 290 356 418
#     4  11  26  42  71  96 134 188 227 298 352 407
#     4  10  23  40  72 100 132 181 241 285 355 431
#
# _framework density 21.447112000000001
#
# number of rings (size 3 to 8) (size 9 to 14) (size 15 to 20)
#    0.000    1.200    5.000    0.000    5.600    0.800 
#    0.000    0.000    0.000    2.400    0.000    0.000 
#    0.000    0.000    0.000    0.000    0.000    0.000 
#
# Total GULP energy -495775.989446 kJ/mol
# GULP energy per Si atom -12394.399736 kJ/mol
# Density = 2.139830 g / cm^3
# Si number density = 21.447112 Si / 1000 Ang^3
#
#
#
# Elastic Constant Matrix: (Units=GPa)
#
#
# Indices 1 2 3 4 5 6 
#
# 1 132.0072 51.3944 67.3658 0.0000 0.0000 0.0000
# 2 51.3944 98.5151 46.1593 0.0000 0.0000 0.0000
# 3 67.3658 46.1593 134.0444 0.0000 0.0000 0.0000
# 4 0.0000 0.0000 0.0000 24.3484 0.0000 0.0000
# 5 0.0000 0.0000 0.0000 0.0000 45.5190 0.0000
# 6 0.0000 0.0000 0.0000 0.0000 0.0000 36.8910
#
#
#
# Elastic Compliance Matrix: (Units=1/GPa)
#
#
# Indices 1 2 3 4 5 6 
#
# 1 0.011296 -0.003855 -0.004349 0.000000 0.000000 0.000000
# 2 -0.003855 0.013419 -0.002684 0.000000 0.000000 0.000000
# 3 -0.004349 -0.002684 0.010570 0.000000 0.000000 0.000000
# 4 0.000000 0.000000 0.000000 0.041071 0.000000 0.000000
# 5 0.000000 0.000000 0.000000 0.000000 0.021969 0.000000
# 6 0.000000 0.000000 0.000000 0.000000 0.000000 0.027107
#
#
# Mechanical properties :
#
#
# Convention : Reuss Voigt Hill
#
# Bulk Modulus (GPa) = 74.02353 77.15619 75.58986
# Shear Modulus (GPa) = 32.95750 34.66148 33.80949
#
# Velocity S-wave (km/s) = 3.92431 4.02448 3.97471
# Velocity P-wave (km/s) = 7.42449 7.59266 7.50904
#
# Compressibility (1/GPa) = 0.01350922
#
# Stress axis : x y z
#
# Youngs Moduli (GPa) = 88.52870 74.51974 94.60586
#
# Poissons Ratio (x) = 0.28727 0.41147
# Poissons Ratio (y) = 0.34128 0.25389
# Poissons Ratio (z) = 0.38504 0.19998
#
# Static dielectric constant tensor:
#      x y z
#    x 3.939800 0.000000 0.000000 
#    y 0.000000 3.762350 0.000000 
#    z 0.000000 0.000000 4.377690 
# 
# 
# High freq. dielectric constant tensor:
#      x y z
#    x 1.853340 0.000000 0.000000 
#    y 0.000000 1.823120 0.000000 
#    z 0.000000 0.000000 1.843730 
# 
# From -- ./inp_files/25106.got.cif
#   From: 2010.06.25/outbox.cif.g09.slc.cpg/sg48_13_cif.got.tgz:25106.got - 2010.06.26 18:06:46.
