data_PCOD8201306
_publ_section_title
;
Structure prediction by ZEFSAII (Michael W. Deem and Ramdas Pophale) SiO2 
 PCOD8201306
Probable space group: P N N N
;
_chemical_formula_sum "Si O2"
_cell_formula_units_Z 38
_cell_length_a 24.538156
_cell_length_b 9.493198
_cell_length_c 7.330505
_cell_angle_alpha 90.000000
_cell_angle_beta 90.000000
_cell_angle_gamma 90.000000
_cell_volume 1707.608691
_symmetry_space_group_name_H-M "P N N N"
_symmetry_group_IT_number 48
_space_group.IT_coordinate_system_code '2'
_symmetry_cell_setting 'orthorhombic'
loop_
_space_group_symop_operation_xyz
x,y,z
1/2-x,1/2-y,z
x,1/2-y,1/2-z
1/2-x,y,1/2-z
-x,-y,-z
1/2+x,1/2+y,-z
-x,1/2+y,1/2+z
1/2+x,-y,1/2+z
loop_
_atom_site_type_symbol
_atom_site_label
_atom_site_fract_x
_atom_site_fract_y
_atom_site_fract_z
Si Si1 0.750000 0.750000 0.750000
Si Si2 0.936302 0.758155 0.965770
Si Si3 0.838814 0.929311 0.584144
Si Si4 0.607369 0.041947 0.573396
Si Si5 0.688985 0.267545 0.532596
Si Si6 0.974881 0.250000 0.750000
O O1 0.783274 0.843221 0.604211
O O2 0.949686 0.750000 0.750000
O O3 0.885407 0.658998 0.018822
O O4 0.923579 0.918621 0.038671
O O5 0.988763 0.704647 0.076429
O O6 0.853905 0.953203 0.794613
O O7 0.830636 0.076511 0.477059
O O8 0.645448 0.151048 0.455575
O O9 0.563277 0.120427 0.697826
O O10 0.750000 0.250000 0.452711
O O11 0.689016 0.250000 0.750000
#
# Coordination Sequence:
#
# PCOD8201306 Si02
#       6
#     2   8   8   8   8   4
#     4  12  16  28  58  82 116 148 180 252 290 338
#     4  10  23  38  56  88 115 151 203 234 283 349
#     4  10  18  30  52  86 112 142 193 236 284 346
#     4  10  18  37  52  84 119 150 198 236 286 358
#     4   9  16  28  52  83 115 147 185 239 293 341
#     4  12  22  38  63  75 126 160 186 246 290 328
#
# _framework density 22.253343999999998
#
# number of rings (size 3 to 8) (size 9 to 14) (size 15 to 20)
#    0.000    1.895    6.316    3.158    0.000    3.368 
#    0.000    0.000    0.000    0.632    0.000    1.474 
#    0.000    2.526    0.000    0.000    0.000    0.000 
#
# Total GULP energy -470894.126179 kJ/mol
# GULP energy per Si atom -12391.950689 kJ/mol
# Density = 2.220269 g / cm^3
# Si number density = 22.253344 Si / 1000 Ang^3
#
#
#
# Elastic Constant Matrix: (Units=GPa)
#
#
# Indices 1 2 3 4 5 6 
#
# 1 153.0981 68.2510 26.8365 0.0000 0.0000 0.0000
# 2 68.2510 163.7240 11.3225 0.0000 0.0000 0.0000
# 3 26.8365 11.3225 40.6101 0.0000 0.0000 0.0000
# 4 0.0000 0.0000 0.0000 1.7887 0.0000 0.0000
# 5 0.0000 0.0000 0.0000 0.0000 -4.0710 0.0000
# 6 0.0000 0.0000 0.0000 0.0000 0.0000 19.0437
#
#
#
# Elastic Compliance Matrix: (Units=1/GPa)
#
#
# Indices 1 2 3 4 5 6 
#
# 1 0.008900 -0.003368 -0.004942 0.000000 0.000000 0.000000
# 2 -0.003368 0.007503 0.000134 0.000000 0.000000 0.000000
# 3 -0.004942 0.000134 0.027853 0.000000 0.000000 0.000000
# 4 0.000000 0.000000 0.000000 0.559076 0.000000 0.000000
# 5 0.000000 0.000000 0.000000 0.000000 -0.245637 0.000000
# 6 0.000000 0.000000 0.000000 0.000000 0.000000 0.052511
#
#
# Mechanical properties :
#
#
# Convention : Reuss Voigt Hill
#
# Bulk Modulus (GPa) = 35.83884 63.36137 49.60010
# Shear Modulus (GPa) = 11.47161 20.08707 15.77934
#
# Velocity S-wave (km/s) = 2.27293 3.00768 2.66574
# Velocity P-wave (km/s) = 4.79877 6.37150 5.64022
#
# Compressibility (1/GPa) = 0.02790269
#
# Stress axis : x y z
#
# Youngs Moduli (GPa) = 112.36491 133.28625 35.90282
#
# Poissons Ratio (x) = 0.44893 0.17743
# Poissons Ratio (y) = 0.37846 -0.00481
# Poissons Ratio (z) = 0.55532 -0.01786
#
# Static dielectric constant tensor:
#      x y z
#    x 4.365410 0.000000 0.000000 
#    y 0.000000 4.573060 0.000000 
#    z 0.000000 0.000000 3.158340 
# 
# 
# High freq. dielectric constant tensor:
#      x y z
#    x 1.892710 0.000000 0.000000 
#    y 0.000000 1.899710 0.000000 
#    z 0.000000 0.000000 1.797970 
# 
# From -- ./inp_files/9067.got.cif
#   From: 2010.06.25/outbox.cif.g09.slc.cpg/sg48_5_cif.got.tgz:9067.got - 2010.06.26 18:06:46.
