data_PCOD8201413
_publ_section_title
;
Structure prediction by ZEFSAII (Michael W. Deem and Ramdas Pophale) SiO2 
 PCOD8201413
Probable space group: P N N N
;
_chemical_formula_sum "Si O2"
_cell_formula_units_Z 64
_cell_length_a 23.690352
_cell_length_b 12.431307
_cell_length_c 11.879851
_cell_angle_alpha 90.000000
_cell_angle_beta 90.000000
_cell_angle_gamma 90.000000
_cell_volume 3498.640338
_symmetry_space_group_name_H-M "P N N N"
_symmetry_group_IT_number 48
_space_group.IT_coordinate_system_code '2'
_symmetry_cell_setting 'orthorhombic'
loop_
_space_group_symop_operation_xyz
x,y,z
1/2-x,1/2-y,z
x,1/2-y,1/2-z
1/2-x,y,1/2-z
-x,-y,-z
1/2+x,1/2+y,-z
-x,1/2+y,1/2+z
1/2+x,-y,1/2+z
loop_
_atom_site_type_symbol
_atom_site_label
_atom_site_fract_x
_atom_site_fract_y
_atom_site_fract_z
Si Si1 0.088841 0.368977 0.761542
Si Si2 0.894050 0.363877 0.694883
Si Si3 0.313562 0.874534 0.501429
Si Si4 0.811729 0.021774 0.238227
Si Si5 0.478798 0.156141 0.983513
Si Si6 0.085604 0.969932 0.423656
Si Si7 0.314149 0.634157 0.540902
Si Si8 0.992344 0.888672 0.064880
O O1 0.113706 0.250000 0.750000
O O2 0.141902 0.442545 0.788502
O O3 0.042369 0.370571 0.858399
O O4 0.058633 0.410763 0.649375
O O5 0.875302 0.250000 0.750000
O O6 0.846268 0.413054 0.611105
O O7 0.904548 0.449995 0.792270
O O8 0.951749 0.348997 0.627554
O O9 0.328653 0.944912 0.611573
O O10 0.336419 0.753770 0.519538
O O11 0.246667 0.880400 0.481414
O O12 0.750000 0.965900 0.250000
O O13 0.809169 0.122941 0.323823
O O14 0.542448 0.111130 0.986649
O O15 0.476849 0.284126 0.012675
O O16 0.437806 0.092217 0.069182
O O17 0.144840 0.954911 0.487619
O O18 0.000000 0.000000 0.000000
#
# Coordination Sequence:
#
# PCOD8201413 Si02
#       8
#     8   8   8   8   8   8   8   8
#     4  10  19  34  56  79 103 139 184 231 286 340
#     4  12  20  36  55  82 117 155 192 239 287 344
#     4  10  21  33  52  81 115 150 193 232 291 339
#     4  10  20  35  53  77 113 144 185 237 292 340
#     4  10  20  36  56  80 109 149 186 225 291 347
#     4  11  20  34  59  78 114 152 189 230 280 352
#     4  10  19  34  53  81 112 153 186 236 285 345
#     4  11  21  36  57  83 114 144 189 242 290 344
#
# _framework density 18.292821
#
# number of rings (size 3 to 8) (size 9 to 14) (size 15 to 20)
#    0.000    1.500    5.000    1.500    0.000    2.250 
#    0.000    0.625    0.000    0.000    0.000    0.000 
#    0.000    2.000    0.000    0.000    0.000    0.000 
#
# Total GULP energy -793387.749780 kJ/mol
# GULP energy per Si atom -12396.683590 kJ/mol
# Density = 1.825119 g / cm^3
# Si number density = 18.292821 Si / 1000 Ang^3
#
#
#
# Elastic Constant Matrix: (Units=GPa)
#
#
# Indices 1 2 3 4 5 6 
#
# 1 95.1221 37.2550 30.5796 0.0000 0.0000 0.0000
# 2 37.2550 107.1616 45.7027 0.0000 0.0000 0.0000
# 3 30.5796 45.7027 88.0620 0.0000 0.0000 0.0000
# 4 0.0000 0.0000 0.0000 28.9992 0.0000 0.0000
# 5 0.0000 0.0000 0.0000 0.0000 29.1656 0.0000
# 6 0.0000 0.0000 0.0000 0.0000 0.0000 25.5626
#
#
#
# Elastic Compliance Matrix: (Units=1/GPa)
#
#
# Indices 1 2 3 4 5 6 
#
# 1 0.012655 -0.003243 -0.002711 0.000000 0.000000 0.000000
# 2 -0.003243 0.012815 -0.005525 0.000000 0.000000 0.000000
# 3 -0.002711 -0.005525 0.015164 0.000000 0.000000 0.000000
# 4 0.000000 0.000000 0.000000 0.034484 0.000000 0.000000
# 5 0.000000 0.000000 0.000000 0.000000 0.034287 0.000000
# 6 0.000000 0.000000 0.000000 0.000000 0.000000 0.039120
#
#
# Mechanical properties :
#
#
# Convention : Reuss Voigt Hill
#
# Bulk Modulus (GPa) = 56.57345 57.49117 57.03231
# Shear Modulus (GPa) = 28.18888 28.53272 28.36080
#
# Velocity S-wave (km/s) = 3.92979 3.95369 3.94176
# Velocity P-wave (km/s) = 7.18225 7.23455 7.20845
#
# Compressibility (1/GPa) = 0.01767614
#
# Stress axis : x y z
#
# Youngs Moduli (GPa) = 79.02284 78.03092 65.94397
#
# Poissons Ratio (x) = 0.25306 0.17879
# Poissons Ratio (y) = 0.25628 0.36433
# Poissons Ratio (z) = 0.21425 0.43111
#
# Static dielectric constant tensor:
#      x y z
#    x 3.416240 0.000000 0.000000 
#    y 0.000000 3.324800 0.000000 
#    z 0.000000 0.000000 3.422950 
# 
# 
# High freq. dielectric constant tensor:
#      x y z
#    x 1.717150 0.000000 0.000000 
#    y 0.000000 1.687460 0.000000 
#    z 0.000000 0.000000 1.700520 
# 
# From -- ./inp_files/23432.got.cif
#   From: 2010.06.25/outbox.cif.g09.slc.cpg/sg48_12_cif.got.tgz:23432.got - 2010.06.26 18:06:46.
