data_PCOD8201342
_publ_section_title
;
Structure prediction by ZEFSAII (Michael W. Deem and Ramdas Pophale) SiO2 
 PCOD8201342
Probable space group: P N N N
;
_chemical_formula_sum "Si O2"
_cell_formula_units_Z 56
_cell_length_a 22.524139
_cell_length_b 9.903033
_cell_length_c 12.777612
_cell_angle_alpha 90.000000
_cell_angle_beta 90.000000
_cell_angle_gamma 90.000000
_cell_volume 2850.139529
_symmetry_space_group_name_H-M "P N N N"
_symmetry_group_IT_number 48
_space_group.IT_coordinate_system_code '2'
_symmetry_cell_setting 'orthorhombic'
loop_
_space_group_symop_operation_xyz
x,y,z
1/2-x,1/2-y,z
x,1/2-y,1/2-z
1/2-x,y,1/2-z
-x,-y,-z
1/2+x,1/2+y,-z
-x,1/2+y,1/2+z
1/2+x,-y,1/2+z
loop_
_atom_site_type_symbol
_atom_site_label
_atom_site_fract_x
_atom_site_fract_y
_atom_site_fract_z
Si Si1 0.948029 0.631093 0.318076
Si Si2 0.841384 0.196031 0.944905
Si Si3 0.264888 0.555844 0.371285
Si Si4 0.359776 0.140301 0.163299
Si Si5 0.425337 0.558806 0.193466
Si Si6 0.955779 0.813543 0.943776
Si Si7 0.584443 0.165790 0.351592
O O1 0.916080 0.750000 0.250000
O O2 0.963214 0.685807 0.432809
O O3 0.910199 0.493696 0.323813
O O4 0.010673 0.599539 0.261043
O O5 0.797794 0.064248 0.933270
O O6 0.806546 0.331109 0.920794
O O7 0.892537 0.187612 0.856398
O O8 0.867463 0.201263 0.060901
O O9 0.250000 0.583018 0.250000
O O10 0.297954 0.411077 0.388912
O O11 0.343128 0.250000 0.250000
O O12 0.407998 0.197475 0.082736
O O13 0.387679 0.006829 0.214314
O O14 0.432112 0.457324 0.094755
O O15 0.018805 0.787139 0.887768
O O16 0.602325 0.250000 0.250000
#
# Coordination Sequence:
#
# PCOD8201342 Si02
#       7
#     8   8   8   8   8   8   8
#     4  11  22  34  60  93 124 158 201 246 307 375
#     4  11  21  38  61  83 114 163 202 254 295 355
#     4  11  24  38  58  91 122 152 209 252 303 366
#     4  10  22  36  59  90 129 160 194 251 310 380
#     4  10  18  35  58  84 118 160 188 233 303 364
#     4  10  19  39  57  90 125 154 196 240 309 381
#     4  11  22  42  63  86 122 165 206 254 308 367
#
# _framework density 19.648159
#
# number of rings (size 3 to 8) (size 9 to 14) (size 15 to 20)
#    0.000    1.429    4.286    3.857    2.000    1.429 
#    0.000    3.571    0.000    0.000    0.000    0.000 
#    0.000    0.000    0.000    0.000    0.000    0.000 
#
# Total GULP energy -694254.604776 kJ/mol
# GULP energy per Si atom -12397.403657 kJ/mol
# Density = 1.960344 g / cm^3
# Si number density = 19.648159 Si / 1000 Ang^3
#
#
#
# Elastic Constant Matrix: (Units=GPa)
#
#
# Indices 1 2 3 4 5 6 
#
# 1 87.1509 29.7406 25.6924 0.0000 0.0000 0.0000
# 2 29.7406 84.1739 36.2399 0.0000 0.0000 0.0000
# 3 25.6924 36.2399 80.4422 0.0000 0.0000 0.0000
# 4 0.0000 0.0000 0.0000 23.1142 0.0000 0.0000
# 5 0.0000 0.0000 0.0000 0.0000 27.1144 0.0000
# 6 0.0000 0.0000 0.0000 0.0000 0.0000 38.2077
#
#
#
# Elastic Compliance Matrix: (Units=1/GPa)
#
#
# Indices 1 2 3 4 5 6 
#
# 1 0.013499 -0.003614 -0.002683 0.000000 0.000000 0.000000
# 2 -0.003614 0.015707 -0.005922 0.000000 0.000000 0.000000
# 3 -0.002683 -0.005922 0.015956 0.000000 0.000000 0.000000
# 4 0.000000 0.000000 0.000000 0.043263 0.000000 0.000000
# 5 0.000000 0.000000 0.000000 0.000000 0.036881 0.000000
# 6 0.000000 0.000000 0.000000 0.000000 0.000000 0.026173
#
#
# Mechanical properties :
#
#
# Convention : Reuss Voigt Hill
#
# Bulk Modulus (GPa) = 48.25463 48.34587 48.30025
# Shear Modulus (GPa) = 27.34869 28.36018 27.85444
#
# Velocity S-wave (km/s) = 3.73489 3.80333 3.76927
# Velocity P-wave (km/s) = 6.57358 6.62920 6.60145
#
# Compressibility (1/GPa) = 0.02072340
#
# Stress axis : x y z
#
# Youngs Moduli (GPa) = 74.08107 63.66736 62.67246
#
# Poissons Ratio (x) = 0.23011 0.16816
# Poissons Ratio (y) = 0.26775 0.37112
# Poissons Ratio (z) = 0.19877 0.37701
#
# Static dielectric constant tensor:
#      x y z
#    x 3.808090 0.000000 0.000000 
#    y 0.000000 3.722100 0.000000 
#    z 0.000000 0.000000 3.350040 
# 
# 
# High freq. dielectric constant tensor:
#      x y z
#    x 1.759680 0.000000 0.000000 
#    y 0.000000 1.765650 0.000000 
#    z 0.000000 0.000000 1.741590 
# 
# From -- ./inp_files/22874.got.cif
#   From: 2010.06.25/outbox.cif.g09.slc.cpg/sg48_12_cif.got.tgz:22874.got - 2010.06.26 18:06:46.
