data_PCOD8201038
_publ_section_title
;
Structure prediction by ZEFSAII (Michael W. Deem and Ramdas Pophale) SiO2 
 PCOD8201038
Probable space group: P M M M
;
_chemical_formula_sum "Si O2"
_cell_formula_units_Z 52
_cell_length_a 9.937707
_cell_length_b 12.516999
_cell_length_c 27.085145
_cell_angle_alpha 90.000000
_cell_angle_beta 90.000000
_cell_angle_gamma 90.000000
_cell_volume 3369.128461
_symmetry_space_group_name_H-M "P M M M"
_symmetry_group_IT_number 47
_symmetry_cell_setting 'orthorhombic'
loop_
_space_group_symop_operation_xyz
x,y,z
-x,-y,z
x,-y,-z
-x,y,-z
-x,-y,-z
x,y,-z
-x,y,z
x,-y,z
loop_
_atom_site_type_symbol
_atom_site_label
_atom_site_fract_x
_atom_site_fract_y
_atom_site_fract_z
Si Si1 0.147753 0.624023 0.865228
Si Si2 0.650170 0.878152 0.731894
Si Si3 0.844910 0.295345 0.239866
Si Si4 0.843916 0.622358 0.346731
Si Si5 0.340175 0.000000 0.444228
Si Si6 0.649919 0.627007 0.945094
Si Si7 0.655626 0.805408 0.377969
O O1 0.140008 0.500000 0.877079
O O2 0.193903 0.637362 0.808551
O O3 0.251325 0.677906 0.903870
O O4 0.000000 0.675899 0.873150
O O5 0.500000 0.840293 0.746158
O O6 0.757243 0.811366 0.762717
O O7 0.672677 0.864451 0.673814
O O8 0.672893 0.000000 0.746454
O O9 0.810531 0.364108 0.288580
O O10 0.000000 0.261220 0.240072
O O11 0.812895 0.500000 0.361354
O O12 0.748903 0.699370 0.379531
O O13 0.000000 0.650593 0.357198
O O14 0.290105 0.890803 0.418136
O O15 0.500000 0.000000 0.441593
O O16 0.285226 0.000000 0.500000
O O17 0.500000 0.671951 0.935518
O O18 0.646854 0.500000 0.940691
O O19 0.699195 0.660361 0.000000
O O20 0.500000 0.772251 0.387666
#
# Coordination Sequence:
#
# PCOD8201038 Si02
#       7
#     8   8   8   8   4   8   8
#     4   9  16  25  37  53  76 105 134 166 201 236
#     4   9  16  27  42  59  82 109 134 164 204 247
#     4   9  17  27  39  58  82 109 140 171 203 241
#     4   9  17  29  44  62  87 119 150 177 208 250
#     4   9  16  28  49  73  93 113 139 177 226 269
#     4   8  14  24  36  50  70  98 132 168 204 240
#     4   9  16  28  46  67  89 112 141 177 215 255
#
# _framework density 15.434259000000001
#
# number of rings (size 3 to 8) (size 9 to 14) (size 15 to 20)
#    0.000    3.154    0.769    0.923    0.000    3.385 
#    0.000    1.923    0.000    4.154    0.000    3.231 
#    0.000    0.615    0.000    6.769    0.000    5.231 
#
# Total GULP energy -644491.233902 kJ/mol
# GULP energy per Si atom -12394.062190 kJ/mol
# Density = 1.539913 g / cm^3
# Si number density = 15.434259 Si / 1000 Ang^3
#
#
#
# Elastic Constant Matrix: (Units=GPa)
#
#
# Indices 1 2 3 4 5 6 
#
# 1 70.5683 44.6809 42.6735 0.0000 0.0000 0.0000
# 2 44.6809 69.8054 30.8809 0.0000 0.0000 0.0000
# 3 42.6735 30.8809 77.0533 0.0000 0.0000 0.0000
# 4 0.0000 0.0000 0.0000 14.8657 0.0000 0.0000
# 5 0.0000 0.0000 0.0000 0.0000 18.5150 0.0000
# 6 0.0000 0.0000 0.0000 0.0000 0.0000 24.5093
#
#
#
# Elastic Compliance Matrix: (Units=1/GPa)
#
#
# Indices 1 2 3 4 5 6 
#
# 1 0.029681 -0.014254 -0.010726 0.000000 0.000000 0.000000
# 2 -0.014254 0.024258 -0.001828 0.000000 0.000000 0.000000
# 3 -0.010726 -0.001828 0.019651 0.000000 0.000000 0.000000
# 4 0.000000 0.000000 0.000000 0.067269 0.000000 0.000000
# 5 0.000000 0.000000 0.000000 0.000000 0.054010 0.000000
# 6 0.000000 0.000000 0.000000 0.000000 0.000000 0.040801
#
#
# Mechanical properties :
#
#
# Convention : Reuss Voigt Hill
#
# Bulk Modulus (GPa) = 50.06157 50.43309 50.24733
# Shear Modulus (GPa) = 16.89520 18.19078 17.54299
#
# Velocity S-wave (km/s) = 3.31215 3.43680 3.37505
# Velocity P-wave (km/s) = 6.86534 6.96389 6.91479
#
# Compressibility (1/GPa) = 0.01997540
#
# Stress axis : x y z
#
# Youngs Moduli (GPa) = 33.69122 41.22424 50.88886
#
# Poissons Ratio (x) = 0.58759 0.54582
# Poissons Ratio (y) = 0.48022 0.09302
# Poissons Ratio (z) = 0.36136 0.07535
#
# Static dielectric constant tensor:
#      x y z
#    x 3.141370 0.000000 0.000000 
#    y 0.000000 2.730330 0.000000 
#    z 0.000000 0.000000 2.914260 
# 
# 
# High freq. dielectric constant tensor:
#      x y z
#    x 1.590820 0.000000 0.000000 
#    y 0.000000 1.557590 0.000000 
#    z 0.000000 0.000000 1.574570 
# 
# From -- ./inp_files/25692.got.cif
#   From: 2010.03.12/outbox.cif.g09.slc.cpg/sg47_13_cif.got.tgz:25692.got - 2010.04.14 03:12:58.
