data_PCOD8201804
_publ_section_title
;
Structure prediction by ZEFSAII (Michael W. Deem and Ramdas Pophale) SiO2 
 PCOD8201804
Probable space group: P N N N
;
_chemical_formula_sum "Si O2"
_cell_formula_units_Z 56
_cell_length_a 18.636394
_cell_length_b 16.632157
_cell_length_c 8.902213
_cell_angle_alpha 90.000000
_cell_angle_beta 90.000000
_cell_angle_gamma 90.000000
_cell_volume 2759.360484
_symmetry_space_group_name_H-M "P N N N"
_symmetry_group_IT_number 48
_space_group.IT_coordinate_system_code '2'
_symmetry_cell_setting 'orthorhombic'
loop_
_space_group_symop_operation_xyz
x,y,z
1/2-x,1/2-y,z
x,1/2-y,1/2-z
1/2-x,y,1/2-z
-x,-y,-z
1/2+x,1/2+y,-z
-x,1/2+y,1/2+z
1/2+x,-y,1/2+z
loop_
_atom_site_type_symbol
_atom_site_label
_atom_site_fract_x
_atom_site_fract_y
_atom_site_fract_z
Si Si1 0.659887 0.585393 0.114834
Si Si2 0.323840 0.790652 0.095923
Si Si3 0.925454 0.046732 0.975206
Si Si4 0.674663 0.898605 0.047228
Si Si5 0.405928 0.245217 0.572478
Si Si6 0.949153 0.272268 0.420277
Si Si7 0.827454 0.468517 0.809849
O O1 0.740837 0.601920 0.069374
O O2 0.640649 0.584971 0.290304
O O3 0.615821 0.654513 0.025737
O O4 0.637733 0.497231 0.063864
O O5 0.250000 0.750000 0.046442
O O6 0.352257 0.750000 0.250000
O O7 0.310190 0.884798 0.110466
O O8 0.379499 0.778311 0.962822
O O9 0.894307 0.045821 0.804694
O O10 0.934614 0.134527 0.045019
O O11 0.000000 0.000000 0.000000
O O12 0.646578 0.810743 0.994539
O O13 0.646783 0.965132 0.930003
O O14 0.397815 0.250000 0.750000
O O15 0.486556 0.261271 0.521557
O O16 0.967986 0.250000 0.250000
O O17 0.750000 0.499777 0.750000
#
# Coordination Sequence:
#
# PCOD8201804 Si02
#       7
#     8   8   8   8   8   8   8
#     4  10  21  43  66  98 133 170 220 274 338 389
#     4  11  22  44  67  91 122 171 223 273 332 407
#     4  12  25  42  65  95 140 177 214 281 348 395
#     4  10  23  39  70  99 129 171 222 278 323 414
#     4  10  22  43  67  93 131 179 219 263 331 408
#     4  12  27  42  63  97 135 173 221 277 338 406
#     4  12  23  42  68  98 127 171 228 273 338 410
#
# _framework density 20.294559
#
# number of rings (size 3 to 8) (size 9 to 14) (size 15 to 20)
#    0.000    1.000    5.714    0.857    4.000    2.000 
#    0.000    1.429    0.000    0.000    0.000    0.000 
#    0.000    0.000    0.000    0.000    0.000    0.000 
#
# Total GULP energy -694233.253318 kJ/mol
# GULP energy per Si atom -12397.022381 kJ/mol
# Density = 2.024837 g / cm^3
# Si number density = 20.294559 Si / 1000 Ang^3
#
#
#
# Elastic Constant Matrix: (Units=GPa)
#
#
# Indices 1 2 3 4 5 6 
#
# 1 104.2520 46.3609 25.7617 0.0000 0.0000 0.0000
# 2 46.3609 131.4841 57.7957 0.0000 0.0000 0.0000
# 3 25.7617 57.7957 59.0733 0.0000 0.0000 0.0000
# 4 0.0000 0.0000 0.0000 35.0305 0.0000 0.0000
# 5 0.0000 0.0000 0.0000 0.0000 25.2355 0.0000
# 6 0.0000 0.0000 0.0000 0.0000 0.0000 34.1673
#
#
#
# Elastic Compliance Matrix: (Units=1/GPa)
#
#
# Indices 1 2 3 4 5 6 
#
# 1 0.011488 -0.003243 -0.001837 0.000000 0.000000 0.000000
# 2 -0.003243 0.014260 -0.012537 0.000000 0.000000 0.000000
# 3 -0.001837 -0.012537 0.029995 0.000000 0.000000 0.000000
# 4 0.000000 0.000000 0.000000 0.028547 0.000000 0.000000
# 5 0.000000 0.000000 0.000000 0.000000 0.039627 0.000000
# 6 0.000000 0.000000 0.000000 0.000000 0.000000 0.029268
#
#
# Mechanical properties :
#
#
# Convention : Reuss Voigt Hill
#
# Bulk Modulus (GPa) = 48.75953 61.62733 55.19343
# Shear Modulus (GPa) = 25.60750 29.87940 27.74345
#
# Velocity S-wave (km/s) = 3.55602 3.84120 3.70136
# Velocity P-wave (km/s) = 6.39832 7.07852 6.74700
#
# Compressibility (1/GPa) = 0.02050881
#
# Stress axis : x y z
#
# Youngs Moduli (GPa) = 87.04462 70.12656 33.33876
#
# Poissons Ratio (x) = 0.22744 0.06124
# Poissons Ratio (y) = 0.28232 0.41797
# Poissons Ratio (z) = 0.15989 0.87918
#
# Static dielectric constant tensor:
#      x y z
#    x 3.847250 0.000000 0.000000 
#    y 0.000000 3.962920 0.000000 
#    z 0.000000 0.000000 3.633040 
# 
# 
# High freq. dielectric constant tensor:
#      x y z
#    x 1.800000 0.000000 0.000000 
#    y 0.000000 1.807580 0.000000 
#    z 0.000000 0.000000 1.775790 
# 
# From -- ./inp_files/15274.got.cif
#   From: 2010.06.25/outbox.cif.g09.slc.cpg/sg48_8_cif.got.tgz:15274.got - 2010.06.26 18:06:46.
