data_PCOD8201869
_publ_section_title
;
Structure prediction by ZEFSAII (Michael W. Deem and Ramdas Pophale) SiO2 
 PCOD8201869
Probable space group: P N N N
;
_chemical_formula_sum "Si O2"
_cell_formula_units_Z 48
_cell_length_a 15.059215
_cell_length_b 11.956691
_cell_length_c 12.772431
_cell_angle_alpha 90.000000
_cell_angle_beta 90.000000
_cell_angle_gamma 90.000000
_cell_volume 2299.783240
_symmetry_space_group_name_H-M "P N N N"
_symmetry_group_IT_number 48
_space_group.IT_coordinate_system_code '2'
_symmetry_cell_setting 'orthorhombic'
loop_
_space_group_symop_operation_xyz
x,y,z
1/2-x,1/2-y,z
x,1/2-y,1/2-z
1/2-x,y,1/2-z
-x,-y,-z
1/2+x,1/2+y,-z
-x,1/2+y,1/2+z
1/2+x,-y,1/2+z
loop_
_atom_site_type_symbol
_atom_site_label
_atom_site_fract_x
_atom_site_fract_y
_atom_site_fract_z
Si Si1 0.425825 0.901117 0.001159
Si Si2 0.087028 0.846998 0.977023
Si Si3 0.568156 0.544114 0.874695
Si Si4 0.225679 0.370944 0.493591
Si Si5 0.744583 0.075486 0.127155
Si Si6 0.830581 0.996503 0.678551
O O1 0.372543 0.903925 0.110926
O O2 0.460439 0.773522 0.994307
O O3 0.357973 0.913052 0.905029
O O4 0.500000 0.000000 0.000000
O O5 0.188330 0.838031 0.932902
O O6 0.032749 0.917001 0.889400
O O7 0.084343 0.916399 0.085924
O O8 0.628403 0.627964 0.943013
O O9 0.592938 0.554903 0.752507
O O10 0.250000 0.250000 0.536760
O O11 0.225765 0.451110 0.594196
O O12 0.296665 0.403816 0.403453
O O13 0.750000 0.095405 0.250000
O O14 0.750000 0.042628 0.750000
#
# Coordination Sequence:
#
# PCOD8201869 Si02
#       6
#     8   8   8   8   8   8
#     4  11  25  41  62  95 130 162 214 277 317 372
#     4  10  22  41  62  87 128 169 206 263 318 382
#     4   9  20  38  62  89 119 165 209 253 321 384
#     4   9  19  37  61  90 128 161 203 273 322 376
#     4  10  23  42  61  89 125 172 220 252 322 394
#     4   9  20  39  61  93 122 158 213 257 319 383
#
# _framework density 20.871531999999998
#
# number of rings (size 3 to 8) (size 9 to 14) (size 15 to 20)
#    0.000    2.333    0.000    1.500    7.000    5.333 
#    0.000    4.167    0.000    0.000    0.000    0.000 
#    0.000    0.000    0.000    0.000    0.000    0.000 
#
# Total GULP energy -594910.731880 kJ/mol
# GULP energy per Si atom -12393.973581 kJ/mol
# Density = 2.082403 g / cm^3
# Si number density = 20.871532 Si / 1000 Ang^3
#
#
#
# Elastic Constant Matrix: (Units=GPa)
#
#
# Indices 1 2 3 4 5 6 
#
# 1 97.7968 33.3688 26.5968 0.0000 0.0000 0.0000
# 2 33.3688 119.0169 18.6506 0.0000 0.0000 0.0000
# 3 26.5968 18.6506 69.0957 0.0000 0.0000 0.0000
# 4 0.0000 0.0000 0.0000 11.2093 0.0000 0.0000
# 5 0.0000 0.0000 0.0000 0.0000 29.0650 0.0000
# 6 0.0000 0.0000 0.0000 0.0000 0.0000 31.0682
#
#
#
# Elastic Compliance Matrix: (Units=1/GPa)
#
#
# Indices 1 2 3 4 5 6 
#
# 1 0.012264 -0.002818 -0.003960 0.000000 0.000000 0.000000
# 2 -0.002818 0.009421 -0.001458 0.000000 0.000000 0.000000
# 3 -0.003960 -0.001458 0.016391 0.000000 0.000000 0.000000
# 4 0.000000 0.000000 0.000000 0.089212 0.000000 0.000000
# 5 0.000000 0.000000 0.000000 0.000000 0.034406 0.000000
# 6 0.000000 0.000000 0.000000 0.000000 0.000000 0.032187
#
#
# Mechanical properties :
#
#
# Convention : Reuss Voigt Hill
#
# Bulk Modulus (GPa) = 46.29014 49.23799 47.76407
# Shear Modulus (GPa) = 22.98291 28.08805 25.53548
#
# Velocity S-wave (km/s) = 3.32197 3.67244 3.50159
# Velocity P-wave (km/s) = 6.07789 6.45171 6.26759
#
# Compressibility (1/GPa) = 0.02160287
#
# Stress axis : x y z
#
# Youngs Moduli (GPa) = 81.54135 106.14909 61.01055
#
# Poissons Ratio (x) = 0.29911 0.24160
# Poissons Ratio (y) = 0.22977 0.08897
# Poissons Ratio (z) = 0.32291 0.15479
#
# Static dielectric constant tensor:
#      x y z
#    x 3.951960 0.000000 0.000000 
#    y 0.000000 3.562510 0.000000 
#    z 0.000000 0.000000 3.646830 
# 
# 
# High freq. dielectric constant tensor:
#      x y z
#    x 1.825080 0.000000 0.000000 
#    y 0.000000 1.800750 0.000000 
#    z 0.000000 0.000000 1.804290 
# 
# From -- ./inp_files/27238.got.cif
#   From: 2010.06.25/outbox.cif.g09.slc.cpg/sg48_14_cif.got.tgz:27238.got - 2010.06.26 18:06:46.
