data_PCOD8201434
_publ_section_title
;
Structure prediction by ZEFSAII (Michael W. Deem and Ramdas Pophale) SiO2 
 PCOD8201434
Probable space group: P N N N
;
_chemical_formula_sum "Si O2"
_cell_formula_units_Z 48
_cell_length_a 5.087899
_cell_length_b 23.159573
_cell_length_c 18.883570
_cell_angle_alpha 90.000000
_cell_angle_beta 90.000000
_cell_angle_gamma 90.000000
_cell_volume 2225.118435
_symmetry_space_group_name_H-M "P N N N"
_symmetry_group_IT_number 48
_space_group.IT_coordinate_system_code '2'
_symmetry_cell_setting 'orthorhombic'
loop_
_space_group_symop_operation_xyz
x,y,z
1/2-x,1/2-y,z
x,1/2-y,1/2-z
1/2-x,y,1/2-z
-x,-y,-z
1/2+x,1/2+y,-z
-x,1/2+y,1/2+z
1/2+x,-y,1/2+z
loop_
_atom_site_type_symbol
_atom_site_label
_atom_site_fract_x
_atom_site_fract_y
_atom_site_fract_z
Si Si1 0.989548 0.376138 0.703648
Si Si2 0.495649 0.788604 0.580846
Si Si3 0.999906 0.882643 0.799497
Si Si4 0.567065 0.947835 0.050192
Si Si5 0.554967 0.129101 0.548603
Si Si6 0.141432 0.497486 0.675128
O O1 0.750000 0.351765 0.750000
O O2 0.009749 0.344436 0.627241
O O3 0.250000 0.367443 0.750000
O O4 0.939864 0.443937 0.683859
O O5 0.250000 0.750000 0.602863
O O6 0.546595 0.832195 0.644618
O O7 0.428561 0.819512 0.506908
O O8 0.750000 0.750000 0.568955
O O9 0.750000 0.887832 0.750000
O O10 0.250000 0.869150 0.750000
O O11 0.014404 0.941472 0.848428
O O12 0.335373 0.901943 0.052966
O O13 0.832214 0.916216 0.024149
O O14 0.618068 0.976336 0.126602
O O15 0.500000 0.000000 0.000000
O O16 0.250000 0.516497 0.750000
#
# Coordination Sequence:
#
# PCOD8201434 Si02
#       6
#     8   8   8   8   8   8
#     4  10  19  35  60  91 126 160 191 230 293 377
#     4  12  27  46  67  87 117 164 221 281 328 363
#     4  11  24  41  63  91 125 164 210 262 313 373
#     4  11  22  36  59  91 129 164 199 246 303 382
#     4  11  23  40  62  90 123 163 208 256 313 375
#     4   9  19  34  56  89 127 162 192 232 294 371
#
# _framework density 21.571885999999999
#
# number of rings (size 3 to 8) (size 9 to 14) (size 15 to 20)
#    0.000    1.333    0.000    7.000    0.000   10.000 
#    0.000    0.000    0.000    3.000    0.000    0.000 
#    0.000    0.000    0.000    0.000    0.000    0.000 
#
# Total GULP energy -595036.425213 kJ/mol
# GULP energy per Si atom -12396.592192 kJ/mol
# Density = 2.152279 g / cm^3
# Si number density = 21.571886 Si / 1000 Ang^3
#
#
#
# Elastic Constant Matrix: (Units=GPa)
#
#
# Indices 1 2 3 4 5 6 
#
# 1 142.6319 39.8594 37.8365 0.0000 0.0000 0.0000
# 2 39.8594 80.5191 40.5519 0.0000 0.0000 0.0000
# 3 37.8365 40.5519 100.3485 0.0000 0.0000 0.0000
# 4 0.0000 0.0000 0.0000 106.8219 0.0000 0.0000
# 5 0.0000 0.0000 0.0000 0.0000 34.4131 0.0000
# 6 0.0000 0.0000 0.0000 0.0000 0.0000 33.0298
#
#
#
# Elastic Compliance Matrix: (Units=1/GPa)
#
#
# Indices 1 2 3 4 5 6 
#
# 1 0.008407 -0.003221 -0.001868 0.000000 0.000000 0.000000
# 2 -0.003221 0.016827 -0.005586 0.000000 0.000000 0.000000
# 3 -0.001868 -0.005586 0.012927 0.000000 0.000000 0.000000
# 4 0.000000 0.000000 0.000000 0.009361 0.000000 0.000000
# 5 0.000000 0.000000 0.000000 0.000000 0.029059 0.000000
# 6 0.000000 0.000000 0.000000 0.000000 0.000000 0.030276
#
#
# Mechanical properties :
#
#
# Convention : Reuss Voigt Hill
#
# Bulk Modulus (GPa) = 59.48321 62.22168 60.85244
# Shear Modulus (GPa) = 37.36678 48.53641 42.95160
#
# Velocity S-wave (km/s) = 4.16648 4.74855 4.46701
# Velocity P-wave (km/s) = 7.12604 7.67928 7.40783
#
# Compressibility (1/GPa) = 0.01681147
#
# Stress axis : x y z
#
# Youngs Moduli (GPa) = 118.95301 59.42916 77.35832
#
# Poissons Ratio (x) = 0.19140 0.14452
# Poissons Ratio (y) = 0.38311 0.43209
# Poissons Ratio (z) = 0.22223 0.33194
#
# Static dielectric constant tensor:
#      x y z
#    x 3.598010 0.000000 0.000000 
#    y 0.000000 3.831180 0.000000 
#    z 0.000000 0.000000 4.168200 
# 
# 
# High freq. dielectric constant tensor:
#      x y z
#    x 1.855850 0.000000 0.000000 
#    y 0.000000 1.824880 0.000000 
#    z 0.000000 0.000000 1.862610 
# 
# From -- ./inp_files/29514.got.cif
#   From: 2010.06.25/outbox.cif.g09.slc.cpg/sg48_15_cif.got.tgz:29514.got - 2010.06.26 18:06:46.
