data_PCOD8201393
_publ_section_title
;
Structure prediction by ZEFSAII (Michael W. Deem and Ramdas Pophale) SiO2 
 PCOD8201393
Probable space group: P N N N
;
_chemical_formula_sum "Si O2"
_cell_formula_units_Z 52
_cell_length_a 8.065958
_cell_length_b 17.005826
_cell_length_c 20.446510
_cell_angle_alpha 90.000000
_cell_angle_beta 90.000000
_cell_angle_gamma 90.000000
_cell_volume 2804.612573
_symmetry_space_group_name_H-M "P N N N"
_symmetry_group_IT_number 48
_space_group.IT_coordinate_system_code '2'
_symmetry_cell_setting 'orthorhombic'
loop_
_space_group_symop_operation_xyz
x,y,z
1/2-x,1/2-y,z
x,1/2-y,1/2-z
1/2-x,y,1/2-z
-x,-y,-z
1/2+x,1/2+y,-z
-x,1/2+y,1/2+z
1/2+x,-y,1/2+z
loop_
_atom_site_type_symbol
_atom_site_label
_atom_site_fract_x
_atom_site_fract_y
_atom_site_fract_z
Si Si1 0.312325 0.999746 0.816808
Si Si2 0.341287 0.423552 0.317206
Si Si3 0.657315 0.364842 0.113730
Si Si4 0.504656 0.294385 0.400787
Si Si5 0.387776 0.022566 0.428639
Si Si6 0.328865 0.414913 0.939096
Si Si7 0.750000 0.750000 0.489982
O O1 0.250000 0.041391 0.750000
O O2 0.286375 0.055116 0.879766
O O3 0.505236 0.981627 0.808245
O O4 0.204344 0.919086 0.823911
O O5 0.250000 0.404284 0.250000
O O6 0.391122 0.340999 0.349718
O O7 0.214405 0.469843 0.363058
O O8 0.560187 0.286125 0.135623
O O9 0.831345 0.343302 0.077997
O O10 0.538086 0.413581 0.065838
O O11 0.404205 0.277269 0.466334
O O12 0.275353 0.040966 0.492746
O O13 0.476888 0.937214 0.427227
O O14 0.307617 0.321354 0.943797
#
# Coordination Sequence:
#
# PCOD8201393 Si02
#       7
#     8   8   8   8   8   8   4
#     4  10  22  40  58  82 111 149 201 241 292 339
#     4  11  21  36  60  85 116 159 190 233 282 351
#     4   9  18  35  54  79 118 152 177 234 280 338
#     4  10  19  33  53  84 119 151 186 224 278 356
#     4  10  19  37  55  86 114 152 192 231 280 341
#     4  10  21  36  60  80 116 149 189 245 288 333
#     4  12  20  38  56  86 116 150 192 240 290 348
#
# _framework density 18.540884999999999
#
# number of rings (size 3 to 8) (size 9 to 14) (size 15 to 20)
#    0.000    1.846    3.077    1.846    0.000    0.615 
#    5.538   19.231    0.000    0.000    0.000    1.077 
#    0.000    0.000    0.000    0.000    0.000    0.000 
#
# Total GULP energy -644488.336801 kJ/mol
# GULP energy per Si atom -12394.006477 kJ/mol
# Density = 1.849868 g / cm^3
# Si number density = 18.540885 Si / 1000 Ang^3
#
#
#
# Elastic Constant Matrix: (Units=GPa)
#
#
# Indices 1 2 3 4 5 6 
#
# 1 101.8414 52.5931 55.4406 0.0000 0.0000 0.0000
# 2 52.5931 113.2066 55.8234 0.0000 0.0000 0.0000
# 3 55.4406 55.8234 115.2235 0.0000 0.0000 0.0000
# 4 0.0000 0.0000 0.0000 22.8465 0.0000 0.0000
# 5 0.0000 0.0000 0.0000 0.0000 29.3170 0.0000
# 6 0.0000 0.0000 0.0000 0.0000 0.0000 18.8277
#
#
#
# Elastic Compliance Matrix: (Units=1/GPa)
#
#
# Indices 1 2 3 4 5 6 
#
# 1 0.014819 -0.004426 -0.004986 0.000000 0.000000 0.000000
# 2 -0.004426 0.012928 -0.004134 0.000000 0.000000 0.000000
# 3 -0.004986 -0.004134 0.013081 0.000000 0.000000 0.000000
# 4 0.000000 0.000000 0.000000 0.043770 0.000000 0.000000
# 5 0.000000 0.000000 0.000000 0.000000 0.034110 0.000000
# 6 0.000000 0.000000 0.000000 0.000000 0.000000 0.053113
#
#
# Mechanical properties :
#
#
# Convention : Reuss Voigt Hill
#
# Bulk Modulus (GPa) = 72.80039 73.10951 72.95495
# Shear Modulus (GPa) = 24.57102 25.29251 24.93177
#
# Velocity S-wave (km/s) = 3.64433 3.69744 3.67098
# Velocity P-wave (km/s) = 7.55369 7.59903 7.57639
#
# Compressibility (1/GPa) = 0.01373619
#
# Stress axis : x y z
#
# Youngs Moduli (GPa) = 67.48015 77.35141 76.44908
#
# Poissons Ratio (x) = 0.34235 0.38118
# Poissons Ratio (y) = 0.29866 0.31602
# Poissons Ratio (z) = 0.33646 0.31975
#
# Static dielectric constant tensor:
#      x y z
#    x 3.628420 0.000000 0.000000 
#    y 0.000000 3.414710 0.000000 
#    z 0.000000 0.000000 3.233170 
# 
# 
# High freq. dielectric constant tensor:
#      x y z
#    x 1.729740 0.000000 0.000000 
#    y 0.000000 1.698980 0.000000 
#    z 0.000000 0.000000 1.702240 
# 
# From -- ./inp_files/30421.got.cif
#   From: 2010.06.25/outbox.cif.g09.slc.cpg/sg48_16_cif.got.tgz:30421.got - 2010.06.26 18:06:46.
