data_PCOD8201453
_publ_section_title
;
Structure prediction by ZEFSAII (Michael W. Deem and Ramdas Pophale) SiO2 
 PCOD8201453
Probable space group: P N N N
;
_chemical_formula_sum "Si O2"
_cell_formula_units_Z 64
_cell_length_a 24.108286
_cell_length_b 8.717767
_cell_length_c 14.681348
_cell_angle_alpha 90.000000
_cell_angle_beta 90.000000
_cell_angle_gamma 90.000000
_cell_volume 3085.585077
_symmetry_space_group_name_H-M "P N N N"
_symmetry_group_IT_number 48
_space_group.IT_coordinate_system_code '2'
_symmetry_cell_setting 'orthorhombic'
loop_
_space_group_symop_operation_xyz
x,y,z
1/2-x,1/2-y,z
x,1/2-y,1/2-z
1/2-x,y,1/2-z
-x,-y,-z
1/2+x,1/2+y,-z
-x,1/2+y,1/2+z
1/2+x,-y,1/2+z
loop_
_atom_site_type_symbol
_atom_site_label
_atom_site_fract_x
_atom_site_fract_y
_atom_site_fract_z
Si Si1 0.458879 0.572674 0.429543
Si Si2 0.806175 0.646800 0.358528
Si Si3 0.249279 0.069851 0.143427
Si Si4 0.355807 0.443709 0.680683
Si Si5 0.977574 0.568721 0.242169
Si Si6 0.841548 0.052761 0.970787
Si Si7 0.661096 0.415013 0.510772
Si Si8 0.536068 0.065263 0.577065
O O1 0.500000 0.500000 0.500000
O O2 0.477664 0.512631 0.331533
O O3 0.397206 0.519418 0.453367
O O4 0.462948 0.753841 0.428328
O O5 0.750000 0.750000 0.365661
O O6 0.857824 0.767038 0.355084
O O7 0.811055 0.548169 0.264337
O O8 0.815071 0.535049 0.443002
O O9 0.250000 0.250000 0.123585
O O10 0.250000 0.031784 0.250000
O O11 0.191196 0.996544 0.117922
O O12 0.295117 0.989851 0.079494
O O13 0.416604 0.498814 0.715934
O O14 0.332118 0.543471 0.596281
O O15 0.971977 0.750000 0.250000
O O16 0.005530 0.501315 0.332860
O O17 0.835056 0.232699 0.986674
O O18 0.902862 0.000466 0.942751
O O19 0.500000 0.000000 0.500000
#
# Coordination Sequence:
#
# PCOD8201453 Si02
#       8
#     8   8   8   8   8   8   8   8
#     4  10  21  38  62  91 127 169 211 254 312 380
#     4  11  23  39  64  96 126 168 223 265 321 391
#     4  11  26  47  70  92 121 164 216 269 320 382
#     4  11  20  36  66  92 125 171 215 263 312 377
#     4  10  19  36  60  88 123 168 215 255 309 374
#     4  11  24  42  64  96 131 170 208 267 331 383
#     4  11  24  40  65  98 129 169 208 265 329 389
#     4  10  23  38  61  92 128 169 216 259 312 377
#
# _framework density 20.741609
#
# number of rings (size 3 to 8) (size 9 to 14) (size 15 to 20)
#    0.000    1.375    2.500    3.750    3.500    3.000 
#    0.000    0.625    0.000    4.500    0.000    0.000 
#    0.000    0.000    0.000    0.000    0.000    0.000 
#
# Total GULP energy -793020.156153 kJ/mol
# GULP energy per Si atom -12390.939940 kJ/mol
# Density = 2.069440 g / cm^3
# Si number density = 20.741609 Si / 1000 Ang^3
#
#
#
# Elastic Constant Matrix: (Units=GPa)
#
#
# Indices 1 2 3 4 5 6 
#
# 1 173.1536 43.0979 92.5006 0.0000 0.0000 0.0000
# 2 43.0979 50.5367 52.5702 0.0000 0.0000 0.0000
# 3 92.5006 52.5702 192.1385 0.0000 0.0000 0.0000
# 4 0.0000 0.0000 0.0000 420.0091 0.0000 0.0000
# 5 0.0000 0.0000 0.0000 0.0000 15.1306 0.0000
# 6 0.0000 0.0000 0.0000 0.0000 0.0000 27.3153
#
#
#
# Elastic Compliance Matrix: (Units=1/GPa)
#
#
# Indices 1 2 3 4 5 6 
#
# 1 0.008342 -0.004105 -0.002893 0.000000 0.000000 0.000000
# 2 -0.004105 0.029680 -0.006144 0.000000 0.000000 0.000000
# 3 -0.002893 -0.006144 0.008279 0.000000 0.000000 0.000000
# 4 0.000000 0.000000 0.000000 0.002381 0.000000 0.000000
# 5 0.000000 0.000000 0.000000 0.000000 0.066091 0.000000
# 6 0.000000 0.000000 0.000000 0.000000 0.000000 0.036610
#
#
# Mechanical properties :
#
#
# Convention : Reuss Voigt Hill
#
# Bulk Modulus (GPa) = 49.95998 88.01846 68.98922
# Shear Modulus (GPa) = 27.12385 107.66834 67.39610
#
# Velocity S-wave (km/s) = 3.62014 7.21263 5.70646
# Velocity P-wave (km/s) = 6.45081 10.57783 8.76081
#
# Compressibility (1/GPa) = 0.02001602
#
# Stress axis : x y z
#
# Youngs Moduli (GPa) = 119.86818 33.69287 120.79402
#
# Poissons Ratio (x) = 0.13831 0.34948
# Poissons Ratio (y) = 0.49205 0.74220
# Poissons Ratio (z) = 0.34680 0.20702
#
# Static dielectric constant tensor:
#      x y z
#    x 3.987850 0.000000 0.000000 
#    y 0.000000 3.631340 0.000000 
#    z 0.000000 0.000000 4.003380 
# 
# 
# High freq. dielectric constant tensor:
#      x y z
#    x 1.827610 0.000000 0.000000 
#    y 0.000000 1.788830 0.000000 
#    z 0.000000 0.000000 1.831680 
# 
# From -- ./inp_files/28660.got.cif
#   From: 2010.06.25/outbox.cif.g09.slc.cpg/sg48_15_cif.got.tgz:28660.got - 2010.06.26 18:06:46.
