data_PCOD8201755
_publ_section_title
;
Structure prediction by ZEFSAII (Michael W. Deem and Ramdas Pophale) SiO2 
 PCOD8201755
Probable space group: P N N N
;
_chemical_formula_sum "Si O2"
_cell_formula_units_Z 60
_cell_length_a 18.707916
_cell_length_b 13.052912
_cell_length_c 12.526751
_cell_angle_alpha 90.000000
_cell_angle_beta 90.000000
_cell_angle_gamma 90.000000
_cell_volume 3058.942167
_symmetry_space_group_name_H-M "P N N N"
_symmetry_group_IT_number 48
_space_group.IT_coordinate_system_code '2'
_symmetry_cell_setting 'orthorhombic'
loop_
_space_group_symop_operation_xyz
x,y,z
1/2-x,1/2-y,z
x,1/2-y,1/2-z
1/2-x,y,1/2-z
-x,-y,-z
1/2+x,1/2+y,-z
-x,1/2+y,1/2+z
1/2+x,-y,1/2+z
loop_
_atom_site_type_symbol
_atom_site_label
_atom_site_fract_x
_atom_site_fract_y
_atom_site_fract_z
Si Si1 0.561920 0.651293 0.808680
Si Si2 0.310375 0.069107 0.167445
Si Si3 0.441982 0.009128 0.686687
Si Si4 0.750000 0.750000 0.977568
Si Si5 0.385083 0.558925 0.497026
Si Si6 0.606630 0.682472 0.041376
Si Si7 0.831319 0.361177 0.214058
Si Si8 0.528171 0.879451 0.103578
O O1 0.527267 0.750000 0.750000
O O2 0.617925 0.599229 0.729550
O O3 0.500827 0.573660 0.845013
O O4 0.600091 0.690049 0.914415
O O5 0.250000 0.033059 0.250000
O O6 0.282596 0.163318 0.098117
O O7 0.327395 0.971441 0.092773
O O8 0.417118 0.071741 0.583321
O O9 0.476252 0.083960 0.774637
O O10 0.372501 0.951987 0.728602
O O11 0.690832 0.703809 0.058860
O O12 0.343918 0.625178 0.586876
O O13 0.449412 0.626060 0.448137
O O14 0.418914 0.453285 0.539007
O O15 0.559187 0.765828 0.101801
O O16 0.860329 0.250000 0.250000
O O17 0.750000 0.372918 0.250000
#
# Coordination Sequence:
#
# PCOD8201755 Si02
#       8
#     8   8   8   4   8   8   8   8
#     4  12  22  39  63  95 128 165 219 266 315 390
#     4  12  21  39  66  98 132 168 211 269 326 395
#     4  11  25  40  60  93 128 169 216 268 325 380
#     4  12  23  36  61  98 134 162 207 262 337 406
#     4  10  21  39  67  93 117 173 218 256 313 380
#     4  12  25  38  62  96 136 166 207 272 339 383
#     4  10  24  42  64  91 125 166 222 268 309 383
#     4  10  21  40  63  88 125 168 219 255 311 392
#
# _framework density 19.614623999999999
#
# number of rings (size 3 to 8) (size 9 to 14) (size 15 to 20)
#    0.000    0.933    5.333    1.400    7.467    0.000 
#    0.000    0.667    0.000    0.000    0.000    0.000 
#    0.000    0.000    0.000    0.000    0.000    0.000 
#
# Total GULP energy -744144.918200 kJ/mol
# GULP energy per Si atom -12402.415303 kJ/mol
# Density = 1.956998 g / cm^3
# Si number density = 19.614624 Si / 1000 Ang^3
#
#
#
# Elastic Constant Matrix: (Units=GPa)
#
#
# Indices 1 2 3 4 5 6 
#
# 1 121.6399 50.1982 42.8915 0.0000 0.0000 0.0000
# 2 50.1982 101.9924 44.7048 0.0000 0.0000 0.0000
# 3 42.8915 44.7048 88.2808 0.0000 0.0000 0.0000
# 4 0.0000 0.0000 0.0000 29.3410 0.0000 0.0000
# 5 0.0000 0.0000 0.0000 0.0000 33.0832 0.0000
# 6 0.0000 0.0000 0.0000 0.0000 0.0000 28.5428
#
#
#
# Elastic Compliance Matrix: (Units=1/GPa)
#
#
# Indices 1 2 3 4 5 6 
#
# 1 0.011040 -0.003962 -0.003357 0.000000 0.000000 0.000000
# 2 -0.003962 0.014024 -0.005177 0.000000 0.000000 0.000000
# 3 -0.003357 -0.005177 0.015580 0.000000 0.000000 0.000000
# 4 0.000000 0.000000 0.000000 0.034082 0.000000 0.000000
# 5 0.000000 0.000000 0.000000 0.000000 0.030227 0.000000
# 6 0.000000 0.000000 0.000000 0.000000 0.000000 0.035035
#
#
# Mechanical properties :
#
#
# Convention : Reuss Voigt Hill
#
# Bulk Modulus (GPa) = 63.89087 65.27800 64.58443
# Shear Modulus (GPa) = 29.37783 29.80133 29.58958
#
# Velocity S-wave (km/s) = 3.87428 3.90210 3.88822
# Velocity P-wave (km/s) = 7.25653 7.32492 7.29080
#
# Compressibility (1/GPa) = 0.01565169
#
# Stress axis : x y z
#
# Youngs Moduli (GPa) = 90.58085 71.30857 64.18454
#
# Poissons Ratio (x) = 0.28252 0.21550
# Poissons Ratio (y) = 0.35887 0.33225
# Poissons Ratio (z) = 0.30412 0.36913
#
# Static dielectric constant tensor:
#      x y z
#    x 3.661160 0.000000 0.000000 
#    y 0.000000 3.496350 0.000000 
#    z 0.000000 0.000000 3.633420 
# 
# 
# High freq. dielectric constant tensor:
#      x y z
#    x 1.770870 0.000000 0.000000 
#    y 0.000000 1.753520 0.000000 
#    z 0.000000 0.000000 1.764510 
# 
# From -- ./inp_files/22924.got.cif
#   From: 2010.06.25/outbox.cif.g09.slc.cpg/sg48_12_cif.got.tgz:22924.got - 2010.06.26 18:06:46.
