data_PCOD8201728
_publ_section_title
;
Structure prediction by ZEFSAII (Michael W. Deem and Ramdas Pophale) SiO2 
 PCOD8201728
Probable space group: P N N N
;
_chemical_formula_sum "Si O2"
_cell_formula_units_Z 64
_cell_length_a 8.306034
_cell_length_b 11.958546
_cell_length_c 31.044178
_cell_angle_alpha 90.000000
_cell_angle_beta 90.000000
_cell_angle_gamma 90.000000
_cell_volume 3083.558896
_symmetry_space_group_name_H-M "P N N N"
_symmetry_group_IT_number 48
_space_group.IT_coordinate_system_code '2'
_symmetry_cell_setting 'orthorhombic'
loop_
_space_group_symop_operation_xyz
x,y,z
1/2-x,1/2-y,z
x,1/2-y,1/2-z
1/2-x,y,1/2-z
-x,-y,-z
1/2+x,1/2+y,-z
-x,1/2+y,1/2+z
1/2+x,-y,1/2+z
loop_
_atom_site_type_symbol
_atom_site_label
_atom_site_fract_x
_atom_site_fract_y
_atom_site_fract_z
Si Si1 0.440173 0.120206 0.620815
Si Si2 0.060781 0.512581 0.703053
Si Si3 0.561981 0.968475 0.953442
Si Si4 0.566366 0.250000 0.087298
Si Si5 0.934670 0.750000 0.821119
Si Si6 0.939219 0.012581 0.296947
Si Si7 0.061981 0.468475 0.453442
Si Si8 0.059827 0.120206 0.620815
O O1 0.250000 0.100147 0.616072
O O2 0.483914 0.250000 0.623463
O O3 0.511086 0.061323 0.664033
O O4 0.528427 0.068952 0.579586
O O5 0.250000 0.497643 0.701836
O O6 0.995717 0.471510 0.750000
O O7 0.019456 0.641932 0.698061
O O8 0.463237 0.859078 0.940800
O O9 0.750000 0.940888 0.954564
O O10 0.528428 0.068952 0.920414
O O11 0.500000 0.000000 0.000000
O O12 0.750000 0.250000 0.104044
O O13 0.446563 0.250000 0.127449
O O14 0.536763 0.359078 0.059200
O O15 0.750000 0.750000 0.807161
O O16 0.019456 0.641932 0.801939
O O17 0.011086 0.938677 0.335967
O O18 0.000000 0.500000 0.500000
#
# Coordination Sequence:
#
# PCOD8201728 Si02
#       8
#     8   8   8   8   8   8   8   8
#     4  10  22  41  64  91 127 169 214 262 313 372
#     4  10  21  38  62  91 125 168 214 260 314 375
#     4  12  26  44  67  96 129 168 212 258 315 378
#     4  12  24  43  69  96 128 165 209 265 322 375
#     4  12  23  37  60  93 128 166 208 259 321 383
#     4  10  21  38  62  91 125 168 214 260 314 375
#     4  12  26  44  67  96 129 168 212 258 315 378
#     4  10  22  41  64  91 127 169 214 262 313 372
#
# _framework density 20.755237999999999
#
# number of rings (size 3 to 8) (size 9 to 14) (size 15 to 20)
#    0.000    1.000    2.500    4.875    1.750    3.000 
#    0.000    2.500    0.000    0.000    0.000    3.500 
#    0.000    0.000    0.000    0.000    0.000    0.000 
#
# Total GULP energy -793797.717671 kJ/mol
# GULP energy per Si atom -12403.089339 kJ/mol
# Density = 2.070800 g / cm^3
# Si number density = 20.755238 Si / 1000 Ang^3
#
#
#
# Elastic Constant Matrix: (Units=GPa)
#
#
# Indices 1 2 3 4 5 6 
#
# 1 46.7606 11.7736 17.6336 0.0000 0.0000 0.0000
# 2 11.7736 127.0522 59.0456 0.0000 0.0000 0.0000
# 3 17.6336 59.0456 184.3733 0.0000 0.0000 0.0000
# 4 0.0000 0.0000 0.0000 82.9740 0.0000 0.0000
# 5 0.0000 0.0000 0.0000 0.0000 25.0810 0.0000
# 6 0.0000 0.0000 0.0000 0.0000 0.0000 22.0598
#
#
#
# Elastic Compliance Matrix: (Units=1/GPa)
#
#
# Indices 1 2 3 4 5 6 
#
# 1 0.022358 -0.001267 -0.001733 0.000000 0.000000 0.000000
# 2 -0.001267 0.009319 -0.002863 0.000000 0.000000 0.000000
# 3 -0.001733 -0.002863 0.006506 0.000000 0.000000 0.000000
# 4 0.000000 0.000000 0.000000 0.012052 0.000000 0.000000
# 5 0.000000 0.000000 0.000000 0.000000 0.039871 0.000000
# 6 0.000000 0.000000 0.000000 0.000000 0.000000 0.045331
#
#
# Mechanical properties :
#
#
# Convention : Reuss Voigt Hill
#
# Bulk Modulus (GPa) = 37.79570 59.45465 48.62517
# Shear Modulus (GPa) = 32.05509 44.00518 38.03014
#
# Velocity S-wave (km/s) = 3.93419 4.60955 4.28520
# Velocity P-wave (km/s) = 6.23594 7.55238 6.92551
#
# Compressibility (1/GPa) = 0.02645804
#
# Stress axis : x y z
#
# Youngs Moduli (GPa) = 44.72708 107.31015 153.69396
#
# Poissons Ratio (x) = 0.13592 0.26630
# Poissons Ratio (y) = 0.05665 0.44006
# Poissons Ratio (z) = 0.07750 0.30725
#
# Static dielectric constant tensor:
#      x y z
#    x 3.664710 0.000000 0.000000 
#    y 0.000000 3.821440 0.000000 
#    z 0.000000 0.000000 4.173910 
# 
# 
# High freq. dielectric constant tensor:
#      x y z
#    x 1.802870 0.000000 0.000000 
#    y 0.000000 1.815200 0.000000 
#    z 0.000000 0.000000 1.832640 
# 
# From -- ./inp_files/38819.got.cif
#   From: 2010.06.25/outbox.cif.g09.slc.cpg/sg48_20_cif.got.tgz:38819.got - 2010.06.26 18:06:46.
