data_PCOD8201271
_publ_section_title
;
Structure prediction by ZEFSAII (Michael W. Deem and Ramdas Pophale) SiO2 
 PCOD8201271
Probable space group: P N N N
;
_chemical_formula_sum "Si O2"
_cell_formula_units_Z 48
_cell_length_a 28.646205
_cell_length_b 8.583327
_cell_length_c 10.201694
_cell_angle_alpha 90.000000
_cell_angle_beta 90.000000
_cell_angle_gamma 90.000000
_cell_volume 2508.389917
_symmetry_space_group_name_H-M "P N N N"
_symmetry_group_IT_number 48
_space_group.IT_coordinate_system_code '2'
_symmetry_cell_setting 'orthorhombic'
loop_
_space_group_symop_operation_xyz
x,y,z
1/2-x,1/2-y,z
x,1/2-y,1/2-z
1/2-x,y,1/2-z
-x,-y,-z
1/2+x,1/2+y,-z
-x,1/2+y,1/2+z
1/2+x,-y,1/2+z
loop_
_atom_site_type_symbol
_atom_site_label
_atom_site_fract_x
_atom_site_fract_y
_atom_site_fract_z
Si Si1 0.506987 0.428003 0.788824
Si Si2 0.151736 0.935807 0.389423
Si Si3 0.066753 0.051631 0.985248
Si Si4 0.657717 0.082505 0.578958
Si Si5 0.752063 0.575005 0.905748
Si Si6 0.432524 0.354032 0.372297
O O1 0.506852 0.250000 0.750000
O O2 0.544397 0.439502 0.905775
O O3 0.522680 0.541825 0.670173
O O4 0.455954 0.482337 0.842516
O O5 0.148382 0.763435 0.448724
O O6 0.151047 0.945617 0.232662
O O7 0.198905 0.004278 0.451443
O O8 0.107477 0.036854 0.433934
O O9 0.053557 0.232724 0.014341
O O10 0.122107 0.019415 0.990503
O O11 0.709699 0.029084 0.537126
O O12 0.750000 0.750000 0.960977
O O13 0.750000 0.573582 0.750000
O O14 0.413519 0.250000 0.250000
#
# Coordination Sequence:
#
# PCOD8201271 Si02
#       6
#     8   8   8   8   8   8
#     4  10  20  34  49  68  94 125 169 213 250 291
#     4  10  17  26  44  64  94 132 159 192 240 286
#     4  10  20  32  50  69  92 134 167 205 253 294
#     4  10  17  28  42  63  96 126 167 193 231 292
#     4   9  17  24  39  63  93 129 162 188 229 290
#     4  10  18  30  49  67  94 126 164 203 244 292
#
# _framework density 19.135781000000001
#
# number of rings (size 3 to 8) (size 9 to 14) (size 15 to 20)
#    0.000    2.167    3.333    2.500    2.333    2.667 
#    0.000    3.333    0.000    0.000    0.000    0.000 
#    0.000    6.000    0.000   13.500    0.667    0.167 
#
# Total GULP energy -594987.052065 kJ/mol
# GULP energy per Si atom -12395.563585 kJ/mol
# Density = 1.909223 g / cm^3
# Si number density = 19.135781 Si / 1000 Ang^3
#
#
#
# Elastic Constant Matrix: (Units=GPa)
#
#
# Indices 1 2 3 4 5 6 
#
# 1 140.5821 55.8632 35.9098 0.0000 0.0000 0.0000
# 2 55.8632 116.8274 24.2089 0.0000 0.0000 0.0000
# 3 35.9098 24.2089 20.4770 0.0000 0.0000 0.0000
# 4 0.0000 0.0000 0.0000 7.5976 0.0000 0.0000
# 5 0.0000 0.0000 0.0000 0.0000 14.9279 0.0000
# 6 0.0000 0.0000 0.0000 0.0000 0.0000 31.6844
#
#
#
# Elastic Compliance Matrix: (Units=1/GPa)
#
#
# Indices 1 2 3 4 5 6 
#
# 1 0.013233 -0.002012 -0.020828 0.000000 0.000000 0.000000
# 2 -0.002012 0.011643 -0.010237 0.000000 0.000000 0.000000
# 3 -0.020828 -0.010237 0.097463 0.000000 0.000000 0.000000
# 4 0.000000 0.000000 0.000000 0.131620 0.000000 0.000000
# 5 0.000000 0.000000 0.000000 0.000000 0.066989 0.000000
# 6 0.000000 0.000000 0.000000 0.000000 0.000000 0.031561
#
#
# Mechanical properties :
#
#
# Convention : Reuss Voigt Hill
#
# Bulk Modulus (GPa) = 17.79806 56.65004 37.22405
# Shear Modulus (GPa) = 11.43145 21.63563 16.53354
#
# Velocity S-wave (km/s) = 2.44680 3.36614 2.94260
# Velocity P-wave (km/s) = 4.15976 6.69152 5.57135
#
# Compressibility (1/GPa) = 0.05618590
#
# Stress axis : x y z
#
# Youngs Moduli (GPa) = 75.56993 85.88961 10.26030
#
# Poissons Ratio (x) = 0.17278 0.21370
# Poissons Ratio (y) = 0.15202 0.10504
# Poissons Ratio (z) = 1.57395 0.87926
#
# Static dielectric constant tensor:
#      x y z
#    x 3.695270 0.000000 0.000000 
#    y 0.000000 3.699560 0.000000 
#    z 0.000000 0.000000 2.822210 
# 
# 
# High freq. dielectric constant tensor:
#      x y z
#    x 1.749220 0.000000 0.000000 
#    y 0.000000 1.763380 0.000000 
#    z 0.000000 0.000000 1.655050 
# 
# From -- ./inp_files/11374.got.cif
#   From: 2010.06.25/outbox.cif.g09.slc.cpg/sg48_6_cif.got.tgz:11374.got - 2010.06.26 18:06:46.
