data_PCOD8201528
_publ_section_title
;
Structure prediction by ZEFSAII (Michael W. Deem and Ramdas Pophale) SiO2 
 PCOD8201528
Probable space group: P N N N
;
_chemical_formula_sum "Si O2"
_cell_formula_units_Z 36
_cell_length_a 21.725922
_cell_length_b 8.864233
_cell_length_c 9.092439
_cell_angle_alpha 90.000000
_cell_angle_beta 90.000000
_cell_angle_gamma 90.000000
_cell_volume 1751.054951
_symmetry_space_group_name_H-M "P N N N"
_symmetry_group_IT_number 48
_space_group.IT_coordinate_system_code '2'
_symmetry_cell_setting 'orthorhombic'
loop_
_space_group_symop_operation_xyz
x,y,z
1/2-x,1/2-y,z
x,1/2-y,1/2-z
1/2-x,y,1/2-z
-x,-y,-z
1/2+x,1/2+y,-z
-x,1/2+y,1/2+z
1/2+x,-y,1/2+z
loop_
_atom_site_type_symbol
_atom_site_label
_atom_site_fract_x
_atom_site_fract_y
_atom_site_fract_z
Si Si1 0.668433 0.504975 0.883390
Si Si2 0.183255 0.072367 0.786396
Si Si3 0.250000 0.250000 0.250000
Si Si4 0.433500 0.398869 0.649692
Si Si5 0.553512 0.909085 0.811909
Si Si6 0.250000 0.750000 0.250000
O O1 0.708591 0.651552 0.855040
O O2 0.606981 0.510713 0.783720
O O3 0.706098 0.352530 0.851179
O O4 0.656896 0.522002 0.055560
O O5 0.188068 0.250000 0.750000
O O6 0.250000 0.998393 0.750000
O O7 0.128729 0.005747 0.683824
O O8 0.432905 0.250000 0.750000
O O9 0.495229 0.483509 0.692532
O O10 0.426599 0.369758 0.477069
O O11 0.532779 0.750000 0.750000
#
# Coordination Sequence:
#
# PCOD8201528 Si02
#       6
#     8   8   2   8   8   2
#     4  11  23  41  66  95 131 174 219 270 329 402
#     4  10  21  38  66  97 126 164 210 275 328 388
#     4  10  20  34  66  94 116 162 220 270 304 390
#     4  10  24  41  62  95 132 168 218 277 332 389
#     4  11  23  42  67  94 126 176 224 271 326 395
#     4  10  28  42  62  98 144 174 216 266 332 402
#
# _framework density 20.559032999999999
#
# number of rings (size 3 to 8) (size 9 to 14) (size 15 to 20)
#    0.000    1.556    1.111    4.000    7.778    3.556 
#    4.000    0.556    0.000    0.000    0.000    0.000 
#    0.000    0.000    0.000    0.000    0.000    0.000 
#
# Total GULP energy -446040.784647 kJ/mol
# GULP energy per Si atom -12390.021796 kJ/mol
# Density = 2.051224 g / cm^3
# Si number density = 20.559033 Si / 1000 Ang^3
#
#
#
# Elastic Constant Matrix: (Units=GPa)
#
#
# Indices 1 2 3 4 5 6 
#
# 1 153.7836 26.2773 90.8217 0.0000 0.0000 0.0000
# 2 26.2773 73.0877 45.5674 0.0000 0.0000 0.0000
# 3 90.8217 45.5674 171.8055 0.0000 0.0000 0.0000
# 4 0.0000 0.0000 0.0000 18.6258 0.0000 0.0000
# 5 0.0000 0.0000 0.0000 0.0000 55.9690 0.0000
# 6 0.0000 0.0000 0.0000 0.0000 0.0000 -37.6104
#
#
#
# Elastic Compliance Matrix: (Units=1/GPa)
#
#
# Indices 1 2 3 4 5 6 
#
# 1 0.009461 -0.000340 -0.004911 0.000000 0.000000 0.000000
# 2 -0.000340 0.016405 -0.004172 0.000000 0.000000 0.000000
# 3 -0.004911 -0.004172 0.009523 0.000000 0.000000 0.000000
# 4 0.000000 0.000000 0.000000 0.053689 0.000000 0.000000
# 5 0.000000 0.000000 0.000000 0.000000 0.017867 0.000000
# 6 0.000000 0.000000 0.000000 0.000000 0.000000 -0.026588
#
#
# Mechanical properties :
#
#
# Convention : Reuss Voigt Hill
#
# Bulk Modulus (GPa) = 60.44298 80.44551 70.44425
# Shear Modulus (GPa) = 47.74759 23.13091 35.43925
#
# Velocity S-wave (km/s) = 4.82442 3.35789 4.15635
# Velocity P-wave (km/s) = 7.77798 7.36531 7.57446
#
# Compressibility (1/GPa) = 0.01654452
#
# Stress axis : x y z
#
# Youngs Moduli (GPa) = 105.69391 60.95677 105.00548
#
# Poissons Ratio (x) = 0.02069 0.51573
# Poissons Ratio (y) = 0.03588 0.43804
# Poissons Ratio (z) = 0.51911 0.25429
#
# Static dielectric constant tensor:
#      x y z
#    x 4.465170 0.000000 0.000000 
#    y 0.000000 3.391090 0.000000 
#    z 0.000000 0.000000 3.939260 
# 
# 
# High freq. dielectric constant tensor:
#      x y z
#    x 1.831300 0.000000 0.000000 
#    y 0.000000 1.776520 0.000000 
#    z 0.000000 0.000000 1.818090 
# 
# From -- ./inp_files/8801.got.cif
#   From: 2010.06.25/outbox.cif.g09.slc.cpg/sg48_5_cif.got.tgz:8801.got - 2010.06.26 18:06:46.
