data_PCOD8201794
_publ_section_title
;
Structure prediction by ZEFSAII (Michael W. Deem and Ramdas Pophale) SiO2 
 PCOD8201794
Probable space group: P N N N
;
_chemical_formula_sum "Si O2"
_cell_formula_units_Z 58
_cell_length_a 17.245970
_cell_length_b 18.022917
_cell_length_c 8.807394
_cell_angle_alpha 90.000000
_cell_angle_beta 90.000000
_cell_angle_gamma 90.000000
_cell_volume 2737.537859
_symmetry_space_group_name_H-M "P N N N"
_symmetry_group_IT_number 48
_space_group.IT_coordinate_system_code '2'
_symmetry_cell_setting 'orthorhombic'
loop_
_space_group_symop_operation_xyz
x,y,z
1/2-x,1/2-y,z
x,1/2-y,1/2-z
1/2-x,y,1/2-z
-x,-y,-z
1/2+x,1/2+y,-z
-x,1/2+y,1/2+z
1/2+x,-y,1/2+z
loop_
_atom_site_type_symbol
_atom_site_label
_atom_site_fract_x
_atom_site_fract_y
_atom_site_fract_z
Si Si1 0.485140 0.777576 0.579749
Si Si2 0.050702 0.071977 0.009500
Si Si3 0.113008 0.947328 0.440523
Si Si4 0.164738 0.086614 0.282218
Si Si5 0.379385 0.186116 0.970841
Si Si6 0.665232 0.279773 0.581295
Si Si7 0.750000 0.750000 0.250000
Si Si8 0.552642 0.547903 0.321238
O O1 0.497654 0.750000 0.750000
O O2 0.489615 0.865455 0.560889
O O3 0.555713 0.750308 0.469865
O O4 0.400676 0.752027 0.527284
O O5 0.086701 0.074868 0.840440
O O6 0.119898 0.069756 0.127509
O O7 0.000000 0.000000 0.000000
O O8 0.159351 0.869512 0.430665
O O9 0.040931 0.950362 0.322816
O O10 0.168681 0.013569 0.388236
O O11 0.083218 0.967631 0.613426
O O12 0.250000 0.108305 0.250000
O O13 0.140864 0.165598 0.356312
O O14 0.306076 0.202600 0.861100
O O15 0.421015 0.109722 0.935459
O O16 0.750000 0.250000 0.527644
O O17 0.649138 0.250000 0.750000
#
# Coordination Sequence:
#
# PCOD8201794 Si02
#       8
#     8   8   8   8   8   8   2   8
#     4  12  26  44  72 101 145 187 239 295 370 439
#     4  12  25  41  69 106 130 185 238 288 350 444
#     4  10  21  43  70  97 135 184 229 303 357 428
#     4  11  26  43  67 101 148 180 228 301 367 422
#     4  11  25  46  67 103 139 185 229 292 352 431
#     4  11  26  44  73 103 138 185 243 305 367 434
#     4  12  28  40  78 104 150 180 248 284 360 440
#     4  10  21  41  74  95 133 178 244 284 354 425
#
# _framework density 21.186921999999999
#
# number of rings (size 3 to 8) (size 9 to 14) (size 15 to 20)
#    0.000    0.966    4.138    1.655    8.690    0.276 
#    0.000    0.000    3.034    0.000    0.000    0.000 
#    0.000    0.000    0.000    0.000    0.000    0.000 
#
# Total GULP energy -718512.974955 kJ/mol
# GULP energy per Si atom -12388.154741 kJ/mol
# Density = 2.113870 g / cm^3
# Si number density = 21.186922 Si / 1000 Ang^3
#
#
#
# Elastic Constant Matrix: (Units=GPa)
#
#
# Indices 1 2 3 4 5 6 
#
# 1 115.7018 33.1619 47.0092 0.0000 0.0000 0.0000
# 2 33.1619 122.6418 38.0024 0.0000 0.0000 0.0000
# 3 47.0092 38.0024 124.6439 0.0000 0.0000 0.0000
# 4 0.0000 0.0000 0.0000 34.1132 0.0000 0.0000
# 5 0.0000 0.0000 0.0000 0.0000 37.2501 0.0000
# 6 0.0000 0.0000 0.0000 0.0000 0.0000 69.8533
#
#
#
# Elastic Compliance Matrix: (Units=1/GPa)
#
#
# Indices 1 2 3 4 5 6 
#
# 1 0.010551 -0.001789 -0.003434 0.000000 0.000000 0.000000
# 2 -0.001789 0.009308 -0.002163 0.000000 0.000000 0.000000
# 3 -0.003434 -0.002163 0.009977 0.000000 0.000000 0.000000
# 4 0.000000 0.000000 0.000000 0.029314 0.000000 0.000000
# 5 0.000000 0.000000 0.000000 0.000000 0.026846 0.000000
# 6 0.000000 0.000000 0.000000 0.000000 0.000000 0.014316
#
#
# Mechanical properties :
#
#
# Convention : Reuss Voigt Hill
#
# Bulk Modulus (GPa) = 66.38195 66.59272 66.48734
# Shear Modulus (GPa) = 41.63037 44.56424 43.09731
#
# Velocity S-wave (km/s) = 4.43754 4.59124 4.51504
# Velocity P-wave (km/s) = 7.59311 7.72045 7.65704
#
# Compressibility (1/GPa) = 0.01506434
#
# Stress axis : x y z
#
# Youngs Moduli (GPa) = 94.77986 107.43645 100.22625
#
# Poissons Ratio (x) = 0.19219 0.34416
# Poissons Ratio (y) = 0.16955 0.21681
# Poissons Ratio (z) = 0.32545 0.23240
#
# Static dielectric constant tensor:
#      x y z
#    x 3.737160 0.000000 0.000000 
#    y 0.000000 3.926760 0.000000 
#    z 0.000000 0.000000 1.183670 
# 
# 
# High freq. dielectric constant tensor:
#      x y z
#    x 1.823440 0.000000 0.000000 
#    y 0.000000 1.842940 0.000000 
#    z 0.000000 0.000000 1.837040 
# 
# From -- ./inp_files/14440.got.cif
#   From: 2010.06.25/outbox.cif.g09.slc.cpg/sg48_8_cif.got.tgz:14440.got - 2010.06.26 18:06:46.
