data_PCOD8201753
_publ_section_title
;
Structure prediction by ZEFSAII (Michael W. Deem and Ramdas Pophale) SiO2 
 PCOD8201753
Probable space group: P N N N
;
_chemical_formula_sum "Si O2"
_cell_formula_units_Z 28
_cell_length_a 8.881241
_cell_length_b 31.740429
_cell_length_c 5.217396
_cell_angle_alpha 90.000000
_cell_angle_beta 90.000000
_cell_angle_gamma 90.000000
_cell_volume 1470.754712
_symmetry_space_group_name_H-M "P N N N"
_symmetry_group_IT_number 48
_space_group.IT_coordinate_system_code '2'
_symmetry_cell_setting 'orthorhombic'
loop_
_space_group_symop_operation_xyz
x,y,z
1/2-x,1/2-y,z
x,1/2-y,1/2-z
1/2-x,y,1/2-z
-x,-y,-z
1/2+x,1/2+y,-z
-x,1/2+y,1/2+z
1/2+x,-y,1/2+z
loop_
_atom_site_type_symbol
_atom_site_label
_atom_site_fract_x
_atom_site_fract_y
_atom_site_fract_z
Si Si1 0.676078 0.006915 0.498581
Si Si2 0.583465 0.331684 0.236065
Si Si3 0.075281 0.200641 0.733273
Si Si4 0.750000 0.087749 0.250000
O O1 0.750000 0.986461 0.750000
O O2 0.500000 0.000000 0.500000
O O3 0.718423 0.056938 0.492092
O O4 0.750000 0.984139 0.250000
O O5 0.750000 0.310265 0.250000
O O6 0.477411 0.313467 0.453907
O O7 0.603315 0.382143 0.284432
O O8 0.513650 0.323386 0.956883
O O9 0.045208 0.250000 0.750000
O O10 0.250000 0.189359 0.750000
#
# Coordination Sequence:
#
# PCOD8201753 Si02
#       4
#     8   8   8   4
#     4  10  21  39  66  87 121 151 194 241 297 350
#     4  10  22  38  61  85 119 159 197 246 292 351
#     4  11  23  39  59  86 121 156 200 250 295 343
#     4   8  24  36  65  82 130 144 202 240 303 336
#
# _framework density 19.037845000000001
#
# number of rings (size 3 to 8) (size 9 to 14) (size 15 to 20)
#    1.714    0.286    0.000    3.429    4.000    5.714 
#    0.000    4.286    0.000    0.000    0.000    0.000 
#    0.000    0.000    0.000    0.000    0.000    0.000 
#
# Total GULP energy -346893.324760 kJ/mol
# GULP energy per Si atom -12389.047313 kJ/mol
# Density = 1.899451 g / cm^3
# Si number density = 19.037845 Si / 1000 Ang^3
#
#
#
# Elastic Constant Matrix: (Units=GPa)
#
#
# Indices 1 2 3 4 5 6 
#
# 1 120.6845 10.8402 47.7999 0.0000 0.0000 0.0000
# 2 10.8402 47.0340 5.1429 0.0000 0.0000 0.0000
# 3 47.7999 5.1429 124.6868 0.0000 0.0000 0.0000
# 4 0.0000 0.0000 0.0000 10.8739 0.0000 0.0000
# 5 0.0000 0.0000 0.0000 0.0000 43.7319 0.0000
# 6 0.0000 0.0000 0.0000 0.0000 0.0000 219.8740
#
#
#
# Elastic Compliance Matrix: (Units=1/GPa)
#
#
# Indices 1 2 3 4 5 6 
#
# 1 0.009932 -0.001881 -0.003730 0.000000 0.000000 0.000000
# 2 -0.001881 0.021714 -0.000174 0.000000 0.000000 0.000000
# 3 -0.003730 -0.000174 0.009457 0.000000 0.000000 0.000000
# 4 0.000000 0.000000 0.000000 0.091963 0.000000 0.000000
# 5 0.000000 0.000000 0.000000 0.000000 0.022867 0.000000
# 6 0.000000 0.000000 0.000000 0.000000 0.000000 0.004548
#
#
# Mechanical properties :
#
#
# Convention : Reuss Voigt Hill
#
# Bulk Modulus (GPa) = 33.86164 46.66346 40.26255
# Shear Modulus (GPa) = 27.48808 70.13745 48.81277
#
# Velocity S-wave (km/s) = 3.80395 6.07627 5.06908
# Velocity P-wave (km/s) = 6.09249 8.59024 7.44683
#
# Compressibility (1/GPa) = 0.02953194
#
# Stress axis : x y z
#
# Youngs Moduli (GPa) = 100.68014 46.05351 105.73892
#
# Poissons Ratio (x) = 0.08664 0.39442
# Poissons Ratio (y) = 0.18941 0.01844
# Poissons Ratio (z) = 0.37555 0.00803
#
# Static dielectric constant tensor:
#      x y z
#    x 3.203170 0.000000 0.000000 
#    y 0.000000 3.265620 0.000000 
#    z 0.000000 0.000000 12.977440 
# 
# 
# High freq. dielectric constant tensor:
#      x y z
#    x 1.744110 0.000000 0.000000 
#    y 0.000000 1.716740 0.000000 
#    z 0.000000 0.000000 1.751980 
# 
# From -- ./inp_files/985.got.cif
#   From: 2010.06.25/outbox.cif.g09.slc.cpg/sg48_1_cif.got.tgz:985.got - 2010.06.26 18:06:46.
