data_PCOD8201249
_publ_section_title
;
Structure prediction by ZEFSAII (Michael W. Deem and Ramdas Pophale) SiO2 
 PCOD8201249
Probable space group: P N N N
;
_chemical_formula_sum "Si O2"
_cell_formula_units_Z 48
_cell_length_a 13.732930
_cell_length_b 9.857184
_cell_length_c 16.689195
_cell_angle_alpha 90.000000
_cell_angle_beta 90.000000
_cell_angle_gamma 90.000000
_cell_volume 2259.183247
_symmetry_space_group_name_H-M "P N N N"
_symmetry_group_IT_number 48
_space_group.IT_coordinate_system_code '2'
_symmetry_cell_setting 'orthorhombic'
loop_
_space_group_symop_operation_xyz
x,y,z
1/2-x,1/2-y,z
x,1/2-y,1/2-z
1/2-x,y,1/2-z
-x,-y,-z
1/2+x,1/2+y,-z
-x,1/2+y,1/2+z
1/2+x,-y,1/2+z
loop_
_atom_site_type_symbol
_atom_site_label
_atom_site_fract_x
_atom_site_fract_y
_atom_site_fract_z
Si Si1 0.425745 0.291682 0.163672
Si Si2 0.065360 0.589116 0.900969
Si Si3 0.451504 0.831268 0.085054
Si Si4 0.750000 0.250000 0.562110
Si Si5 0.978757 0.963594 0.091891
Si Si6 0.728659 0.017171 0.443899
Si Si7 0.750000 0.750000 0.954458
O O1 0.382693 0.250000 0.250000
O O2 0.527584 0.211310 0.153728
O O3 0.451046 0.450956 0.151492
O O4 0.346893 0.247263 0.098453
O O5 0.180363 0.562651 0.888637
O O6 0.004365 0.456851 0.872320
O O7 0.046496 0.635737 0.991354
O O8 0.338422 0.814333 0.114116
O O9 0.508544 0.695302 0.107427
O O10 0.799182 0.366639 0.507965
O O11 0.865685 0.995260 0.111348
O O12 0.000000 0.000000 0.000000
O O13 0.758118 0.881406 0.490479
#
# Coordination Sequence:
#
# PCOD8201249 Si02
#       7
#     8   8   8   4   8   8   4
#     4  12  25  40  58  87 133 171 196 245 324 400
#     4  10  20  35  53  87 117 151 203 254 312 349
#     4  10  18  31  56  81 113 142 197 268 293 339
#     4  10  16  26  44  82 108 142 174 236 316 338
#     4  12  19  37  57  87 116 156 211 255 302 357
#     4  11  20  31  61  87 114 147 204 269 300 345
#     4  12  21  38  62  94 121 154 206 258 316 369
#
# _framework density 21.246614999999998
#
# number of rings (size 3 to 8) (size 9 to 14) (size 15 to 20)
#    0.000    1.000    5.000    5.250    0.000    0.000 
#    0.000    2.500    0.000    0.000    0.000   12.833 
#    0.000    0.000    0.000    0.000    0.000    0.000 
#
# Total GULP energy -595097.695781 kJ/mol
# GULP energy per Si atom -12397.868662 kJ/mol
# Density = 2.119826 g / cm^3
# Si number density = 21.246615 Si / 1000 Ang^3
#
#
#
# Elastic Constant Matrix: (Units=GPa)
#
#
# Indices 1 2 3 4 5 6 
#
# 1 134.9744 19.1120 -3.1026 0.0000 0.0000 0.0000
# 2 19.1120 124.5578 3.7545 0.0000 0.0000 0.0000
# 3 -3.1026 3.7545 22.1430 0.0000 0.0000 0.0000
# 4 0.0000 0.0000 0.0000 8.9898 0.0000 0.0000
# 5 0.0000 0.0000 0.0000 0.0000 -3.1481 0.0000
# 6 0.0000 0.0000 0.0000 0.0000 0.0000 41.7419
#
#
#
# Elastic Compliance Matrix: (Units=1/GPa)
#
#
# Indices 1 2 3 4 5 6 
#
# 1 0.007609 -0.001206 0.001271 0.000000 0.000000 0.000000
# 2 -0.001206 0.008261 -0.001570 0.000000 0.000000 0.000000
# 3 0.001271 -0.001570 0.045605 0.000000 0.000000 0.000000
# 4 0.000000 0.000000 0.000000 0.111237 0.000000 0.000000
# 5 0.000000 0.000000 0.000000 0.000000 -0.317654 0.000000
# 6 0.000000 0.000000 0.000000 0.000000 0.000000 0.023957
#
#
# Mechanical properties :
#
#
# Convention : Reuss Voigt Hill
#
# Bulk Modulus (GPa) = 17.10428 35.68924 26.39676
# Shear Modulus (GPa) = -50.76773 26.97750 -11.89512
#
# Velocity S-wave (km/s) = -4.89350 3.56719 -2.36870
# Velocity P-wave (km/s) = 4.88474 5.81383 2.22934
#
# Compressibility (1/GPa) = 0.05846491
#
# Stress axis : x y z
#
# Youngs Moduli (GPa) = 131.42763 121.05478 21.92736
#
# Poissons Ratio (x) = 0.14596 -0.02786
# Poissons Ratio (y) = 0.15847 0.03442
# Poissons Ratio (z) = -0.16699 0.19001
#
# Static dielectric constant tensor:
#      x y z
#    x 4.938450 0.000000 0.000000 
#    y 0.000000 1.858740 0.000000 
#    z 0.000000 0.000000 3.131400 
# 
# 
# High freq. dielectric constant tensor:
#      x y z
#    x 1.855500 0.000000 0.000000 
#    y 0.000000 1.859850 0.000000 
#    z 0.000000 0.000000 1.743060 
# 
# From -- ./inp_files/31592.got.cif
#   From: 2010.06.25/outbox.cif.g09.slc.cpg/sg48_16_cif.got.tgz:31592.got - 2010.06.26 18:06:46.
