data_PCOD8201391
_publ_section_title
;
Structure prediction by ZEFSAII (Michael W. Deem and Ramdas Pophale) SiO2 
 PCOD8201391
Probable space group: P N N N
;
_chemical_formula_sum "Si O2"
_cell_formula_units_Z 64
_cell_length_a 16.755071
_cell_length_b 22.406861
_cell_length_c 8.920159
_cell_angle_alpha 90.000000
_cell_angle_beta 90.000000
_cell_angle_gamma 90.000000
_cell_volume 3348.882332
_symmetry_space_group_name_H-M "P N N N"
_symmetry_group_IT_number 48
_space_group.IT_coordinate_system_code '2'
_symmetry_cell_setting 'orthorhombic'
loop_
_space_group_symop_operation_xyz
x,y,z
1/2-x,1/2-y,z
x,1/2-y,1/2-z
1/2-x,y,1/2-z
-x,-y,-z
1/2+x,1/2+y,-z
-x,1/2+y,1/2+z
1/2+x,-y,1/2+z
loop_
_atom_site_type_symbol
_atom_site_label
_atom_site_fract_x
_atom_site_fract_y
_atom_site_fract_z
Si Si1 0.839714 0.017508 0.428114
Si Si2 0.339714 0.517508 0.928114
Si Si3 0.567426 0.133364 0.071788
Si Si4 0.432574 0.633364 0.928212
Si Si5 0.901784 0.609214 0.427784
Si Si6 0.250000 0.183116 0.928137
Si Si7 0.598216 0.890786 0.072216
Si Si8 0.660191 0.250000 0.071780
O O1 0.834620 0.018808 0.250000
O O2 0.750000 0.017347 0.494319
O O3 0.886382 0.075135 0.489343
O O4 0.886743 0.958641 0.481574
O O5 0.386382 0.575136 0.989343
O O6 0.386743 0.458641 0.981574
O O7 0.561446 0.132447 0.250000
O O8 0.614652 0.191339 0.013445
O O9 0.479690 0.135569 0.004427
O O10 0.385348 0.691339 0.986555
O O11 0.520310 0.635569 0.995572
O O12 0.828248 0.648997 0.485819
O O13 0.911409 0.612840 0.250000
O O14 0.250000 0.250000 0.993731
O O15 0.250000 0.183662 0.750000
O O16 0.328248 0.148996 0.985818
O O17 0.750000 0.250000 0.006670
O O18 0.663228 0.250000 0.250000
#
# Coordination Sequence:
#
# PCOD8201391 Si02
#       8
#     8   8   8   8   8   8   8   8
#     4   9  16  30  52  75  97 128 169 206 238 284
#     4   9  16  30  52  75  97 128 169 206 238 284
#     4  10  20  32  51  76 102 128 161 206 250 290
#     4  10  20  32  51  76 102 128 161 206 250 290
#     4  10  19  33  53  75  99 128 166 206 244 291
#     4   9  18  32  51  73  97 130 170 204 235 285
#     4  10  19  33  53  75  99 128 166 206 244 291
#     4   9  18  34  53  74  99 132 170 201 235 289
#
# _framework density 19.110854
#
# number of rings (size 3 to 8) (size 9 to 14) (size 15 to 20)
#    0.000    2.500    1.250    1.500    1.750    3.000 
#    0.000    0.625    0.000    6.000    0.000    0.000 
#    0.000    0.000    0.000    0.000    0.000    0.000 
#
# Total GULP energy -793643.148810 kJ/mol
# GULP energy per Si atom -12400.674200 kJ/mol
# Density = 1.906736 g / cm^3
# Si number density = 19.110854 Si / 1000 Ang^3
#
#
#
# Elastic Constant Matrix: (Units=GPa)
#
#
# Indices 1 2 3 4 5 6 
#
# 1 193.5382 100.5692 22.1767 0.0000 0.0000 0.0000
# 2 100.5692 196.2850 18.1655 0.0000 0.0000 0.0000
# 3 22.1767 18.1655 12.3827 0.0000 0.0000 0.0000
# 4 0.0000 0.0000 0.0000 9.5723 0.0000 0.0000
# 5 0.0000 0.0000 0.0000 0.0000 26.5155 0.0000
# 6 0.0000 0.0000 0.0000 0.0000 0.0000 37.1214
#
#
#
# Elastic Compliance Matrix: (Units=1/GPa)
#
#
# Indices 1 2 3 4 5 6 
#
# 1 0.007903 -0.003170 -0.009504 0.000000 0.000000 0.000000
# 2 -0.003170 0.007166 -0.004836 0.000000 0.000000 0.000000
# 3 -0.009504 -0.004836 0.104874 0.000000 0.000000 0.000000
# 4 0.000000 0.000000 0.000000 0.104468 0.000000 0.000000
# 5 0.000000 0.000000 0.000000 0.000000 0.037714 0.000000
# 6 0.000000 0.000000 0.000000 0.000000 0.000000 0.026939
#
#
# Mechanical properties :
#
#
# Convention : Reuss Voigt Hill
#
# Bulk Modulus (GPa) = 11.77532 76.00319 43.88925
# Shear Modulus (GPa) = 14.18879 32.06149 23.12514
#
# Velocity S-wave (km/s) = 2.72774 4.10037 3.48235
# Velocity P-wave (km/s) = 4.01195 7.89134 6.25976
#
# Compressibility (1/GPa) = 0.08492337
#
# Stress axis : x y z
#
# Youngs Moduli (GPa) = 126.53398 139.54346 9.53527
#
# Poissons Ratio (x) = 0.44230 0.09062
# Poissons Ratio (y) = 0.40107 0.04611
# Poissons Ratio (z) = 1.20257 0.67487
#
# Static dielectric constant tensor:
#      x y z
#    x 3.615280 0.000000 0.000000 
#    y 0.000000 3.841030 0.000000 
#    z 0.000000 0.000000 2.841060 
# 
# 
# High freq. dielectric constant tensor:
#      x y z
#    x 1.760210 0.000000 0.000000 
#    y 0.000000 1.761770 0.000000 
#    z 0.000000 0.000000 1.676910 
# 
# From -- ./inp_files/20453.got.cif
#   From: 2010.06.25/outbox.cif.g09.slc.cpg/sg48_11_cif.got.tgz:20453.got - 2010.06.26 18:06:46.
