data_PCOD8201942
_publ_section_title
;
Structure prediction by ZEFSAII (Michael W. Deem and Ramdas Pophale) SiO2 
 PCOD8201942
Probable space group: P N N N
;
_chemical_formula_sum "Si O2"
_cell_formula_units_Z 56
_cell_length_a 8.517369
_cell_length_b 15.236689
_cell_length_c 20.214955
_cell_angle_alpha 90.000000
_cell_angle_beta 90.000000
_cell_angle_gamma 90.000000
_cell_volume 2623.426159
_symmetry_space_group_name_H-M "P N N N"
_symmetry_group_IT_number 48
_space_group.IT_coordinate_system_code '2'
_symmetry_cell_setting 'orthorhombic'
loop_
_space_group_symop_operation_xyz
x,y,z
1/2-x,1/2-y,z
x,1/2-y,1/2-z
1/2-x,y,1/2-z
-x,-y,-z
1/2+x,1/2+y,-z
-x,1/2+y,1/2+z
1/2+x,-y,1/2+z
loop_
_atom_site_type_symbol
_atom_site_label
_atom_site_fract_x
_atom_site_fract_y
_atom_site_fract_z
Si Si1 0.074462 0.902325 0.777531
Si Si2 0.417476 0.226222 0.369601
Si Si3 0.168018 0.514931 0.969423
Si Si4 0.346317 0.163306 0.507066
Si Si5 0.970185 0.912628 0.635786
Si Si6 0.312295 0.523337 0.176422
Si Si7 0.824817 0.155032 0.935722
O O1 0.250000 0.921263 0.750000
O O2 0.050641 0.813488 0.820576
O O3 0.974794 0.887896 0.712291
O O4 0.988160 0.980788 0.818813
O O5 0.250000 0.250000 0.333920
O O6 0.392071 0.158438 0.429656
O O7 0.471847 0.318845 0.402246
O O8 0.260112 0.425216 0.972364
O O9 0.125464 0.537715 0.892321
O O10 0.257173 0.593670 0.005833
O O11 0.000000 0.500000 0.000000
O O12 0.250000 0.250000 0.523681
O O13 0.493800 0.168714 0.553601
O O14 0.804649 0.964086 0.630382
O O15 0.250000 0.541447 0.250000
O O16 0.312770 0.614778 0.137697
O O17 0.750000 0.250000 0.937251
#
# Coordination Sequence:
#
# PCOD8201942 Si02
#       7
#     8   8   8   8   8   8   8
#     4  11  25  40  65 101 138 180 233 287 345 416
#     4  11  21  41  65  94 139 184 229 276 349 426
#     4  12  23  43  68  99 141 182 229 283 355 419
#     4  11  26  43  70 105 139 184 235 294 362 429
#     4  11  23  39  67  93 136 181 228 275 343 433
#     4  10  23  45  68  95 130 184 228 279 356 427
#     4  12  25  43  71 101 138 179 239 301 352 421
#
# _framework density 21.346132999999998
#
# number of rings (size 3 to 8) (size 9 to 14) (size 15 to 20)
#    0.000    0.857    2.857    5.143    4.000    2.000 
#    0.000    0.000    0.000    0.000    0.000    0.000 
#    0.000    0.000    0.000    0.000    0.000    0.000 
#
# Total GULP energy -693817.595260 kJ/mol
# GULP energy per Si atom -12389.599915 kJ/mol
# Density = 2.129755 g / cm^3
# Si number density = 21.346133 Si / 1000 Ang^3
#
#
#
# Elastic Constant Matrix: (Units=GPa)
#
#
# Indices 1 2 3 4 5 6 
#
# 1 144.8762 79.9129 43.1494 0.0000 0.0000 0.0000
# 2 79.9129 180.4292 66.5920 0.0000 0.0000 0.0000
# 3 43.1494 66.5920 98.0730 0.0000 0.0000 0.0000
# 4 0.0000 0.0000 0.0000 -81.3110 0.0000 0.0000
# 5 0.0000 0.0000 0.0000 0.0000 40.8401 0.0000
# 6 0.0000 0.0000 0.0000 0.0000 0.0000 40.9505
#
#
#
# Elastic Compliance Matrix: (Units=1/GPa)
#
#
# Indices 1 2 3 4 5 6 
#
# 1 0.009351 -0.003500 -0.001737 0.000000 0.000000 0.000000
# 2 -0.003500 0.008706 -0.004371 0.000000 0.000000 0.000000
# 3 -0.001737 -0.004371 0.013929 0.000000 0.000000 0.000000
# 4 0.000000 0.000000 0.000000 -0.012298 0.000000 0.000000
# 5 0.000000 0.000000 0.000000 0.000000 0.024486 0.000000
# 6 0.000000 0.000000 0.000000 0.000000 0.000000 0.024420
#
#
# Mechanical properties :
#
#
# Convention : Reuss Voigt Hill
#
# Bulk Modulus (GPa) = 78.32245 89.18744 83.75495
# Shear Modulus (GPa) = 54.30861 15.67753 34.99307
#
# Velocity S-wave (km/s) = 5.04947 2.71300 4.05324
# Velocity P-wave (km/s) = 8.41234 7.18930 7.82475
#
# Compressibility (1/GPa) = 0.01276773
#
# Stress axis : x y z
#
# Youngs Moduli (GPa) = 106.94527 114.86365 71.79227
#
# Poissons Ratio (x) = 0.40205 0.12473
# Poissons Ratio (y) = 0.37433 0.31383
# Poissons Ratio (z) = 0.18580 0.50212
#
# Static dielectric constant tensor:
#      x y z
#    x 5.075640 0.000000 0.000000 
#    y 0.000000 4.461300 0.000000 
#    z 0.000000 0.000000 3.922210 
# 
# 
# High freq. dielectric constant tensor:
#      x y z
#    x 1.843910 0.000000 0.000000 
#    y 0.000000 1.836280 0.000000 
#    z 0.000000 0.000000 1.835780 
# 
# From -- ./inp_files/33602.got.cif
#   From: 2010.06.25/outbox.cif.g09.slc.cpg/sg48_17_cif.got.tgz:33602.got - 2010.06.26 18:06:46.
