data_PCOD8201264
_publ_section_title
;
Structure prediction by ZEFSAII (Michael W. Deem and Ramdas Pophale) SiO2 
 PCOD8201264
Probable space group: P N N N
;
_chemical_formula_sum "Si O2"
_cell_formula_units_Z 52
_cell_length_a 28.898035
_cell_length_b 5.251797
_cell_length_c 18.406165
_cell_angle_alpha 90.000000
_cell_angle_beta 90.000000
_cell_angle_gamma 90.000000
_cell_volume 2793.441330
_symmetry_space_group_name_H-M "P N N N"
_symmetry_group_IT_number 48
_space_group.IT_coordinate_system_code '2'
_symmetry_cell_setting 'orthorhombic'
loop_
_space_group_symop_operation_xyz
x,y,z
1/2-x,1/2-y,z
x,1/2-y,1/2-z
1/2-x,y,1/2-z
-x,-y,-z
1/2+x,1/2+y,-z
-x,1/2+y,1/2+z
1/2+x,-y,1/2+z
loop_
_atom_site_type_symbol
_atom_site_label
_atom_site_fract_x
_atom_site_fract_y
_atom_site_fract_z
Si Si1 0.937338 0.802526 0.504675
Si Si2 0.477183 0.250000 0.750000
Si Si3 0.804783 0.747623 0.668904
Si Si4 0.304618 0.750986 0.416949
Si Si5 0.915352 0.140969 0.174680
Si Si6 0.004860 0.510358 0.884354
Si Si7 0.119036 0.690954 0.527231
O O1 0.911317 0.533579 0.508907
O O2 0.961412 0.837042 0.583438
O O3 0.977924 0.798213 0.443074
O O4 0.903188 0.035514 0.488805
O O5 0.442390 0.386293 0.805934
O O6 0.510373 0.405581 0.695503
O O7 0.750000 0.750000 0.674134
O O8 0.826109 0.750000 0.750000
O O9 0.820939 0.485837 0.632570
O O10 0.821456 0.991737 0.622390
O O11 0.250000 0.750000 0.431963
O O12 0.329669 0.791593 0.494128
O O13 0.894593 0.250000 0.250000
O O14 0.951699 0.315106 0.133049
O O15 0.875343 0.116444 0.113434
#
# Coordination Sequence:
#
# PCOD8201264 Si02
#       7
#     8   4   8   8   8   8   8
#     4  10  21  33  54  77 105 139 178 219 273 325
#     4  10  16  32  52  74 102 141 189 224 260 310
#     4   9  17  32  56  80 101 130 172 221 268 322
#     4  10  20  34  56  83 108 139 182 226 276 327
#     4   9  19  32  52  79 105 140 187 224 263 313
#     4   9  19  31  52  76 103 138 182 224 264 318
#     4  11  21  36  54  79 111 142 178 232 273 319
#
# _framework density 18.615030999999998
#
# number of rings (size 3 to 8) (size 9 to 14) (size 15 to 20)
#    0.000    2.308    1.538    1.385    2.154    3.692 
#    0.000    0.000    6.769    1.385    0.000    0.000 
#    0.000    0.000    0.000    0.000    0.000    0.000 
#
# Total GULP energy -644222.268926 kJ/mol
# GULP energy per Si atom -12388.889787 kJ/mol
# Density = 1.857266 g / cm^3
# Si number density = 18.615031 Si / 1000 Ang^3
#
#
#
# Elastic Constant Matrix: (Units=GPa)
#
#
# Indices 1 2 3 4 5 6 
#
# 1 43.0163 9.1907 48.6650 0.0000 0.0000 0.0000
# 2 9.1907 83.1585 35.9043 0.0000 0.0000 0.0000
# 3 48.6650 35.9043 154.2447 0.0000 0.0000 0.0000
# 4 0.0000 0.0000 0.0000 21.1657 0.0000 0.0000
# 5 0.0000 0.0000 0.0000 0.0000 27.7369 0.0000
# 6 0.0000 0.0000 0.0000 0.0000 0.0000 7.9533
#
#
#
# Elastic Compliance Matrix: (Units=1/GPa)
#
#
# Indices 1 2 3 4 5 6 
#
# 1 0.036230 0.001035 -0.011672 0.000000 0.000000 0.000000
# 2 0.001035 0.013398 -0.003445 0.000000 0.000000 0.000000
# 3 -0.011672 -0.003445 0.010968 0.000000 0.000000 0.000000
# 4 0.000000 0.000000 0.000000 0.047246 0.000000 0.000000
# 5 0.000000 0.000000 0.000000 0.000000 0.036053 0.000000
# 6 0.000000 0.000000 0.000000 0.000000 0.000000 0.125734
#
#
# Mechanical properties :
#
#
# Convention : Reuss Voigt Hill
#
# Bulk Modulus (GPa) = 30.83338 51.99326 41.41332
# Shear Modulus (GPa) = 16.20195 23.81515 20.00855
#
# Velocity S-wave (km/s) = 2.95340 3.58068 3.28206
# Velocity P-wave (km/s) = 5.31317 6.71465 6.05459
#
# Compressibility (1/GPa) = 0.03243238
#
# Stress axis : x y z
#
# Youngs Moduli (GPa) = 27.60121 74.63573 91.17656
#
# Poissons Ratio (x) = -0.07726 1.06420
# Poissons Ratio (y) = -0.02857 0.31414
# Poissons Ratio (z) = 0.32216 0.25715
#
# Static dielectric constant tensor:
#      x y z
#    x 2.980480 0.000000 0.000000 
#    y 0.000000 3.612080 0.000000 
#    z 0.000000 0.000000 4.899590 
# 
# 
# High freq. dielectric constant tensor:
#      x y z
#    x 1.661190 0.000000 0.000000 
#    y 0.000000 1.736660 0.000000 
#    z 0.000000 0.000000 1.737420 
# 
# From -- ./inp_files/29595.got.cif
#   From: 2010.06.25/outbox.cif.g09.slc.cpg/sg48_15_cif.got.tgz:29595.got - 2010.06.26 18:06:46.
