data_PCOD8201509
_publ_section_title
;
Structure prediction by ZEFSAII (Michael W. Deem and Ramdas Pophale) SiO2 
 PCOD8201509
Probable space group: P N N N
;
_chemical_formula_sum "Si O2"
_cell_formula_units_Z 32
_cell_length_a 4.877592
_cell_length_b 21.974650
_cell_length_c 16.507080
_cell_angle_alpha 90.000000
_cell_angle_beta 90.000000
_cell_angle_gamma 90.000000
_cell_volume 1769.284580
_symmetry_space_group_name_H-M "P N N N"
_symmetry_group_IT_number 48
_space_group.IT_coordinate_system_code '2'
_symmetry_cell_setting 'orthorhombic'
loop_
_space_group_symop_operation_xyz
x,y,z
1/2-x,1/2-y,z
x,1/2-y,1/2-z
1/2-x,y,1/2-z
-x,-y,-z
1/2+x,1/2+y,-z
-x,1/2+y,1/2+z
1/2+x,-y,1/2+z
loop_
_atom_site_type_symbol
_atom_site_label
_atom_site_fract_x
_atom_site_fract_y
_atom_site_fract_z
Si Si1 0.355659 0.549856 0.441759
Si Si2 0.802315 0.388619 0.097867
Si Si3 0.685932 0.979084 0.342156
Si Si4 0.199395 0.318543 0.344745
O O1 0.500000 0.500000 0.500000
O O2 0.241851 0.602103 0.501473
O O3 0.612085 0.569158 0.386561
O O4 0.118624 0.527144 0.379883
O O5 0.773106 0.450967 0.147056
O O6 0.611142 0.336338 0.134748
O O7 0.111883 0.365598 0.106876
O O8 0.750000 0.962198 0.250000
O O9 0.250000 0.250000 0.374442
O O10 0.250000 0.325174 0.250000
#
# Coordination Sequence:
#
# PCOD8201509 Si02
#       4
#     8   8   8   8
#     4  10  20  33  49  73 102 133 168 206 244 298
#     4  11  20  34  51  69 100 138 166 196 247 292
#     4  11  20  32  51  76 104 134 168 202 246 304
#     4  11  22  34  49  72 100 131 171 210 238 278
#
# _framework density 18.086406
#
# number of rings (size 3 to 8) (size 9 to 14) (size 15 to 20)
#    0.000    1.250    0.000   11.250    0.000    2.000 
#    0.000    0.000    0.000    0.000    0.000    0.000 
#    0.000   70.000    0.000    0.000    0.000    0.000 
#
# Total GULP energy -396425.321313 kJ/mol
# GULP energy per Si atom -12388.291291 kJ/mol
# Density = 1.804524 g / cm^3
# Si number density = 18.086406 Si / 1000 Ang^3
#
#
#
# Elastic Constant Matrix: (Units=GPa)
#
#
# Indices 1 2 3 4 5 6 
#
# 1 96.6826 6.5157 37.5071 0.0000 0.0000 0.0000
# 2 6.5157 45.0180 19.5004 0.0000 0.0000 0.0000
# 3 37.5071 19.5004 129.4266 0.0000 0.0000 0.0000
# 4 0.0000 0.0000 0.0000 18.3987 0.0000 0.0000
# 5 0.0000 0.0000 0.0000 0.0000 38.3714 0.0000
# 6 0.0000 0.0000 0.0000 0.0000 0.0000 12.9423
#
#
#
# Elastic Compliance Matrix: (Units=1/GPa)
#
#
# Indices 1 2 3 4 5 6 
#
# 1 0.011656 -0.000239 -0.003342 0.000000 0.000000 0.000000
# 2 -0.000239 0.023769 -0.003512 0.000000 0.000000 0.000000
# 3 -0.003342 -0.003512 0.009224 0.000000 0.000000 0.000000
# 4 0.000000 0.000000 0.000000 0.054352 0.000000 0.000000
# 5 0.000000 0.000000 0.000000 0.000000 0.026061 0.000000
# 6 0.000000 0.000000 0.000000 0.000000 0.000000 0.077266
#
#
# Mechanical properties :
#
#
# Convention : Reuss Voigt Hill
#
# Bulk Modulus (GPa) = 32.82695 44.24150 38.53422
# Shear Modulus (GPa) = 22.05871 27.78276 24.92073
#
# Velocity S-wave (km/s) = 3.49611 3.92358 3.71600
# Velocity P-wave (km/s) = 5.87252 6.71120 6.30582
#
# Compressibility (1/GPa) = 0.03046278
#
# Stress axis : x y z
#
# Youngs Moduli (GPa) = 85.79551 42.07124 108.41406
#
# Poissons Ratio (x) = 0.01008 0.36228
# Poissons Ratio (y) = 0.02055 0.38073
# Poissons Ratio (z) = 0.28670 0.14775
#
# Static dielectric constant tensor:
#      x y z
#    x 3.638180 0.000000 0.000000 
#    y 0.000000 3.097580 0.000000 
#    z 0.000000 0.000000 3.850210 
# 
# 
# High freq. dielectric constant tensor:
#      x y z
#    x 1.726400 0.000000 0.000000 
#    y 0.000000 1.649150 0.000000 
#    z 0.000000 0.000000 1.707340 
# 
# From -- ./inp_files/3051.got.cif
#   From: 2010.06.25/outbox.cif.g09.slc.cpg/sg48_2_cif.got.tgz:3051.got - 2010.06.26 18:06:46.
