data_PCOD8201449
_publ_section_title
;
Structure prediction by ZEFSAII (Michael W. Deem and Ramdas Pophale) SiO2 
 PCOD8201449
Probable space group: P N N N
;
_chemical_formula_sum "Si O2"
_cell_formula_units_Z 64
_cell_length_a 11.664453
_cell_length_b 15.269726
_cell_length_c 18.384873
_cell_angle_alpha 90.000000
_cell_angle_beta 90.000000
_cell_angle_gamma 90.000000
_cell_volume 3274.584908
_symmetry_space_group_name_H-M "P N N N"
_symmetry_group_IT_number 48
_space_group.IT_coordinate_system_code '2'
_symmetry_cell_setting 'orthorhombic'
loop_
_space_group_symop_operation_xyz
x,y,z
1/2-x,1/2-y,z
x,1/2-y,1/2-z
1/2-x,y,1/2-z
-x,-y,-z
1/2+x,1/2+y,-z
-x,1/2+y,1/2+z
1/2+x,-y,1/2+z
loop_
_atom_site_type_symbol
_atom_site_label
_atom_site_fract_x
_atom_site_fract_y
_atom_site_fract_z
Si Si1 0.620589 0.748831 0.083602
Si Si2 0.625409 0.828350 0.787759
Si Si3 0.889812 0.409143 0.450569
Si Si4 0.494926 0.921330 0.395814
Si Si5 0.537275 0.747377 0.571219
Si Si6 0.125135 0.587918 0.957019
Si Si7 0.992719 0.429451 0.896359
Si Si8 0.114555 0.518588 0.246968
O O1 0.750000 0.750000 0.111635
O O2 0.557699 0.669197 0.124754
O O3 0.563619 0.841051 0.099310
O O4 0.616482 0.730584 0.997485
O O5 0.552280 0.750000 0.750000
O O6 0.750000 0.831111 0.750000
O O7 0.625108 0.797282 0.871559
O O8 0.567817 0.921632 0.773933
O O9 0.908159 0.405186 0.537564
O O10 0.756246 0.392012 0.438046
O O11 0.914321 0.505112 0.419117
O O12 0.970877 0.338180 0.408619
O O13 0.428284 0.951698 0.324832
O O14 0.438604 0.678417 0.555312
O O15 0.079117 0.511428 0.904021
O O16 0.104778 0.560614 0.041314
O O17 0.931909 0.422024 0.818213
O O18 0.250000 0.522453 0.250000
#
# Coordination Sequence:
#
# PCOD8201449 Si02
#       8
#     8   8   8   8   8   8   8   8
#     4  10  22  39  61  86 116 156 206 253 294 343
#     4  10  21  35  56  90 122 154 188 242 308 355
#     4  10  20  37  60  84 121 160 197 245 292 357
#     4  10  22  39  57  88 117 155 203 247 297 349
#     4  10  20  36  59  90 118 152 198 242 295 365
#     4  10  19  36  59  87 118 156 197 242 297 351
#     4  10  21  37  60  89 117 153 205 252 293 359
#     4  11  22  40  62  87 121 156 195 251 308 358
#
# _framework density 19.544461999999999
#
# number of rings (size 3 to 8) (size 9 to 14) (size 15 to 20)
#    0.000    1.875    1.250    2.625    1.750    0.500 
#    4.500    5.625    0.000    0.750    0.000    0.000 
#    0.000    0.000    0.000    0.000    0.000    0.000 
#
# Total GULP energy -793210.492223 kJ/mol
# GULP energy per Si atom -12393.913941 kJ/mol
# Density = 1.949998 g / cm^3
# Si number density = 19.544462 Si / 1000 Ang^3
#
#
#
# Elastic Constant Matrix: (Units=GPa)
#
#
# Indices 1 2 3 4 5 6 
#
# 1 90.7558 23.9882 31.1899 0.0000 0.0000 0.0000
# 2 23.9882 97.8397 13.6336 0.0000 0.0000 0.0000
# 3 31.1899 13.6336 98.3874 0.0000 0.0000 0.0000
# 4 0.0000 0.0000 0.0000 29.6721 0.0000 0.0000
# 5 0.0000 0.0000 0.0000 0.0000 18.0294 0.0000
# 6 0.0000 0.0000 0.0000 0.0000 0.0000 18.4120
#
#
#
# Elastic Compliance Matrix: (Units=1/GPa)
#
#
# Indices 1 2 3 4 5 6 
#
# 1 0.013014 -0.002667 -0.003756 0.000000 0.000000 0.000000
# 2 -0.002667 0.010969 -0.000674 0.000000 0.000000 0.000000
# 3 -0.003756 -0.000674 0.011448 0.000000 0.000000 0.000000
# 4 0.000000 0.000000 0.000000 0.033702 0.000000 0.000000
# 5 0.000000 0.000000 0.000000 0.000000 0.055465 0.000000
# 6 0.000000 0.000000 0.000000 0.000000 0.000000 0.054312
#
#
# Mechanical properties :
#
#
# Convention : Reuss Voigt Hill
#
# Bulk Modulus (GPa) = 47.09091 47.17847 47.13469
# Shear Modulus (GPa) = 24.97693 27.76744 26.37218
#
# Velocity S-wave (km/s) = 3.57873 3.77335 3.67733
# Velocity P-wave (km/s) = 6.42051 6.57082 6.49610
#
# Compressibility (1/GPa) = 0.02123552
#
# Stress axis : x y z
#
# Youngs Moduli (GPa) = 76.83738 91.16788 87.35096
#
# Poissons Ratio (x) = 0.24319 0.32810
# Poissons Ratio (y) = 0.20496 0.05890
# Poissons Ratio (z) = 0.28861 0.06148
#
# Static dielectric constant tensor:
#      x y z
#    x 3.299170 0.000000 0.000000 
#    y 0.000000 4.007820 0.000000 
#    z 0.000000 0.000000 3.569430 
# 
# 
# High freq. dielectric constant tensor:
#      x y z
#    x 1.745120 0.000000 0.000000 
#    y 0.000000 1.782980 0.000000 
#    z 0.000000 0.000000 1.749200 
# 
# From -- ./inp_files/21574.got.cif
#   From: 2010.06.25/outbox.cif.g09.slc.cpg/sg48_11_cif.got.tgz:21574.got - 2010.06.26 18:06:46.
