data_PCOD8201303
_publ_section_title
;
Structure prediction by ZEFSAII (Michael W. Deem and Ramdas Pophale) SiO2 
 PCOD8201303
Probable space group: P N N N
;
_chemical_formula_sum "Si O2"
_cell_formula_units_Z 64
_cell_length_a 24.163618
_cell_length_b 5.038104
_cell_length_c 31.349864
_cell_angle_alpha 90.000000
_cell_angle_beta 90.000000
_cell_angle_gamma 90.000000
_cell_volume 3816.495466
_symmetry_space_group_name_H-M "P N N N"
_symmetry_group_IT_number 48
_space_group.IT_coordinate_system_code '2'
_symmetry_cell_setting 'orthorhombic'
loop_
_space_group_symop_operation_xyz
x,y,z
1/2-x,1/2-y,z
x,1/2-y,1/2-z
1/2-x,y,1/2-z
-x,-y,-z
1/2+x,1/2+y,-z
-x,1/2+y,1/2+z
1/2+x,-y,1/2+z
loop_
_atom_site_type_symbol
_atom_site_label
_atom_site_fract_x
_atom_site_fract_y
_atom_site_fract_z
Si Si1 0.021537 0.796353 0.422722
Si Si2 0.081058 0.739463 0.699926
Si Si3 0.026159 0.677050 0.537535
Si Si4 0.315174 0.282108 0.503875
Si Si5 0.689829 0.185892 0.349701
Si Si6 0.655557 0.808439 0.101699
Si Si7 0.876546 0.217623 0.978979
Si Si8 0.046010 0.258846 0.848831
O O1 0.084484 0.738145 0.436805
O O2 0.983024 0.526515 0.423871
O O3 0.012139 0.848237 0.372101
O O4 0.002212 0.038953 0.453159
O O5 0.073228 0.750000 0.750000
O O6 0.145456 0.688798 0.688551
O O7 0.043227 0.519400 0.676360
O O8 0.061335 0.026277 0.686001
O O9 0.088910 0.735284 0.523523
O O10 0.000000 0.500000 0.500000
O O11 0.250000 0.250000 0.503071
O O12 0.337196 0.265839 0.551764
O O13 0.331022 0.553520 0.480399
O O14 0.344361 0.057176 0.475701
O O15 0.750000 0.250000 0.329997
O O16 0.673926 0.395050 0.386431
O O17 0.692954 0.899741 0.372107
O O18 0.591729 0.761659 0.113514
#
# Coordination Sequence:
#
# PCOD8201303 Si02
#       8
#     8   8   8   8   8   8   8   8
#     4  11  20  33  50  72  95 119 157 200 243 291
#     4  10  21  35  50  70  95 119 149 189 238 300
#     4  10  18  30  48  71  96 121 149 196 251 285
#     4  12  23  34  47  65  93 131 169 201 240 278
#     4  10  19  32  49  66  86 118 159 202 242 274
#     4  10  20  33  46  65  90 118 156 202 238 277
#     4  11  21  33  47  66  92 123 159 200 239 276
#     4  10  20  34  53  71  90 119 153 190 241 291
#
# _framework density 16.769311999999999
#
# number of rings (size 3 to 8) (size 9 to 14) (size 15 to 20)
#    0.000    1.500    0.000    8.625    0.000    2.250 
#    0.000    0.000    0.000    4.500    0.000    0.000 
#    0.000    0.000    0.000    0.000    0.000   43.750 
#
# Total GULP energy -793207.141304 kJ/mol
# GULP energy per Si atom -12393.861583 kJ/mol
# Density = 1.673114 g / cm^3
# Si number density = 16.769312 Si / 1000 Ang^3
#
#
#
# Elastic Constant Matrix: (Units=GPa)
#
#
# Indices 1 2 3 4 5 6 
#
# 1 63.4501 29.7440 45.3878 0.0000 0.0000 0.0000
# 2 29.7440 64.8630 -4.1466 0.0000 0.0000 0.0000
# 3 45.3878 -4.1466 63.8851 0.0000 0.0000 0.0000
# 4 0.0000 0.0000 0.0000 13.2280 0.0000 0.0000
# 5 0.0000 0.0000 0.0000 0.0000 9.3234 0.0000
# 6 0.0000 0.0000 0.0000 0.0000 0.0000 19.6295
#
#
#
# Elastic Compliance Matrix: (Units=1/GPa)
#
#
# Indices 1 2 3 4 5 6 
#
# 1 0.068214 -0.034522 -0.050704 0.000000 0.000000 0.000000
# 2 -0.034522 0.032953 0.026665 0.000000 0.000000 0.000000
# 3 -0.050704 0.026665 0.053407 0.000000 0.000000 0.000000
# 4 0.000000 0.000000 0.000000 0.075597 0.000000 0.000000
# 5 0.000000 0.000000 0.000000 0.000000 0.107257 0.000000
# 6 0.000000 0.000000 0.000000 0.000000 0.000000 0.050944
#
#
# Mechanical properties :
#
#
# Convention : Reuss Voigt Hill
#
# Bulk Modulus (GPa) = 26.70071 37.12985 31.91528
# Shear Modulus (GPa) = 9.65295 16.51704 13.08499
#
# Velocity S-wave (km/s) = 2.40184 3.14181 2.79640
# Velocity P-wave (km/s) = 4.86299 5.94566 5.43137
#
# Compressibility (1/GPa) = 0.03745219
#
# Stress axis : x y z
#
# Youngs Moduli (GPa) = 14.65980 30.34670 18.72412
#
# Poissons Ratio (x) = 1.04763 0.94939
# Poissons Ratio (y) = 0.50609 -0.49929
# Poissons Ratio (z) = 0.74331 -0.80921
#
# Static dielectric constant tensor:
#      x y z
#    x 3.052450 0.000000 0.000000 
#    y 0.000000 3.858560 0.000000 
#    z 0.000000 0.000000 2.957700 
# 
# 
# High freq. dielectric constant tensor:
#      x y z
#    x 1.617500 0.000000 0.000000 
#    y 0.000000 1.678390 0.000000 
#    z 0.000000 0.000000 1.605280 
# 
# From -- ./inp_files/38117.got.cif
#   From: 2010.06.25/outbox.cif.g09.slc.cpg/sg48_20_cif.got.tgz:38117.got - 2010.06.26 18:06:46.
