data_PCOD8201435
_publ_section_title
;
Structure prediction by ZEFSAII (Michael W. Deem and Ramdas Pophale) SiO2 
 PCOD8201435
Probable space group: P N N N
;
_chemical_formula_sum "Si O2"
_cell_formula_units_Z 58
_cell_length_a 14.241947
_cell_length_b 8.021394
_cell_length_c 25.876908
_cell_angle_alpha 90.000000
_cell_angle_beta 90.000000
_cell_angle_gamma 90.000000
_cell_volume 2956.184910
_symmetry_space_group_name_H-M "P N N N"
_symmetry_group_IT_number 48
_space_group.IT_coordinate_system_code '2'
_symmetry_cell_setting 'orthorhombic'
loop_
_space_group_symop_operation_xyz
x,y,z
1/2-x,1/2-y,z
x,1/2-y,1/2-z
1/2-x,y,1/2-z
-x,-y,-z
1/2+x,1/2+y,-z
-x,1/2+y,1/2+z
1/2+x,-y,1/2+z
loop_
_atom_site_type_symbol
_atom_site_label
_atom_site_fract_x
_atom_site_fract_y
_atom_site_fract_z
Si Si1 0.354041 0.326268 0.900739
Si Si2 0.264104 0.935158 0.528183
Si Si3 0.482297 0.208281 0.692167
Si Si4 0.565371 0.965651 0.860922
Si Si5 0.760087 0.561300 0.582160
Si Si6 0.558434 0.959726 0.050074
Si Si7 0.750000 0.750000 0.750000
Si Si8 0.390776 0.392903 0.174739
O O1 0.250000 0.250000 0.898684
O O2 0.345210 0.496448 0.933640
O O3 0.390777 0.338451 0.841964
O O4 0.439061 0.231479 0.930980
O O5 0.250000 0.750000 0.545531
O O6 0.287649 0.950369 0.467349
O O7 0.166460 0.021287 0.538409
O O8 0.447990 0.250000 0.750000
O O9 0.541488 0.369508 0.672489
O O10 0.540813 0.036971 0.693729
O O11 0.665175 0.999130 0.889241
O O12 0.564945 0.794739 0.827670
O O13 0.484522 0.931698 0.903512
O O14 0.750000 0.750000 0.562025
O O15 0.848632 0.550395 0.620038
O O16 0.500000 0.000000 0.000000
O O17 0.692285 0.620343 0.784269
#
# Coordination Sequence:
#
# PCOD8201435 Si02
#       8
#     8   8   8   8   8   8   2   8
#     4   9  22  43  62  88 123 159 211 260 325 383
#     4  11  23  35  59  93 126 164 205 257 317 385
#     4  11  25  42  65  92 118 164 215 272 314 371
#     4  10  21  40  59  89 124 163 212 254 305 372
#     4  10  20  38  56  84 127 172 204 245 308 367
#     4  10  19  35  61  84 121 166 200 248 309 373
#     4  12  20  44  58  92 124 180 200 264 320 360
#     4  11  24  38  62  86 128 166 211 252 311 376
#
# _framework density 19.619883000000002
#
# number of rings (size 3 to 8) (size 9 to 14) (size 15 to 20)
#    0.000    1.655    3.448    2.069    5.793    0.276 
#    0.000    1.379    0.000    0.000    0.000    0.000 
#    0.000    0.000    0.000    0.000    0.000    0.000 
#
# Total GULP energy -718560.922832 kJ/mol
# GULP energy per Si atom -12388.981428 kJ/mol
# Density = 1.957523 g / cm^3
# Si number density = 19.619883 Si / 1000 Ang^3
#
#
#
# Elastic Constant Matrix: (Units=GPa)
#
#
# Indices 1 2 3 4 5 6 
#
# 1 67.5239 31.3832 44.2802 0.0000 0.0000 0.0000
# 2 31.3832 109.9691 59.9389 0.0000 0.0000 0.0000
# 3 44.2802 59.9389 136.5926 0.0000 0.0000 0.0000
# 4 0.0000 0.0000 0.0000 26.8138 0.0000 0.0000
# 5 0.0000 0.0000 0.0000 0.0000 708.0543 0.0000
# 6 0.0000 0.0000 0.0000 0.0000 0.0000 23.7908
#
#
#
# Elastic Compliance Matrix: (Units=1/GPa)
#
#
# Indices 1 2 3 4 5 6 
#
# 1 0.019432 -0.002776 -0.005081 0.000000 0.000000 0.000000
# 2 -0.002776 0.012349 -0.004519 0.000000 0.000000 0.000000
# 3 -0.005081 -0.004519 0.010951 0.000000 0.000000 0.000000
# 4 0.000000 0.000000 0.000000 0.037294 0.000000 0.000000
# 5 0.000000 0.000000 0.000000 0.000000 0.001412 0.000000
# 6 0.000000 0.000000 0.000000 0.000000 0.000000 0.042033
#
#
# Mechanical properties :
#
#
# Convention : Reuss Voigt Hill
#
# Bulk Modulus (GPa) = 55.61856 65.03224 60.32540
# Shear Modulus (GPa) = 32.42186 163.63065 98.02626
#
# Velocity S-wave (km/s) = 4.06951 9.14229 7.07610
# Velocity P-wave (km/s) = 7.10569 12.02747 9.87803
#
# Compressibility (1/GPa) = 0.01797961
#
# Stress axis : x y z
#
# Youngs Moduli (GPa) = 51.46184 80.98016 91.31413
#
# Poissons Ratio (x) = 0.22480 0.46399
# Poissons Ratio (y) = 0.14286 0.41264
# Poissons Ratio (z) = 0.26149 0.36594
#
# Static dielectric constant tensor:
#      x y z
#    x 3.338250 0.000000 0.000000 
#    y 0.000000 3.329030 0.000000 
#    z 0.000000 0.000000 3.624050 
# 
# 
# High freq. dielectric constant tensor:
#      x y z
#    x 1.753430 0.000000 0.000000 
#    y 0.000000 1.760520 0.000000 
#    z 0.000000 0.000000 1.774780 
# 
# From -- ./inp_files/36553.got.cif
#   From: 2010.06.25/outbox.cif.g09.slc.cpg/sg48_19_cif.got.tgz:36553.got - 2010.06.26 18:06:46.
