data_PCOD8201710
_publ_section_title
;
Structure prediction by ZEFSAII (Michael W. Deem and Ramdas Pophale) SiO2 
 PCOD8201710
Probable space group: P N N N
;
_chemical_formula_sum "Si O2"
_cell_formula_units_Z 48
_cell_length_a 13.273347
_cell_length_b 12.060902
_cell_length_c 14.683536
_cell_angle_alpha 90.000000
_cell_angle_beta 90.000000
_cell_angle_gamma 90.000000
_cell_volume 2350.665802
_symmetry_space_group_name_H-M "P N N N"
_symmetry_group_IT_number 48
_space_group.IT_coordinate_system_code '2'
_symmetry_cell_setting 'orthorhombic'
loop_
_space_group_symop_operation_xyz
x,y,z
1/2-x,1/2-y,z
x,1/2-y,1/2-z
1/2-x,y,1/2-z
-x,-y,-z
1/2+x,1/2+y,-z
-x,1/2+y,1/2+z
1/2+x,-y,1/2+z
loop_
_atom_site_type_symbol
_atom_site_label
_atom_site_fract_x
_atom_site_fract_y
_atom_site_fract_z
Si Si1 0.989845 0.119116 0.454886
Si Si2 0.357681 0.372917 0.782079
Si Si3 0.550224 0.484169 0.703566
Si Si4 0.621252 0.020255 0.601828
Si Si5 0.446038 0.159004 0.533321
Si Si6 0.686639 0.141391 0.931645
O O1 0.871386 0.153694 0.470498
O O2 0.058328 0.212458 0.503489
O O3 0.000000 0.000000 0.500000
O O4 0.028727 0.099641 0.351523
O O5 0.378512 0.250000 0.750000
O O6 0.250000 0.418727 0.750000
O O7 0.440708 0.450760 0.738578
O O8 0.361365 0.370677 0.892096
O O9 0.622218 0.504040 0.790125
O O10 0.600579 0.386207 0.643367
O O11 0.555564 0.129654 0.576328
O O12 0.735170 0.038737 0.567165
O O13 0.573032 0.912810 0.556131
O O14 0.750000 0.250000 0.904526
#
# Coordination Sequence:
#
# PCOD8201710 Si02
#       6
#     8   8   8   8   8   8
#     4  10  21  39  61  91 128 165 204 269 326 376
#     4  10  21  37  60  86 120 164 213 255 311 374
#     4  10  23  38  60  94 130 162 210 268 325 383
#     4  10  22  38  62  93 124 170 210 259 326 392
#     4  10  21  41  61  87 129 167 209 260 320 389
#     4  11  21  38  66  96 125 163 222 277 328 377
#
# _framework density 20.419747000000001
#
# number of rings (size 3 to 8) (size 9 to 14) (size 15 to 20)
#    0.000    1.833    1.667    2.500    4.667    1.333 
#    3.000    0.000    0.000    4.000    0.000    0.000 
#    0.000    0.000    0.000    0.000    0.000    0.000 
#
# Total GULP energy -594929.479234 kJ/mol
# GULP energy per Si atom -12394.364151 kJ/mol
# Density = 2.037327 g / cm^3
# Si number density = 20.419747 Si / 1000 Ang^3
#
#
#
# Elastic Constant Matrix: (Units=GPa)
#
#
# Indices 1 2 3 4 5 6 
#
# 1 99.2876 26.5768 35.7193 0.0000 0.0000 0.0000
# 2 26.5768 94.3155 44.1480 0.0000 0.0000 0.0000
# 3 35.7193 44.1480 107.3022 0.0000 0.0000 0.0000
# 4 0.0000 0.0000 0.0000 29.7150 0.0000 0.0000
# 5 0.0000 0.0000 0.0000 0.0000 24.5754 0.0000
# 6 0.0000 0.0000 0.0000 0.0000 0.0000 21.7333
#
#
#
# Elastic Compliance Matrix: (Units=1/GPa)
#
#
# Indices 1 2 3 4 5 6 
#
# 1 0.011690 -0.001824 -0.003141 0.000000 0.000000 0.000000
# 2 -0.001824 0.013416 -0.004913 0.000000 0.000000 0.000000
# 3 -0.003141 -0.004913 0.012386 0.000000 0.000000 0.000000
# 4 0.000000 0.000000 0.000000 0.033653 0.000000 0.000000
# 5 0.000000 0.000000 0.000000 0.000000 0.040691 0.000000
# 6 0.000000 0.000000 0.000000 0.000000 0.000000 0.046012
#
#
# Mechanical properties :
#
#
# Convention : Reuss Voigt Hill
#
# Bulk Modulus (GPa) = 56.37833 57.08816 56.73325
# Shear Modulus (GPa) = 27.24546 28.16883 27.70714
#
# Velocity S-wave (km/s) = 3.65673 3.71818 3.68758
# Velocity P-wave (km/s) = 6.74526 6.81551 6.78048
#
# Compressibility (1/GPa) = 0.01773731
#
# Stress axis : x y z
#
# Youngs Moduli (GPa) = 85.54369 74.53646 80.73381
#
# Poissons Ratio (x) = 0.13594 0.25359
# Poissons Ratio (y) = 0.15601 0.39663
# Poissons Ratio (z) = 0.26870 0.36618
#
# Static dielectric constant tensor:
#      x y z
#    x 3.897980 0.000000 0.000000 
#    y 0.000000 3.584540 0.000000 
#    z 0.000000 0.000000 4.052250 
# 
# 
# High freq. dielectric constant tensor:
#      x y z
#    x 1.800860 0.000000 0.000000 
#    y 0.000000 1.779750 0.000000 
#    z 0.000000 0.000000 1.793040 
# 
# From -- ./inp_files/27256.got.cif
#   From: 2010.06.25/outbox.cif.g09.slc.cpg/sg48_14_cif.got.tgz:27256.got - 2010.06.26 18:06:46.
