data_PCOD8201844
_publ_section_title
;
Structure prediction by ZEFSAII (Michael W. Deem and Ramdas Pophale) SiO2 
 PCOD8201844
Probable space group: P N N N
;
_chemical_formula_sum "Si O2"
_cell_formula_units_Z 64
_cell_length_a 18.043774
_cell_length_b 14.149950
_cell_length_c 11.866436
_cell_angle_alpha 90.000000
_cell_angle_beta 90.000000
_cell_angle_gamma 90.000000
_cell_volume 3029.720639
_symmetry_space_group_name_H-M "P N N N"
_symmetry_group_IT_number 48
_space_group.IT_coordinate_system_code '2'
_symmetry_cell_setting 'orthorhombic'
loop_
_space_group_symop_operation_xyz
x,y,z
1/2-x,1/2-y,z
x,1/2-y,1/2-z
1/2-x,y,1/2-z
-x,-y,-z
1/2+x,1/2+y,-z
-x,1/2+y,1/2+z
1/2+x,-y,1/2+z
loop_
_atom_site_type_symbol
_atom_site_label
_atom_site_fract_x
_atom_site_fract_y
_atom_site_fract_z
Si Si1 0.199995 0.539143 0.526012
Si Si2 0.438413 0.944409 0.154729
Si Si3 0.543433 0.713360 0.869360
Si Si4 0.734977 0.644947 0.381706
Si Si5 0.311001 0.677424 0.427020
Si Si6 0.630633 0.203561 0.364803
Si Si7 0.580208 0.889460 0.013014
Si Si8 0.061346 0.491593 0.403006
O O1 0.210139 0.430967 0.562290
O O2 0.273303 0.581208 0.469843
O O3 0.173467 0.603549 0.631079
O O4 0.134462 0.549079 0.435074
O O5 0.376522 0.859819 0.155558
O O6 0.512057 0.913609 0.092147
O O7 0.463815 0.968226 0.281760
O O8 0.408001 0.036908 0.089441
O O9 0.571768 0.750000 0.750000
O O10 0.456811 0.688041 0.865538
O O11 0.586144 0.616932 0.893796
O O12 0.564016 0.786337 0.965488
O O13 0.750000 0.750000 0.431318
O O14 0.750000 0.644420 0.250000
O O15 0.651643 0.613285 0.407662
O O16 0.250000 0.750000 0.371016
O O17 0.347355 0.729825 0.532205
O O18 0.657971 0.250000 0.250000
O O19 0.000000 0.500000 0.500000
#
# Coordination Sequence:
#
# PCOD8201844 Si02
#       8
#     8   8   8   8   8   8   8   8
#     4  11  24  42  66  95 143 179 230 291 342 416
#     4  11  24  44  72 105 135 184 234 289 354 425
#     4  11  21  42  70 101 138 176 237 296 340 423
#     4  11  26  45  67 100 142 186 232 289 353 416
#     4  10  22  43  66 101 137 182 234 286 354 425
#     4  10  22  38  68 106 137 180 231 290 353 421
#     4  11  23  44  75 100 136 182 236 291 351 417
#     4  12  26  44  67 103 139 182 236 285 357 419
#
# _framework density 21.12406
#
# number of rings (size 3 to 8) (size 9 to 14) (size 15 to 20)
#    0.000    1.125    5.000    0.750    3.500    2.250 
#    0.000    6.875    0.000    0.000    0.000    0.000 
#    0.000    0.000    0.000    0.000    0.000    0.000 
#
# Total GULP energy -793502.984255 kJ/mol
# GULP energy per Si atom -12398.484129 kJ/mol
# Density = 2.107598 g / cm^3
# Si number density = 21.124060 Si / 1000 Ang^3
#
#
#
# Elastic Constant Matrix: (Units=GPa)
#
#
# Indices 1 2 3 4 5 6 
#
# 1 75.5713 29.7186 34.2932 0.0000 0.0000 0.0000
# 2 29.7186 126.0107 51.2990 0.0000 0.0000 0.0000
# 3 34.2932 51.2990 118.7163 0.0000 0.0000 0.0000
# 4 0.0000 0.0000 0.0000 35.3583 0.0000 0.0000
# 5 0.0000 0.0000 0.0000 0.0000 23.2216 0.0000
# 6 0.0000 0.0000 0.0000 0.0000 0.0000 34.8077
#
#
#
# Elastic Compliance Matrix: (Units=1/GPa)
#
#
# Indices 1 2 3 4 5 6 
#
# 1 0.015741 -0.002259 -0.003571 0.000000 0.000000 0.000000
# 2 -0.002259 0.009954 -0.003649 0.000000 0.000000 0.000000
# 3 -0.003571 -0.003649 0.011032 0.000000 0.000000 0.000000
# 4 0.000000 0.000000 0.000000 0.028282 0.000000 0.000000
# 5 0.000000 0.000000 0.000000 0.000000 0.043063 0.000000
# 6 0.000000 0.000000 0.000000 0.000000 0.000000 0.028729
#
#
# Mechanical properties :
#
#
# Convention : Reuss Voigt Hill
#
# Bulk Modulus (GPa) = 56.27524 61.21331 58.74428
# Shear Modulus (GPa) = 30.92490 32.34335 31.63413
#
# Velocity S-wave (km/s) = 3.83033 3.91719 3.87400
# Velocity P-wave (km/s) = 6.80148 7.03563 6.91954
#
# Compressibility (1/GPa) = 0.01776980
#
# Stress axis : x y z
#
# Youngs Moduli (GPa) = 63.52718 100.46275 90.64769
#
# Poissons Ratio (x) = 0.22691 0.32372
# Poissons Ratio (y) = 0.14349 0.33075
# Poissons Ratio (z) = 0.22686 0.36657
#
# Static dielectric constant tensor:
#      x y z
#    x 3.823570 0.000000 0.000000 
#    y 0.000000 4.496270 0.000000 
#    z 0.000000 0.000000 3.907320 
# 
# 
# High freq. dielectric constant tensor:
#      x y z
#    x 1.830240 0.000000 0.000000 
#    y 0.000000 1.845310 0.000000 
#    z 0.000000 0.000000 1.817710 
# 
# From -- ./inp_files/22338.got.cif
#   From: 2010.06.25/outbox.cif.g09.slc.cpg/sg48_12_cif.got.tgz:22338.got - 2010.06.26 18:06:46.
