data_PCOD8201529
_publ_section_title
;
Structure prediction by ZEFSAII (Michael W. Deem and Ramdas Pophale) SiO2 
 PCOD8201529
Probable space group: P N N N
;
_chemical_formula_sum "Si O2"
_cell_formula_units_Z 34
_cell_length_a 8.093919
_cell_length_b 15.889101
_cell_length_c 13.769698
_cell_angle_alpha 90.000000
_cell_angle_beta 90.000000
_cell_angle_gamma 90.000000
_cell_volume 1770.853340
_symmetry_space_group_name_H-M "P N N N"
_symmetry_group_IT_number 48
_space_group.IT_coordinate_system_code '2'
_symmetry_cell_setting 'orthorhombic'
loop_
_space_group_symop_operation_xyz
x,y,z
1/2-x,1/2-y,z
x,1/2-y,1/2-z
1/2-x,y,1/2-z
-x,-y,-z
1/2+x,1/2+y,-z
-x,1/2+y,1/2+z
1/2+x,-y,1/2+z
loop_
_atom_site_type_symbol
_atom_site_label
_atom_site_fract_x
_atom_site_fract_y
_atom_site_fract_z
Si Si1 0.089831 0.705994 0.983299
Si Si2 0.250000 0.250000 0.750000
Si Si3 0.877223 0.564204 0.951658
Si Si4 0.401407 0.149148 0.580126
Si Si5 0.260033 0.911767 0.360463
O O1 0.250000 0.750000 0.933076
O O2 0.148502 0.654326 0.078963
O O3 0.954311 0.775085 0.009999
O O4 0.991228 0.641712 0.911984
O O5 0.357090 0.187990 0.683913
O O6 0.792711 0.510396 0.866263
O O7 0.747010 0.597503 0.031457
O O8 0.000000 0.500000 0.000000
O O9 0.554685 0.087427 0.598100
O O10 0.250000 0.881479 0.250000
#
# Coordination Sequence:
#
# PCOD8201529 Si02
#       5
#     8   2   8   8   8
#     4   9  18  34  54  77 104 138 178 222 269 322
#     4  12  20  28  58  84 110 128 184 220 268 320
#     4  10  20  35  49  77 112 145 177 214 274 332
#     4  11  20  33  54  81 109 143 173 223 275 321
#     4  10  21  34  54  81 113 141 177 222 271 330
#
# _framework density 19.199784000000001
#
# number of rings (size 3 to 8) (size 9 to 14) (size 15 to 20)
#    0.000    1.882    2.353    2.118    3.294    3.294 
#    0.000    0.000    0.000    2.824    0.000    8.235 
#    0.000    0.000    0.000    0.000    0.000    0.000 
#
# Total GULP energy -421230.460377 kJ/mol
# GULP energy per Si atom -12389.131188 kJ/mol
# Density = 1.915608 g / cm^3
# Si number density = 19.199784 Si / 1000 Ang^3
#
#
#
# Elastic Constant Matrix: (Units=GPa)
#
#
# Indices 1 2 3 4 5 6 
#
# 1 112.9226 62.5458 8.4483 0.0000 0.0000 0.0000
# 2 62.5458 111.6487 12.4056 0.0000 0.0000 0.0000
# 3 8.4483 12.4056 19.5599 0.0000 0.0000 0.0000
# 4 0.0000 0.0000 0.0000 23.9740 0.0000 0.0000
# 5 0.0000 0.0000 0.0000 0.0000 6.8051 0.0000
# 6 0.0000 0.0000 0.0000 0.0000 0.0000 39.4854
#
#
#
# Elastic Compliance Matrix: (Units=1/GPa)
#
#
# Indices 1 2 3 4 5 6 
#
# 1 0.012860 -0.007086 -0.001060 0.000000 0.000000 0.000000
# 2 -0.007086 0.013541 -0.005527 0.000000 0.000000 0.000000
# 3 -0.001060 -0.005527 0.055088 0.000000 0.000000 0.000000
# 4 0.000000 0.000000 0.000000 0.041712 0.000000 0.000000
# 5 0.000000 0.000000 0.000000 0.000000 0.146948 0.000000
# 6 0.000000 0.000000 0.000000 0.000000 0.000000 0.025326
#
#
# Mechanical properties :
#
#
# Convention : Reuss Voigt Hill
#
# Bulk Modulus (GPa) = 18.47005 45.65895 32.06450
# Shear Modulus (GPa) = 14.66840 24.76835 19.71837
#
# Velocity S-wave (km/s) = 2.76703 3.59560 3.20818
# Velocity P-wave (km/s) = 4.45527 6.40862 5.51905
#
# Compressibility (1/GPa) = 0.05414171
#
# Stress axis : x y z
#
# Youngs Moduli (GPa) = 77.76078 73.85187 18.15266
#
# Poissons Ratio (x) = 0.52334 0.01924
# Poissons Ratio (y) = 0.55104 0.10033
# Poissons Ratio (z) = 0.08243 0.40819
#
# Static dielectric constant tensor:
#      x y z
#    x 4.070400 0.000000 0.000000 
#    y 0.000000 4.176250 0.000000 
#    z 0.000000 0.000000 3.019760 
# 
# 
# High freq. dielectric constant tensor:
#      x y z
#    x 1.776630 0.000000 0.000000 
#    y 0.000000 1.764090 0.000000 
#    z 0.000000 0.000000 1.676350 
# 
# From -- ./inp_files/10570.got.cif
#   From: 2010.06.25/outbox.cif.g09.slc.cpg/sg48_6_cif.got.tgz:10570.got - 2010.06.26 18:06:46.
