data_PCOD8201144
_publ_section_title
;
Structure prediction by ZEFSAII (Michael W. Deem and Ramdas Pophale) SiO2 
 PCOD8201144
Probable space group: P M M M
;
_chemical_formula_sum "Si O2"
_cell_formula_units_Z 44
_cell_length_a 10.520355
_cell_length_b 9.467807
_cell_length_c 25.367011
_cell_angle_alpha 90.000000
_cell_angle_beta 90.000000
_cell_angle_gamma 90.000000
_cell_volume 2526.673285
_symmetry_space_group_name_H-M "P M M M"
_symmetry_group_IT_number 47
_symmetry_cell_setting 'orthorhombic'
loop_
_space_group_symop_operation_xyz
x,y,z
-x,-y,z
x,-y,-z
-x,y,-z
-x,-y,-z
x,y,-z
-x,y,z
x,-y,z
loop_
_atom_site_type_symbol
_atom_site_label
_atom_site_fract_x
_atom_site_fract_y
_atom_site_fract_z
Si Si1 0.000000 0.656645 0.437820
Si Si2 0.645960 0.154384 0.334996
Si Si3 0.141705 0.167496 0.940983
Si Si4 0.237786 0.163211 0.440973
Si Si5 0.353551 0.833822 0.140606
Si Si6 0.349737 0.656979 0.757103
O O1 0.877869 0.743360 0.419814
O O2 0.000000 0.500000 0.412302
O O3 0.000000 0.644326 0.500000
O O4 0.500000 0.144161 0.319739
O O5 0.654924 0.193704 0.397171
O O6 0.708246 0.269274 0.295659
O O7 0.709760 0.000000 0.325566
O O8 0.256119 0.222719 0.903987
O O9 0.000000 0.215982 0.921558
O O10 0.146289 0.000000 0.942060
O O11 0.165739 0.226284 0.000000
O O12 0.284365 0.207850 0.500000
O O13 0.195850 0.000000 0.442157
O O14 0.500000 0.800419 0.124074
O O15 0.312860 0.751662 0.193006
O O16 0.337026 0.000000 0.151329
O O17 0.500000 0.643734 0.752345
O O18 0.290130 0.500000 0.762347
#
# Coordination Sequence:
#
# PCOD8201144 Si02
#       6
#     4   8   8   8   8   8
#     4   9  17  29  45  63  83 111 147 183 218 259
#     4   9  17  29  46  68  93 119 147 181 222 272
#     4   8  14  25  42  66  96 126 152 180 221 273
#     4   9  17  29  46  67  90 116 146 182 225 273
#     4   9  16  26  44  69  92 115 150 195 232 263
#     4   9  17  29  45  64  87 117 151 185 224 268
#
# _framework density 17.414202
#
# number of rings (size 3 to 8) (size 9 to 14) (size 15 to 20)
#    0.000    3.182    0.000    1.364    0.000    4.727 
#    0.000    3.636    2.000    1.091    0.000    8.909 
#    0.000    0.000    0.000    0.000    0.000    0.000 
#
# Total GULP energy -545096.973916 kJ/mol
# GULP energy per Si atom -12388.567589 kJ/mol
# Density = 1.737457 g / cm^3
# Si number density = 17.414202 Si / 1000 Ang^3
#
#
#
# Elastic Constant Matrix: (Units=GPa)
#
#
# Indices 1 2 3 4 5 6 
#
# 1 56.3194 26.4190 49.2583 0.0000 0.0000 0.0000
# 2 26.4190 70.8678 49.7249 0.0000 0.0000 0.0000
# 3 49.2583 49.7249 131.3890 0.0000 0.0000 0.0000
# 4 0.0000 0.0000 0.0000 8.6359 0.0000 0.0000
# 5 0.0000 0.0000 0.0000 0.0000 12.8541 0.0000
# 6 0.0000 0.0000 0.0000 0.0000 0.0000 9.5521
#
#
#
# Elastic Compliance Matrix: (Units=1/GPa)
#
#
# Indices 1 2 3 4 5 6 
#
# 1 0.027255 -0.004072 -0.008677 0.000000 0.000000 0.000000
# 2 -0.004072 0.019821 -0.005975 0.000000 0.000000 0.000000
# 3 -0.008677 -0.005975 0.013125 0.000000 0.000000 0.000000
# 4 0.000000 0.000000 0.000000 0.115796 0.000000 0.000000
# 5 0.000000 0.000000 0.000000 0.000000 0.077796 0.000000
# 6 0.000000 0.000000 0.000000 0.000000 0.000000 0.104689
#
#
# Mechanical properties :
#
#
# Convention : Reuss Voigt Hill
#
# Bulk Modulus (GPa) = 43.94901 56.59785 50.27343
# Shear Modulus (GPa) = 12.39111 15.08667 13.73889
#
# Velocity S-wave (km/s) = 2.67039 2.94656 2.81187
# Velocity P-wave (km/s) = 5.89917 6.64438 6.28284
#
# Compressibility (1/GPa) = 0.02275364
#
# Stress axis : x y z
#
# Youngs Moduli (GPa) = 36.69027 50.45131 76.18957
#
# Poissons Ratio (x) = 0.20545 0.66109
# Poissons Ratio (y) = 0.14941 0.45521
# Poissons Ratio (z) = 0.31836 0.30143
#
# Static dielectric constant tensor:
#      x y z
#    x 3.089250 0.000000 0.000000 
#    y 0.000000 3.360400 0.000000 
#    z 0.000000 0.000000 3.346360 
# 
# 
# High freq. dielectric constant tensor:
#      x y z
#    x 1.636920 0.000000 0.000000 
#    y 0.000000 1.655610 0.000000 
#    z 0.000000 0.000000 1.670930 
# 
# From -- ./inp_files/15274.got.cif
#   From: 2010.03.12/outbox.cif.g09.slc.cpg/sg47_8_cif.got.tgz:15274.got - 2010.04.14 03:12:58.
