data_PCOD8201192
_publ_section_title
;
Structure prediction by ZEFSAII (Michael W. Deem and Ramdas Pophale) SiO2 
 PCOD8201192
Probable space group: P M M M
;
_chemical_formula_sum "Si O2"
_cell_formula_units_Z 40
_cell_length_a 8.121596
_cell_length_b 24.744015
_cell_length_c 12.768806
_cell_angle_alpha 90.000000
_cell_angle_beta 90.000000
_cell_angle_gamma 90.000000
_cell_volume 2566.030659
_symmetry_space_group_name_H-M "P M M M"
_symmetry_group_IT_number 47
_symmetry_cell_setting 'orthorhombic'
loop_
_space_group_symop_operation_xyz
x,y,z
-x,-y,z
x,-y,-z
-x,y,-z
-x,-y,-z
x,y,-z
-x,y,z
x,-y,z
loop_
_atom_site_type_symbol
_atom_site_label
_atom_site_fract_x
_atom_site_fract_y
_atom_site_fract_z
Si Si1 0.314980 0.761109 0.624384
Si Si2 0.805437 0.646568 0.617488
Si Si3 0.192756 0.560263 0.779702
Si Si4 0.500000 0.061346 0.624798
Si Si5 0.684972 0.564071 0.000000
Si Si6 0.817173 0.126589 0.624660
O O1 0.309544 0.760102 0.500000
O O2 0.500000 0.768441 0.665768
O O3 0.242696 0.704625 0.666296
O O4 0.208931 0.811985 0.665161
O O5 0.732935 0.639057 0.500000
O O6 0.730187 0.599777 0.691758
O O7 0.000000 0.642483 0.614242
O O8 0.270959 0.500000 0.767624
O O9 0.000000 0.556369 0.762923
O O10 0.227490 0.585270 0.894633
O O11 0.500000 0.064491 0.500000
O O12 0.667643 0.089454 0.668423
O O13 0.500000 0.000000 0.665137
O O14 0.695863 0.500000 0.000000
O O15 0.500000 0.585745 0.000000
O O16 0.810644 0.124938 0.500000
O O17 0.000000 0.107083 0.662716
#
# Coordination Sequence:
#
# PCOD8201192 Si02
#       6
#     8   8   8   4   4   8
#     4   9  15  24  37  51  69  94 126 161 196 235
#     4   9  17  27  39  58  81 103 129 162 202 248
#     4   9  17  29  44  60  79 103 130 162 202 247
#     4   9  16  24  32  46  68  90 119 160 201 240
#     4   9  17  29  45  61  75  95 127 165 199 236
#     4   9  15  23  35  48  64  90 123 159 199 239
#
# _framework density 15.588278000000001
#
# number of rings (size 3 to 8) (size 9 to 14) (size 15 to 20)
#    0.000    3.000    1.000    0.900    0.000    5.200 
#    0.000    4.000    0.000    0.000    0.000    5.600 
#    0.000    0.000    0.000    0.000    0.000    0.000 
#
# Total GULP energy -495630.793657 kJ/mol
# GULP energy per Si atom -12390.769841 kJ/mol
# Density = 1.555280 g / cm^3
# Si number density = 15.588278 Si / 1000 Ang^3
#
#
#
# Elastic Constant Matrix: (Units=GPa)
#
#
# Indices 1 2 3 4 5 6 
#
# 1 78.4987 42.9800 16.8143 0.0000 0.0000 0.0000
# 2 42.9800 113.0623 37.5002 0.0000 0.0000 0.0000
# 3 16.8143 37.5002 43.2695 0.0000 0.0000 0.0000
# 4 0.0000 0.0000 0.0000 1.6251 0.0000 0.0000
# 5 0.0000 0.0000 0.0000 0.0000 6.0817 0.0000
# 6 0.0000 0.0000 0.0000 0.0000 0.0000 22.2453
#
#
#
# Elastic Compliance Matrix: (Units=1/GPa)
#
#
# Indices 1 2 3 4 5 6 
#
# 1 0.016143 -0.005692 -0.001340 0.000000 0.000000 0.000000
# 2 -0.005692 0.014420 -0.010285 0.000000 0.000000 0.000000
# 3 -0.001340 -0.010285 0.032545 0.000000 0.000000 0.000000
# 4 0.000000 0.000000 0.000000 0.615355 0.000000 0.000000
# 5 0.000000 0.000000 0.000000 0.000000 0.164427 0.000000
# 6 0.000000 0.000000 0.000000 0.000000 0.000000 0.044953
#
#
# Mechanical properties :
#
#
# Convention : Reuss Voigt Hill
#
# Bulk Modulus (GPa) = 35.12019 47.71327 41.41673
# Shear Modulus (GPa) = 5.36499 15.15950 10.26224
#
# Velocity S-wave (km/s) = 1.85719 3.12187 2.56858
# Velocity P-wave (km/s) = 5.21322 6.60830 5.95178
#
# Compressibility (1/GPa) = 0.02847365
#
# Stress axis : x y z
#
# Youngs Moduli (GPa) = 61.94775 69.34844 30.72624
#
# Poissons Ratio (x) = 0.39474 0.04116
# Poissons Ratio (y) = 0.35262 0.31603
# Poissons Ratio (z) = 0.08299 0.71327
#
# Static dielectric constant tensor:
#      x y z
#    x 3.077030 0.000000 0.000000 
#    y 0.000000 3.157900 0.000000 
#    z 0.000000 0.000000 2.626000 
# 
# 
# High freq. dielectric constant tensor:
#      x y z
#    x 1.606140 0.000000 0.000000 
#    y 0.000000 1.591350 0.000000 
#    z 0.000000 0.000000 1.521870 
# 
# From -- ./inp_files/10808.got.cif
#   From: 2010.03.12/outbox.cif.g09.slc.cpg/sg47_6_cif.got.tgz:10808.got - 2010.04.14 03:12:58.
