data_PCOD8201616
_publ_section_title
;
Structure prediction by ZEFSAII (Michael W. Deem and Ramdas Pophale) SiO2 
 PCOD8201616
Probable space group: P N N N
;
_chemical_formula_sum "Si O2"
_cell_formula_units_Z 40
_cell_length_a 16.522007
_cell_length_b 7.695032
_cell_length_c 15.337868
_cell_angle_alpha 90.000000
_cell_angle_beta 90.000000
_cell_angle_gamma 90.000000
_cell_volume 1950.016238
_symmetry_space_group_name_H-M "P N N N"
_symmetry_group_IT_number 48
_space_group.IT_coordinate_system_code '2'
_symmetry_cell_setting 'orthorhombic'
loop_
_space_group_symop_operation_xyz
x,y,z
1/2-x,1/2-y,z
x,1/2-y,1/2-z
1/2-x,y,1/2-z
-x,-y,-z
1/2+x,1/2+y,-z
-x,1/2+y,1/2+z
1/2+x,-y,1/2+z
loop_
_atom_site_type_symbol
_atom_site_label
_atom_site_fract_x
_atom_site_fract_y
_atom_site_fract_z
Si Si1 0.745875 0.944399 0.478286
Si Si2 0.376976 0.750000 0.250000
Si Si3 0.873379 0.865293 0.336987
Si Si4 0.501518 0.939690 0.746261
Si Si5 0.250000 0.750000 0.396667
Si Si6 0.067028 0.046422 0.930021
O O1 0.750000 0.750000 0.520206
O O2 0.792903 0.935770 0.385259
O O3 0.655358 0.013540 0.461503
O O4 0.780257 0.085347 0.546031
O O5 0.431322 0.582319 0.266147
O O6 0.325266 0.797375 0.335146
O O7 0.852798 0.750000 0.250000
O O8 0.925719 0.750454 0.405442
O O9 0.928301 0.031293 0.314579
O O10 0.541859 0.750000 0.750000
O O11 0.460404 0.941169 0.653021
O O12 0.000000 0.000000 0.000000
#
# Coordination Sequence:
#
# PCOD8201616 Si02
#       6
#     8   4   8   8   4   8
#     4  10  23  40  65  98 132 169 217 273 333 393
#     4  11  24  48  62  93 134 178 218 285 324 390
#     4   9  20  41  64  91 137 172 212 269 338 392
#     4  11  23  40  65  94 127 172 220 266 334 397
#     4  11  26  42  70  91 132 176 228 267 330 397
#     4  10  20  38  64  91 129 166 213 270 325 390
#
# _framework density 20.512650000000001
#
# number of rings (size 3 to 8) (size 9 to 14) (size 15 to 20)
#    0.000    1.800    3.000    1.200    2.800   14.000 
#    0.000    5.000    0.000    0.000    0.000    0.000 
#    0.000    0.000    0.000    0.000    0.000    0.000 
#
# Total GULP energy -495685.199981 kJ/mol
# GULP energy per Si atom -12392.130000 kJ/mol
# Density = 2.046596 g / cm^3
# Si number density = 20.512650 Si / 1000 Ang^3
#
#
#
# Elastic Constant Matrix: (Units=GPa)
#
#
# Indices 1 2 3 4 5 6 
#
# 1 129.4156 39.3119 55.3783 0.0000 0.0000 0.0000
# 2 39.3119 121.5117 38.2616 0.0000 0.0000 0.0000
# 3 55.3783 38.2616 105.1752 0.0000 0.0000 0.0000
# 4 0.0000 0.0000 0.0000 23.0211 0.0000 0.0000
# 5 0.0000 0.0000 0.0000 0.0000 39.5194 0.0000
# 6 0.0000 0.0000 0.0000 0.0000 0.0000 9.7769
#
#
#
# Elastic Compliance Matrix: (Units=1/GPa)
#
#
# Indices 1 2 3 4 5 6 
#
# 1 0.010326 -0.001839 -0.004768 0.000000 0.000000 0.000000
# 2 -0.001839 0.009622 -0.002532 0.000000 0.000000 0.000000
# 3 -0.004768 -0.002532 0.012939 0.000000 0.000000 0.000000
# 4 0.000000 0.000000 0.000000 0.043438 0.000000 0.000000
# 5 0.000000 0.000000 0.000000 0.000000 0.025304 0.000000
# 6 0.000000 0.000000 0.000000 0.000000 0.000000 0.102282
#
#
# Mechanical properties :
#
#
# Convention : Reuss Voigt Hill
#
# Bulk Modulus (GPa) = 68.44998 69.11180 68.78089
# Shear Modulus (GPa) = 22.02062 29.34018 25.68040
#
# Velocity S-wave (km/s) = 3.28001 3.78609 3.54210
# Velocity P-wave (km/s) = 6.91279 7.27173 7.09453
#
# Compressibility (1/GPa) = 0.01460921
#
# Stress axis : x y z
#
# Youngs Moduli (GPa) = 96.84289 103.92865 77.28306
#
# Poissons Ratio (x) = 0.19117 0.36847
# Poissons Ratio (y) = 0.17813 0.19567
# Poissons Ratio (z) = 0.46173 0.26313
#
# Static dielectric constant tensor:
#      x y z
#    x 3.664070 0.000000 0.000000 
#    y 0.000000 3.683180 0.000000 
#    z 0.000000 0.000000 4.034700 
# 
# 
# High freq. dielectric constant tensor:
#      x y z
#    x 1.805740 0.000000 0.000000 
#    y 0.000000 1.791910 0.000000 
#    z 0.000000 0.000000 1.803110 
# 
# From -- ./inp_files/27070.got.cif
#   From: 2010.06.25/outbox.cif.g09.slc.cpg/sg48_14_cif.got.tgz:27070.got - 2010.06.26 18:06:46.
