data_PCOD8201723
_publ_section_title
;
Structure prediction by ZEFSAII (Michael W. Deem and Ramdas Pophale) SiO2 
 PCOD8201723
Probable space group: P N N N
;
_chemical_formula_sum "Si O2"
_cell_formula_units_Z 54
_cell_length_a 20.153707
_cell_length_b 8.327398
_cell_length_c 14.347651
_cell_angle_alpha 90.000000
_cell_angle_beta 90.000000
_cell_angle_gamma 90.000000
_cell_volume 2407.936702
_symmetry_space_group_name_H-M "P N N N"
_symmetry_group_IT_number 48
_space_group.IT_coordinate_system_code '2'
_symmetry_cell_setting 'orthorhombic'
loop_
_space_group_symop_operation_xyz
x,y,z
1/2-x,1/2-y,z
x,1/2-y,1/2-z
1/2-x,y,1/2-z
-x,-y,-z
1/2+x,1/2+y,-z
-x,1/2+y,1/2+z
1/2+x,-y,1/2+z
loop_
_atom_site_type_symbol
_atom_site_label
_atom_site_fract_x
_atom_site_fract_y
_atom_site_fract_z
Si Si1 0.711072 0.454340 0.162618
Si Si2 0.991041 0.900983 0.906197
Si Si3 0.581341 0.058832 0.250148
Si Si4 0.750000 0.750000 0.448171
Si Si5 0.250000 0.250000 0.250000
Si Si6 0.437970 0.584654 0.548450
Si Si7 0.343028 0.116716 0.403205
Si Si8 0.177825 0.722922 0.483635
O O1 0.750000 0.380658 0.250000
O O2 0.642548 0.531516 0.199624
O O3 0.756916 0.590454 0.113783
O O4 0.692745 0.312033 0.091989
O O5 0.918235 0.827326 0.887198
O O6 0.015631 0.989201 0.811029
O O7 0.041965 0.758697 0.917903
O O8 0.000000 0.000000 0.000000
O O9 0.594801 0.250000 0.250000
O O10 0.577222 0.988735 0.144354
O O11 0.685348 0.773204 0.513447
O O12 0.297259 0.136118 0.312032
O O13 0.500000 0.500000 0.500000
O O14 0.372548 0.621530 0.482111
O O15 0.351998 0.930030 0.430374
O O16 0.250000 0.750000 0.435174
#
# Coordination Sequence:
#
# PCOD8201723 Si02
#       8
#     8   8   8   4   2   8   8   8
#     4  11  20  34  64  93 132 165 208 263 329 401
#     4  11  20  41  70  89 128 175 218 273 330 393
#     4  10  21  38  60  94 123 171 225 254 326 405
#     4   9  21  39  55 100 130 160 207 267 337 393
#     4  10  24  40  68 100 118 168 244 278 332 414
#     4  11  24  41  65 102 131 174 228 273 330 399
#     4  10  22  41  66  92 126 173 221 275 335 392
#     4  11  22  41  65  92 135 173 219 268 337 405
#
# _framework density 22.425839
#
# number of rings (size 3 to 8) (size 9 to 14) (size 15 to 20)
#    0.000    1.481    4.444    2.000    3.111    4.741 
#    0.000    2.593    0.000    0.000    0.000    0.000 
#    0.000    0.000    0.000    0.000    0.000    0.000 
#
# Total GULP energy -669035.993781 kJ/mol
# GULP energy per Si atom -12389.555440 kJ/mol
# Density = 2.237480 g / cm^3
# Si number density = 22.425839 Si / 1000 Ang^3
#
#
#
# Elastic Constant Matrix: (Units=GPa)
#
#
# Indices 1 2 3 4 5 6 
#
# 1 155.4498 19.7165 39.8264 0.0000 0.0000 0.0000
# 2 19.7165 44.3654 24.7354 0.0000 0.0000 0.0000
# 3 39.8264 24.7354 108.9759 0.0000 0.0000 0.0000
# 4 0.0000 0.0000 0.0000 13.2080 0.0000 0.0000
# 5 0.0000 0.0000 0.0000 0.0000 38.0676 0.0000
# 6 0.0000 0.0000 0.0000 0.0000 0.0000 34.3296
#
#
#
# Elastic Compliance Matrix: (Units=1/GPa)
#
#
# Indices 1 2 3 4 5 6 
#
# 1 0.007249 -0.001997 -0.002196 0.000000 0.000000 0.000000
# 2 -0.001997 0.026356 -0.005252 0.000000 0.000000 0.000000
# 3 -0.002196 -0.005252 0.011171 0.000000 0.000000 0.000000
# 4 0.000000 0.000000 0.000000 0.075712 0.000000 0.000000
# 5 0.000000 0.000000 0.000000 0.000000 0.026269 0.000000
# 6 0.000000 0.000000 0.000000 0.000000 0.000000 0.029129
#
#
# Mechanical properties :
#
#
# Convention : Reuss Voigt Hill
#
# Bulk Modulus (GPa) = 38.63232 53.03862 45.83547
# Shear Modulus (GPa) = 24.58146 32.08855 28.33500
#
# Velocity S-wave (km/s) = 3.31437 3.78679 3.55843
# Velocity P-wave (km/s) = 5.64896 6.54383 6.11280
#
# Compressibility (1/GPa) = 0.02588506
#
# Stress axis : x y z
#
# Youngs Moduli (GPa) = 137.95316 37.94186 89.51724
#
# Poissons Ratio (x) = 0.07578 0.19657
# Poissons Ratio (y) = 0.27552 0.47018
# Poissons Ratio (z) = 0.30292 0.19929
#
# Static dielectric constant tensor:
#      x y z
#    x 4.689510 0.000000 0.000000 
#    y 0.000000 3.394530 0.000000 
#    z 0.000000 0.000000 0.528560 
# 
# 
# High freq. dielectric constant tensor:
#      x y z
#    x 1.904970 0.000000 0.000000 
#    y 0.000000 1.842030 0.000000 
#    z 0.000000 0.000000 1.879390 
# 
# From -- ./inp_files/28309.got.cif
#   From: 2010.06.25/outbox.cif.g09.slc.cpg/sg48_15_cif.got.tgz:28309.got - 2010.06.26 18:06:46.
