data_PCOD8201800
_publ_section_title
;
Structure prediction by ZEFSAII (Michael W. Deem and Ramdas Pophale) SiO2 
 PCOD8201800
Probable space group: P N N N
;
_chemical_formula_sum "Si O2"
_cell_formula_units_Z 48
_cell_length_a 17.793648
_cell_length_b 7.705475
_cell_length_c 14.088601
_cell_angle_alpha 90.000000
_cell_angle_beta 90.000000
_cell_angle_gamma 90.000000
_cell_volume 1931.667089
_symmetry_space_group_name_H-M "P N N N"
_symmetry_group_IT_number 48
_space_group.IT_coordinate_system_code '2'
_symmetry_cell_setting 'orthorhombic'
loop_
_space_group_symop_operation_xyz
x,y,z
1/2-x,1/2-y,z
x,1/2-y,1/2-z
1/2-x,y,1/2-z
-x,-y,-z
1/2+x,1/2+y,-z
-x,1/2+y,1/2+z
1/2+x,-y,1/2+z
loop_
_atom_site_type_symbol
_atom_site_label
_atom_site_fract_x
_atom_site_fract_y
_atom_site_fract_z
Si Si1 0.986629 0.440081 0.293928
Si Si2 0.023107 0.270181 0.481890
Si Si3 0.812592 0.615231 0.477764
Si Si4 0.178309 0.940211 0.794009
Si Si5 0.765591 0.450602 0.853285
Si Si6 0.562531 0.435873 0.624018
O O1 0.996868 0.250000 0.250000
O O2 0.903701 0.518683 0.271340
O O3 0.999264 0.429515 0.409977
O O4 0.044093 0.568429 0.238040
O O5 0.106305 0.294753 0.522487
O O6 0.965157 0.241862 0.571116
O O7 0.016444 0.095406 0.420228
O O8 0.750000 0.750000 0.440938
O O9 0.812008 0.447916 0.408048
O O10 0.793031 0.552742 0.582492
O O11 0.180273 0.750000 0.750000
O O12 0.250000 0.044364 0.750000
O O13 0.750000 0.250000 0.853353
O O14 0.750000 0.530502 0.750000
O O15 0.849935 0.475707 0.890158
#
# Coordination Sequence:
#
# PCOD8201800 Si02
#       6
#     8   8   8   8   8   8
#     4   9  20  40  67  97 131 182 234 275 352 424
#     4  10  22  41  69 106 134 187 233 297 356 433
#     4  12  26  45  74 108 142 183 246 300 363 430
#     4  10  25  44  70 100 138 191 237 296 359 427
#     4  11  26  46  71 106 145 190 237 292 363 440
#     4  10  21  42  70  95 148 180 231 295 362 419
#
# _framework density 24.849001999999999
#
# number of rings (size 3 to 8) (size 9 to 14) (size 15 to 20)
#    0.000    1.667    1.667    1.000    7.000    2.667 
#    6.000    0.000    0.000    0.000    0.000    0.000 
#    0.000    0.000    0.000    0.000    0.000    0.000 
#
# Total GULP energy -594862.733897 kJ/mol
# GULP energy per Si atom -12392.973623 kJ/mol
# Density = 2.479244 g / cm^3
# Si number density = 24.849002 Si / 1000 Ang^3
#
#
#
# Elastic Constant Matrix: (Units=GPa)
#
#
# Indices 1 2 3 4 5 6 
#
# 1 125.7883 5.7278 30.6887 0.0000 0.0000 0.0000
# 2 5.7278 57.3211 36.9676 0.0000 0.0000 0.0000
# 3 30.6887 36.9676 173.8246 0.0000 0.0000 0.0000
# 4 0.0000 0.0000 0.0000 34.3342 0.0000 0.0000
# 5 0.0000 0.0000 0.0000 0.0000 33.5714 0.0000
# 6 0.0000 0.0000 0.0000 0.0000 0.0000 19.4708
#
#
#
# Elastic Compliance Matrix: (Units=1/GPa)
#
#
# Indices 1 2 3 4 5 6 
#
# 1 0.008309 0.000134 -0.001495 0.000000 0.000000 0.000000
# 2 0.000134 0.020221 -0.004324 0.000000 0.000000 0.000000
# 3 -0.001495 -0.004324 0.006937 0.000000 0.000000 0.000000
# 4 0.000000 0.000000 0.000000 0.029125 0.000000 0.000000
# 5 0.000000 0.000000 0.000000 0.000000 0.029787 0.000000
# 6 0.000000 0.000000 0.000000 0.000000 0.000000 0.051359
#
#
# Mechanical properties :
#
#
# Convention : Reuss Voigt Hill
#
# Bulk Modulus (GPa) = 41.50174 55.96692 48.73433
# Shear Modulus (GPa) = 30.27732 36.37861 33.32796
#
# Velocity S-wave (km/s) = 3.49442 3.83036 3.66624
# Velocity P-wave (km/s) = 5.74623 6.49106 6.12997
#
# Compressibility (1/GPa) = 0.02409537
#
# Stress axis : x y z
#
# Youngs Moduli (GPa) = 120.35734 49.45379 144.16368
#
# Poissons Ratio (x) = -0.00664 0.21559
# Poissons Ratio (y) = -0.01615 0.62338
# Poissons Ratio (z) = 0.17998 0.21384
#
# Static dielectric constant tensor:
#      x y z
#    x 4.760780 0.000000 0.000000 
#    y 0.000000 4.201630 0.000000 
#    z 0.000000 0.000000 5.019340 
# 
# 
# High freq. dielectric constant tensor:
#      x y z
#    x 1.997150 0.000000 0.000000 
#    y 0.000000 1.970550 0.000000 
#    z 0.000000 0.000000 2.002960 
# 
# From -- ./inp_files/27886.got.cif
#   From: 2010.06.25/outbox.cif.g09.slc.cpg/sg48_14_cif.got.tgz:27886.got - 2010.06.26 18:06:46.
