data_PCOD8201654
_publ_section_title
;
Structure prediction by ZEFSAII (Michael W. Deem and Ramdas Pophale) SiO2 
 PCOD8201654
Probable space group: P N N N
;
_chemical_formula_sum "Si O2"
_cell_formula_units_Z 28
_cell_length_a 10.086907
_cell_length_b 19.010571
_cell_length_c 7.431995
_cell_angle_alpha 90.000000
_cell_angle_beta 90.000000
_cell_angle_gamma 90.000000
_cell_volume 1425.143469
_symmetry_space_group_name_H-M "P N N N"
_symmetry_group_IT_number 48
_space_group.IT_coordinate_system_code '2'
_symmetry_cell_setting 'orthorhombic'
loop_
_space_group_symop_operation_xyz
x,y,z
1/2-x,1/2-y,z
x,1/2-y,1/2-z
1/2-x,y,1/2-z
-x,-y,-z
1/2+x,1/2+y,-z
-x,1/2+y,1/2+z
1/2+x,-y,1/2+z
loop_
_atom_site_type_symbol
_atom_site_label
_atom_site_fract_x
_atom_site_fract_y
_atom_site_fract_z
Si Si1 0.598910 0.668490 0.285411
Si Si2 0.531293 0.418955 0.017282
Si Si3 0.973619 0.824031 0.682417
Si Si4 0.750000 0.136002 0.250000
O O1 0.566787 0.750000 0.250000
O O2 0.750000 0.648199 0.250000
O O3 0.583033 0.651155 0.494247
O O4 0.497046 0.621033 0.170409
O O5 0.436148 0.383087 0.168779
O O6 0.683807 0.410559 0.087552
O O7 0.500000 0.500000 0.000000
O O8 0.912917 0.750000 0.750000
O O9 0.133947 0.816405 0.663339
#
# Coordination Sequence:
#
# PCOD8201654 Si02
#       4
#     8   8   8   4
#     4  11  23  39  63  94 124 171 212 250 313 376
#     4  10  23  41  64  94 128 163 207 262 317 369
#     4  10  20  41  63  93 124 162 213 263 304 367
#     4   8  21  40  62  88 125 156 208 254 321 346
#
# _framework density 19.647144999999998
#
# number of rings (size 3 to 8) (size 9 to 14) (size 15 to 20)
#    1.714    0.286    2.857    0.429    2.000    3.429 
#    0.000    4.286    0.000    0.000    0.000    0.000 
#    0.000    0.000    0.000    0.000    0.000    0.000 
#
# Total GULP energy -346885.644319 kJ/mol
# GULP energy per Si atom -12388.773011 kJ/mol
# Density = 1.960243 g / cm^3
# Si number density = 19.647145 Si / 1000 Ang^3
#
#
#
# Elastic Constant Matrix: (Units=GPa)
#
#
# Indices 1 2 3 4 5 6 
#
# 1 73.9157 18.8543 36.4206 0.0000 0.0000 0.0000
# 2 18.8543 137.8387 62.9126 0.0000 0.0000 0.0000
# 3 36.4206 62.9126 171.6728 0.0000 0.0000 0.0000
# 4 0.0000 0.0000 0.0000 32.6803 0.0000 0.0000
# 5 0.0000 0.0000 0.0000 0.0000 40.3126 0.0000
# 6 0.0000 0.0000 0.0000 0.0000 0.0000 4.0335
#
#
#
# Elastic Compliance Matrix: (Units=1/GPa)
#
#
# Indices 1 2 3 4 5 6 
#
# 1 0.015169 -0.000728 -0.002951 0.000000 0.000000 0.000000
# 2 -0.000728 0.008747 -0.003051 0.000000 0.000000 0.000000
# 3 -0.002951 -0.003051 0.007569 0.000000 0.000000 0.000000
# 4 0.000000 0.000000 0.000000 0.030599 0.000000 0.000000
# 5 0.000000 0.000000 0.000000 0.000000 0.024806 0.000000
# 6 0.000000 0.000000 0.000000 0.000000 0.000000 0.247921
#
#
# Mechanical properties :
#
#
# Convention : Reuss Voigt Hill
#
# Bulk Modulus (GPa) = 55.47980 68.86692 62.17336
# Shear Modulus (GPa) = 14.11313 33.08794 23.60054
#
# Velocity S-wave (km/s) = 2.68308 4.10824 3.46962
# Velocity P-wave (km/s) = 6.15613 7.59154 6.91120
#
# Compressibility (1/GPa) = 0.01802458
#
# Stress axis : x y z
#
# Youngs Moduli (GPa) = 65.92482 114.32504 132.11270
#
# Poissons Ratio (x) = 0.08321 0.38991
# Poissons Ratio (y) = 0.04798 0.40309
# Poissons Ratio (z) = 0.19457 0.34882
#
# Static dielectric constant tensor:
#      x y z
#    x 3.387330 0.000000 0.000000 
#    y 0.000000 3.348140 0.000000 
#    z 0.000000 0.000000 3.535070 
# 
# 
# High freq. dielectric constant tensor:
#      x y z
#    x 1.749350 0.000000 0.000000 
#    y 0.000000 1.750350 0.000000 
#    z 0.000000 0.000000 1.772670 
# 
# From -- ./inp_files/8407.got.cif
#   From: 2010.06.25/outbox.cif.g09.slc.cpg/sg48_5_cif.got.tgz:8407.got - 2010.06.26 18:06:46.
