data_PCOD8201914
_publ_section_title
;
Structure prediction by ZEFSAII (Michael W. Deem and Ramdas Pophale) SiO2 
 PCOD8201914
Probable space group: P N N N
;
_chemical_formula_sum "Si O2"
_cell_formula_units_Z 40
_cell_length_a 19.372412
_cell_length_b 10.626570
_cell_length_c 9.452212
_cell_angle_alpha 90.000000
_cell_angle_beta 90.000000
_cell_angle_gamma 90.000000
_cell_volume 1945.854029
_symmetry_space_group_name_H-M "P N N N"
_symmetry_group_IT_number 48
_space_group.IT_coordinate_system_code '2'
_symmetry_cell_setting 'orthorhombic'
loop_
_space_group_symop_operation_xyz
x,y,z
1/2-x,1/2-y,z
x,1/2-y,1/2-z
1/2-x,y,1/2-z
-x,-y,-z
1/2+x,1/2+y,-z
-x,1/2+y,1/2+z
1/2+x,-y,1/2+z
loop_
_atom_site_type_symbol
_atom_site_label
_atom_site_fract_x
_atom_site_fract_y
_atom_site_fract_z
Si Si1 0.331802 0.750000 0.091833
Si Si2 0.827608 0.015697 0.089094
Si Si3 0.535759 0.890432 0.412525
Si Si4 0.464241 0.109568 0.912525
Si Si5 0.327608 0.515697 0.589094
O O1 0.250000 0.750000 0.095592
O O2 0.363333 0.750000 0.250000
O O3 0.357122 0.626465 0.010215
O O4 0.357122 0.873535 0.010215
O O5 0.826889 0.066144 0.250000
O O6 0.750000 0.972791 0.044842
O O7 0.880855 0.900660 0.071988
O O8 0.513909 0.908108 0.250000
O O9 0.514385 0.750000 0.465133
O O10 0.500000 0.000000 0.500000
O O11 0.380855 0.099341 0.928012
O O12 0.500000 0.000000 0.000000
#
# Coordination Sequence:
#
# PCOD8201914 Si02
#       5
#     8   8   8   8   8
#     4   9  17  29  49  81 117 149 182 225 278 335
#     4   9  18  34  57  83 112 147 189 237 287 338
#     4  10  23  41  60  85 116 152 194 238 289 346
#     4  10  23  41  60  85 116 152 194 238 289 346
#     4   9  18  34  57  83 112 147 189 237 287 338
#
# _framework density 20.556526999999999
#
# number of rings (size 3 to 8) (size 9 to 14) (size 15 to 20)
#    0.000    2.600    0.000    0.600    2.800    5.600 
#    0.000    4.000    0.000    0.000    0.000    8.400 
#    0.000    0.000    0.000    0.000    0.000    0.000 
#
# Total GULP energy -495782.822552 kJ/mol
# GULP energy per Si atom -12394.570564 kJ/mol
# Density = 2.050974 g / cm^3
# Si number density = 20.556527 Si / 1000 Ang^3
#
#
#
# Elastic Constant Matrix: (Units=GPa)
#
#
# Indices 1 2 3 4 5 6 
#
# 1 76.2822 54.3337 30.1547 0.0000 0.0000 0.0000
# 2 54.3337 156.7677 68.0252 0.0000 0.0000 0.0000
# 3 30.1547 68.0252 96.4514 0.0000 0.0000 0.0000
# 4 0.0000 0.0000 0.0000 30.7011 0.0000 0.0000
# 5 0.0000 0.0000 0.0000 0.0000 22.8959 0.0000
# 6 0.0000 0.0000 0.0000 0.0000 0.0000 32.1892
#
#
#
# Elastic Compliance Matrix: (Units=1/GPa)
#
#
# Indices 1 2 3 4 5 6 
#
# 1 0.017604 -0.005351 -0.001730 0.000000 0.000000 0.000000
# 2 -0.005351 0.010818 -0.005957 0.000000 0.000000 0.000000
# 3 -0.001730 -0.005957 0.015110 0.000000 0.000000 0.000000
# 4 0.000000 0.000000 0.000000 0.032572 0.000000 0.000000
# 5 0.000000 0.000000 0.000000 0.000000 0.043676 0.000000
# 6 0.000000 0.000000 0.000000 0.000000 0.000000 0.031066
#
#
# Mechanical properties :
#
#
# Convention : Reuss Voigt Hill
#
# Bulk Modulus (GPa) = 57.28339 70.50318 63.89328
# Shear Modulus (GPa) = 27.36099 28.95640 28.15870
#
# Velocity S-wave (km/s) = 3.65226 3.75723 3.70512
# Velocity P-wave (km/s) = 6.76107 7.29343 7.03229
#
# Compressibility (1/GPa) = 0.01745707
#
# Stress axis : x y z
#
# Youngs Moduli (GPa) = 56.80441 92.43641 66.18041
#
# Poissons Ratio (x) = 0.49460 0.11450
# Poissons Ratio (y) = 0.30394 0.39424
# Poissons Ratio (z) = 0.09828 0.55065
#
# Static dielectric constant tensor:
#      x y z
#    x 3.877930 0.000000 0.000000 
#    y 0.000000 3.583050 0.000000 
#    z 0.000000 0.000000 3.792150 
# 
# 
# High freq. dielectric constant tensor:
#      x y z
#    x 1.817690 0.000000 0.000000 
#    y 0.000000 1.784030 0.000000 
#    z 0.000000 0.000000 1.793320 
# 
# From -- ./inp_files/15045.got.cif
#   From: 2010.06.25/outbox.cif.g09.slc.cpg/sg48_8_cif.got.tgz:15045.got - 2010.06.26 18:06:46.
