data_PCOD8201126
_publ_section_title
;
Structure prediction by ZEFSAII (Michael W. Deem and Ramdas Pophale) SiO2 
 PCOD8201126
Probable space group: P M M M
;
_chemical_formula_sum "Si O2"
_cell_formula_units_Z 52
_cell_length_a 33.634739
_cell_length_b 9.667123
_cell_length_c 9.196352
_cell_angle_alpha 90.000000
_cell_angle_beta 90.000000
_cell_angle_gamma 90.000000
_cell_volume 2990.204511
_symmetry_space_group_name_H-M "P M M M"
_symmetry_group_IT_number 47
_symmetry_cell_setting 'orthorhombic'
loop_
_space_group_symop_operation_xyz
x,y,z
-x,-y,z
x,-y,-z
-x,y,-z
-x,-y,-z
x,y,-z
-x,y,z
x,-y,z
loop_
_atom_site_type_symbol
_atom_site_label
_atom_site_fract_x
_atom_site_fract_y
_atom_site_fract_z
Si Si1 0.693064 0.835556 0.164026
Si Si2 0.456084 0.344767 0.327222
Si Si3 0.154456 0.340116 0.330822
Si Si4 0.000000 0.665116 0.664628
Si Si5 0.384417 0.839538 0.670337
Si Si6 0.923506 0.664533 0.835933
Si Si7 0.770579 0.159836 0.330601
O O1 0.654281 0.780275 0.247990
O O2 0.732662 0.781971 0.243647
O O3 0.692806 0.000000 0.167952
O O4 0.692582 0.778387 0.000000
O O5 0.455934 0.339699 0.500000
O O6 0.500000 0.299916 0.270820
O O7 0.446395 0.500000 0.273463
O O8 0.422730 0.240905 0.266569
O O9 0.144790 0.318709 0.500000
O O10 0.163795 0.500000 0.296184
O O11 0.116732 0.284858 0.241223
O O12 0.191859 0.249636 0.280665
O O13 0.038811 0.722998 0.747315
O O14 0.000000 0.500000 0.664547
O O15 0.000000 0.721737 0.500000
O O16 0.377973 0.813127 0.500000
O O17 0.391470 0.000000 0.704374
O O18 0.925059 0.500000 0.836125
O O19 0.924832 0.722625 0.000000
O O20 0.761354 0.179698 0.500000
O O21 0.779401 0.000000 0.293440
#
# Coordination Sequence:
#
# PCOD8201126 Si02
#       7
#     8   8   8   4   8   8   8
#     4   9  17  29  45  64  86 112 141 174 213 255
#     4   8  14  25  41  62  88 115 141 171 209 251
#     4   9  17  29  44  63  88 115 141 172 213 257
#     4   9  15  23  37  57  82 113 148 183 218 258
#     4   9  16  26  43  66  87 107 136 175 213 247
#     4   9  16  25  38  58  85 115 145 178 216 257
#     4   9  17  30  48  67  86 111 145 181 213 250
#
# _framework density 17.390115000000002
#
# number of rings (size 3 to 8) (size 9 to 14) (size 15 to 20)
#    0.000    3.154    0.000    1.615    0.000    5.538 
#    0.000    2.308    0.000    5.538    0.000    3.769 
#    0.000    4.308    0.000    0.000    0.000    0.000 
#
# Total GULP energy -644682.549233 kJ/mol
# GULP energy per Si atom -12397.741331 kJ/mol
# Density = 1.735053 g / cm^3
# Si number density = 17.390115 Si / 1000 Ang^3
#
#
#
# Elastic Constant Matrix: (Units=GPa)
#
#
# Indices 1 2 3 4 5 6 
#
# 1 199.8767 58.3430 81.3096 0.0000 0.0000 0.0000
# 2 58.3430 41.3339 27.9656 0.0000 0.0000 0.0000
# 3 81.3096 27.9656 88.3532 0.0000 0.0000 0.0000
# 4 0.0000 0.0000 0.0000 9.2541 0.0000 0.0000
# 5 0.0000 0.0000 0.0000 0.0000 10.8083 0.0000
# 6 0.0000 0.0000 0.0000 0.0000 0.0000 22.2759
#
#
#
# Elastic Compliance Matrix: (Units=1/GPa)
#
#
# Indices 1 2 3 4 5 6 
#
# 1 0.010832 -0.010874 -0.006527 0.000000 0.000000 0.000000
# 2 -0.010874 0.041702 -0.003192 0.000000 0.000000 0.000000
# 3 -0.006527 -0.003192 0.018335 0.000000 0.000000 0.000000
# 4 0.000000 0.000000 0.000000 0.108060 0.000000 0.000000
# 5 0.000000 0.000000 0.000000 0.000000 0.092522 0.000000
# 6 0.000000 0.000000 0.000000 0.000000 0.000000 0.044892
#
#
# Mechanical properties :
#
#
# Convention : Reuss Voigt Hill
#
# Bulk Modulus (GPa) = 33.68961 73.86669 53.77815
# Shear Modulus (GPa) = 13.60829 19.26403 16.43616
#
# Velocity S-wave (km/s) = 2.80041 3.33191 3.07765
# Velocity P-wave (km/s) = 5.46546 7.57434 6.60462
#
# Compressibility (1/GPa) = 0.02968274
#
# Stress axis : x y z
#
# Youngs Moduli (GPa) = 92.31716 23.97988 54.53981
#
# Poissons Ratio (x) = 0.26075 0.35597
# Poissons Ratio (y) = 1.00384 0.17412
# Poissons Ratio (z) = 0.60254 0.07656
#
# Static dielectric constant tensor:
#      x y z
#    x 3.523960 0.000000 0.000000 
#    y 0.000000 2.875230 0.000000 
#    z 0.000000 0.000000 3.166210 
# 
# 
# High freq. dielectric constant tensor:
#      x y z
#    x 1.687950 0.000000 0.000000 
#    y 0.000000 1.621580 0.000000 
#    z 0.000000 0.000000 1.657590 
# 
# From -- ./inp_files/14133.got.cif
#   From: 2010.03.12/outbox.cif.g09.slc.cpg/sg47_8_cif.got.tgz:14133.got - 2010.04.14 03:12:58.
