data_PCOD8201860
_publ_section_title
;
Structure prediction by ZEFSAII (Michael W. Deem and Ramdas Pophale) SiO2 
 PCOD8201860
Probable space group: P N N N
;
_chemical_formula_sum "Si O2"
_cell_formula_units_Z 44
_cell_length_a 15.551987
_cell_length_b 7.695322
_cell_length_c 15.371415
_cell_angle_alpha 90.000000
_cell_angle_beta 90.000000
_cell_angle_gamma 90.000000
_cell_volume 1839.613252
_symmetry_space_group_name_H-M "P N N N"
_symmetry_group_IT_number 48
_space_group.IT_coordinate_system_code '2'
_symmetry_cell_setting 'orthorhombic'
loop_
_space_group_symop_operation_xyz
x,y,z
1/2-x,1/2-y,z
x,1/2-y,1/2-z
1/2-x,y,1/2-z
-x,-y,-z
1/2+x,1/2+y,-z
-x,1/2+y,1/2+z
1/2+x,-y,1/2+z
loop_
_atom_site_type_symbol
_atom_site_label
_atom_site_fract_x
_atom_site_fract_y
_atom_site_fract_z
Si Si1 0.101646 0.643308 0.567915
Si Si2 0.695428 0.958227 0.671334
Si Si3 0.656010 0.070879 0.948777
Si Si4 0.096071 0.208397 0.026748
Si Si5 0.452678 0.581612 0.284276
Si Si6 0.436381 0.750000 0.750000
O O1 0.164582 0.769270 0.514877
O O2 0.122076 0.443333 0.541607
O O3 0.004456 0.696077 0.545103
O O4 0.120347 0.674948 0.670295
O O5 0.750000 0.874431 0.750000
O O6 0.645994 0.806676 0.619506
O O7 0.753968 0.061447 0.602481
O O8 0.625283 0.085022 0.713783
O O9 0.578070 0.107681 0.882549
O O10 0.629610 0.897161 0.004757
O O11 0.507350 0.750000 0.250000
O O12 0.505248 0.405831 0.284091
#
# Coordination Sequence:
#
# PCOD8201860 Si02
#       6
#     8   8   8   8   8   4
#     4  11  25  40  62  89 131 176 220 265 324 398
#     4  10  22  40  65 103 137 167 210 273 349 410
#     4  11  23  38  63  92 134 172 213 264 335 405
#     4  11  22  40  62  92 131 173 214 265 327 405
#     4  11  22  36  61  96 132 171 207 270 336 407
#     4  12  24  42  61  89 128 174 226 270 328 394
#
# _framework density 23.918071999999999
#
# number of rings (size 3 to 8) (size 9 to 14) (size 15 to 20)
#    0.000    1.091    3.636    2.182    2.545   12.727 
#    0.000    0.000    0.000    2.182    0.000    2.545 
#    0.000    0.000    0.000    0.000    0.000    0.000 
#
# Total GULP energy -545398.603728 kJ/mol
# GULP energy per Si atom -12395.422812 kJ/mol
# Density = 2.386363 g / cm^3
# Si number density = 23.918072 Si / 1000 Ang^3
#
#
#
# Elastic Constant Matrix: (Units=GPa)
#
#
# Indices 1 2 3 4 5 6 
#
# 1 43.1805 -1.3084 22.2447 0.0000 0.0000 0.0000
# 2 -1.3084 137.0147 44.8680 0.0000 0.0000 0.0000
# 3 22.2447 44.8680 138.6599 0.0000 0.0000 0.0000
# 4 0.0000 0.0000 0.0000 25.6405 0.0000 0.0000
# 5 0.0000 0.0000 0.0000 0.0000 33.1694 0.0000
# 6 0.0000 0.0000 0.0000 0.0000 0.0000 9.9280
#
#
#
# Elastic Compliance Matrix: (Units=1/GPa)
#
#
# Indices 1 2 3 4 5 6 
#
# 1 0.025627 0.001780 -0.004687 0.000000 0.000000 0.000000
# 2 0.001780 0.008287 -0.002967 0.000000 0.000000 0.000000
# 3 -0.004687 -0.002967 0.008924 0.000000 0.000000 0.000000
# 4 0.000000 0.000000 0.000000 0.039001 0.000000 0.000000
# 5 0.000000 0.000000 0.000000 0.000000 0.030148 0.000000
# 6 0.000000 0.000000 0.000000 0.000000 0.000000 0.100726
#
#
# Mechanical properties :
#
#
# Convention : Reuss Voigt Hill
#
# Bulk Modulus (GPa) = 32.16575 50.05151 41.10863
# Shear Modulus (GPa) = 21.29247 30.61764 25.95506
#
# Velocity S-wave (km/s) = 2.98690 3.58174 3.29776
# Velocity P-wave (km/s) = 5.03716 6.17064 5.63248
#
# Compressibility (1/GPa) = 0.03108897
#
# Stress axis : x y z
#
# Youngs Moduli (GPa) = 39.02122 120.66952 112.05847
#
# Poissons Ratio (x) = -0.21474 0.52523
# Poissons Ratio (y) = -0.06944 0.33248
# Poissons Ratio (z) = 0.18290 0.35803
#
# Static dielectric constant tensor:
#      x y z
#    x 4.054890 0.000000 0.000000 
#    y 0.000000 4.403820 0.000000 
#    z 0.000000 0.000000 4.471810 
# 
# 
# High freq. dielectric constant tensor:
#      x y z
#    x 1.905820 0.000000 0.000000 
#    y 0.000000 1.972890 0.000000 
#    z 0.000000 0.000000 1.934500 
# 
# From -- ./inp_files/27814.got.cif
#   From: 2010.06.25/outbox.cif.g09.slc.cpg/sg48_14_cif.got.tgz:27814.got - 2010.06.26 18:06:46.
