data_PCOD8201231
_publ_section_title
;
Structure prediction by ZEFSAII (Michael W. Deem and Ramdas Pophale) SiO2 
 PCOD8201231
Probable space group: P M M M
;
_chemical_formula_sum "Si O2"
_cell_formula_units_Z 40
_cell_length_a 22.017353
_cell_length_b 12.421701
_cell_length_c 7.962697
_cell_angle_alpha 90.000000
_cell_angle_beta 90.000000
_cell_angle_gamma 90.000000
_cell_volume 2177.741698
_symmetry_space_group_name_H-M "P M M M"
_symmetry_group_IT_number 47
_symmetry_cell_setting 'orthorhombic'
loop_
_space_group_symop_operation_xyz
x,y,z
-x,-y,z
x,-y,-z
-x,y,-z
-x,-y,-z
x,y,-z
-x,y,z
x,-y,z
loop_
_atom_site_type_symbol
_atom_site_label
_atom_site_fract_x
_atom_site_fract_y
_atom_site_fract_z
Si Si1 0.000000 0.378148 0.299031
Si Si2 0.239681 0.226962 0.306256
Si Si3 0.245270 0.000000 0.187804
Si Si4 0.105559 0.771483 0.695345
Si Si5 0.348440 0.373549 0.694350
Si Si6 0.432310 0.627437 0.000000
Si Si7 0.101364 0.000000 0.811723
O O1 0.059705 0.316974 0.227666
O O2 0.000000 0.500000 0.230637
O O3 0.000000 0.375402 0.500000
O O4 0.229005 0.244315 0.500000
O O5 0.268811 0.108779 0.275934
O O6 0.172903 0.239996 0.219116
O O7 0.286683 0.316572 0.242516
O O8 0.173370 0.000000 0.197870
O O9 0.270416 0.000000 0.000000
O O10 0.111207 0.750000 0.500000
O O11 0.077964 0.891241 0.722846
O O12 0.365683 0.342235 0.500000
O O13 0.337015 0.500000 0.707787
O O14 0.399794 0.335129 0.826613
O O15 0.435661 0.500000 0.000000
O O16 0.500000 0.677344 0.000000
O O17 0.076520 0.000000 0.000000
#
# Coordination Sequence:
#
# PCOD8201231 Si02
#       7
#     4   8   4   8   8   4   4
#     4   9  18  31  47  68  90 117 160 203 238 289
#     4   9  17  29  46  69  97 126 157 198 246 291
#     4   9  17  27  44  68  93 123 157 196 240 290
#     4   9  17  30  48  68  91 121 155 197 245 288
#     4   9  18  31  48  74 104 132 166 205 245 294
#     4   9  18  32  50  73 103 138 170 202 242 287
#     4   9  17  30  46  67  90 114 151 195 243 293
#
# _framework density 18.367653000000001
#
# number of rings (size 3 to 8) (size 9 to 14) (size 15 to 20)
#    0.000    3.000    0.000    0.600    1.400    4.000 
#    0.000    8.500    0.000    1.200    0.000    1.400 
#    0.000    3.200    0.000    0.000    0.000    0.000 
#
# Total GULP energy -495610.177283 kJ/mol
# GULP energy per Si atom -12390.254432 kJ/mol
# Density = 1.832585 g / cm^3
# Si number density = 18.367653 Si / 1000 Ang^3
#
#
#
# Elastic Constant Matrix: (Units=GPa)
#
#
# Indices 1 2 3 4 5 6 
#
# 1 117.8389 66.4802 42.2555 0.0000 0.0000 0.0000
# 2 66.4802 107.6372 22.9539 0.0000 0.0000 0.0000
# 3 42.2555 22.9539 49.2381 0.0000 0.0000 0.0000
# 4 0.0000 0.0000 0.0000 10.0105 0.0000 0.0000
# 5 0.0000 0.0000 0.0000 0.0000 13.5745 0.0000
# 6 0.0000 0.0000 0.0000 0.0000 0.0000 11.7861
#
#
#
# Elastic Compliance Matrix: (Units=1/GPa)
#
#
# Indices 1 2 3 4 5 6 
#
# 1 0.016949 -0.008180 -0.010732 0.000000 0.000000 0.000000
# 2 -0.008180 0.014264 0.000370 0.000000 0.000000 0.000000
# 3 -0.010732 0.000370 0.029347 0.000000 0.000000 0.000000
# 4 0.000000 0.000000 0.000000 0.099895 0.000000 0.000000
# 5 0.000000 0.000000 0.000000 0.000000 0.073667 0.000000
# 6 0.000000 0.000000 0.000000 0.000000 0.000000 0.084845
#
#
# Mechanical properties :
#
#
# Convention : Reuss Voigt Hill
#
# Bulk Modulus (GPa) = 42.59585 59.78815 51.19200
# Shear Modulus (GPa) = 13.74087 16.60919 15.17503
#
# Velocity S-wave (km/s) = 2.73811 3.01036 2.87746
# Velocity P-wave (km/s) = 5.76519 6.68614 6.24267
#
# Compressibility (1/GPa) = 0.02347647
#
# Stress axis : x y z
#
# Youngs Moduli (GPa) = 58.99913 70.10856 34.07467
#
# Poissons Ratio (x) = 0.57347 0.36571
# Poissons Ratio (y) = 0.48260 -0.01262
# Poissons Ratio (z) = 0.63321 -0.02596
#
# Static dielectric constant tensor:
#      x y z
#    x 3.645280 0.000000 0.000000 
#    y 0.000000 3.457910 0.000000 
#    z 0.000000 0.000000 3.291310 
# 
# 
# High freq. dielectric constant tensor:
#      x y z
#    x 1.684280 0.000000 0.000000 
#    y 0.000000 1.700780 0.000000 
#    z 0.000000 0.000000 1.700970 
# 
# From -- ./inp_files/10760.got.cif
#   From: 2010.03.12/outbox.cif.g09.slc.cpg/sg47_6_cif.got.tgz:10760.got - 2010.04.14 03:12:58.
