data_PCOD8201086
_publ_section_title
;
Structure prediction by ZEFSAII (Michael W. Deem and Ramdas Pophale) SiO2 
 PCOD8201086
Probable space group: P M M M
;
_chemical_formula_sum "Si O2"
_cell_formula_units_Z 36
_cell_length_a 9.761027
_cell_length_b 25.265169
_cell_length_c 7.987481
_cell_angle_alpha 90.000000
_cell_angle_beta 90.000000
_cell_angle_gamma 90.000000
_cell_volume 1969.824614
_symmetry_space_group_name_H-M "P M M M"
_symmetry_group_IT_number 47
_symmetry_cell_setting 'orthorhombic'
loop_
_space_group_symop_operation_xyz
x,y,z
-x,-y,z
x,-y,-z
-x,y,-z
-x,-y,-z
x,y,-z
-x,y,z
x,-y,z
loop_
_atom_site_type_symbol
_atom_site_label
_atom_site_fract_x
_atom_site_fract_y
_atom_site_fract_z
Si Si1 0.161877 0.943188 0.808252
Si Si2 0.337230 0.626782 0.813406
Si Si3 0.847658 0.832469 0.306792
Si Si4 0.663549 0.440060 0.500000
Si Si5 0.655648 0.740535 0.699080
O O1 0.219007 0.891119 0.714955
O O2 0.000000 0.944028 0.786192
O O3 0.218907 0.000000 0.737447
O O4 0.205115 0.938122 0.000000
O O5 0.500000 0.625532 0.803645
O O6 0.278601 0.588112 0.668612
O O7 0.286829 0.686435 0.778628
O O8 0.287680 0.609048 0.000000
O O9 0.861341 0.819789 0.500000
O O10 0.747992 0.788357 0.227725
O O11 0.000000 0.829423 0.223455
O O12 0.717792 0.500000 0.500000
O O13 0.500000 0.438015 0.500000
O O14 0.663647 0.735451 0.500000
O O15 0.500000 0.751385 0.756357
#
# Coordination Sequence:
#
# PCOD8201086 Si02
#       5
#     8   8   8   4   8
#     4   8  14  25  40  57  79 108 138 169 213 267
#     4   9  16  26  41  61  85 116 153 186 219 265
#     4   9  17  27  41  64  88 107 136 182 224 257
#     4   9  16  26  40  60  89 121 150 185 226 262
#     4   9  16  28  44  59  83 119 149 174 214 267
#
# _framework density 18.275738
#
# number of rings (size 3 to 8) (size 9 to 14) (size 15 to 20)
#    0.000    3.222    1.111    0.667    0.000    1.778 
#    0.000    4.444    0.000    0.667    0.000    4.667 
#    0.000    1.778    0.000    2.000    0.000    2.222 
#
# Total GULP energy -445972.588922 kJ/mol
# GULP energy per Si atom -12388.127470 kJ/mol
# Density = 1.823414 g / cm^3
# Si number density = 18.275738 Si / 1000 Ang^3
#
#
#
# Elastic Constant Matrix: (Units=GPa)
#
#
# Indices 1 2 3 4 5 6 
#
# 1 30.4933 40.9942 14.9179 0.0000 0.0000 0.0000
# 2 40.9942 182.0674 60.8422 0.0000 0.0000 0.0000
# 3 14.9179 60.8422 74.0003 0.0000 0.0000 0.0000
# 4 0.0000 0.0000 0.0000 18.6301 0.0000 0.0000
# 5 0.0000 0.0000 0.0000 0.0000 6.1998 0.0000
# 6 0.0000 0.0000 0.0000 0.0000 0.0000 14.6213
#
#
#
# Elastic Compliance Matrix: (Units=1/GPa)
#
#
# Indices 1 2 3 4 5 6 
#
# 1 0.047091 -0.010246 -0.001069 0.000000 0.000000 0.000000
# 2 -0.010246 0.009802 -0.005994 0.000000 0.000000 0.000000
# 3 -0.001069 -0.005994 0.018657 0.000000 0.000000 0.000000
# 4 0.000000 0.000000 0.000000 0.053677 0.000000 0.000000
# 5 0.000000 0.000000 0.000000 0.000000 0.161294 0.000000
# 6 0.000000 0.000000 0.000000 0.000000 0.000000 0.068393
#
#
# Mechanical properties :
#
#
# Convention : Reuss Voigt Hill
#
# Bulk Modulus (GPa) = 24.43028 57.78551 41.10790
# Shear Modulus (GPa) = 12.27966 19.21069 15.74518
#
# Velocity S-wave (km/s) = 2.59494 3.24567 2.93837
# Velocity P-wave (km/s) = 4.73021 6.76263 5.83558
#
# Compressibility (1/GPa) = 0.04093281
#
# Stress axis : x y z
#
# Youngs Moduli (GPa) = 21.23542 102.01557 53.59851
#
# Poissons Ratio (x) = 1.04522 0.05731
# Poissons Ratio (y) = 0.21757 0.32127
# Poissons Ratio (z) = 0.02271 0.61148
#
# Static dielectric constant tensor:
#      x y z
#    x 2.926810 0.000000 0.000000 
#    y 0.000000 3.610750 0.000000 
#    z 0.000000 0.000000 3.352470 
# 
# 
# High freq. dielectric constant tensor:
#      x y z
#    x 1.626140 0.000000 0.000000 
#    y 0.000000 1.723090 0.000000 
#    z 0.000000 0.000000 1.701870 
# 
# From -- ./inp_files/3932.got.cif
#   From: 2010.03.12/outbox.cif.g09.slc.cpg/sg47_2_cif.got.tgz:3932.got - 2010.04.14 03:12:58.
