data_PCOD8201328
_publ_section_title
;
Structure prediction by ZEFSAII (Michael W. Deem and Ramdas Pophale) SiO2 
 PCOD8201328
Probable space group: P N N N
;
_chemical_formula_sum "Si O2"
_cell_formula_units_Z 48
_cell_length_a 8.656725
_cell_length_b 8.699768
_cell_length_c 29.540758
_cell_angle_alpha 90.000000
_cell_angle_beta 90.000000
_cell_angle_gamma 90.000000
_cell_volume 2224.758771
_symmetry_space_group_name_H-M "P N N N"
_symmetry_group_IT_number 48
_space_group.IT_coordinate_system_code '2'
_symmetry_cell_setting 'orthorhombic'
loop_
_space_group_symop_operation_xyz
x,y,z
1/2-x,1/2-y,z
x,1/2-y,1/2-z
1/2-x,y,1/2-z
-x,-y,-z
1/2+x,1/2+y,-z
-x,1/2+y,1/2+z
1/2+x,-y,1/2+z
loop_
_atom_site_type_symbol
_atom_site_label
_atom_site_fract_x
_atom_site_fract_y
_atom_site_fract_z
Si Si1 0.598446 0.648559 0.421489
Si Si2 0.951230 0.410101 0.344452
Si Si3 0.913178 0.440729 0.159209
Si Si4 0.443611 0.949216 0.433242
Si Si5 0.235447 0.929977 0.984482
Si Si6 0.075614 0.432619 0.250225
O O1 0.750000 0.750000 0.408871
O O2 0.527677 0.559168 0.378436
O O3 0.465001 0.764720 0.436868
O O4 0.625635 0.529184 0.462826
O O5 0.983823 0.228391 0.348546
O O6 0.770233 0.441937 0.348242
O O7 0.059915 0.493373 0.381530
O O8 0.998761 0.485453 0.296890
O O9 0.972221 0.497159 0.208546
O O10 0.288441 0.981566 0.462751
O O11 0.584004 0.036383 0.455906
O O12 0.250000 0.750000 0.977791
O O13 0.074763 0.250000 0.250000
O O14 0.250000 0.497440 0.250000
#
# Coordination Sequence:
#
# PCOD8201328 Si02
#       6
#     8   8   8   8   8   8
#     4  10  19  35  59  84 115 147 196 248 291 348
#     4  10  18  34  61  86 115 150 202 241 283 349
#     4  10  18  33  62  89 107 155 199 243 289 340
#     4  10  21  36  58  83 117 154 190 254 299 343
#     4  10  20  37  58  80 113 155 195 247 297 346
#     4   9  19  35  57  87 123 150 187 239 291 351
#
# _framework density 21.575372999999999
#
# number of rings (size 3 to 8) (size 9 to 14) (size 15 to 20)
#    0.000    2.167    3.333    1.500    0.000    2.667 
#    3.000    4.167   22.000    1.000    0.000    0.000 
#    0.000    0.000    0.000    0.000    0.000    0.000 
#
# Total GULP energy -594888.195788 kJ/mol
# GULP energy per Si atom -12393.504079 kJ/mol
# Density = 2.152627 g / cm^3
# Si number density = 21.575373 Si / 1000 Ang^3
#
#
#
# Elastic Constant Matrix: (Units=GPa)
#
#
# Indices 1 2 3 4 5 6 
#
# 1 19.0528 23.9892 40.4640 0.0000 0.0000 0.0000
# 2 23.9892 102.0618 70.3388 0.0000 0.0000 0.0000
# 3 40.4640 70.3388 196.6386 0.0000 0.0000 0.0000
# 4 0.0000 0.0000 0.0000 26.5728 0.0000 0.0000
# 5 0.0000 0.0000 0.0000 0.0000 25.4431 0.0000
# 6 0.0000 0.0000 0.0000 0.0000 0.0000 10.7875
#
#
#
# Elastic Compliance Matrix: (Units=1/GPa)
#
#
# Indices 1 2 3 4 5 6 
#
# 1 0.104724 -0.012958 -0.016915 0.000000 0.000000 0.000000
# 2 -0.012958 0.014607 -0.002559 0.000000 0.000000 0.000000
# 3 -0.016915 -0.002559 0.009481 0.000000 0.000000 0.000000
# 4 0.000000 0.000000 0.000000 0.037632 0.000000 0.000000
# 5 0.000000 0.000000 0.000000 0.000000 0.039303 0.000000
# 6 0.000000 0.000000 0.000000 0.000000 0.000000 0.092700
#
#
# Mechanical properties :
#
#
# Convention : Reuss Voigt Hill
#
# Bulk Modulus (GPa) = 15.63720 65.25969 40.44844
# Shear Modulus (GPa) = 12.99963 24.75810 18.87887
#
# Velocity S-wave (km/s) = 2.45729 3.39118 2.96128
# Velocity P-wave (km/s) = 3.91338 6.75621 5.52091
#
# Compressibility (1/GPa) = 0.06395008
#
# Stress axis : x y z
#
# Youngs Moduli (GPa) = 9.54893 68.46059 105.46932
#
# Poissons Ratio (x) = 0.88708 1.78400
# Poissons Ratio (y) = 0.12373 0.26986
# Poissons Ratio (z) = 0.16152 0.17516
#
# Static dielectric constant tensor:
#      x y z
#    x 3.712150 0.000000 0.000000 
#    y 0.000000 3.811940 0.000000 
#    z 0.000000 0.000000 4.358090 
# 
# 
# High freq. dielectric constant tensor:
#      x y z
#    x 1.820780 0.000000 0.000000 
#    y 0.000000 1.831190 0.000000 
#    z 0.000000 0.000000 1.861140 
# 
# From -- ./inp_files/16787.got.cif
#   From: 2010.06.25/outbox.cif.g09.slc.cpg/sg48_9_cif.got.tgz:16787.got - 2010.06.26 18:06:46.
