data_PCOD8201243
_publ_section_title
;
Structure prediction by ZEFSAII (Michael W. Deem and Ramdas Pophale) SiO2 
 PCOD8201243
Probable space group: P M M M
;
_chemical_formula_sum "Si O2"
_cell_formula_units_Z 56
_cell_length_a 21.000000
_cell_length_b 9.000000
_cell_length_c 15.000000
_cell_angle_alpha 90.000000
_cell_angle_beta 90.000000
_cell_angle_gamma 90.000000
_cell_volume 2835.000000
_symmetry_space_group_name_H-M "P M M M"
_symmetry_group_IT_number 47
_symmetry_cell_setting 'orthorhombic'
loop_
_space_group_symop_operation_xyz
x,y,z
-x,-y,z
x,-y,-z
-x,y,-z
-x,-y,-z
x,y,-z
-x,y,z
x,-y,z
loop_
_atom_site_type_symbol
_atom_site_label
_atom_site_fract_x
_atom_site_fract_y
_atom_site_fract_z
Si Si1 0.570547 0.176117 0.597866
Si Si2 0.000000 0.174405 0.659783
Si Si3 0.210155 0.325986 0.240261
Si Si4 0.120896 0.668529 0.598918
Si Si5 0.573105 0.331123 0.103673
Si Si6 0.000000 0.323630 0.849787
Si Si7 0.124937 0.167409 0.099640
Si Si8 0.343924 0.824728 0.242373
O O1 0.595012 0.226055 0.500000
O O2 0.500000 0.241520 0.614933
O O3 0.617519 0.236517 0.672665
O O4 0.567287 0.000000 0.603550
O O5 0.062140 0.218748 0.604457
O O6 0.000000 0.267890 0.749496
O O7 0.000000 0.000000 0.679485
O O8 0.208173 0.500000 0.220234
O O9 0.175163 0.284584 0.332034
O O10 0.177880 0.240878 0.159759
O O11 0.280851 0.269656 0.246111
O O12 0.150275 0.681254 0.500000
O O13 0.097351 0.500000 0.618215
O O14 0.500000 0.294391 0.125640
O O15 0.589212 0.500000 0.132545
O O16 0.616907 0.213003 0.153911
O O17 0.586991 0.310223 0.000000
O O18 0.061286 0.263752 0.900335
O O19 0.000000 0.500000 0.851529
O O20 0.110230 0.000000 0.133240
O O21 0.152441 0.164733 0.000000
O O22 0.329675 0.000000 0.245390
#
# Coordination Sequence:
#
# PCOD8201243 Si02
#       8
#     8   4   8   8   8   4   8   8
#     4   8  15  30  53  82 115 149 186 230 282 339
#     4  12  23  36  61  92 122 152 191 245 296 343
#     4  11  24  41  60  82 114 159 201 238 286 348
#     4  10  22  41  63  86 115 153 196 243 297 355
#     4   9  19  37  60  85 114 149 189 234 286 346
#     4  12  23  38  63  92 122 156 191 233 288 351
#     4  11  24  42  64  90 119 150 189 243 298 344
#     4  11  22  35  56  85 117 152 193 240 288 337
#
# _framework density 19.753086
#
# number of rings (size 3 to 8) (size 9 to 14) (size 15 to 20)
#    0.000    1.714    1.429    4.286    0.000    6.000 
#    0.000    0.714    0.000    1.286    0.000    5.000 
#    0.000    0.000    0.000    0.000    0.000    0.000 
#
# Total GULP energy -694454.065902 kJ/mol
# GULP energy per Si atom -12400.965463 kJ/mol
# Density = 1.970813 g / cm^3
# Si number density = 19.753086 Si / 1000 Ang^3
#
#
#
# Elastic Constant Matrix: (Units=GPa)
#
#
# Indices 1 2 3 4 5 6 
#
# 1 102.4759 40.3973 63.9085 0.0000 0.0000 0.0000
# 2 40.3973 104.3888 46.1200 0.0000 0.0000 0.0000
# 3 63.9085 46.1200 116.0202 0.0000 0.0000 0.0000
# 4 0.0000 0.0000 0.0000 20.4568 0.0000 0.0000
# 5 0.0000 0.0000 0.0000 0.0000 -75.7482 0.0000
# 6 0.0000 0.0000 0.0000 0.0000 0.0000 41.4975
#
#
#
# Elastic Compliance Matrix: (Units=1/GPa)
#
#
# Indices 1 2 3 4 5 6 
#
# 1 0.015465 -0.002694 -0.007448 0.000000 0.000000 0.000000
# 2 -0.002694 0.012090 -0.003322 0.000000 0.000000 0.000000
# 3 -0.007448 -0.003322 0.014042 0.000000 0.000000 0.000000
# 4 0.000000 0.000000 0.000000 0.048884 0.000000 0.000000
# 5 0.000000 0.000000 0.000000 0.000000 -0.013202 0.000000
# 6 0.000000 0.000000 0.000000 0.000000 0.000000 0.024098
#
#
# Mechanical properties :
#
#
# Convention : Reuss Voigt Hill
#
# Bulk Modulus (GPa) = 68.16895 69.30404 68.73649
# Shear Modulus (GPa) = 37.53896 8.73849 23.13872
#
# Velocity S-wave (km/s) = 4.36410 2.10558 3.42628
# Velocity P-wave (km/s) = 7.74463 6.40879 7.10816
#
# Compressibility (1/GPa) = 0.01466944
#
# Stress axis : x y z
#
# Youngs Moduli (GPa) = 64.66057 82.71405 71.21384
#
# Poissons Ratio (x) = 0.22286 0.53039
# Poissons Ratio (y) = 0.17422 0.23655
# Poissons Ratio (z) = 0.48158 0.27475
#
# Static dielectric constant tensor:
#      x y z
#    x 3.310310 0.000000 0.000000 
#    y 0.000000 3.548990 0.000000 
#    z 0.000000 0.000000 3.742710 
# 
# 
# High freq. dielectric constant tensor:
#      x y z
#    x 1.758040 0.000000 0.000000 
#    y 0.000000 1.763290 0.000000 
#    z 0.000000 0.000000 1.778030 
# 
# From -- ./inp_files/7423.got.cif
#   From: 2010.03.12/outbox.ucp.g09.slc.cvg/sg47_4_cif.got.tgz:7423.got - 2010.05.04 21:26:29.
