data_PCOD8201994
_publ_section_title
;
Structure prediction by ZEFSAII (Michael W. Deem and Ramdas Pophale) SiO2 
 PCOD8201994
Probable space group: P N N N
;
_chemical_formula_sum "Si O2"
_cell_formula_units_Z 32
_cell_length_a 5.064470
_cell_length_b 14.816477
_cell_length_c 17.959260
_cell_angle_alpha 90.000000
_cell_angle_beta 90.000000
_cell_angle_gamma 90.000000
_cell_volume 1347.619827
_symmetry_space_group_name_H-M "P N N N"
_symmetry_group_IT_number 48
_space_group.IT_coordinate_system_code '2'
_symmetry_cell_setting 'orthorhombic'
loop_
_space_group_symop_operation_xyz
x,y,z
1/2-x,1/2-y,z
x,1/2-y,1/2-z
1/2-x,y,1/2-z
-x,-y,-z
1/2+x,1/2+y,-z
-x,1/2+y,1/2+z
1/2+x,-y,1/2+z
loop_
_atom_site_type_symbol
_atom_site_label
_atom_site_fract_x
_atom_site_fract_y
_atom_site_fract_z
Si Si1 0.750000 0.250000 0.250000
Si Si2 0.045154 0.169874 0.118899
Si Si3 0.250000 0.250000 0.750000
Si Si4 0.023838 0.976009 0.085397
Si Si5 0.250000 0.750000 0.493434
Si Si6 0.978737 0.639557 0.119478
O O1 0.577108 0.314675 0.199358
O O2 0.250000 0.250000 0.102377
O O3 0.840333 0.169834 0.049445
O O4 0.136423 0.066429 0.125498
O O5 0.437798 0.187536 0.801092
O O6 0.226447 0.899736 0.111082
O O7 0.736081 0.938915 0.108835
O O8 0.000000 0.000000 0.000000
O O9 0.995223 0.783035 0.444809
#
# Coordination Sequence:
#
# PCOD8201994 Si02
#       6
#     2   8   2   8   4   8
#     4  10  26  46  64 108 148 212 242 314 392 496
#     4  11  25  46  75 109 153 206 258 323 402 466
#     4  12  32  56  76 118 166 224 252 318 426 482
#     4  12  26  47  80 118 151 198 273 338 386 455
#     4  11  24  44  80 105 154 206 260 319 390 472
#     4  12  28  50  77 114 160 207 265 326 394 484
#
# _framework density 23.745569
#
# number of rings (size 3 to 8) (size 9 to 14) (size 15 to 20)
#    0.000    0.500    2.500    4.125    8.750    5.500 
#    4.500    0.000    0.000    0.000    0.000    0.000 
#    0.000    0.000    0.000    0.000    0.000    0.000 
#
# Total GULP energy -396477.106672 kJ/mol
# GULP energy per Si atom -12389.909584 kJ/mol
# Density = 2.369152 g / cm^3
# Si number density = 23.745569 Si / 1000 Ang^3
#
#
#
# Elastic Constant Matrix: (Units=GPa)
#
#
# Indices 1 2 3 4 5 6 
#
# 1 103.6239 38.6801 45.8321 0.0000 0.0000 0.0000
# 2 38.6801 143.6378 59.2633 0.0000 0.0000 0.0000
# 3 45.8321 59.2633 184.3908 0.0000 0.0000 0.0000
# 4 0.0000 0.0000 0.0000 7.4011 0.0000 0.0000
# 5 0.0000 0.0000 0.0000 0.0000 58.9028 0.0000
# 6 0.0000 0.0000 0.0000 0.0000 0.0000 36.6271
#
#
#
# Elastic Compliance Matrix: (Units=1/GPa)
#
#
# Indices 1 2 3 4 5 6 
#
# 1 0.011412 -0.002194 -0.002131 0.000000 0.000000 0.000000
# 2 -0.002194 0.008448 -0.002170 0.000000 0.000000 0.000000
# 3 -0.002131 -0.002170 0.006650 0.000000 0.000000 0.000000
# 4 0.000000 0.000000 0.000000 0.135114 0.000000 0.000000
# 5 0.000000 0.000000 0.000000 0.000000 0.016977 0.000000
# 6 0.000000 0.000000 0.000000 0.000000 0.000000 0.027302
#
#
# Mechanical properties :
#
#
# Convention : Reuss Voigt Hill
#
# Bulk Modulus (GPa) = 73.96357 79.91148 76.93753
# Shear Modulus (GPa) = 22.38130 39.77801 31.07966
#
# Velocity S-wave (km/s) = 3.07342 4.09733 3.62174
# Velocity P-wave (km/s) = 6.61895 7.49069 7.06827
#
# Compressibility (1/GPa) = 0.01352017
#
# Stress axis : x y z
#
# Youngs Moduli (GPa) = 87.62811 118.37160 150.36511
#
# Poissons Ratio (x) = 0.25967 0.32050
# Poissons Ratio (y) = 0.19223 0.32628
# Poissons Ratio (z) = 0.18678 0.25686
#
# Static dielectric constant tensor:
#      x y z
#    x 4.754980 0.000000 0.000000 
#    y 0.000000 4.595280 0.000000 
#    z 0.000000 0.000000 3.114650 
# 
# 
# High freq. dielectric constant tensor:
#      x y z
#    x 1.934690 0.000000 0.000000 
#    y 0.000000 1.960140 0.000000 
#    z 0.000000 0.000000 1.947750 
# 
# From -- ./inp_files/3137.got.cif
#   From: 2010.06.25/outbox.cif.g09.slc.cpg/sg48_2_cif.got.tgz:3137.got - 2010.06.26 18:06:46.
