data_PCOD8201330
_publ_section_title
;
Structure prediction by ZEFSAII (Michael W. Deem and Ramdas Pophale) SiO2 
 PCOD8201330
Probable space group: P N N N
;
_chemical_formula_sum "Si O2"
_cell_formula_units_Z 52
_cell_length_a 18.680053
_cell_length_b 10.635303
_cell_length_c 14.381034
_cell_angle_alpha 90.000000
_cell_angle_beta 90.000000
_cell_angle_gamma 90.000000
_cell_volume 2857.051604
_symmetry_space_group_name_H-M "P N N N"
_symmetry_group_IT_number 48
_space_group.IT_coordinate_system_code '2'
_symmetry_cell_setting 'orthorhombic'
loop_
_space_group_symop_operation_xyz
x,y,z
1/2-x,1/2-y,z
x,1/2-y,1/2-z
1/2-x,y,1/2-z
-x,-y,-z
1/2+x,1/2+y,-z
-x,1/2+y,1/2+z
1/2+x,-y,1/2+z
loop_
_atom_site_type_symbol
_atom_site_label
_atom_site_fract_x
_atom_site_fract_y
_atom_site_fract_z
Si Si1 0.562292 0.750000 0.750000
Si Si2 0.329316 0.398361 0.759531
Si Si3 0.914328 0.544893 0.891499
Si Si4 0.432772 0.080713 0.900711
Si Si5 0.667259 0.102619 0.753593
Si Si6 0.938854 0.540456 0.620843
Si Si7 0.070489 0.370136 0.578074
O O1 0.604552 0.830136 0.829844
O O2 0.522077 0.856664 0.689037
O O3 0.324089 0.250000 0.750000
O O4 0.250000 0.457960 0.750000
O O5 0.376727 0.459619 0.678198
O O6 0.365252 0.427104 0.859610
O O7 0.864195 0.434711 0.853758
O O8 0.997847 0.505323 0.883672
O O9 0.895628 0.560610 0.999426
O O10 0.449503 0.228399 0.893720
O O11 0.654448 0.250000 0.750000
O O12 0.750000 0.065791 0.750000
O O13 0.627342 0.027543 0.671270
O O14 0.908222 0.611027 0.529508
O O15 0.996667 0.438850 0.596184
#
# Coordination Sequence:
#
# PCOD8201330 Si02
#       7
#     4   8   8   8   8   8   8
#     4  10  18  34  49  78 115 134 168 226 266 322
#     4   9  18  31  49  73 102 136 169 207 258 309
#     4  10  20  33  55  80 108 139 176 223 273 315
#     4  10  19  34  55  81 106 138 178 222 263 320
#     4  10  21  37  55  76 106 145 184 221 266 324
#     4  10  20  33  55  80 108 139 176 223 273 315
#     4  10  19  34  55  81 106 138 178 222 263 320
#
# _framework density 18.200581
#
# number of rings (size 3 to 8) (size 9 to 14) (size 15 to 20)
#    0.000    2.154    1.538    2.769    0.000    2.462 
#    0.000    6.154    0.000    0.000    0.000    2.154 
#    0.000    0.000    0.000    0.000    0.000    0.000 
#
# Total GULP energy -644220.826929 kJ/mol
# GULP energy per Si atom -12388.862056 kJ/mol
# Density = 1.815916 g / cm^3
# Si number density = 18.200581 Si / 1000 Ang^3
#
#
#
# Elastic Constant Matrix: (Units=GPa)
#
#
# Indices 1 2 3 4 5 6 
#
# 1 81.1736 24.2739 48.6965 0.0000 0.0000 0.0000
# 2 24.2739 66.3991 36.9535 0.0000 0.0000 0.0000
# 3 48.6965 36.9535 149.7798 0.0000 0.0000 0.0000
# 4 0.0000 0.0000 0.0000 28.9870 0.0000 0.0000
# 5 0.0000 0.0000 0.0000 0.0000 13.9911 0.0000
# 6 0.0000 0.0000 0.0000 0.0000 0.0000 11.2476
#
#
#
# Elastic Compliance Matrix: (Units=1/GPa)
#
#
# Indices 1 2 3 4 5 6 
#
# 1 0.015944 -0.003412 -0.004342 0.000000 0.000000 0.000000
# 2 -0.003412 0.018188 -0.003378 0.000000 0.000000 0.000000
# 3 -0.004342 -0.003378 0.008922 0.000000 0.000000 0.000000
# 4 0.000000 0.000000 0.000000 0.034498 0.000000 0.000000
# 5 0.000000 0.000000 0.000000 0.000000 0.071474 0.000000
# 6 0.000000 0.000000 0.000000 0.000000 0.000000 0.088908
#
#
# Mechanical properties :
#
#
# Convention : Reuss Voigt Hill
#
# Bulk Modulus (GPa) = 48.10156 57.46670 52.78413
# Shear Modulus (GPa) = 18.71760 23.34037 21.02899
#
# Velocity S-wave (km/s) = 3.21036 3.58494 3.40281
# Velocity P-wave (km/s) = 6.34254 6.98415 6.67106
#
# Compressibility (1/GPa) = 0.02078934
#
# Stress axis : x y z
#
# Youngs Moduli (GPa) = 62.71760 54.98178 112.08867
#
# Poissons Ratio (x) = 0.18762 0.48669
# Poissons Ratio (y) = 0.21402 0.37862
# Poissons Ratio (z) = 0.27232 0.18572
#
# Static dielectric constant tensor:
#      x y z
#    x 3.186240 0.000000 0.000000 
#    y 0.000000 3.395210 0.000000 
#    z 0.000000 0.000000 3.840490 
# 
# 
# High freq. dielectric constant tensor:
#      x y z
#    x 1.673120 0.000000 0.000000 
#    y 0.000000 1.700740 0.000000 
#    z 0.000000 0.000000 1.728890 
# 
# From -- ./inp_files/28009.got.cif
#   From: 2010.06.25/outbox.cif.g09.slc.cpg/sg48_15_cif.got.tgz:28009.got - 2010.06.26 18:06:46.
