data_PCOD8201817
_publ_section_title
;
Structure prediction by ZEFSAII (Michael W. Deem and Ramdas Pophale) SiO2 
 PCOD8201817
Probable space group: P N N N
;
_chemical_formula_sum "Si O2"
_cell_formula_units_Z 58
_cell_length_a 25.281913
_cell_length_b 12.498698
_cell_length_c 8.781387
_cell_angle_alpha 90.000000
_cell_angle_beta 90.000000
_cell_angle_gamma 90.000000
_cell_volume 2774.839220
_symmetry_space_group_name_H-M "P N N N"
_symmetry_group_IT_number 48
_space_group.IT_coordinate_system_code '2'
_symmetry_cell_setting 'orthorhombic'
loop_
_space_group_symop_operation_xyz
x,y,z
1/2-x,1/2-y,z
x,1/2-y,1/2-z
1/2-x,y,1/2-z
-x,-y,-z
1/2+x,1/2+y,-z
-x,1/2+y,1/2+z
1/2+x,-y,1/2+z
loop_
_atom_site_type_symbol
_atom_site_label
_atom_site_fract_x
_atom_site_fract_y
_atom_site_fract_z
Si Si1 0.943642 0.019604 0.429969
Si Si2 0.857946 0.636908 0.927439
Si Si3 0.750000 0.250000 0.750000
Si Si4 0.556581 0.470271 0.066148
Si Si5 0.908287 0.242013 0.418663
Si Si6 0.255527 0.432899 0.579793
Si Si7 0.708111 0.329309 0.459028
Si Si8 0.855509 0.615746 0.578906
O O1 0.900307 0.932254 0.478846
O O2 0.944683 0.022825 0.248018
O O3 0.930810 0.136475 0.500537
O O4 0.000000 0.000000 0.500000
O O5 0.855679 0.589363 0.757689
O O6 0.872432 0.761032 0.939198
O O7 0.798995 0.636283 0.993905
O O8 0.712939 0.325214 0.644293
O O9 0.574673 0.353261 0.001910
O O10 0.500000 0.500000 0.000000
O O11 0.599069 0.553142 0.006708
O O12 0.932372 0.250000 0.250000
O O13 0.846285 0.221518 0.406205
O O14 0.250000 0.387149 0.750000
O O15 0.279747 0.551726 0.595227
O O16 0.200415 0.421716 0.490773
O O17 0.750000 0.250000 0.381726
#
# Coordination Sequence:
#
# PCOD8201817 Si02
#       8
#     8   8   2   8   8   8   8   8
#     4  11  24  45  70  99 133 176 223 277 335 402
#     4  11  25  46  68  96 132 182 230 279 339 398
#     4   8  24  36  54  96 130 176 218 264 316 388
#     4  11  25  46  68 102 132 176 224 277 335 402
#     4  10  23  42  67  92 131 171 215 266 329 397
#     4  12  25  39  65 101 135 174 222 274 338 404
#     4  10  22  36  60  93 132 173 215 265 323 387
#     4  11  26  44  69  96 134 180 229 282 335 400
#
# _framework density 20.902111000000001
#
# number of rings (size 3 to 8) (size 9 to 14) (size 15 to 20)
#    0.414    0.828    1.379    3.310    7.724    3.862 
#    2.483    0.000    0.000    0.000    0.000    0.000 
#    0.000    0.000    0.000    0.000    0.000    0.000 
#
# Total GULP energy -718861.304792 kJ/mol
# GULP energy per Si atom -12394.160427 kJ/mol
# Density = 2.085454 g / cm^3
# Si number density = 20.902111 Si / 1000 Ang^3
#
#
#
# Elastic Constant Matrix: (Units=GPa)
#
#
# Indices 1 2 3 4 5 6 
#
# 1 174.7300 67.1584 46.2422 0.0000 0.0000 0.0000
# 2 67.1584 132.6499 36.9992 0.0000 0.0000 0.0000
# 3 46.2422 36.9992 115.6983 0.0000 0.0000 0.0000
# 4 0.0000 0.0000 0.0000 34.1680 0.0000 0.0000
# 5 0.0000 0.0000 0.0000 0.0000 39.1846 0.0000
# 6 0.0000 0.0000 0.0000 0.0000 0.0000 32.6453
#
#
#
# Elastic Compliance Matrix: (Units=1/GPa)
#
#
# Indices 1 2 3 4 5 6 
#
# 1 0.007488 -0.003246 -0.001955 0.000000 0.000000 0.000000
# 2 -0.003246 0.009684 -0.001800 0.000000 0.000000 0.000000
# 3 -0.001955 -0.001800 0.010000 0.000000 0.000000 0.000000
# 4 0.000000 0.000000 0.000000 0.029267 0.000000 0.000000
# 5 0.000000 0.000000 0.000000 0.000000 0.025520 0.000000
# 6 0.000000 0.000000 0.000000 0.000000 0.000000 0.030632
#
#
# Mechanical properties :
#
#
# Convention : Reuss Voigt Hill
#
# Bulk Modulus (GPa) = 75.92146 80.43087 78.17617
# Shear Modulus (GPa) = 38.17311 39.37814 38.77562
#
# Velocity S-wave (km/s) = 4.27814 4.34514 4.31177
# Velocity P-wave (km/s) = 7.79772 7.98354 7.89118
#
# Compressibility (1/GPa) = 0.01317151
#
# Stress axis : x y z
#
# Youngs Moduli (GPa) = 133.54698 103.26456 100.00054
#
# Poissons Ratio (x) = 0.33518 0.19548
# Poissons Ratio (y) = 0.43347 0.17995
# Poissons Ratio (z) = 0.26106 0.18583
#
# Static dielectric constant tensor:
#      x y z
#    x 3.742310 0.000000 0.000000 
#    y 0.000000 4.034010 0.000000 
#    z 0.000000 0.000000 3.865260 
# 
# 
# High freq. dielectric constant tensor:
#      x y z
#    x 1.825140 0.000000 0.000000 
#    y 0.000000 1.834340 0.000000 
#    z 0.000000 0.000000 1.821300 
# 
# From -- ./inp_files/16439.got.cif
#   From: 2010.06.25/outbox.cif.g09.slc.cpg/sg48_9_cif.got.tgz:16439.got - 2010.06.26 18:06:46.
