data_PCOD8201127
_publ_section_title
;
Structure prediction by ZEFSAII (Michael W. Deem and Ramdas Pophale) SiO2 
 PCOD8201127
Probable space group: P M M M
;
_chemical_formula_sum "Si O2"
_cell_formula_units_Z 52
_cell_length_a 9.360543
_cell_length_b 9.535206
_cell_length_c 33.566602
_cell_angle_alpha 90.000000
_cell_angle_beta 90.000000
_cell_angle_gamma 90.000000
_cell_volume 2995.977185
_symmetry_space_group_name_H-M "P M M M"
_symmetry_group_IT_number 47
_symmetry_cell_setting 'orthorhombic'
loop_
_space_group_symop_operation_xyz
x,y,z
-x,-y,z
x,-y,-z
-x,y,-z
-x,-y,-z
x,y,-z
-x,y,z
x,-y,z
loop_
_atom_site_type_symbol
_atom_site_label
_atom_site_fract_x
_atom_site_fract_y
_atom_site_fract_z
Si Si1 0.665276 0.163396 0.347512
Si Si2 0.833524 0.661925 0.806293
Si Si3 0.337354 0.167322 0.500000
Si Si4 0.833066 0.162124 0.118545
Si Si5 0.339174 0.833354 0.956314
Si Si6 0.334225 0.661578 0.271267
Si Si7 0.838028 0.833219 0.575737
O O1 0.500000 0.193888 0.357824
O O2 0.716227 0.247547 0.308794
O O3 0.761144 0.217956 0.384028
O O4 0.690568 0.000000 0.339089
O O5 0.799540 0.500000 0.815257
O O6 0.776788 0.751838 0.843501
O O7 0.751919 0.714513 0.767109
O O8 0.000000 0.688238 0.798903
O O9 0.500000 0.224896 0.500000
O O10 0.253144 0.225020 0.538555
O O11 0.339930 0.000000 0.500000
O O12 0.760099 0.225622 0.078885
O O13 0.000000 0.183737 0.112535
O O14 0.792753 0.000000 0.125372
O O15 0.500000 0.780860 0.948617
O O16 0.333182 0.000000 0.955955
O O17 0.286665 0.779883 0.000000
O O18 0.500000 0.685599 0.262187
O O19 0.299735 0.500000 0.280762
O O20 0.000000 0.774320 0.574075
O O21 0.840195 0.000000 0.574127
#
# Coordination Sequence:
#
# PCOD8201127 Si02
#       7
#     8   8   4   8   8   8   8
#     4   9  17  29  44  63  88 115 142 175 216 258
#     4   9  18  32  47  62  84 114 143 172 211 258
#     4   9  15  23  37  57  84 119 152 179 212 256
#     4   9  17  28  43  65  89 111 140 178 214 248
#     4   8  14  25  41  62  88 115 141 171 209 251
#     4   9  18  32  48  65  85 111 145 181 214 253
#     4   9  16  25  38  59  87 116 146 180 216 254
#
# _framework density 17.356605999999999
#
# number of rings (size 3 to 8) (size 9 to 14) (size 15 to 20)
#    0.000    3.154    0.000    1.154    0.000    4.923 
#    0.000    1.538    0.000    0.462    0.000    3.769 
#    0.000    4.308    0.000    0.000    0.000    0.000 
#
# Total GULP energy -644697.527226 kJ/mol
# GULP energy per Si atom -12398.029370 kJ/mol
# Density = 1.731710 g / cm^3
# Si number density = 17.356606 Si / 1000 Ang^3
#
#
#
# Elastic Constant Matrix: (Units=GPa)
#
#
# Indices 1 2 3 4 5 6 
#
# 1 90.1630 27.2100 89.5083 0.0000 0.0000 0.0000
# 2 27.2100 31.6833 51.2580 0.0000 0.0000 0.0000
# 3 89.5083 51.2580 200.1978 0.0000 0.0000 0.0000
# 4 0.0000 0.0000 0.0000 2.6713 0.0000 0.0000
# 5 0.0000 0.0000 0.0000 0.0000 38.7716 0.0000
# 6 0.0000 0.0000 0.0000 0.0000 0.0000 12.8938
#
#
#
# Elastic Compliance Matrix: (Units=1/GPa)
#
#
# Indices 1 2 3 4 5 6 
#
# 1 0.020345 -0.004706 -0.007892 0.000000 0.000000 0.000000
# 2 -0.004706 0.054970 -0.011970 0.000000 0.000000 0.000000
# 3 -0.007892 -0.011970 0.011588 0.000000 0.000000 0.000000
# 4 0.000000 0.000000 0.000000 0.374346 0.000000 0.000000
# 5 0.000000 0.000000 0.000000 0.000000 0.025792 0.000000
# 6 0.000000 0.000000 0.000000 0.000000 0.000000 0.077557
#
#
# Mechanical properties :
#
#
# Convention : Reuss Voigt Hill
#
# Bulk Modulus (GPa) = 26.47741 73.11076 49.79408
# Shear Modulus (GPa) = 7.98310 21.13852 14.56081
#
# Velocity S-wave (km/s) = 2.14696 3.49362 2.89955
# Velocity P-wave (km/s) = 4.62969 7.64775 6.32147
#
# Compressibility (1/GPa) = 0.03776804
#
# Stress axis : x y z
#
# Youngs Moduli (GPa) = 49.15102 18.19185 86.29437
#
# Poissons Ratio (x) = 0.08561 0.68100
# Poissons Ratio (y) = 0.23129 1.03297
# Poissons Ratio (z) = 0.38788 0.21776
#
# Static dielectric constant tensor:
#      x y z
#    x 3.291020 0.000000 0.000000 
#    y 0.000000 2.822950 0.000000 
#    z 0.000000 0.000000 3.525890 
# 
# 
# High freq. dielectric constant tensor:
#      x y z
#    x 1.670240 0.000000 0.000000 
#    y 0.000000 1.618860 0.000000 
#    z 0.000000 0.000000 1.684540 
# 
# From -- ./inp_files/15466.got.cif
#   From: 2010.03.12/outbox.cif.g09.slc.cpg/sg47_8_cif.got.tgz:15466.got - 2010.04.14 03:12:58.
