data_PCOD8201595
_publ_section_title
;
Structure prediction by ZEFSAII (Michael W. Deem and Ramdas Pophale) SiO2 
 PCOD8201595
Probable space group: P N N N
;
_chemical_formula_sum "Si O2"
_cell_formula_units_Z 64
_cell_length_a 16.508061
_cell_length_b 15.126141
_cell_length_c 11.360059
_cell_angle_alpha 90.000000
_cell_angle_beta 90.000000
_cell_angle_gamma 90.000000
_cell_volume 2836.643747
_symmetry_space_group_name_H-M "P N N N"
_symmetry_group_IT_number 48
_space_group.IT_coordinate_system_code '2'
_symmetry_cell_setting 'orthorhombic'
loop_
_space_group_symop_operation_xyz
x,y,z
1/2-x,1/2-y,z
x,1/2-y,1/2-z
1/2-x,y,1/2-z
-x,-y,-z
1/2+x,1/2+y,-z
-x,1/2+y,1/2+z
1/2+x,-y,1/2+z
loop_
_atom_site_type_symbol
_atom_site_label
_atom_site_fract_x
_atom_site_fract_y
_atom_site_fract_z
Si Si1 0.154602 0.151880 0.743230
Si Si2 0.093513 0.841257 0.725679
Si Si3 0.819800 0.905520 0.507628
Si Si4 0.315391 0.897653 0.996406
Si Si5 0.873060 0.093832 0.024695
Si Si6 0.425314 0.739655 0.386970
Si Si7 0.632213 0.896758 0.495419
Si Si8 0.051137 0.221561 0.428151
O O1 0.116804 0.250000 0.750000
O O2 0.250000 0.158241 0.750000
O O3 0.138215 0.101480 0.621257
O O4 0.115668 0.102294 0.854709
O O5 0.143571 0.750000 0.750000
O O6 0.138376 0.898124 0.627773
O O7 0.087131 0.897690 0.845417
O O8 0.006663 0.803926 0.679758
O O9 0.726863 0.874500 0.514268
O O10 0.869909 0.839127 0.589885
O O11 0.829106 0.005824 0.553767
O O12 0.221639 0.883613 0.967810
O O13 0.347724 0.822891 0.085827
O O14 0.889382 0.997209 0.967589
O O15 0.914715 0.162868 0.938882
O O16 0.439276 0.750000 0.250000
O O17 0.504234 0.698180 0.449675
O O18 0.578826 0.825293 0.567213
#
# Coordination Sequence:
#
# PCOD8201595 Si02
#       8
#     8   8   8   8   8   8   8   8
#     4   9  15  27  53  90 126 161 205 263 316 361
#     4  11  22  41  60  95 127 171 218 265 333 379
#     4  10  20  37  62  97 128 170 224 272 323 380
#     4  10  22  40  69  95 124 163 220 281 325 375
#     4  11  22  43  68  95 122 168 225 276 324 378
#     4  11  26  43  62  98 128 172 211 258 339 399
#     4  10  21  37  64  96 128 171 225 274 323 381
#     4  11  23  40  62  92 139 176 210 259 325 400
#
# _framework density 22.561875000000001
#
# number of rings (size 3 to 8) (size 9 to 14) (size 15 to 20)
#    0.000    1.625    3.750    1.875    1.750    6.000 
#    2.250    0.000    0.000    3.000    0.000    0.000 
#    0.000    0.000    0.000    0.000    0.000    0.000 
#
# Total GULP energy -793126.648156 kJ/mol
# GULP energy per Si atom -12392.603877 kJ/mol
# Density = 2.251052 g / cm^3
# Si number density = 22.561875 Si / 1000 Ang^3
#
#
#
# Elastic Constant Matrix: (Units=GPa)
#
#
# Indices 1 2 3 4 5 6 
#
# 1 99.3790 40.1356 33.3597 0.0000 0.0000 0.0000
# 2 40.1356 102.6292 16.3873 0.0000 0.0000 0.0000
# 3 33.3597 16.3873 81.3678 0.0000 0.0000 0.0000
# 4 0.0000 0.0000 0.0000 17.8731 0.0000 0.0000
# 5 0.0000 0.0000 0.0000 0.0000 19.2826 0.0000
# 6 0.0000 0.0000 0.0000 0.0000 0.0000 27.4216
#
#
#
# Elastic Compliance Matrix: (Units=1/GPa)
#
#
# Indices 1 2 3 4 5 6 
#
# 1 0.013430 -0.004518 -0.004596 0.000000 0.000000 0.000000
# 2 -0.004518 0.011588 -0.000481 0.000000 0.000000 0.000000
# 3 -0.004596 -0.000481 0.014271 0.000000 0.000000 0.000000
# 4 0.000000 0.000000 0.000000 0.055950 0.000000 0.000000
# 5 0.000000 0.000000 0.000000 0.000000 0.051860 0.000000
# 6 0.000000 0.000000 0.000000 0.000000 0.000000 0.036468
#
#
# Mechanical properties :
#
#
# Convention : Reuss Voigt Hill
#
# Bulk Modulus (GPa) = 49.75765 51.46015 50.60890
# Shear Modulus (GPa) = 23.87118 25.81501 24.84310
#
# Velocity S-wave (km/s) = 3.25627 3.38625 3.32190
# Velocity P-wave (km/s) = 6.01992 6.17632 6.09862
#
# Compressibility (1/GPa) = 0.02009741
#
# Stress axis : x y z
#
# Youngs Moduli (GPa) = 74.45953 86.29881 70.07132
#
# Poissons Ratio (x) = 0.38992 0.32206
# Poissons Ratio (y) = 0.33643 0.03372
# Poissons Ratio (z) = 0.34223 0.04153
#
# Static dielectric constant tensor:
#      x y z
#    x 4.059010 0.000000 0.000000 
#    y 0.000000 4.164730 0.000000 
#    z 0.000000 0.000000 3.789390 
# 
# 
# High freq. dielectric constant tensor:
#      x y z
#    x 1.888080 0.000000 0.000000 
#    y 0.000000 1.896190 0.000000 
#    z 0.000000 0.000000 1.862460 
# 
# From -- ./inp_files/22351.got.cif
#   From: 2010.06.25/outbox.cif.g09.slc.cpg/sg48_12_cif.got.tgz:22351.got - 2010.06.26 18:06:46.
