data_PCOD8201256
_publ_section_title
;
Structure prediction by ZEFSAII (Michael W. Deem and Ramdas Pophale) SiO2 
 PCOD8201256
Probable space group: P N N N
;
_chemical_formula_sum "Si O2"
_cell_formula_units_Z 58
_cell_length_a 22.063145
_cell_length_b 14.504113
_cell_length_c 11.366632
_cell_angle_alpha 90.000000
_cell_angle_beta 90.000000
_cell_angle_gamma 90.000000
_cell_volume 3637.394398
_symmetry_space_group_name_H-M "P N N N"
_symmetry_group_IT_number 48
_space_group.IT_coordinate_system_code '2'
_symmetry_cell_setting 'orthorhombic'
loop_
_space_group_symop_operation_xyz
x,y,z
1/2-x,1/2-y,z
x,1/2-y,1/2-z
1/2-x,y,1/2-z
-x,-y,-z
1/2+x,1/2+y,-z
-x,1/2+y,1/2+z
1/2+x,-y,1/2+z
loop_
_atom_site_type_symbol
_atom_site_label
_atom_site_fract_x
_atom_site_fract_y
_atom_site_fract_z
Si Si1 0.031155 0.184258 0.150884
Si Si2 0.466675 0.748639 0.428346
Si Si3 0.835288 0.155059 0.932158
Si Si4 0.250000 0.750000 0.250000
Si Si5 0.414345 0.494573 0.078331
Si Si6 0.430703 0.954226 0.685711
Si Si7 0.312031 0.654161 0.807344
Si Si8 0.994850 0.393720 0.750541
O O1 0.061065 0.250000 0.250000
O O2 0.083410 0.116559 0.096215
O O3 0.977157 0.127839 0.214195
O O4 0.000201 0.249107 0.052584
O O5 0.397860 0.786274 0.433258
O O6 0.506084 0.810281 0.339259
O O7 0.469078 0.644308 0.375370
O O8 0.792208 0.184650 0.827175
O O9 0.848552 0.044758 0.918458
O O10 0.801045 0.171975 0.054610
O O11 0.448739 0.535019 0.190980
O O12 0.443509 0.521912 0.952244
O O13 0.362703 0.923283 0.713729
O O14 0.443504 0.045610 0.765086
O O15 0.332886 0.750000 0.750000
O O16 0.250000 0.617738 0.750000
#
# Coordination Sequence:
#
# PCOD8201256 Si02
#       8
#     8   8   8   2   8   8   8   8
#     4  11  18  28  49  71  97 124 166 185 236 303
#     4  10  17  29  47  74  94 127 152 194 235 281
#     4  10  20  31  51  65  99 131 158 196 230 280
#     4  12  20  32  46  80  90 128 176 194 230 280
#     4   9  16  32  46  69  93 132 161 187 235 295
#     4  10  16  29  47  67  94 133 157 187 235 291
#     4  10  19  31  47  68  93 125 164 196 230 275
#     4   9  15  26  47  68  95 118 156 195 228 282
#
# _framework density 15.945479000000001
#
# number of rings (size 3 to 8) (size 9 to 14) (size 15 to 20)
#    0.000    2.069    5.517    3.724    0.000    0.000 
#    0.000    2.759    6.069    0.000    0.000    2.414 
#    0.000    0.000    0.000    0.000    0.000    0.000 
#
# Total GULP energy -718508.253889 kJ/mol
# GULP energy per Si atom -12388.073343 kJ/mol
# Density = 1.590919 g / cm^3
# Si number density = 15.945479 Si / 1000 Ang^3
#
#
#
# Elastic Constant Matrix: (Units=GPa)
#
#
# Indices 1 2 3 4 5 6 
#
# 1 74.0254 40.2313 39.3454 0.0000 0.0000 0.0000
# 2 40.2313 75.1572 48.3808 0.0000 0.0000 0.0000
# 3 39.3454 48.3808 88.3478 0.0000 0.0000 0.0000
# 4 0.0000 0.0000 0.0000 26.3182 0.0000 0.0000
# 5 0.0000 0.0000 0.0000 0.0000 19.2572 0.0000
# 6 0.0000 0.0000 0.0000 0.0000 0.0000 18.9470
#
#
#
# Elastic Compliance Matrix: (Units=1/GPa)
#
#
# Indices 1 2 3 4 5 6 
#
# 1 0.020272 -0.007784 -0.004766 0.000000 0.000000 0.000000
# 2 -0.007784 0.023538 -0.009423 0.000000 0.000000 0.000000
# 3 -0.004766 -0.009423 0.018602 0.000000 0.000000 0.000000
# 4 0.000000 0.000000 0.000000 0.037997 0.000000 0.000000
# 5 0.000000 0.000000 0.000000 0.000000 0.051929 0.000000
# 6 0.000000 0.000000 0.000000 0.000000 0.000000 0.052779
#
#
# Mechanical properties :
#
#
# Convention : Reuss Voigt Hill
#
# Bulk Modulus (GPa) = 54.15251 54.82725 54.48988
# Shear Modulus (GPa) = 19.59115 20.20934 19.90025
#
# Velocity S-wave (km/s) = 3.50899 3.56392 3.53656
# Velocity P-wave (km/s) = 7.10296 7.16898 7.13605
#
# Compressibility (1/GPa) = 0.01846637
#
# Stress axis : x y z
#
# Youngs Moduli (GPa) = 49.32857 42.48408 53.75870
#
# Poissons Ratio (x) = 0.33069 0.25619
# Poissons Ratio (y) = 0.38397 0.50659
# Poissons Ratio (z) = 0.23508 0.40034
#
# Static dielectric constant tensor:
#      x y z
#    x 2.867530 0.000000 0.000000 
#    y 0.000000 3.286680 0.000000 
#    z 0.000000 0.000000 3.056500 
# 
# 
# High freq. dielectric constant tensor:
#      x y z
#    x 1.573310 0.000000 0.000000 
#    y 0.000000 1.602920 0.000000 
#    z 0.000000 0.000000 1.612430 
# 
# From -- ./inp_files/16023.got.cif
#   From: 2010.06.25/outbox.cif.g09.slc.cpg/sg48_9_cif.got.tgz:16023.got - 2010.06.26 18:06:46.
