data_PCOD8201639
_publ_section_title
;
Structure prediction by ZEFSAII (Michael W. Deem and Ramdas Pophale) SiO2 
 PCOD8201639
Probable space group: P N N N
;
_chemical_formula_sum "Si O2"
_cell_formula_units_Z 58
_cell_length_a 9.356514
_cell_length_b 26.581530
_cell_length_c 10.908872
_cell_angle_alpha 90.000000
_cell_angle_beta 90.000000
_cell_angle_gamma 90.000000
_cell_volume 2713.150547
_symmetry_space_group_name_H-M "P N N N"
_symmetry_group_IT_number 48
_space_group.IT_coordinate_system_code '2'
_symmetry_cell_setting 'orthorhombic'
loop_
_space_group_symop_operation_xyz
x,y,z
1/2-x,1/2-y,z
x,1/2-y,1/2-z
1/2-x,y,1/2-z
-x,-y,-z
1/2+x,1/2+y,-z
-x,1/2+y,1/2+z
1/2+x,-y,1/2+z
loop_
_atom_site_type_symbol
_atom_site_label
_atom_site_fract_x
_atom_site_fract_y
_atom_site_fract_z
Si Si1 0.761514 0.491999 0.884819
Si Si2 0.301837 0.694919 0.468188
Si Si3 0.686572 0.585033 0.473604
Si Si4 0.626386 0.134515 0.343596
Si Si5 0.922944 0.106965 0.682182
Si Si6 0.435578 0.328431 0.366415
Si Si7 0.750000 0.750000 0.750000
Si Si8 0.480519 0.928501 0.443425
O O1 0.750000 0.515971 0.750000
O O2 0.850262 0.530232 0.970142
O O3 0.841280 0.438522 0.885892
O O4 0.594792 0.483781 0.928937
O O5 0.250000 0.750000 0.421199
O O6 0.177870 0.676163 0.559325
O O7 0.342054 0.658520 0.354370
O O8 0.445143 0.694816 0.546726
O O9 0.588076 0.600798 0.359009
O O10 0.658316 0.626549 0.577317
O O11 0.850302 0.578712 0.431661
O O12 0.750000 0.116247 0.250000
O O13 0.495837 0.155218 0.265185
O O14 0.571903 0.088076 0.423004
O O15 0.914840 0.104025 0.829269
O O16 0.335375 0.282058 0.346771
#
# Coordination Sequence:
#
# PCOD8201639 Si02
#       8
#     8   8   8   8   8   8   2   8
#     4  10  22  39  63  90 127 167 217 265 309 385
#     4  10  20  39  66  93 122 163 215 265 314 380
#     4  11  23  40  63  94 128 170 210 259 323 388
#     4  10  21  39  62  92 125 162 206 266 314 374
#     4  10  22  43  62  92 130 169 210 264 322 380
#     4  10  23  36  61  93 127 165 211 258 324 386
#     4  12  20  36  54  88 130 164 196 258 322 370
#     4  11  22  40  64  91 129 168 210 260 322 380
#
# _framework density 21.377362999999999
#
# number of rings (size 3 to 8) (size 9 to 14) (size 15 to 20)
#    0.000    1.655    1.379    2.897    2.897    1.931 
#    0.000    1.379    0.000    0.000    0.000    5.793 
#    0.000    0.000    0.000    0.000    0.000    0.000 
#
# Total GULP energy -718602.421282 kJ/mol
# GULP energy per Si atom -12389.696919 kJ/mol
# Density = 2.132871 g / cm^3
# Si number density = 21.377363 Si / 1000 Ang^3
#
#
#
# Elastic Constant Matrix: (Units=GPa)
#
#
# Indices 1 2 3 4 5 6 
#
# 1 99.5167 37.6781 19.7862 0.0000 0.0000 0.0000
# 2 37.6781 105.2612 23.0183 0.0000 0.0000 0.0000
# 3 19.7862 23.0183 76.4875 0.0000 0.0000 0.0000
# 4 0.0000 0.0000 0.0000 20.8647 0.0000 0.0000
# 5 0.0000 0.0000 0.0000 0.0000 20.8264 0.0000
# 6 0.0000 0.0000 0.0000 0.0000 0.0000 37.1974
#
#
#
# Elastic Compliance Matrix: (Units=1/GPa)
#
#
# Indices 1 2 3 4 5 6 
#
# 1 0.011882 -0.003833 -0.001920 0.000000 0.000000 0.000000
# 2 -0.003833 0.011406 -0.002441 0.000000 0.000000 0.000000
# 3 -0.001920 -0.002441 0.014305 0.000000 0.000000 0.000000
# 4 0.000000 0.000000 0.000000 0.047928 0.000000 0.000000
# 5 0.000000 0.000000 0.000000 0.000000 0.048016 0.000000
# 6 0.000000 0.000000 0.000000 0.000000 0.000000 0.026884
#
#
# Mechanical properties :
#
#
# Convention : Reuss Voigt Hill
#
# Bulk Modulus (GPa) = 47.15952 49.13673 48.14813
# Shear Modulus (GPa) = 27.19210 29.16320 28.17765
#
# Velocity S-wave (km/s) = 3.57039 3.69753 3.63451
# Velocity P-wave (km/s) = 6.25342 6.42373 6.33914
#
# Compressibility (1/GPa) = 0.02120463
#
# Stress axis : x y z
#
# Youngs Moduli (GPa) = 84.16389 87.67289 69.90408
#
# Poissons Ratio (x) = 0.33606 0.13422
# Poissons Ratio (y) = 0.32261 0.17063
# Poissons Ratio (z) = 0.16160 0.21401
#
# Static dielectric constant tensor:
#      x y z
#    x 4.157430 0.000000 0.000000 
#    y 0.000000 3.684500 0.000000 
#    z 0.000000 0.000000 3.903610 
# 
# 
# High freq. dielectric constant tensor:
#      x y z
#    x 1.856090 0.000000 0.000000 
#    y 0.000000 1.822950 0.000000 
#    z 0.000000 0.000000 1.843280 
# 
# From -- ./inp_files/18951.got.cif
#   From: 2010.06.25/outbox.cif.g09.slc.cpg/sg48_10_cif.got.tgz:18951.got - 2010.06.26 18:06:46.
