data_PCOD8201016
_publ_section_title
;
Structure prediction by ZEFSAII (Michael W. Deem and Ramdas Pophale) SiO2 
 PCOD8201016
Probable space group: P M M M
;
_chemical_formula_sum "Si O2"
_cell_formula_units_Z 56
_cell_length_a 28.890618
_cell_length_b 9.721081
_cell_length_c 13.564530
_cell_angle_alpha 90.000000
_cell_angle_beta 90.000000
_cell_angle_gamma 90.000000
_cell_volume 3809.571633
_symmetry_space_group_name_H-M "P M M M"
_symmetry_group_IT_number 47
_symmetry_cell_setting 'orthorhombic'
loop_
_space_group_symop_operation_xyz
x,y,z
-x,-y,z
x,-y,-z
-x,y,-z
-x,-y,-z
x,y,-z
-x,y,z
x,-y,z
loop_
_atom_site_type_symbol
_atom_site_label
_atom_site_fract_x
_atom_site_fract_y
_atom_site_fract_z
Si Si1 0.274553 0.658820 0.229339
Si Si2 0.948806 0.836908 0.390032
Si Si3 0.551112 0.845582 0.882933
Si Si4 0.817730 0.658195 0.886411
Si Si5 0.633910 0.340011 0.114058
Si Si6 0.230422 0.158726 0.613665
Si Si7 0.862068 0.839838 0.269720
O O1 0.276043 0.500000 0.261617
O O2 0.234020 0.686289 0.151096
O O3 0.321771 0.704757 0.177097
O O4 0.267279 0.749851 0.326796
O O5 0.940842 0.777063 0.500000
O O6 0.909477 0.781042 0.316751
O O7 0.000000 0.793567 0.351726
O O8 0.944616 0.000000 0.395386
O O9 0.500000 0.802486 0.843623
O O10 0.589950 0.742056 0.842137
O O11 0.562944 0.000000 0.847350
O O12 0.550680 0.839182 0.000000
O O13 0.831777 0.500000 0.869644
O O14 0.853949 0.754022 0.829394
O O15 0.819699 0.699854 0.000000
O O16 0.622882 0.500000 0.126176
O O17 0.643570 0.302972 0.000000
O O18 0.232456 0.202658 0.500000
O O19 0.178643 0.186631 0.651891
O O20 0.244054 0.000000 0.628196
O O21 0.865691 0.000000 0.241512
#
# Coordination Sequence:
#
# PCOD8201016 Si02
#       7
#     8   8   8   8   8   8   8
#     4   9  17  28  41  58  79 103 133 166 197 230
#     4   8  13  22  39  63  86 105 126 155 195 242
#     4   8  14  24  36  51  74 104 135 164 194 229
#     4   9  17  29  43  57  77 107 138 165 195 232
#     4   9  16  25  38  56  78 104 133 165 198 229
#     4   9  17  28  41  58  81 106 129 156 193 235
#     4   9  16  26  42  63  83 102 128 163 197 229
#
# _framework density 14.699814999999999
#
# number of rings (size 3 to 8) (size 9 to 14) (size 15 to 20)
#    0.000    3.286    0.000    1.714    0.000    4.857 
#    0.000    1.429    0.000    4.714    0.000    4.000 
#    0.000    0.571    0.000    6.286    0.000    4.857 
#
# Total GULP energy -694210.219745 kJ/mol
# GULP energy per Si atom -12396.611067 kJ/mol
# Density = 1.466636 g / cm^3
# Si number density = 14.699815 Si / 1000 Ang^3
#
#
#
# Elastic Constant Matrix: (Units=GPa)
#
#
# Indices 1 2 3 4 5 6 
#
# 1 118.7185 52.7657 55.1942 0.0000 0.0000 0.0000
# 2 52.7657 54.6669 47.5579 0.0000 0.0000 0.0000
# 3 55.1942 47.5579 95.4362 0.0000 0.0000 0.0000
# 4 0.0000 0.0000 0.0000 21.4949 0.0000 0.0000
# 5 0.0000 0.0000 0.0000 0.0000 19.9618 0.0000
# 6 0.0000 0.0000 0.0000 0.0000 0.0000 20.1738
#
#
#
# Elastic Compliance Matrix: (Units=1/GPa)
#
#
# Indices 1 2 3 4 5 6 
#
# 1 0.015108 -0.012324 -0.002596 0.000000 0.000000 0.000000
# 2 -0.012324 0.042344 -0.013974 0.000000 0.000000 0.000000
# 3 -0.002596 -0.013974 0.018943 0.000000 0.000000 0.000000
# 4 0.000000 0.000000 0.000000 0.046523 0.000000 0.000000
# 5 0.000000 0.000000 0.000000 0.000000 0.050096 0.000000
# 6 0.000000 0.000000 0.000000 0.000000 0.000000 0.049569
#
#
# Mechanical properties :
#
#
# Convention : Reuss Voigt Hill
#
# Bulk Modulus (GPa) = 53.74109 64.42859 59.08484
# Shear Modulus (GPa) = 17.44757 19.87969 18.66363
#
# Velocity S-wave (km/s) = 3.44891 3.68146 3.56708
# Velocity P-wave (km/s) = 7.24558 7.87372 7.56617
#
# Compressibility (1/GPa) = 0.01860774
#
# Stress axis : x y z
#
# Youngs Moduli (GPa) = 66.19147 23.61587 52.78964
#
# Poissons Ratio (x) = 0.29104 0.13705
# Poissons Ratio (y) = 0.81573 0.73768
# Poissons Ratio (z) = 0.17184 0.33000
#
# Static dielectric constant tensor:
#      x y z
#    x 3.012630 0.000000 0.000000 
#    y 0.000000 2.786660 0.000000 
#    z 0.000000 0.000000 2.683140 
# 
# 
# High freq. dielectric constant tensor:
#      x y z
#    x 1.559410 0.000000 0.000000 
#    y 0.000000 1.550870 0.000000 
#    z 0.000000 0.000000 1.533490 
# 
# From -- ./inp_files/14221.got.cif
#   From: 2010.03.12/outbox.cif.g09.slc.cpg/sg47_8_cif.got.tgz:14221.got - 2010.04.14 03:12:58.
