data_PCOD8201613
_publ_section_title
;
Structure prediction by ZEFSAII (Michael W. Deem and Ramdas Pophale) SiO2 
 PCOD8201613
Probable space group: P N N N
;
_chemical_formula_sum "Si O2"
_cell_formula_units_Z 36
_cell_length_a 13.956842
_cell_length_b 15.194880
_cell_length_c 8.700521
_cell_angle_alpha 90.000000
_cell_angle_beta 90.000000
_cell_angle_gamma 90.000000
_cell_volume 1845.141582
_symmetry_space_group_name_H-M "P N N N"
_symmetry_group_IT_number 48
_space_group.IT_coordinate_system_code '2'
_symmetry_cell_setting 'orthorhombic'
loop_
_space_group_symop_operation_xyz
x,y,z
1/2-x,1/2-y,z
x,1/2-y,1/2-z
1/2-x,y,1/2-z
-x,-y,-z
1/2+x,1/2+y,-z
-x,1/2+y,1/2+z
1/2+x,-y,1/2+z
loop_
_atom_site_type_symbol
_atom_site_label
_atom_site_fract_x
_atom_site_fract_y
_atom_site_fract_z
Si Si1 0.750000 0.250000 0.750000
Si Si2 0.276328 0.457492 0.925047
Si Si3 0.423889 0.166718 0.449234
Si Si4 0.750000 0.250000 0.250000
Si Si5 0.157513 0.350445 0.146843
Si Si6 0.642956 0.357126 0.999467
O O1 0.682885 0.188012 0.651160
O O2 0.250000 0.477488 0.750000
O O3 0.323525 0.542353 0.002671
O O4 0.353587 0.379524 0.928998
O O5 0.182757 0.427619 0.025238
O O6 0.418748 0.120630 0.278873
O O7 0.388823 0.268022 0.442810
O O8 0.529717 0.154215 0.511486
O O9 0.680661 0.310812 0.151896
O O10 0.250000 0.323838 0.250000
#
# Coordination Sequence:
#
# PCOD8201613 Si02
#       6
#     2   8   8   2   8   8
#     4  10  28  42  64  78 112 170 196 258 316 370
#     4  11  22  37  59  93 126 157 191 251 307 359
#     4  10  20  38  63  89 118 157 204 250 292 364
#     4  10  20  42  64  74 124 162 196 246 308 370
#     4   9  19  37  63  90 122 163 198 243 310 360
#     4  11  23  42  61  88 117 158 210 248 305 363
#
# _framework density 19.510698999999999
#
# number of rings (size 3 to 8) (size 9 to 14) (size 15 to 20)
#    0.000    1.778    1.111    6.667    4.667    3.556 
#    0.000    1.111    0.000    0.000    0.000    0.000 
#    0.000    0.000    0.000    0.000    0.000    0.000 
#
# Total GULP energy -446186.568075 kJ/mol
# GULP energy per Si atom -12394.071335 kJ/mol
# Density = 1.946629 g / cm^3
# Si number density = 19.510699 Si / 1000 Ang^3
#
#
#
# Elastic Constant Matrix: (Units=GPa)
#
#
# Indices 1 2 3 4 5 6 
#
# 1 110.4748 41.4992 44.3927 0.0000 0.0000 0.0000
# 2 41.4992 98.5185 36.2421 0.0000 0.0000 0.0000
# 3 44.3927 36.2421 95.8825 0.0000 0.0000 0.0000
# 4 0.0000 0.0000 0.0000 49.7049 0.0000 0.0000
# 5 0.0000 0.0000 0.0000 0.0000 -34.6581 0.0000
# 6 0.0000 0.0000 0.0000 0.0000 0.0000 39.4148
#
#
#
# Elastic Compliance Matrix: (Units=1/GPa)
#
#
# Indices 1 2 3 4 5 6 
#
# 1 0.012089 -0.003523 -0.004266 0.000000 0.000000 0.000000
# 2 -0.003523 0.012817 -0.003213 0.000000 0.000000 0.000000
# 3 -0.004266 -0.003213 0.013619 0.000000 0.000000 0.000000
# 4 0.000000 0.000000 0.000000 0.020119 0.000000 0.000000
# 5 0.000000 0.000000 0.000000 0.000000 -0.028853 0.000000
# 6 0.000000 0.000000 0.000000 0.000000 0.000000 0.025371
#
#
# Mechanical properties :
#
#
# Convention : Reuss Voigt Hill
#
# Bulk Modulus (GPa) = 60.52987 61.01598 60.77293
# Shear Modulus (GPa) = 60.47974 23.07512 41.77743
#
# Velocity S-wave (km/s) = 5.57365 3.44276 4.63239
# Velocity P-wave (km/s) = 8.51540 6.86618 7.73487
#
# Compressibility (1/GPa) = 0.01652077
#
# Stress axis : x y z
#
# Youngs Moduli (GPa) = 82.71733 78.02418 73.42751
#
# Poissons Ratio (x) = 0.27490 0.31321
# Poissons Ratio (y) = 0.29144 0.23594
# Poissons Ratio (z) = 0.35283 0.25071
#
# Static dielectric constant tensor:
#      x y z
#    x 3.627010 0.000000 0.000000 
#    y 0.000000 3.546390 0.000000 
#    z 0.000000 0.000000 3.525120 
# 
# 
# High freq. dielectric constant tensor:
#      x y z
#    x 1.753660 0.000000 0.000000 
#    y 0.000000 1.760170 0.000000 
#    z 0.000000 0.000000 1.758370 
# 
# From -- ./inp_files/12261.got.cif
#   From: 2010.06.25/outbox.cif.g09.slc.cpg/sg48_7_cif.got.tgz:12261.got - 2010.06.26 18:06:46.
