data_PCOD8201522
_publ_section_title
;
Structure prediction by ZEFSAII (Michael W. Deem and Ramdas Pophale) SiO2 
 PCOD8201522
Probable space group: P N N N
;
_chemical_formula_sum "Si O2"
_cell_formula_units_Z 60
_cell_length_a 12.094741
_cell_length_b 11.846843
_cell_length_c 22.142602
_cell_angle_alpha 90.000000
_cell_angle_beta 90.000000
_cell_angle_gamma 90.000000
_cell_volume 3172.691607
_symmetry_space_group_name_H-M "P N N N"
_symmetry_group_IT_number 48
_space_group.IT_coordinate_system_code '2'
_symmetry_cell_setting 'orthorhombic'
loop_
_space_group_symop_operation_xyz
x,y,z
1/2-x,1/2-y,z
x,1/2-y,1/2-z
1/2-x,y,1/2-z
-x,-y,-z
1/2+x,1/2+y,-z
-x,1/2+y,1/2+z
1/2+x,-y,1/2+z
loop_
_atom_site_type_symbol
_atom_site_label
_atom_site_fract_x
_atom_site_fract_y
_atom_site_fract_z
Si Si1 0.048918 0.609378 0.185961
Si Si2 0.763563 0.378223 0.618177
Si Si3 0.580214 0.496148 0.406440
Si Si4 0.250000 0.250000 0.988289
Si Si5 0.665273 0.160326 0.489351
Si Si6 0.171412 0.044695 0.909983
Si Si7 0.984273 0.370951 0.674489
Si Si8 0.022711 0.173653 0.492129
O O1 0.163870 0.565127 0.155476
O O2 0.042313 0.594950 0.257216
O O3 0.012209 0.735777 0.167009
O O4 0.963400 0.518831 0.160278
O O5 0.750000 0.250000 0.639062
O O6 0.760391 0.389975 0.545204
O O7 0.882587 0.425462 0.637896
O O8 0.709754 0.493866 0.394564
O O9 0.538582 0.378627 0.434194
O O10 0.533069 0.593704 0.450104
O O11 0.188019 0.158665 0.947095
O O12 0.148951 0.297256 0.028726
O O13 0.750000 0.250000 0.457357
O O14 0.552669 0.220275 0.513037
O O15 0.619381 0.057839 0.448736
O O16 0.097251 0.073231 0.851126
#
# Coordination Sequence:
#
# PCOD8201522 Si02
#       8
#     8   8   8   4   8   8   8   8
#     4  10  20  34  56  79 114 154 191 232 287 341
#     4   9  18  31  54  81 115 145 186 232 291 346
#     4  10  20  35  55  78 113 155 188 230 281 359
#     4  10  22  34  52  85 118 151 182 236 296 356
#     4  11  20  35  58  86 114 155 189 234 288 347
#     4  11  22  36  55  83 122 146 187 236 287 346
#     4  10  20  35  52  83 114 149 192 241 283 335
#     4  10  20  35  54  80 118 148 191 231 293 349
#
# _framework density 18.911387000000001
#
# number of rings (size 3 to 8) (size 9 to 14) (size 15 to 20)
#    0.000    1.867    1.333    5.200    3.733    4.267 
#    0.000    1.333    0.000    0.800    0.000    0.000 
#    0.000    0.000    0.000    0.000    0.000    0.000 
#
# Total GULP energy -743371.259567 kJ/mol
# GULP energy per Si atom -12389.520993 kJ/mol
# Density = 1.886834 g / cm^3
# Si number density = 18.911387 Si / 1000 Ang^3
#
#
#
# Elastic Constant Matrix: (Units=GPa)
#
#
# Indices 1 2 3 4 5 6 
#
# 1 119.3204 25.4483 34.2252 0.0000 0.0000 0.0000
# 2 25.4483 54.4414 31.1072 0.0000 0.0000 0.0000
# 3 34.2252 31.1072 78.0449 0.0000 0.0000 0.0000
# 4 0.0000 0.0000 0.0000 22.9145 0.0000 0.0000
# 5 0.0000 0.0000 0.0000 0.0000 27.9603 0.0000
# 6 0.0000 0.0000 0.0000 0.0000 0.0000 22.5584
#
#
#
# Elastic Compliance Matrix: (Units=1/GPa)
#
#
# Indices 1 2 3 4 5 6 
#
# 1 0.009901 -0.002781 -0.003234 0.000000 0.000000 0.000000
# 2 -0.002781 0.024566 -0.008572 0.000000 0.000000 0.000000
# 3 -0.003234 -0.008572 0.017648 0.000000 0.000000 0.000000
# 4 0.000000 0.000000 0.000000 0.043640 0.000000 0.000000
# 5 0.000000 0.000000 0.000000 0.000000 0.035765 0.000000
# 6 0.000000 0.000000 0.000000 0.000000 0.000000 0.044329
#
#
# Mechanical properties :
#
#
# Convention : Reuss Voigt Hill
#
# Bulk Modulus (GPa) = 43.58751 48.15203 45.86977
# Shear Modulus (GPa) = 23.51046 25.42170 24.46608
#
# Velocity S-wave (km/s) = 3.52972 3.67038 3.60074
# Velocity P-wave (km/s) = 6.30160 6.59390 6.44941
#
# Compressibility (1/GPa) = 0.02294235
#
# Stress axis : x y z
#
# Youngs Moduli (GPa) = 100.99584 40.70624 56.66366
#
# Poissons Ratio (x) = 0.11319 0.18324
# Poissons Ratio (y) = 0.28083 0.48574
# Poissons Ratio (z) = 0.32660 0.34894
#
# Static dielectric constant tensor:
#      x y z
#    x 3.758900 0.000000 0.000000 
#    y 0.000000 3.325690 0.000000 
#    z 0.000000 0.000000 3.177540 
# 
# 
# High freq. dielectric constant tensor:
#      x y z
#    x 1.758770 0.000000 0.000000 
#    y 0.000000 1.699810 0.000000 
#    z 0.000000 0.000000 1.701120 
# 
# From -- ./inp_files/22941.got.cif
#   From: 2010.06.25/outbox.cif.g09.slc.cpg/sg48_12_cif.got.tgz:22941.got - 2010.06.26 18:06:46.
