data_PCOD8201732
_publ_section_title
;
Structure prediction by ZEFSAII (Michael W. Deem and Ramdas Pophale) SiO2 
 PCOD8201732
Probable space group: P N N N
;
_chemical_formula_sum "Si O2"
_cell_formula_units_Z 64
_cell_length_a 8.844277
_cell_length_b 12.000308
_cell_length_c 25.814586
_cell_angle_alpha 90.000000
_cell_angle_beta 90.000000
_cell_angle_gamma 90.000000
_cell_volume 2739.806511
_symmetry_space_group_name_H-M "P N N N"
_symmetry_group_IT_number 48
_space_group.IT_coordinate_system_code '2'
_symmetry_cell_setting 'orthorhombic'
loop_
_space_group_symop_operation_xyz
x,y,z
1/2-x,1/2-y,z
x,1/2-y,1/2-z
1/2-x,y,1/2-z
-x,-y,-z
1/2+x,1/2+y,-z
-x,1/2+y,1/2+z
1/2+x,-y,1/2+z
loop_
_atom_site_type_symbol
_atom_site_label
_atom_site_fract_x
_atom_site_fract_y
_atom_site_fract_z
Si Si1 0.501078 0.355686 0.614911
Si Si2 0.831345 0.447936 0.800047
Si Si3 0.672158 0.633803 0.861912
Si Si4 0.330865 0.064136 0.799249
Si Si5 0.312215 0.127082 0.478659
Si Si6 0.816229 0.364674 0.355408
Si Si7 0.428595 0.743981 0.486768
Si Si8 0.638348 0.457009 0.448923
O O1 0.652569 0.362201 0.651087
O O2 0.355149 0.345112 0.653902
O O3 0.514707 0.258014 0.573211
O O4 0.480736 0.473732 0.585127
O O5 0.750000 0.392414 0.750000
O O6 0.730388 0.551289 0.817788
O O7 0.002583 0.484510 0.784610
O O8 0.750000 0.750000 0.850125
O O9 0.494264 0.647410 0.858975
O O10 0.717042 0.591687 0.919528
O O11 0.250000 0.122249 0.750000
O O12 0.223334 0.963916 0.816487
O O13 0.250000 0.250000 0.493213
O O14 0.493626 0.146589 0.488488
O O15 0.245571 0.034281 0.516118
O O16 0.750000 0.250000 0.332797
O O17 0.746292 0.384195 0.412302
O O18 0.250000 0.750000 0.488628
O O19 0.467567 0.627221 0.516763
#
# Coordination Sequence:
#
# PCOD8201732 Si02
#       8
#     8   8   8   8   8   8   8   8
#     4   9  22  38  66  91 129 173 212 276 340 394
#     4  10  21  38  63  92 121 167 222 276 345 389
#     4  11  23  35  54  91 136 170 215 274 327 396
#     4   9  20  39  64  91 120 170 221 273 334 406
#     4  11  24  38  65  97 135 183 230 266 335 417
#     4  11  22  38  60  89 128 180 222 266 327 407
#     4  12  24  40  66 103 140 180 223 277 338 412
#     4  11  22  41  65  94 138 180 225 273 339 403
#
# _framework density 23.359311999999999
#
# number of rings (size 3 to 8) (size 9 to 14) (size 15 to 20)
#    0.750    0.750    1.250    4.500    3.500    3.500 
#    0.000    2.500    0.000    0.375    3.250    0.000 
#    0.000    0.000    0.000    0.000    0.000    0.000 
#
# Total GULP energy -793091.731388 kJ/mol
# GULP energy per Si atom -12392.058303 kJ/mol
# Density = 2.330614 g / cm^3
# Si number density = 23.359312 Si / 1000 Ang^3
#
#
#
# Elastic Constant Matrix: (Units=GPa)
#
#
# Indices 1 2 3 4 5 6 
#
# 1 79.0381 -3.1425 16.4396 0.0000 0.0000 0.0000
# 2 -3.1425 28.7342 5.4159 0.0000 0.0000 0.0000
# 3 16.4396 5.4159 112.8097 0.0000 0.0000 0.0000
# 4 0.0000 0.0000 0.0000 16.9453 0.0000 0.0000
# 5 0.0000 0.0000 0.0000 0.0000 50.2949 0.0000
# 6 0.0000 0.0000 0.0000 0.0000 0.0000 26.0401
#
#
#
# Elastic Compliance Matrix: (Units=1/GPa)
#
#
# Indices 1 2 3 4 5 6 
#
# 1 0.013141 0.001814 -0.002002 0.000000 0.000000 0.000000
# 2 0.001814 0.035370 -0.001963 0.000000 0.000000 0.000000
# 3 -0.002002 -0.001963 0.009250 0.000000 0.000000 0.000000
# 4 0.000000 0.000000 0.000000 0.059014 0.000000 0.000000
# 5 0.000000 0.000000 0.000000 0.000000 0.019883 0.000000
# 6 0.000000 0.000000 0.000000 0.000000 0.000000 0.038402
#
#
# Mechanical properties :
#
#
# Convention : Reuss Voigt Hill
#
# Bulk Modulus (GPa) = 18.70522 28.66756 23.68639
# Shear Modulus (GPa) = 25.35750 32.11399 28.73574
#
# Velocity S-wave (km/s) = 3.29833 3.71183 3.51117
# Velocity P-wave (km/s) = 4.74661 5.53799 5.15750
#
# Compressibility (1/GPa) = 0.05346101
#
# Stress axis : x y z
#
# Youngs Moduli (GPa) = 76.09951 28.27248 108.10262
#
# Poissons Ratio (x) = -0.05130 0.21643
# Poissons Ratio (y) = -0.13808 0.21215
# Poissons Ratio (z) = 0.15236 0.05549
#
# Static dielectric constant tensor:
#      x y z
#    x 4.297070 0.000000 0.000000 
#    y 0.000000 3.819460 0.000000 
#    z 0.000000 0.000000 4.463660 
# 
# 
# High freq. dielectric constant tensor:
#      x y z
#    x 1.936380 0.000000 0.000000 
#    y 0.000000 1.886060 0.000000 
#    z 0.000000 0.000000 1.933870 
# 
# From -- ./inp_files/36001.got.cif
#   From: 2010.06.25/outbox.cif.g09.slc.cpg/sg48_19_cif.got.tgz:36001.got - 2010.06.26 18:06:46.
