data_PCOD8201420
_publ_section_title
;
Structure prediction by ZEFSAII (Michael W. Deem and Ramdas Pophale) SiO2 
 PCOD8201420
Probable space group: P N N N
;
_chemical_formula_sum "Si O2"
_cell_formula_units_Z 52
_cell_length_a 20.665431
_cell_length_b 8.608603
_cell_length_c 14.163895
_cell_angle_alpha 90.000000
_cell_angle_beta 90.000000
_cell_angle_gamma 90.000000
_cell_volume 2519.763879
_symmetry_space_group_name_H-M "P N N N"
_symmetry_group_IT_number 48
_space_group.IT_coordinate_system_code '2'
_symmetry_cell_setting 'orthorhombic'
loop_
_space_group_symop_operation_xyz
x,y,z
1/2-x,1/2-y,z
x,1/2-y,1/2-z
1/2-x,y,1/2-z
-x,-y,-z
1/2+x,1/2+y,-z
-x,1/2+y,1/2+z
1/2+x,-y,1/2+z
loop_
_atom_site_type_symbol
_atom_site_label
_atom_site_fract_x
_atom_site_fract_y
_atom_site_fract_z
Si Si1 0.050424 0.065813 0.262515
Si Si2 0.596055 0.431282 0.259855
Si Si3 0.312808 0.048547 0.917580
Si Si4 0.750000 0.441309 0.750000
Si Si5 0.832362 0.909437 0.090038
Si Si6 0.352508 0.613635 0.393585
Si Si7 0.859892 0.466476 0.608970
O O1 0.060625 0.250000 0.250000
O O2 0.976864 0.013834 0.280953
O O3 0.089744 0.987390 0.348673
O O4 0.073517 0.994482 0.163737
O O5 0.594838 0.250000 0.250000
O O6 0.641911 0.454247 0.348552
O O7 0.619887 0.519465 0.166900
O O8 0.237901 0.012897 0.895324
O O9 0.328545 0.226381 0.897924
O O10 0.325225 0.993668 0.023777
O O11 0.702407 0.343673 0.683569
O O12 0.799413 0.527597 0.676166
O O13 0.858959 0.934071 0.985333
O O14 0.367317 0.787786 0.426335
#
# Coordination Sequence:
#
# PCOD8201420 Si02
#       7
#     8   8   8   4   8   8   8
#     4  10  23  42  61  90 126 162 207 255 307 364
#     4  11  25  44  65  86 119 168 213 255 302 362
#     4  11  24  41  63  94 126 160 202 256 312 362
#     4  10  19  34  59  92 125 154 193 246 297 356
#     4  11  24  41  63  94 126 160 202 256 312 362
#     4  11  21  37  63  94 126 161 203 250 304 367
#     4  11  21  37  63  94 126 161 203 250 304 367
#
# _framework density 20.636854
#
# number of rings (size 3 to 8) (size 9 to 14) (size 15 to 20)
#    0.000    1.231    1.538    5.538    0.000    7.385 
#    0.000    2.308    0.000    0.000    0.000    0.000 
#    0.000    0.000    0.000    0.000    0.000    0.000 
#
# Total GULP energy -644375.162433 kJ/mol
# GULP energy per Si atom -12391.830047 kJ/mol
# Density = 2.058988 g / cm^3
# Si number density = 20.636854 Si / 1000 Ang^3
#
#
#
# Elastic Constant Matrix: (Units=GPa)
#
#
# Indices 1 2 3 4 5 6 
#
# 1 110.9293 22.5490 31.4800 0.0000 0.0000 0.0000
# 2 22.5490 33.2211 0.8886 0.0000 0.0000 0.0000
# 3 31.4800 0.8886 86.4649 0.0000 0.0000 0.0000
# 4 0.0000 0.0000 0.0000 36.0919 0.0000 0.0000
# 5 0.0000 0.0000 0.0000 0.0000 24.0467 0.0000
# 6 0.0000 0.0000 0.0000 0.0000 0.0000 29.4081
#
#
#
# Elastic Compliance Matrix: (Units=1/GPa)
#
#
# Indices 1 2 3 4 5 6 
#
# 1 0.011821 -0.007911 -0.004223 0.000000 0.000000 0.000000
# 2 -0.007911 0.035403 0.002516 0.000000 0.000000 0.000000
# 3 -0.004223 0.002516 0.013077 0.000000 0.000000 0.000000
# 4 0.000000 0.000000 0.000000 0.027707 0.000000 0.000000
# 5 0.000000 0.000000 0.000000 0.000000 0.041586 0.000000
# 6 0.000000 0.000000 0.000000 0.000000 0.000000 0.034004
#
#
# Mechanical properties :
#
#
# Convention : Reuss Voigt Hill
#
# Bulk Modulus (GPa) = 24.35012 37.82784 31.08898
# Shear Modulus (GPa) = 25.44251 29.62251 27.53251
#
# Velocity S-wave (km/s) = 3.51503 3.79280 3.65655
# Velocity P-wave (km/s) = 5.31967 6.12784 5.73800
#
# Compressibility (1/GPa) = 0.04106756
#
# Stress axis : x y z
#
# Youngs Moduli (GPa) = 84.59473 28.24583 76.47103
#
# Poissons Ratio (x) = 0.22344 0.32290
# Poissons Ratio (y) = 0.66920 -0.19242
# Poissons Ratio (z) = 0.35720 -0.07107
#
# Static dielectric constant tensor:
#      x y z
#    x 4.098270 0.000000 0.000000 
#    y 0.000000 3.668670 0.000000 
#    z 0.000000 0.000000 3.890080 
# 
# 
# High freq. dielectric constant tensor:
#      x y z
#    x 1.811250 0.000000 0.000000 
#    y 0.000000 1.810400 0.000000 
#    z 0.000000 0.000000 1.816220 
# 
# From -- ./inp_files/28290.got.cif
#   From: 2010.06.25/outbox.cif.g09.slc.cpg/sg48_15_cif.got.tgz:28290.got - 2010.06.26 18:06:46.
