data_PCOD8201190
_publ_section_title
;
Structure prediction by ZEFSAII (Michael W. Deem and Ramdas Pophale) SiO2 
 PCOD8201190
Probable space group: P M M M
;
_chemical_formula_sum "Si O2"
_cell_formula_units_Z 56
_cell_length_a 20.474808
_cell_length_b 15.606760
_cell_length_c 9.738822
_cell_angle_alpha 90.000000
_cell_angle_beta 90.000000
_cell_angle_gamma 90.000000
_cell_volume 3111.995913
_symmetry_space_group_name_H-M "P M M M"
_symmetry_group_IT_number 47
_symmetry_cell_setting 'orthorhombic'
loop_
_space_group_symop_operation_xyz
x,y,z
-x,-y,z
x,-y,-z
-x,y,-z
-x,-y,-z
x,y,-z
-x,y,z
x,-y,z
loop_
_atom_site_type_symbol
_atom_site_label
_atom_site_fract_x
_atom_site_fract_y
_atom_site_fract_z
Si Si1 0.385048 0.408151 0.655739
Si Si2 0.178934 0.904383 0.163261
Si Si3 0.927377 0.770856 0.836484
Si Si4 0.125088 0.593368 0.837008
Si Si5 0.572740 0.776426 0.659648
Si Si6 0.729749 0.371119 0.154766
Si Si7 0.689807 0.177489 0.155624
O O1 0.361220 0.395717 0.500000
O O2 0.423385 0.500000 0.670764
O O3 0.427675 0.325322 0.697615
O O4 0.321930 0.417008 0.749540
O O5 0.125583 0.837914 0.225001
O O6 0.253239 0.885026 0.212176
O O7 0.160139 0.000000 0.212335
O O8 0.177830 0.896847 0.000000
O O9 0.915401 0.674339 0.778205
O O10 0.000000 0.799806 0.791111
O O11 0.921218 0.769869 0.000000
O O12 0.098470 0.500000 0.785058
O O13 0.199584 0.603302 0.789135
O O14 0.121357 0.596339 0.000000
O O15 0.589378 0.790839 0.500000
O O16 0.500000 0.810705 0.693719
O O17 0.625506 0.828475 0.749013
O O18 0.722753 0.269640 0.161293
O O19 0.719255 0.404457 0.000000
O O20 0.668494 0.154035 0.000000
#
# Coordination Sequence:
#
# PCOD8201190 Si02
#       7
#     8   8   8   8   8   8   8
#     4   9  17  27  39  59  87 115 147 189 230 267
#     4   9  16  27  44  65  88 115 149 188 232 279
#     4   9  16  25  36  55  88 124 155 188 226 271
#     4   9  15  22  34  53  80 116 155 190 224 264
#     4   9  18  31  46  65  90 121 153 185 227 276
#     4   9  15  25  41  59  82 115 153 189 226 267
#     4   9  16  28  47  67  89 117 150 189 228 269
#
# _framework density 17.994882
#
# number of rings (size 3 to 8) (size 9 to 14) (size 15 to 20)
#    0.000    3.000    1.429    0.429    0.000    2.000 
#    0.000    4.286    0.000    0.857    0.000    7.000 
#    0.000    2.286    0.000    4.286    0.000    4.286 
#
# Total GULP energy -693792.387486 kJ/mol
# GULP energy per Si atom -12389.149777 kJ/mol
# Density = 1.795392 g / cm^3
# Si number density = 17.994882 Si / 1000 Ang^3
#
#
#
# Elastic Constant Matrix: (Units=GPa)
#
#
# Indices 1 2 3 4 5 6 
#
# 1 125.1928 56.9580 34.3069 0.0000 0.0000 0.0000
# 2 56.9580 95.6901 13.1047 0.0000 0.0000 0.0000
# 3 34.3069 13.1047 32.4840 0.0000 0.0000 0.0000
# 4 0.0000 0.0000 0.0000 9.1184 0.0000 0.0000
# 5 0.0000 0.0000 0.0000 0.0000 0.6319 0.0000
# 6 0.0000 0.0000 0.0000 0.0000 0.0000 10.0250
#
#
#
# Elastic Compliance Matrix: (Units=1/GPa)
#
#
# Indices 1 2 3 4 5 6 
#
# 1 0.014621 -0.006973 -0.012628 0.000000 0.000000 0.000000
# 2 -0.006973 0.014387 0.001560 0.000000 0.000000 0.000000
# 3 -0.012628 0.001560 0.043491 0.000000 0.000000 0.000000
# 4 0.000000 0.000000 0.000000 0.109668 0.000000 0.000000
# 5 0.000000 0.000000 0.000000 0.000000 1.582534 0.000000
# 6 0.000000 0.000000 0.000000 0.000000 0.000000 0.099751
#
#
# Mechanical properties :
#
#
# Convention : Reuss Voigt Hill
#
# Bulk Modulus (GPa) = 27.45901 51.34512 39.40207
# Shear Modulus (GPa) = 2.61414 13.88822 8.25118
#
# Velocity S-wave (km/s) = 1.20659 2.78112 2.14365
# Velocity P-wave (km/s) = 4.15134 6.23762 5.29819
#
# Compressibility (1/GPa) = 0.03641791
#
# Stress axis : x y z
#
# Youngs Moduli (GPa) = 68.39573 69.50484 22.99301
#
# Poissons Ratio (x) = 0.48468 0.29036
# Poissons Ratio (y) = 0.47695 -0.03588
# Poissons Ratio (z) = 0.86370 -0.10846
#
# Static dielectric constant tensor:
#      x y z
#    x 3.319090 0.000000 0.000000 
#    y 0.000000 3.457840 0.000000 
#    z 0.000000 0.000000 2.873440 
# 
# 
# High freq. dielectric constant tensor:
#      x y z
#    x 1.691020 0.000000 0.000000 
#    y 0.000000 1.695200 0.000000 
#    z 0.000000 0.000000 1.632220 
# 
# From -- ./inp_files/11478.got.cif
#   From: 2010.03.12/outbox.cif.g09.slc.cpg/sg47_6_cif.got.tgz:11478.got - 2010.04.14 03:12:58.
