data_PCOD8201706
_publ_section_title
;
Structure prediction by ZEFSAII (Michael W. Deem and Ramdas Pophale) SiO2 
 PCOD8201706
Probable space group: P N N N
;
_chemical_formula_sum "Si O2"
_cell_formula_units_Z 40
_cell_length_a 29.861830
_cell_length_b 4.932533
_cell_length_c 12.037994
_cell_angle_alpha 90.000000
_cell_angle_beta 90.000000
_cell_angle_gamma 90.000000
_cell_volume 1773.129849
_symmetry_space_group_name_H-M "P N N N"
_symmetry_group_IT_number 48
_space_group.IT_coordinate_system_code '2'
_symmetry_cell_setting 'orthorhombic'
loop_
_space_group_symop_operation_xyz
x,y,z
1/2-x,1/2-y,z
x,1/2-y,1/2-z
1/2-x,y,1/2-z
-x,-y,-z
1/2+x,1/2+y,-z
-x,1/2+y,1/2+z
1/2+x,-y,1/2+z
loop_
_atom_site_type_symbol
_atom_site_label
_atom_site_fract_x
_atom_site_fract_y
_atom_site_fract_z
Si Si1 0.565007 0.623680 0.959014
Si Si2 0.801909 0.277115 0.511815
Si Si3 0.386360 0.855977 0.128755
Si Si4 0.021205 0.999563 0.823079
Si Si5 0.302181 0.218035 0.870063
O O1 0.587066 0.329162 0.956731
O O2 0.519102 0.639382 0.890649
O O3 0.599008 0.839300 0.902715
O O4 0.555877 0.646614 0.091359
O O5 0.750000 0.250000 0.549403
O O6 0.832780 0.187513 0.615166
O O7 0.816593 0.571802 0.466569
O O8 0.813247 0.082273 0.409208
O O9 0.400108 0.750000 0.250000
O O10 0.041961 0.750000 0.750000
O O11 0.003086 0.250000 0.750000
O O12 0.250000 0.250000 0.851350
O O13 0.326417 0.250000 0.750000
#
# Coordination Sequence:
#
# PCOD8201706 Si02
#       5
#     8   8   8   8   8
#     4  11  24  41  64  94 124 160 205 247 299 372
#     4  10  21  37  58  86 118 156 207 256 298 356
#     4  12  24  41  62  86 122 163 207 257 308 360
#     4  11  22  41  68  95 126 161 199 247 304 368
#     4   9  17  33  57  82 110 147 193 245 302 363
#
# _framework density 22.558980999999999
#
# number of rings (size 3 to 8) (size 9 to 14) (size 15 to 20)
#    0.000    1.400    0.000    6.600    0.000    6.000 
#    0.000   10.000    0.000    6.000    0.000    0.000 
#    0.000    0.000    0.000    0.000    0.000    0.000 
#
# Total GULP energy -495729.887569 kJ/mol
# GULP energy per Si atom -12393.247189 kJ/mol
# Density = 2.250764 g / cm^3
# Si number density = 22.558981 Si / 1000 Ang^3
#
#
#
# Elastic Constant Matrix: (Units=GPa)
#
#
# Indices 1 2 3 4 5 6 
#
# 1 67.4612 11.5466 36.9714 0.0000 0.0000 0.0000
# 2 11.5466 99.4784 32.6788 0.0000 0.0000 0.0000
# 3 36.9714 32.6788 109.6121 0.0000 0.0000 0.0000
# 4 0.0000 0.0000 0.0000 40.4600 0.0000 0.0000
# 5 0.0000 0.0000 0.0000 0.0000 -138.5539 0.0000
# 6 0.0000 0.0000 0.0000 0.0000 0.0000 31.1688
#
#
#
# Elastic Compliance Matrix: (Units=1/GPa)
#
#
# Indices 1 2 3 4 5 6 
#
# 1 0.018186 -0.000106 -0.006102 0.000000 0.000000 0.000000
# 2 -0.000106 0.011144 -0.003287 0.000000 0.000000 0.000000
# 3 -0.006102 -0.003287 0.012161 0.000000 0.000000 0.000000
# 4 0.000000 0.000000 0.000000 0.024716 0.000000 0.000000
# 5 0.000000 0.000000 0.000000 0.000000 -0.007217 0.000000
# 6 0.000000 0.000000 0.000000 0.000000 0.000000 0.032083
#
#
# Mechanical properties :
#
#
# Convention : Reuss Voigt Hill
#
# Bulk Modulus (GPa) = 44.44235 48.77170 46.60703
# Shear Modulus (GPa) = 42.53006 -0.36136 21.08435
#
# Velocity S-wave (km/s) = 4.34669 -0.40067 3.06049
# Velocity P-wave (km/s) = 6.70335 4.63169 5.76140
#
# Compressibility (1/GPa) = 0.02250106
#
# Stress axis : x y z
#
# Youngs Moduli (GPa) = 54.98792 89.73080 82.22873
#
# Poissons Ratio (x) = 0.00953 0.50178
# Poissons Ratio (y) = 0.00584 0.27026
# Poissons Ratio (z) = 0.33555 0.29492
#
# Static dielectric constant tensor:
#      x y z
#    x 3.913170 0.000000 0.000000 
#    y 0.000000 3.658210 0.000000 
#    z 0.000000 0.000000 4.186800 
# 
# 
# High freq. dielectric constant tensor:
#      x y z
#    x 1.867400 0.000000 0.000000 
#    y 0.000000 1.901320 0.000000 
#    z 0.000000 0.000000 1.886470 
# 
# From -- ./inp_files/23743.got.cif
#   From: 2010.06.25/outbox.cif.g09.slc.cpg/sg48_12_cif.got.tgz:23743.got - 2010.06.26 18:06:46.
