data_PCOD8201562
_publ_section_title
;
Structure prediction by ZEFSAII (Michael W. Deem and Ramdas Pophale) SiO2 
 PCOD8201562
Probable space group: P N N N
;
_chemical_formula_sum "Si O2"
_cell_formula_units_Z 64
_cell_length_a 31.395190
_cell_length_b 11.426885
_cell_length_c 8.466777
_cell_angle_alpha 90.000000
_cell_angle_beta 90.000000
_cell_angle_gamma 90.000000
_cell_volume 3037.449693
_symmetry_space_group_name_H-M "P N N N"
_symmetry_group_IT_number 48
_space_group.IT_coordinate_system_code '2'
_symmetry_cell_setting 'orthorhombic'
loop_
_space_group_symop_operation_xyz
x,y,z
1/2-x,1/2-y,z
x,1/2-y,1/2-z
1/2-x,y,1/2-z
-x,-y,-z
1/2+x,1/2+y,-z
-x,1/2+y,1/2+z
1/2+x,-y,1/2+z
loop_
_atom_site_type_symbol
_atom_site_label
_atom_site_fract_x
_atom_site_fract_y
_atom_site_fract_z
Si Si1 0.855174 0.742079 0.567008
Si Si2 0.823037 0.498000 0.552864
Si Si3 0.073828 0.971109 0.562163
Si Si4 0.892916 0.136817 0.142170
Si Si5 0.942667 0.767941 0.428993
Si Si6 0.757760 0.383018 0.065634
Si Si7 0.536846 0.253280 0.934607
Si Si8 0.838627 0.000140 0.575654
O O1 0.846475 0.750000 0.750000
O O2 0.829863 0.631829 0.493879
O O3 0.905259 0.716831 0.537977
O O4 0.838665 0.867472 0.501533
O O5 0.851439 0.407419 0.451463
O O6 0.773926 0.467174 0.529063
O O7 0.831965 0.490313 0.738158
O O8 0.088631 0.963707 0.744739
O O9 0.039710 0.873733 0.514795
O O10 0.052039 0.094991 0.533251
O O11 0.114887 0.946792 0.452712
O O12 0.881029 0.250000 0.250000
O O13 0.930215 0.159753 0.016555
O O14 0.928009 0.750000 0.250000
O O15 0.987906 0.704694 0.463013
O O16 0.750000 0.250000 0.011426
O O17 0.750000 0.398526 0.250000
O O18 0.805279 0.421980 0.021287
O O19 0.547150 0.250000 0.750000
#
# Coordination Sequence:
#
# PCOD8201562 Si02
#       8
#     8   8   8   8   8   8   8   8
#     4   9  21  40  63  89 120 156 198 245 294 354
#     4  11  22  40  64  89 120 158 196 242 300 351
#     4  10  20  37  59  81 117 154 195 242 298 347
#     4  10  22  36  57  85 117 158 194 242 300 353
#     4  10  20  36  58  85 114 153 200 247 289 349
#     4  11  26  42  62  90 124 155 195 244 291 350
#     4  10  21  36  54  83 117 154 199 245 293 349
#     4  10  22  41  63  90 119 156 200 243 295 354
#
# _framework density 21.070309000000002
#
# number of rings (size 3 to 8) (size 9 to 14) (size 15 to 20)
#    0.000    1.875    0.000    3.000    5.250    4.000 
#    0.000    9.375    0.000    0.000    0.000    0.000 
#    0.000    0.000    0.000    0.000    0.000    0.000 
#
# Total GULP energy -793553.177979 kJ/mol
# GULP energy per Si atom -12399.268406 kJ/mol
# Density = 2.102235 g / cm^3
# Si number density = 21.070309 Si / 1000 Ang^3
#
#
#
# Elastic Constant Matrix: (Units=GPa)
#
#
# Indices 1 2 3 4 5 6 
#
# 1 78.8233 32.0050 17.3127 0.0000 0.0000 0.0000
# 2 32.0050 78.9762 15.8023 0.0000 0.0000 0.0000
# 3 17.3127 15.8023 70.5757 0.0000 0.0000 0.0000
# 4 0.0000 0.0000 0.0000 26.7046 0.0000 0.0000
# 5 0.0000 0.0000 0.0000 0.0000 21.0340 0.0000
# 6 0.0000 0.0000 0.0000 0.0000 0.0000 31.6595
#
#
#
# Elastic Compliance Matrix: (Units=1/GPa)
#
#
# Indices 1 2 3 4 5 6 
#
# 1 0.015604 -0.005818 -0.002525 0.000000 0.000000 0.000000
# 2 -0.005818 0.015425 -0.002027 0.000000 0.000000 0.000000
# 3 -0.002525 -0.002027 0.015242 0.000000 0.000000 0.000000
# 4 0.000000 0.000000 0.000000 0.037447 0.000000 0.000000
# 5 0.000000 0.000000 0.000000 0.000000 0.047542 0.000000
# 6 0.000000 0.000000 0.000000 0.000000 0.000000 0.031586
#
#
# Mechanical properties :
#
#
# Convention : Reuss Voigt Hill
#
# Bulk Modulus (GPa) = 39.16668 39.84613 39.50640
# Shear Modulus (GPa) = 26.02866 26.76331 26.39599
#
# Velocity S-wave (km/s) = 3.51853 3.56784 3.54327
# Velocity P-wave (km/s) = 5.92753 5.99372 5.96072
#
# Compressibility (1/GPa) = 0.02553191
#
# Stress axis : x y z
#
# Youngs Moduli (GPa) = 64.08810 64.82855 65.60677
#
# Poissons Ratio (x) = 0.37718 0.16565
# Poissons Ratio (y) = 0.37287 0.13296
# Poissons Ratio (z) = 0.16182 0.13138
#
# Static dielectric constant tensor:
#      x y z
#    x 3.768500 0.000000 0.000000 
#    y 0.000000 4.044710 0.000000 
#    z 0.000000 0.000000 3.764910 
# 
# 
# High freq. dielectric constant tensor:
#      x y z
#    x 1.826980 0.000000 0.000000 
#    y 0.000000 1.826050 0.000000 
#    z 0.000000 0.000000 1.826680 
# 
# From -- ./inp_files/16931.got.cif
#   From: 2010.06.25/outbox.cif.g09.slc.cpg/sg48_9_cif.got.tgz:16931.got - 2010.06.26 18:06:46.
