data_PCOD8201832
_publ_section_title
;
Structure prediction by ZEFSAII (Michael W. Deem and Ramdas Pophale) SiO2 
 PCOD8201832
Probable space group: P N N N
;
_chemical_formula_sum "Si O2"
_cell_formula_units_Z 56
_cell_length_a 6.292840
_cell_length_b 21.525316
_cell_length_c 22.964736
_cell_angle_alpha 90.000000
_cell_angle_beta 90.000000
_cell_angle_gamma 90.000000
_cell_volume 3110.696801
_symmetry_space_group_name_H-M "P N N N"
_symmetry_group_IT_number 48
_space_group.IT_coordinate_system_code '2'
_symmetry_cell_setting 'orthorhombic'
loop_
_space_group_symop_operation_xyz
x,y,z
1/2-x,1/2-y,z
x,1/2-y,1/2-z
1/2-x,y,1/2-z
-x,-y,-z
1/2+x,1/2+y,-z
-x,1/2+y,1/2+z
1/2+x,-y,1/2+z
loop_
_atom_site_type_symbol
_atom_site_label
_atom_site_fract_x
_atom_site_fract_y
_atom_site_fract_z
Si Si1 0.870016 0.601583 0.805792
Si Si2 0.549776 0.849001 0.923933
Si Si3 0.693837 0.464229 0.472171
Si Si4 0.250000 0.541938 0.750000
Si Si5 0.750000 0.250000 0.467328
Si Si6 0.867830 0.812304 0.022879
Si Si7 0.370393 0.523526 0.194311
Si Si8 0.492862 0.067190 0.575214
O O1 0.750000 0.631133 0.750000
O O2 0.851687 0.648554 0.859475
O O3 0.760837 0.537077 0.824026
O O4 0.114457 0.587429 0.791102
O O5 0.403187 0.909014 0.933983
O O6 0.406901 0.787935 0.926140
O O7 0.744626 0.842689 0.968402
O O8 0.500000 0.500000 0.500000
O O9 0.828114 0.509922 0.430164
O O10 0.839234 0.436001 0.522872
O O11 0.393464 0.496488 0.788489
O O12 0.610639 0.204206 0.507357
O O13 0.750000 0.750000 0.046103
O O14 0.872673 0.866202 0.071740
O O15 0.250000 0.555896 0.250000
O O16 0.386635 0.566954 0.137474
#
# Coordination Sequence:
#
# PCOD8201832 Si02
#       8
#     8   8   8   4   4   8   8   8
#     4   9  19  32  52  77 108 144 182 226 270 327
#     4  11  20  36  56  78 114 142 185 228 280 329
#     4  11  21  31  52  91 115 145 170 231 287 334
#     4   8  16  34  50  77 105 152 178 208 278 332
#     4  10  22  38  54  73 105 154 186 220 276 326
#     4  10  22  38  54  79 109 145 187 227 275 332
#     4   9  19  33  49  79 116 144 177 219 276 336
#     4  11  21  34  55  84 118 142 183 226 283 337
#
# _framework density 18.002396999999998
#
# number of rings (size 3 to 8) (size 9 to 14) (size 15 to 20)
#    0.000    2.286    2.857    1.714    2.000    3.429 
#    0.000    0.000    0.000   10.286    0.000    4.000 
#    0.000    0.000    0.000    0.000    0.000    0.000 
#
# Total GULP energy -694239.261997 kJ/mol
# GULP energy per Si atom -12397.129679 kJ/mol
# Density = 1.796142 g / cm^3
# Si number density = 18.002397 Si / 1000 Ang^3
#
#
#
# Elastic Constant Matrix: (Units=GPa)
#
#
# Indices 1 2 3 4 5 6 
#
# 1 94.5777 21.8980 29.2566 0.0000 0.0000 0.0000
# 2 21.8980 79.0314 40.5491 0.0000 0.0000 0.0000
# 3 29.2566 40.5491 106.7646 0.0000 0.0000 0.0000
# 4 0.0000 0.0000 0.0000 32.3091 0.0000 0.0000
# 5 0.0000 0.0000 0.0000 0.0000 19.7824 0.0000
# 6 0.0000 0.0000 0.0000 0.0000 0.0000 25.6109
#
#
#
# Elastic Compliance Matrix: (Units=1/GPa)
#
#
# Indices 1 2 3 4 5 6 
#
# 1 0.011802 -0.002001 -0.002474 0.000000 0.000000 0.000000
# 2 -0.002001 0.016055 -0.005549 0.000000 0.000000 0.000000
# 3 -0.002474 -0.005549 0.012152 0.000000 0.000000 0.000000
# 4 0.000000 0.000000 0.000000 0.030951 0.000000 0.000000
# 5 0.000000 0.000000 0.000000 0.000000 0.050550 0.000000
# 6 0.000000 0.000000 0.000000 0.000000 0.000000 0.039046
#
#
# Mechanical properties :
#
#
# Convention : Reuss Voigt Hill
#
# Bulk Modulus (GPa) = 50.09936 51.53123 50.81530
# Shear Modulus (GPa) = 26.70122 28.11849 27.40986
#
# Velocity S-wave (km/s) = 3.85542 3.95641 3.90624
# Velocity P-wave (km/s) = 6.90715 7.03973 6.97375
#
# Compressibility (1/GPa) = 0.01996033
#
# Stress axis : x y z
#
# Youngs Moduli (GPa) = 84.73207 62.28686 82.29064
#
# Poissons Ratio (x) = 0.12461 0.20361
# Poissons Ratio (y) = 0.16951 0.45666
# Poissons Ratio (z) = 0.20965 0.34565
#
# Static dielectric constant tensor:
#      x y z
#    x 0.891970 0.000000 0.000000 
#    y 0.000000 3.216510 0.000000 
#    z 0.000000 0.000000 3.159470 
# 
# 
# High freq. dielectric constant tensor:
#      x y z
#    x 1.716960 0.000000 0.000000 
#    y 0.000000 1.673480 0.000000 
#    z 0.000000 0.000000 1.676990 
# 
# From -- ./inp_files/35426.got.cif
#   From: 2010.06.25/outbox.cif.g09.slc.cpg/sg48_18_cif.got.tgz:35426.got - 2010.06.26 18:06:46.
