data_PCOD8201275
_publ_section_title
;
Structure prediction by ZEFSAII (Michael W. Deem and Ramdas Pophale) SiO2 
 PCOD8201275
Probable space group: P N N N
;
_chemical_formula_sum "Si O2"
_cell_formula_units_Z 48
_cell_length_a 17.825226
_cell_length_b 5.335738
_cell_length_c 27.449709
_cell_angle_alpha 90.000000
_cell_angle_beta 90.000000
_cell_angle_gamma 90.000000
_cell_volume 2610.762018
_symmetry_space_group_name_H-M "P N N N"
_symmetry_group_IT_number 48
_space_group.IT_coordinate_system_code '2'
_symmetry_cell_setting 'orthorhombic'
loop_
_space_group_symop_operation_xyz
x,y,z
1/2-x,1/2-y,z
x,1/2-y,1/2-z
1/2-x,y,1/2-z
-x,-y,-z
1/2+x,1/2+y,-z
-x,1/2+y,1/2+z
1/2+x,-y,1/2+z
loop_
_atom_site_type_symbol
_atom_site_label
_atom_site_fract_x
_atom_site_fract_y
_atom_site_fract_z
Si Si1 0.918371 0.750000 0.851775
Si Si2 0.062761 0.250000 0.606155
Si Si3 0.336403 0.249999 0.443740
Si Si4 0.560902 0.250000 0.076433
Si Si5 0.423201 0.749999 0.467273
Si Si6 0.534467 0.250000 0.806194
O O1 0.843814 0.750000 0.884731
O O2 0.918675 0.501257 0.818399
O O3 0.987070 0.750001 0.890016
O O4 0.918675 0.998742 0.818399
O O5 0.983816 0.249999 0.575878
O O6 0.043464 0.250001 0.663395
O O7 0.108339 0.500079 0.590657
O O8 0.108340 0.999920 0.590657
O O9 0.250000 0.250000 0.458430
O O10 0.372693 0.502189 0.465309
O O11 0.372692 0.997807 0.465309
O O12 0.535780 0.250000 0.020159
O O13 0.511903 0.250000 0.750000
#
# Coordination Sequence:
#
# PCOD8201275 Si02
#       6
#     8   8   8   8   8   8
#     4  10  19  34  46  71  88 117 159 190 234 274
#     4  10  17  29  45  73  92 111 148 185 236 279
#     4  12  23  34  47  64  94 127 159 195 231 273
#     4  10  18  28  51  71  94 109 144 204 223 272
#     4  12  19  33  49  70  90 119 155 194 229 272
#     4  10  18  30  49  66  89 118 151 193 236 285
#
# _framework density 18.385437
#
# number of rings (size 3 to 8) (size 9 to 14) (size 15 to 20)
#    0.000    1.333    6.667    3.000    0.000    0.000 
#    0.000    0.000    0.000    3.000    0.000    0.000 
#    0.000    0.000    0.000    0.000    0.000  933.333 
#
# Total GULP energy -594692.647884 kJ/mol
# GULP energy per Si atom -12389.430164 kJ/mol
# Density = 1.834359 g / cm^3
# Si number density = 18.385437 Si / 1000 Ang^3
#
#
#
# Elastic Constant Matrix: (Units=GPa)
#
#
# Indices 1 2 3 4 5 6 
#
# 1 10.9675 10.4696 15.9688 0.0000 0.0000 0.0000
# 2 10.4696 208.9755 45.5142 0.0000 0.0000 0.0000
# 3 15.9688 45.5142 129.9154 0.0000 0.0000 0.0000
# 4 0.0000 0.0000 0.0000 21.0105 0.0000 0.0000
# 5 0.0000 0.0000 0.0000 0.0000 11.0486 0.0000
# 6 0.0000 0.0000 0.0000 0.0000 0.0000 6.2956
#
#
#
# Elastic Compliance Matrix: (Units=1/GPa)
#
#
# Indices 1 2 3 4 5 6 
#
# 1 0.112593 -0.002844 -0.012843 0.000000 0.000000 0.000000
# 2 -0.002844 0.005252 -0.001491 0.000000 0.000000 0.000000
# 3 -0.012843 -0.001491 0.009798 0.000000 0.000000 0.000000
# 4 0.000000 0.000000 0.000000 0.047595 0.000000 0.000000
# 5 0.000000 0.000000 0.000000 0.000000 0.090509 0.000000
# 6 0.000000 0.000000 0.000000 0.000000 0.000000 0.158842
#
#
# Mechanical properties :
#
#
# Convention : Reuss Voigt Hill
#
# Bulk Modulus (GPa) = 10.71943 54.86261 32.79102
# Shear Modulus (GPa) = 10.20323 26.19800 18.20062
#
# Velocity S-wave (km/s) = 2.35832 3.77892 3.14976
# Velocity P-wave (km/s) = 3.64124 6.99610 5.57692
#
# Compressibility (1/GPa) = 0.09328851
#
# Stress axis : x y z
#
# Youngs Moduli (GPa) = 8.88154 190.39079 102.05967
#
# Poissons Ratio (x) = 0.54140 1.31079
# Poissons Ratio (y) = 0.02526 0.15213
# Poissons Ratio (z) = 0.11407 0.28379
#
# Static dielectric constant tensor:
#      x y z
#    x 2.622540 0.000000 0.000000 
#    y 0.000000 5.370020 0.000000 
#    z 0.000000 0.000000 3.365300 
# 
# 
# High freq. dielectric constant tensor:
#      x y z
#    x 1.614220 0.000000 0.000000 
#    y 0.000000 1.768670 0.000000 
#    z 0.000000 0.000000 1.709320 
# 
# From -- ./inp_files/5311.got.cif
#   From: 2010.06.25/outbox.cif.g09.slc.cpg/sg48_3_cif.got.tgz:5311.got - 2010.06.26 18:06:46.
