data_PCOD8201566
_publ_section_title
;
Structure prediction by ZEFSAII (Michael W. Deem and Ramdas Pophale) SiO2 
 PCOD8201566
Probable space group: P N N N
;
_chemical_formula_sum "Si O2"
_cell_formula_units_Z 34
_cell_length_a 6.095134
_cell_length_b 15.177164
_cell_length_c 17.850144
_cell_angle_alpha 90.000000
_cell_angle_beta 90.000000
_cell_angle_gamma 90.000000
_cell_volume 1651.260563
_symmetry_space_group_name_H-M "P N N N"
_symmetry_group_IT_number 48
_space_group.IT_coordinate_system_code '2'
_symmetry_cell_setting 'orthorhombic'
loop_
_space_group_symop_operation_xyz
x,y,z
1/2-x,1/2-y,z
x,1/2-y,1/2-z
1/2-x,y,1/2-z
-x,-y,-z
1/2+x,1/2+y,-z
-x,1/2+y,1/2+z
1/2+x,-y,1/2+z
loop_
_atom_site_type_symbol
_atom_site_label
_atom_site_fract_x
_atom_site_fract_y
_atom_site_fract_z
Si Si1 0.368376 0.999765 0.177525
Si Si2 0.250000 0.398234 0.750000
Si Si3 0.049605 0.181147 0.377616
Si Si4 0.250000 0.750000 0.497509
Si Si5 0.395037 0.671782 0.144502
Si Si6 0.750000 0.250000 0.250000
O O1 0.250000 0.039716 0.250000
O O2 0.605460 0.961509 0.198079
O O3 0.226424 0.920951 0.144842
O O4 0.371990 0.079945 0.118741
O O5 0.382041 0.335570 0.807917
O O6 0.250000 0.250000 0.377857
O O7 0.900366 0.189180 0.450924
O O8 0.904193 0.190271 0.302462
O O9 0.419928 0.805065 0.444178
O O10 0.250000 0.750000 0.182430
#
# Coordination Sequence:
#
# PCOD8201566 Si02
#       6
#     8   4   8   4   8   2
#     4  10  21  36  60  95 121 157 219 261 313 379
#     4  10  21  39  69  89 128 168 199 279 327 359
#     4  11  22  39  64  88 128 173 209 264 321 370
#     4   9  24  43  57  92 133 166 218 252 313 399
#     4   9  22  42  59  93 127 157 215 258 316 388
#     4  10  20  36  58  90 122 154 218 272 304 378
#
# _framework density 20.590329000000001
#
# number of rings (size 3 to 8) (size 9 to 14) (size 15 to 20)
#    0.706    1.412    0.000    2.471    0.000   14.588 
#    0.000    2.353    0.000    0.000    0.000    0.000 
#    0.000    0.000    0.000    0.000    0.000    0.000 
#
# Total GULP energy -421323.988795 kJ/mol
# GULP energy per Si atom -12391.882023 kJ/mol
# Density = 2.054346 g / cm^3
# Si number density = 20.590329 Si / 1000 Ang^3
#
#
#
# Elastic Constant Matrix: (Units=GPa)
#
#
# Indices 1 2 3 4 5 6 
#
# 1 115.6950 54.0682 59.2730 0.0000 0.0000 0.0000
# 2 54.0682 150.1825 64.2170 0.0000 0.0000 0.0000
# 3 59.2730 64.2170 142.6608 0.0000 0.0000 0.0000
# 4 0.0000 0.0000 0.0000 -6.4819 0.0000 0.0000
# 5 0.0000 0.0000 0.0000 0.0000 24.0906 0.0000
# 6 0.0000 0.0000 0.0000 0.0000 0.0000 5.1131
#
#
#
# Elastic Compliance Matrix: (Units=1/GPa)
#
#
# Indices 1 2 3 4 5 6 
#
# 1 0.011781 -0.002660 -0.003697 0.000000 0.000000 0.000000
# 2 -0.002660 0.008846 -0.002877 0.000000 0.000000 0.000000
# 3 -0.003697 -0.002877 0.009841 0.000000 0.000000 0.000000
# 4 0.000000 0.000000 0.000000 -0.154276 0.000000 0.000000
# 5 0.000000 0.000000 0.000000 0.000000 0.041510 0.000000
# 6 0.000000 0.000000 0.000000 0.000000 0.000000 0.195575
#
#
# Mechanical properties :
#
#
# Convention : Reuss Voigt Hill
#
# Bulk Modulus (GPa) = 83.33842 84.85053 84.09447
# Shear Modulus (GPa) = 36.83367 19.94305 28.38836
#
# Velocity S-wave (km/s) = 4.23411 3.11555 3.71714
# Velocity P-wave (km/s) = 8.02907 7.36482 7.70411
#
# Compressibility (1/GPa) = 0.01199927
#
# Stress axis : x y z
#
# Youngs Moduli (GPa) = 84.88343 113.03975 101.61894
#
# Poissons Ratio (x) = 0.30073 0.37570
# Poissons Ratio (y) = 0.22583 0.29233
# Poissons Ratio (z) = 0.31383 0.32519
#
# Static dielectric constant tensor:
#      x y z
#    x 3.785240 0.000000 0.000000 
#    y 0.000000 3.592030 0.000000 
#    z 0.000000 0.000000 3.789770 
# 
# 
# High freq. dielectric constant tensor:
#      x y z
#    x 1.806240 0.000000 0.000000 
#    y 0.000000 1.808520 0.000000 
#    z 0.000000 0.000000 1.798410 
# 
# From -- ./inp_files/4998.got.cif
#   From: 2010.06.25/outbox.cif.g09.slc.cpg/sg48_3_cif.got.tgz:4998.got - 2010.06.26 18:06:46.
