data_PCOD8201305
_publ_section_title
;
Structure prediction by ZEFSAII (Michael W. Deem and Ramdas Pophale) SiO2 
 PCOD8201305
Probable space group: P N N N
;
_chemical_formula_sum "Si O2"
_cell_formula_units_Z 44
_cell_length_a 29.103818
_cell_length_b 9.851254
_cell_length_c 7.667958
_cell_angle_alpha 90.000000
_cell_angle_beta 90.000000
_cell_angle_gamma 90.000000
_cell_volume 2198.473364
_symmetry_space_group_name_H-M "P N N N"
_symmetry_group_IT_number 48
_space_group.IT_coordinate_system_code '2'
_symmetry_cell_setting 'orthorhombic'
loop_
_space_group_symop_operation_xyz
x,y,z
1/2-x,1/2-y,z
x,1/2-y,1/2-z
1/2-x,y,1/2-z
-x,-y,-z
1/2+x,1/2+y,-z
-x,1/2+y,1/2+z
1/2+x,-y,1/2+z
loop_
_atom_site_type_symbol
_atom_site_label
_atom_site_fract_x
_atom_site_fract_y
_atom_site_fract_z
Si Si1 0.043700 0.908416 0.531968
Si Si2 0.544824 0.497265 0.113178
Si Si3 0.498307 0.250000 0.750000
Si Si4 0.132802 0.400606 0.449130
Si Si5 0.300866 0.089851 0.751575
Si Si6 0.131420 0.086187 0.445054
O O1 0.032909 0.771000 0.418925
O O2 0.048935 0.877151 0.740985
O O3 0.088492 0.986362 0.462748
O O4 0.000000 0.000000 0.500000
O O5 0.538375 0.630050 0.232486
O O6 0.500000 0.500000 0.000000
O O7 0.588747 0.505768 0.989044
O O8 0.172981 0.452897 0.575549
O O9 0.118500 0.243536 0.482108
O O10 0.149905 0.425723 0.252619
O O11 0.295869 0.250000 0.750000
O O12 0.250000 0.023163 0.750000
O O13 0.328629 0.039394 0.922052
#
# Coordination Sequence:
#
# PCOD8201305 Si02
#       6
#     8   8   4   8   8   8
#     4  10  19  33  49  70 103 138 176 220 260 312
#     4  11  21  33  51  75 105 143 181 214 264 324
#     4  10  22  34  50  72 107 143 180 226 258 304
#     4  10  18  30  50  73 103 142 179 212 263 321
#     4   9  18  31  48  72 104 139 178 220 262 314
#     4  10  19  31  50  73 103 143 178 214 264 320
#
# _framework density 20.013887
#
# number of rings (size 3 to 8) (size 9 to 14) (size 15 to 20)
#    0.000    2.000    1.818    4.364    1.273    2.909 
#    0.000    3.636    0.000    0.000    0.000    0.000 
#    0.000   17.455    0.000    0.000    0.000    0.000 
#
# Total GULP energy -545174.112237 kJ/mol
# GULP energy per Si atom -12390.320733 kJ/mol
# Density = 1.996833 g / cm^3
# Si number density = 20.013887 Si / 1000 Ang^3
#
#
#
# Elastic Constant Matrix: (Units=GPa)
#
#
# Indices 1 2 3 4 5 6 
#
# 1 143.1441 9.4018 55.6448 0.0000 0.0000 0.0000
# 2 9.4018 20.3822 5.1392 0.0000 0.0000 0.0000
# 3 55.6448 5.1392 170.3932 0.0000 0.0000 0.0000
# 4 0.0000 0.0000 0.0000 23.1902 0.0000 0.0000
# 5 0.0000 0.0000 0.0000 0.0000 29.7292 0.0000
# 6 0.0000 0.0000 0.0000 0.0000 0.0000 21.1878
#
#
#
# Elastic Compliance Matrix: (Units=1/GPa)
#
#
# Indices 1 2 3 4 5 6 
#
# 1 0.008195 -0.003129 -0.002582 0.000000 0.000000 0.000000
# 2 -0.003129 0.050633 -0.000505 0.000000 0.000000 0.000000
# 3 -0.002582 -0.000505 0.006727 0.000000 0.000000 0.000000
# 4 0.000000 0.000000 0.000000 0.043122 0.000000 0.000000
# 5 0.000000 0.000000 0.000000 0.000000 0.033637 0.000000
# 6 0.000000 0.000000 0.000000 0.000000 0.000000 0.047197
#
#
# Mechanical properties :
#
#
# Convention : Reuss Voigt Hill
#
# Bulk Modulus (GPa) = 18.82427 52.69899 35.76163
# Shear Modulus (GPa) = 22.76334 32.40370 27.58352
#
# Velocity S-wave (km/s) = 3.37616 4.02812 3.71646
# Velocity P-wave (km/s) = 4.96226 6.92984 6.02689
#
# Compressibility (1/GPa) = 0.05312290
#
# Stress axis : x y z
#
# Youngs Moduli (GPa) = 122.02323 19.74987 148.65076
#
# Poissons Ratio (x) = 0.06180 0.38380
# Poissons Ratio (y) = 0.38184 0.07510
# Poissons Ratio (z) = 0.31505 0.00998
#
# Static dielectric constant tensor:
#      x y z
#    x 2.994910 0.000000 0.000000 
#    y 0.000000 -0.500630 0.000000 
#    z 0.000000 0.000000 4.362140 
# 
# 
# High freq. dielectric constant tensor:
#      x y z
#    x 1.761380 0.000000 0.000000 
#    y 0.000000 1.735100 0.000000 
#    z 0.000000 0.000000 1.810000 
# 
# From -- ./inp_files/16714.got.cif
#   From: 2010.06.25/outbox.cif.g09.slc.cpg/sg48_9_cif.got.tgz:16714.got - 2010.06.26 18:06:46.
