data_PCOD8201726
_publ_section_title
;
Structure prediction by ZEFSAII (Michael W. Deem and Ramdas Pophale) SiO2 
 PCOD8201726
Probable space group: P N N N
;
_chemical_formula_sum "Si O2"
_cell_formula_units_Z 32
_cell_length_a 6.869702
_cell_length_b 9.423942
_cell_length_c 20.470289
_cell_angle_alpha 90.000000
_cell_angle_beta 90.000000
_cell_angle_gamma 90.000000
_cell_volume 1325.239820
_symmetry_space_group_name_H-M "P N N N"
_symmetry_group_IT_number 48
_space_group.IT_coordinate_system_code '2'
_symmetry_cell_setting 'orthorhombic'
loop_
_space_group_symop_operation_xyz
x,y,z
1/2-x,1/2-y,z
x,1/2-y,1/2-z
1/2-x,y,1/2-z
-x,-y,-z
1/2+x,1/2+y,-z
-x,1/2+y,1/2+z
1/2+x,-y,1/2+z
loop_
_atom_site_type_symbol
_atom_site_label
_atom_site_fract_x
_atom_site_fract_y
_atom_site_fract_z
Si Si1 0.250000 0.250000 0.080158
Si Si2 0.750000 0.250000 0.567972
Si Si3 0.380073 0.377249 0.857514
Si Si4 0.548628 0.328087 0.187363
Si Si5 0.229212 0.491149 0.510936
O O1 0.423666 0.309939 0.123091
O O2 0.330574 0.128315 0.033268
O O3 0.580055 0.187725 0.613950
O O4 0.667984 0.367668 0.517103
O O5 0.250000 0.250000 0.826546
O O6 0.424858 0.500431 0.803418
O O7 0.244315 0.453984 0.912680
O O8 0.750000 0.250000 0.175247
O O9 0.449210 0.250000 0.250000
O O10 0.000000 0.500000 0.500000
#
# Coordination Sequence:
#
# PCOD8201726 Si02
#       5
#     4   4   8   8   8
#     4  12  21  44  74 100 146 181 232 290 362 426
#     4  10  22  40  62 103 147 172 228 276 354 436
#     4  11  24  42  68 104 144 181 226 290 361 416
#     4  11  27  47  70  98 135 193 248 290 343 422
#     4  10  21  38  62 107 140 176 219 278 357 425
#
# _framework density 24.146574000000001
#
# number of rings (size 3 to 8) (size 9 to 14) (size 15 to 20)
#    0.000    1.250    6.250    0.375    5.250    1.000 
#    0.000    2.500    0.000    1.500    0.000    0.000 
#    0.000    0.000    0.000    0.000    0.000    0.000 
#
# Total GULP energy -396498.517671 kJ/mol
# GULP energy per Si atom -12390.578677 kJ/mol
# Density = 2.409162 g / cm^3
# Si number density = 24.146574 Si / 1000 Ang^3
#
#
#
# Elastic Constant Matrix: (Units=GPa)
#
#
# Indices 1 2 3 4 5 6 
#
# 1 65.7781 17.8499 -1.2620 0.0000 0.0000 0.0000
# 2 17.8499 226.7902 55.8139 0.0000 0.0000 0.0000
# 3 -1.2620 55.8139 84.3101 0.0000 0.0000 0.0000
# 4 0.0000 0.0000 0.0000 67.8754 0.0000 0.0000
# 5 0.0000 0.0000 0.0000 0.0000 45.7202 0.0000
# 6 0.0000 0.0000 0.0000 0.0000 0.0000 40.0453
#
#
#
# Elastic Compliance Matrix: (Units=1/GPa)
#
#
# Indices 1 2 3 4 5 6 
#
# 1 0.015645 -0.001540 0.001254 0.000000 0.000000 0.000000
# 2 -0.001540 0.005419 -0.003611 0.000000 0.000000 0.000000
# 3 0.001254 -0.003611 0.014270 0.000000 0.000000 0.000000
# 4 0.000000 0.000000 0.000000 0.014733 0.000000 0.000000
# 5 0.000000 0.000000 0.000000 0.000000 0.021872 0.000000
# 6 0.000000 0.000000 0.000000 0.000000 0.000000 0.024972
#
#
# Mechanical properties :
#
#
# Convention : Reuss Voigt Hill
#
# Bulk Modulus (GPa) = 36.31086 57.96466 47.13776
# Shear Modulus (GPa) = 43.90431 51.02662 47.46546
#
# Velocity S-wave (km/s) = 4.26871 4.60195 4.43846
# Velocity P-wave (km/s) = 6.27425 7.23150 6.76982
#
# Compressibility (1/GPa) = 0.02753997
#
# Stress axis : x y z
#
# Youngs Moduli (GPa) = 63.92004 184.53153 70.07732
#
# Poissons Ratio (x) = 0.28415 -0.08785
# Poissons Ratio (y) = 0.09843 0.25302
# Poissons Ratio (z) = -0.08013 0.66626
#
# Static dielectric constant tensor:
#      x y z
#    x 13.256170 0.000000 0.000000 
#    y 0.000000 4.991340 0.000000 
#    z 0.000000 0.000000 4.584920 
# 
# 
# High freq. dielectric constant tensor:
#      x y z
#    x 1.953990 0.000000 0.000000 
#    y 0.000000 1.981040 0.000000 
#    z 0.000000 0.000000 1.931350 
# 
# From -- ./inp_files/35650.got.cif
#   From: 2010.06.25/outbox.cif.g09.slc.cpg/sg48_18_cif.got.tgz:35650.got - 2010.06.26 18:06:46.
