data_PCOD8201789
_publ_section_title
;
Structure prediction by ZEFSAII (Michael W. Deem and Ramdas Pophale) SiO2 
 PCOD8201789
Probable space group: P N N N
;
_chemical_formula_sum "Si O2"
_cell_formula_units_Z 34
_cell_length_a 12.618172
_cell_length_b 16.747979
_cell_length_c 6.623830
_cell_angle_alpha 90.000000
_cell_angle_beta 90.000000
_cell_angle_gamma 90.000000
_cell_volume 1399.806573
_symmetry_space_group_name_H-M "P N N N"
_symmetry_group_IT_number 48
_space_group.IT_coordinate_system_code '2'
_symmetry_cell_setting 'orthorhombic'
loop_
_space_group_symop_operation_xyz
x,y,z
1/2-x,1/2-y,z
x,1/2-y,1/2-z
1/2-x,y,1/2-z
-x,-y,-z
1/2+x,1/2+y,-z
-x,1/2+y,1/2+z
1/2+x,-y,1/2+z
loop_
_atom_site_type_symbol
_atom_site_label
_atom_site_fract_x
_atom_site_fract_y
_atom_site_fract_z
Si Si1 0.595112 0.335321 0.293321
Si Si2 0.218374 0.523382 0.976240
Si Si3 0.250000 0.250000 0.750000
Si Si4 0.065207 0.930996 0.095640
Si Si5 0.088049 0.372018 0.946183
O O1 0.648116 0.250000 0.250000
O O2 0.663511 0.389998 0.447007
O O3 0.475732 0.328274 0.376410
O O4 0.590682 0.366040 0.068306
O O5 0.250000 0.493842 0.750000
O O6 0.136431 0.453682 0.041782
O O7 0.316517 0.531865 0.139949
O O8 0.176946 0.308778 0.881231
O O9 0.000161 0.892950 0.277678
O O10 0.000000 0.000000 0.000000
#
# Coordination Sequence:
#
# PCOD8201789 Si02
#       5
#     8   8   2   8   8
#     4  11  25  43  67 102 139 182 236 292 344 421
#     4  10  21  41  69 100 136 184 228 290 348 416
#     4  12  24  44  74  94 142 174 224 288 358 402
#     4  11  22  42  69 102 138 182 230 284 355 419
#     4  12  23  46  68 101 141 184 228 293 352 418
#
# _framework density 24.289069999999999
#
# number of rings (size 3 to 8) (size 9 to 14) (size 15 to 20)
#    0.000    0.941    5.882    2.118    0.000    5.176 
#    0.000   10.000    0.000    9.882    0.000    0.000 
#    0.000    0.000    0.000    0.000    0.000    0.000 
#
# Total GULP energy -421228.340132 kJ/mol
# GULP energy per Si atom -12389.068827 kJ/mol
# Density = 2.423379 g / cm^3
# Si number density = 24.289070 Si / 1000 Ang^3
#
#
#
# Elastic Constant Matrix: (Units=GPa)
#
#
# Indices 1 2 3 4 5 6 
#
# 1 179.1408 65.7036 72.4932 0.0000 0.0000 0.0000
# 2 65.7036 169.9649 14.0947 0.0000 0.0000 0.0000
# 3 72.4932 14.0947 -3.6697 0.0000 0.0000 0.0000
# 4 0.0000 0.0000 0.0000 20.5553 0.0000 0.0000
# 5 0.0000 0.0000 0.0000 0.0000 37.6138 0.0000
# 6 0.0000 0.0000 0.0000 0.0000 0.0000 40.3718
#
#
#
# Elastic Compliance Matrix: (Units=1/GPa)
#
#
# Indices 1 2 3 4 5 6 
#
# 1 0.000924 -0.001418 0.012798 0.000000 0.000000 0.000000
# 2 -0.001418 0.006640 -0.002514 0.000000 0.000000 0.000000
# 3 0.012798 -0.002514 -0.029346 0.000000 0.000000 0.000000
# 4 0.000000 0.000000 0.000000 0.048649 0.000000 0.000000
# 5 0.000000 0.000000 0.000000 0.000000 0.026586 0.000000
# 6 0.000000 0.000000 0.000000 0.000000 0.000000 0.024770
#
#
# Mechanical properties :
#
#
# Convention : Reuss Voigt Hill
#
# Bulk Modulus (GPa) = -246.84611 72.22431 -87.31090
# Shear Modulus (GPa) = 84.54396 32.58448 58.56422
#
# Velocity S-wave (km/s) = 5.90618 3.66666 4.91566
# Velocity P-wave (km/s) = 7.43898 6.90838 1.95099
#
# Compressibility (1/GPa) = -0.00405111
#
# Stress axis : x y z
#
# Youngs Moduli (GPa) = 1082.73561 150.59604 -34.07579
#
# Poissons Ratio (x) = 0.21359 0.43609
# Poissons Ratio (y) = 1.53563 -0.08565
# Poissons Ratio (z) = -13.85635 0.37853
#
# Static dielectric constant tensor:
#      x y z
#    x 5.071830 0.000000 0.000000 
#    y 0.000000 4.303670 0.000000 
#    z 0.000000 0.000000 4.070130 
# 
# 
# High freq. dielectric constant tensor:
#      x y z
#    x 1.995540 0.000000 0.000000 
#    y 0.000000 1.964040 0.000000 
#    z 0.000000 0.000000 1.970140 
# 
# From -- ./inp_files/10343.got.cif
#   From: 2010.06.25/outbox.cif.g09.slc.cpg/sg48_6_cif.got.tgz:10343.got - 2010.06.26 18:06:46.
