data_PCOD8201297
_publ_section_title
;
Structure prediction by ZEFSAII (Michael W. Deem and Ramdas Pophale) SiO2 
 PCOD8201297
Probable space group: P N N N
;
_chemical_formula_sum "Si O2"
_cell_formula_units_Z 44
_cell_length_a 13.330204
_cell_length_b 36.962348
_cell_length_c 5.107046
_cell_angle_alpha 90.000000
_cell_angle_beta 90.000000
_cell_angle_gamma 90.000000
_cell_volume 2516.321434
_symmetry_space_group_name_H-M "P N N N"
_symmetry_group_IT_number 48
_space_group.IT_coordinate_system_code '2'
_symmetry_cell_setting 'orthorhombic'
loop_
_space_group_symop_operation_xyz
x,y,z
1/2-x,1/2-y,z
x,1/2-y,1/2-z
1/2-x,y,1/2-z
-x,-y,-z
1/2+x,1/2+y,-z
-x,1/2+y,1/2+z
1/2+x,-y,1/2+z
loop_
_atom_site_type_symbol
_atom_site_label
_atom_site_fract_x
_atom_site_fract_y
_atom_site_fract_z
Si Si1 0.492236 0.545708 0.231215
Si Si2 0.867929 0.790031 0.258258
Si Si3 0.947121 0.587292 0.782902
Si Si4 0.841716 0.493912 0.403652
Si Si5 0.750000 0.552370 0.750000
Si Si6 0.630645 0.664634 0.755770
O O1 0.479025 0.568607 0.500831
O O2 0.564544 0.509931 0.269663
O O3 0.530112 0.572596 0.005143
O O4 0.382927 0.531525 0.137448
O O5 0.917735 0.750000 0.250000
O O6 0.750000 0.785193 0.250000
O O7 0.900377 0.808502 0.526270
O O8 0.901964 0.815466 0.020848
O O9 0.836049 0.576778 0.876826
O O10 0.944475 0.630576 0.775571
O O11 0.750000 0.473646 0.250000
O O12 0.790552 0.529336 0.513347
O O13 0.750000 0.654589 0.750000
#
# Coordination Sequence:
#
# PCOD8201297 Si02
#       6
#     8   8   8   8   4   8
#     4  10  23  32  49  66  93 113 156 202 254 288
#     4   9  17  28  42  63  88 115 153 195 223 261
#     4  11  20  34  44  70  90 120 153 201 242 287
#     4  10  20  34  49  67  86 119 154 204 254 298
#     4  10  20  30  52  62  89 116 158 204 243 284
#     4  10  18  28  45  63  86 121 155 187 235 278
#
# _framework density 17.485842000000002
#
# number of rings (size 3 to 8) (size 9 to 14) (size 15 to 20)
#    0.000    2.000    2.727    1.636    2.545    4.364 
#    0.000    0.000    0.000    0.000    0.000    0.000 
#    0.000    0.000    0.000    0.000    0.000   25.455 
#
# Total GULP energy -545234.390795 kJ/mol
# GULP energy per Si atom -12391.690700 kJ/mol
# Density = 1.744604 g / cm^3
# Si number density = 17.485842 Si / 1000 Ang^3
#
#
#
# Elastic Constant Matrix: (Units=GPa)
#
#
# Indices 1 2 3 4 5 6 
#
# 1 52.4103 16.9560 10.4201 0.0000 0.0000 0.0000
# 2 16.9560 92.0711 18.3051 0.0000 0.0000 0.0000
# 3 10.4201 18.3051 74.0230 0.0000 0.0000 0.0000
# 4 0.0000 0.0000 0.0000 20.2938 0.0000 0.0000
# 5 0.0000 0.0000 0.0000 0.0000 20.4612 0.0000
# 6 0.0000 0.0000 0.0000 0.0000 0.0000 0.3831
#
#
#
# Elastic Compliance Matrix: (Units=1/GPa)
#
#
# Indices 1 2 3 4 5 6 
#
# 1 0.020584 -0.003381 -0.002061 0.000000 0.000000 0.000000
# 2 -0.003381 0.011978 -0.002486 0.000000 0.000000 0.000000
# 3 -0.002061 -0.002486 0.014414 0.000000 0.000000 0.000000
# 4 0.000000 0.000000 0.000000 0.049276 0.000000 0.000000
# 5 0.000000 0.000000 0.000000 0.000000 0.048873 0.000000
# 6 0.000000 0.000000 0.000000 0.000000 0.000000 2.609983
#
#
# Mechanical properties :
#
#
# Convention : Reuss Voigt Hill
#
# Bulk Modulus (GPa) = 32.13450 34.42964 33.28207
# Shear Modulus (GPa) = 1.79770 19.74919 10.77344
#
# Velocity S-wave (km/s) = 1.01505 3.36436 2.48488
# Velocity P-wave (km/s) = 4.44872 5.90124 5.22569
#
# Compressibility (1/GPa) = 0.03111920
#
# Stress axis : x y z
#
# Youngs Moduli (GPa) = 48.58168 83.48582 69.37558
#
# Poissons Ratio (x) = 0.28226 0.14302
# Poissons Ratio (y) = 0.16425 0.17248
# Poissons Ratio (z) = 0.10015 0.20756
#
# Static dielectric constant tensor:
#      x y z
#    x 3.258940 0.000000 0.000000 
#    y 0.000000 3.260990 0.000000 
#    z 0.000000 0.000000 6.443780 
# 
# 
# High freq. dielectric constant tensor:
#      x y z
#    x 1.615430 0.000000 0.000000 
#    y 0.000000 1.662320 0.000000 
#    z 0.000000 0.000000 1.692020 
# 
# From -- ./inp_files/3638.got.cif
#   From: 2010.06.25/outbox.cif.g09.slc.cpg/sg48_2_cif.got.tgz:3638.got - 2010.06.26 18:06:46.
