data_PCOD8201849
_publ_section_title
;
Structure prediction by ZEFSAII (Michael W. Deem and Ramdas Pophale) SiO2 
 PCOD8201849
Probable space group: P N N N
;
_chemical_formula_sum "Si O2"
_cell_formula_units_Z 44
_cell_length_a 13.736872
_cell_length_b 18.325514
_cell_length_c 8.291112
_cell_angle_alpha 90.000000
_cell_angle_beta 90.000000
_cell_angle_gamma 90.000000
_cell_volume 2087.165070
_symmetry_space_group_name_H-M "P N N N"
_symmetry_group_IT_number 48
_space_group.IT_coordinate_system_code '2'
_symmetry_cell_setting 'orthorhombic'
loop_
_space_group_symop_operation_xyz
x,y,z
1/2-x,1/2-y,z
x,1/2-y,1/2-z
1/2-x,y,1/2-z
-x,-y,-z
1/2+x,1/2+y,-z
-x,1/2+y,1/2+z
1/2+x,-y,1/2+z
loop_
_atom_site_type_symbol
_atom_site_label
_atom_site_fract_x
_atom_site_fract_y
_atom_site_fract_z
Si Si1 0.750000 0.456069 0.250000
Si Si2 0.127419 0.071332 0.569207
Si Si3 0.087988 0.055835 0.208287
Si Si4 0.603972 0.424117 0.011380
Si Si5 0.202436 0.173951 0.035953
Si Si6 0.022304 0.327393 0.695711
O O1 0.662517 0.504704 0.321285
O O2 0.798643 0.405207 0.387333
O O3 0.085599 0.041015 0.399288
O O4 0.216804 0.125507 0.547794
O O5 0.041476 0.114713 0.661334
O O6 0.151214 0.130434 0.184218
O O7 0.137256 0.991140 0.104466
O O8 0.979186 0.057241 0.141277
O O9 0.567674 0.356254 0.908939
O O10 0.250000 0.250000 0.096045
O O11 0.120296 0.187849 0.903176
O O12 0.982117 0.250000 0.750000
#
# Coordination Sequence:
#
# PCOD8201849 Si02
#       6
#     4   8   8   8   8   8
#     4  12  22  38  63  88 123 166 220 266 316 366
#     4  12  21  34  62  94 127 168 201 252 320 391
#     4  10  22  39  57  91 133 165 211 258 316 382
#     4  10  23  42  58  86 125 166 215 270 307 375
#     4  11  20  35  56  93 140 174 199 244 320 405
#     4  11  22  39  60  90 133 170 206 257 326 391
#
# _framework density 21.081226999999998
#
# number of rings (size 3 to 8) (size 9 to 14) (size 15 to 20)
#    0.000    1.091    5.455    2.727    0.000    4.364 
#    0.000    0.000    0.000    0.000    0.000   20.364 
#    0.000    0.000    0.000    0.000    0.000    0.000 
#
# Total GULP energy -545512.543608 kJ/mol
# GULP energy per Si atom -12398.012355 kJ/mol
# Density = 2.103324 g / cm^3
# Si number density = 21.081227 Si / 1000 Ang^3
#
#
#
# Elastic Constant Matrix: (Units=GPa)
#
#
# Indices 1 2 3 4 5 6 
#
# 1 71.2621 57.0699 56.2343 0.0000 0.0000 0.0000
# 2 57.0699 87.4059 56.7052 0.0000 0.0000 0.0000
# 3 56.2343 56.7052 149.6478 0.0000 0.0000 0.0000
# 4 0.0000 0.0000 0.0000 25.0533 0.0000 0.0000
# 5 0.0000 0.0000 0.0000 0.0000 37.7326 0.0000
# 6 0.0000 0.0000 0.0000 0.0000 0.0000 17.8816
#
#
#
# Elastic Compliance Matrix: (Units=1/GPa)
#
#
# Indices 1 2 3 4 5 6 
#
# 1 0.032542 -0.017654 -0.005539 0.000000 0.000000 0.000000
# 2 -0.017654 0.024748 -0.002743 0.000000 0.000000 0.000000
# 3 -0.005539 -0.002743 0.009803 0.000000 0.000000 0.000000
# 4 0.000000 0.000000 0.000000 0.039915 0.000000 0.000000
# 5 0.000000 0.000000 0.000000 0.000000 0.026502 0.000000
# 6 0.000000 0.000000 0.000000 0.000000 0.000000 0.055924
#
#
# Mechanical properties :
#
#
# Convention : Reuss Voigt Hill
#
# Bulk Modulus (GPa) = 65.70396 72.03716 68.87056
# Shear Modulus (GPa) = 20.29389 25.35392 22.82390
#
# Velocity S-wave (km/s) = 3.10603 3.47173 3.29396
# Velocity P-wave (km/s) = 6.64063 7.09337 6.87073
#
# Compressibility (1/GPa) = 0.01521978
#
# Stress axis : x y z
#
# Youngs Moduli (GPa) = 30.72972 40.40794 102.00636
#
# Poissons Ratio (x) = 0.71337 0.56500
# Poissons Ratio (y) = 0.54251 0.27985
# Poissons Ratio (z) = 0.17021 0.11086
#
# Static dielectric constant tensor:
#      x y z
#    x 3.654490 0.000000 0.000000 
#    y 0.000000 3.644260 0.000000 
#    z 0.000000 0.000000 3.990140 
# 
# 
# High freq. dielectric constant tensor:
#      x y z
#    x 1.811620 0.000000 0.000000 
#    y 0.000000 1.798490 0.000000 
#    z 0.000000 0.000000 1.844380 
# 
# From -- ./inp_files/12671.got.cif
#   From: 2010.06.25/outbox.cif.g09.slc.cpg/sg48_7_cif.got.tgz:12671.got - 2010.06.26 18:06:46.
