data_PCOD8201013
_publ_section_title
;
Structure prediction by ZEFSAII (Michael W. Deem and Ramdas Pophale) SiO2 
 PCOD8201013
Probable space group: P M M M
;
_chemical_formula_sum "Si O2"
_cell_formula_units_Z 60
_cell_length_a 9.779334
_cell_length_b 23.283874
_cell_length_c 18.187958
_cell_angle_alpha 90.000000
_cell_angle_beta 90.000000
_cell_angle_gamma 90.000000
_cell_volume 4141.412235
_symmetry_space_group_name_H-M "P M M M"
_symmetry_group_IT_number 47
_symmetry_cell_setting 'orthorhombic'
loop_
_space_group_symop_operation_xyz
x,y,z
-x,-y,z
x,-y,-z
-x,y,-z
-x,-y,-z
x,y,-z
-x,y,z
x,-y,z
loop_
_atom_site_type_symbol
_atom_site_label
_atom_site_fract_x
_atom_site_fract_y
_atom_site_fract_z
Si Si1 0.847077 0.838607 0.782074
Si Si2 0.657782 0.770045 0.415882
Si Si3 0.658807 0.112448 0.666941
Si Si4 0.849174 0.719634 0.696085
Si Si5 0.343455 0.566709 0.084350
Si Si6 0.837334 0.228137 0.918298
Si Si7 0.662333 0.000000 0.417799
Si Si8 0.160682 0.342658 0.840217
O O1 0.743814 0.882441 0.742591
O O2 0.851087 0.779127 0.739149
O O3 0.791869 0.824020 0.864362
O O4 0.000000 0.865517 0.784110
O O5 0.705882 0.768277 0.500000
O O6 0.500000 0.753595 0.407589
O O7 0.685955 0.833862 0.386240
O O8 0.742004 0.722314 0.370678
O O9 0.500000 0.107192 0.688189
O O10 0.713319 0.056374 0.624842
O O11 0.809502 0.669987 0.754119
O O12 0.000000 0.707684 0.663252
O O13 0.500000 0.584403 0.099778
O O14 0.321625 0.500000 0.101481
O O15 0.243766 0.601048 0.138051
O O16 0.305206 0.580121 0.000000
O O17 0.784021 0.289638 0.889523
O O18 0.000000 0.230436 0.917704
O O19 0.778914 0.216503 0.000000
O O20 0.500000 0.000000 0.423106
O O21 0.724868 0.000000 0.500000
O O22 0.000000 0.353174 0.853539
#
# Coordination Sequence:
#
# PCOD8201013 Si02
#       8
#     8   8   8   8   8   8   4   8
#     4   8  14  25  39  54  75 101 125 151 187 231
#     4   9  16  25  38  57  79 102 129 158 186 221
#     4   9  16  26  40  56  75 100 128 158 189 221
#     4   8  15  26  38  55  78 102 127 155 191 233
#     4   9  18  30  40  53  78 110 139 165 194 227
#     4   8  13  22  38  59  79  99 125 157 193 230
#     4   9  16  26  41  59  76  97 128 160 187 219
#     4   9  16  26  41  59  78 101 132 167 195 224
#
# _framework density 14.487811000000001
#
# number of rings (size 3 to 8) (size 9 to 14) (size 15 to 20)
#    0.000    3.400    0.000    2.800    0.000    3.467 
#    0.000    3.000    0.000    2.800    0.000    0.467 
#    0.000    4.267    0.000    5.867    0.000    4.267 
#
# Total GULP energy -743680.588330 kJ/mol
# GULP energy per Si atom -12394.676472 kJ/mol
# Density = 1.445484 g / cm^3
# Si number density = 14.487811 Si / 1000 Ang^3
#
#
#
# Elastic Constant Matrix: (Units=GPa)
#
#
# Indices 1 2 3 4 5 6 
#
# 1 59.3249 38.9386 52.2686 0.0000 0.0000 0.0000
# 2 38.9386 62.2099 46.7840 0.0000 0.0000 0.0000
# 3 52.2686 46.7840 112.2215 0.0000 0.0000 0.0000
# 4 0.0000 0.0000 0.0000 24.2803 0.0000 0.0000
# 5 0.0000 0.0000 0.0000 0.0000 23.9251 0.0000
# 6 0.0000 0.0000 0.0000 0.0000 0.0000 19.0660
#
#
#
# Elastic Compliance Matrix: (Units=1/GPa)
#
#
# Indices 1 2 3 4 5 6 
#
# 1 0.035594 -0.014293 -0.010620 0.000000 0.000000 0.000000
# 2 -0.014293 0.029155 -0.005497 0.000000 0.000000 0.000000
# 3 -0.010620 -0.005497 0.016149 0.000000 0.000000 0.000000
# 4 0.000000 0.000000 0.000000 0.041186 0.000000 0.000000
# 5 0.000000 0.000000 0.000000 0.000000 0.041797 0.000000
# 6 0.000000 0.000000 0.000000 0.000000 0.000000 0.052449
#
#
# Mechanical properties :
#
#
# Convention : Reuss Voigt Hill
#
# Bulk Modulus (GPa) = 49.80517 56.63762 53.22140
# Shear Modulus (GPa) = 17.61533 19.83863 18.72698
#
# Velocity S-wave (km/s) = 3.49072 3.70446 3.59918
# Velocity P-wave (km/s) = 7.12031 7.58126 7.35440
#
# Compressibility (1/GPa) = 0.02007824
#
# Stress axis : x y z
#
# Youngs Moduli (GPa) = 28.09430 34.29947 61.92254
#
# Poissons Ratio (x) = 0.49023 0.65762
# Poissons Ratio (y) = 0.40154 0.34041
# Poissons Ratio (z) = 0.29836 0.18856
#
# Static dielectric constant tensor:
#      x y z
#    x 2.756440 0.000000 0.000000 
#    y 0.000000 2.586170 0.000000 
#    z 0.000000 0.000000 3.040850 
# 
# 
# High freq. dielectric constant tensor:
#      x y z
#    x 1.539770 0.000000 0.000000 
#    y 0.000000 1.519000 0.000000 
#    z 0.000000 0.000000 1.549490 
# 
# From -- ./inp_files/23058.got.cif
#   From: 2010.03.12/outbox.cif.g09.slc.cpg/sg47_12_cif.got.tgz:23058.got - 2010.04.14 03:12:58.
