data_PCOD8201787
_publ_section_title
;
Structure prediction by ZEFSAII (Michael W. Deem and Ramdas Pophale) SiO2 
 PCOD8201787
Probable space group: P N N N
;
_chemical_formula_sum "Si O2"
_cell_formula_units_Z 58
_cell_length_a 8.813870
_cell_length_b 25.001203
_cell_length_c 11.809126
_cell_angle_alpha 90.000000
_cell_angle_beta 90.000000
_cell_angle_gamma 90.000000
_cell_volume 2602.227748
_symmetry_space_group_name_H-M "P N N N"
_symmetry_group_IT_number 48
_space_group.IT_coordinate_system_code '2'
_symmetry_cell_setting 'orthorhombic'
loop_
_space_group_symop_operation_xyz
x,y,z
1/2-x,1/2-y,z
x,1/2-y,1/2-z
1/2-x,y,1/2-z
-x,-y,-z
1/2+x,1/2+y,-z
-x,1/2+y,1/2+z
1/2+x,-y,1/2+z
loop_
_atom_site_type_symbol
_atom_site_label
_atom_site_fract_x
_atom_site_fract_y
_atom_site_fract_z
Si Si1 0.456408 0.489332 0.626118
Si Si2 0.950955 0.438239 0.503525
Si Si3 0.172241 0.604707 0.134671
Si Si4 0.250000 0.250000 0.750000
Si Si5 0.087409 0.201123 0.312055
Si Si6 0.720741 0.907691 0.371317
Si Si7 0.419107 0.319165 0.563141
Si Si8 0.931106 0.912274 0.762184
O O1 0.500000 0.500000 0.500000
O O2 0.554536 0.440480 0.675695
O O3 0.282014 0.469241 0.627863
O O4 0.476222 0.541268 0.701153
O O5 0.778392 0.423513 0.537347
O O6 0.000000 0.500000 0.500000
O O7 0.043837 0.409354 0.603758
O O8 0.009975 0.410577 0.389844
O O9 0.250000 0.624147 0.250000
O O10 0.088161 0.657120 0.084340
O O11 0.361572 0.283911 0.668700
O O12 0.997472 0.250000 0.250000
O O13 0.250000 0.198181 0.250000
O O14 0.089110 0.214457 0.446319
O O15 0.012689 0.143104 0.294001
O O16 0.750000 0.880347 0.250000
O O17 0.809327 0.870236 0.460316
O O18 0.750000 0.922608 0.750000
#
# Coordination Sequence:
#
# PCOD8201787 Si02
#       8
#     8   8   8   2   8   8   8   8
#     4  11  21  36  59  92 136 182 233 289 346 426
#     4  12  23  37  64  98 140 192 236 281 353 442
#     4  11  24  43  63  99 151 190 229 301 376 433
#     4  12  24  44  80 108 128 180 262 310 370 444
#     4  10  21  41  66  97 130 172 228 299 361 414
#     4  11  21  37  60  92 130 174 224 288 347 414
#     4  11  24  44  72 103 136 179 242 310 363 440
#     4  11  21  37  62  96 131 182 237 290 353 433
#
# _framework density 22.288594
#
# number of rings (size 3 to 8) (size 9 to 14) (size 15 to 20)
#    0.000    0.966    0.690   10.345    0.000    0.000 
#    0.000    3.793    0.000    0.828    0.000    0.000 
#    0.000    0.000    0.000    0.000    0.000    0.000 
#
# Total GULP energy -718831.776959 kJ/mol
# GULP energy per Si atom -12393.651327 kJ/mol
# Density = 2.223786 g / cm^3
# Si number density = 22.288594 Si / 1000 Ang^3
#
#
#
# Elastic Constant Matrix: (Units=GPa)
#
#
# Indices 1 2 3 4 5 6 
#
# 1 71.5792 30.9102 28.3612 0.0000 0.0000 0.0000
# 2 30.9102 123.8274 49.3550 0.0000 0.0000 0.0000
# 3 28.3612 49.3550 152.2266 0.0000 0.0000 0.0000
# 4 0.0000 0.0000 0.0000 40.8498 0.0000 0.0000
# 5 0.0000 0.0000 0.0000 0.0000 36.6445 0.0000
# 6 0.0000 0.0000 0.0000 0.0000 0.0000 28.6232
#
#
#
# Elastic Compliance Matrix: (Units=1/GPa)
#
#
# Indices 1 2 3 4 5 6 
#
# 1 0.016149 -0.003252 -0.001954 0.000000 0.000000 0.000000
# 2 -0.003252 0.009929 -0.002613 0.000000 0.000000 0.000000
# 3 -0.001954 -0.002613 0.007781 0.000000 0.000000 0.000000
# 4 0.000000 0.000000 0.000000 0.024480 0.000000 0.000000
# 5 0.000000 0.000000 0.000000 0.000000 0.027289 0.000000
# 6 0.000000 0.000000 0.000000 0.000000 0.000000 0.034937
#
#
# Mechanical properties :
#
#
# Convention : Reuss Voigt Hill
#
# Bulk Modulus (GPa) = 54.88705 62.76511 58.82608
# Shear Modulus (GPa) = 35.14252 37.15730 36.14991
#
# Velocity S-wave (km/s) = 3.97508 4.08744 4.03165
# Velocity P-wave (km/s) = 6.76369 7.10616 6.93704
#
# Compressibility (1/GPa) = 0.01821924
#
# Stress axis : x y z
#
# Youngs Moduli (GPa) = 61.92214 100.71286 128.52556
#
# Poissons Ratio (x) = 0.32755 0.25118
# Poissons Ratio (y) = 0.20139 0.33588
# Poissons Ratio (z) = 0.12101 0.26320
#
# Static dielectric constant tensor:
#      x y z
#    x 3.687880 0.000000 0.000000 
#    y 0.000000 4.498930 0.000000 
#    z 0.000000 0.000000 3.475730 
# 
# 
# High freq. dielectric constant tensor:
#      x y z
#    x 1.857160 0.000000 0.000000 
#    y 0.000000 1.871550 0.000000 
#    z 0.000000 0.000000 1.898720 
# 
# From -- ./inp_files/18978.got.cif
#   From: 2010.06.25/outbox.cif.g09.slc.cpg/sg48_10_cif.got.tgz:18978.got - 2010.06.26 18:06:46.
