data_PCOD8201034
_publ_section_title
;
Structure prediction by ZEFSAII (Michael W. Deem and Ramdas Pophale) SiO2 
 PCOD8201034
Probable space group: P M M M
;
_chemical_formula_sum "Si O2"
_cell_formula_units_Z 40
_cell_length_a 9.518067
_cell_length_b 19.651193
_cell_length_c 15.445007
_cell_angle_alpha 90.000000
_cell_angle_beta 90.000000
_cell_angle_gamma 90.000000
_cell_volume 2888.855294
_symmetry_space_group_name_H-M "P M M M"
_symmetry_group_IT_number 47
_symmetry_cell_setting 'orthorhombic'
loop_
_space_group_symop_operation_xyz
x,y,z
-x,-y,z
x,-y,-z
-x,y,-z
-x,-y,-z
x,y,-z
-x,y,z
x,-y,z
loop_
_atom_site_type_symbol
_atom_site_label
_atom_site_fract_x
_atom_site_fract_y
_atom_site_fract_z
Si Si1 0.667958 0.076519 0.500000
Si Si2 0.159020 0.080657 0.000000
Si Si3 0.663775 0.079560 0.164430
Si Si4 0.663319 0.300065 0.600966
Si Si5 0.333505 0.156099 0.664805
Si Si6 0.158044 0.425180 0.397126
O O1 0.500000 0.078759 0.500000
O O2 0.729518 0.113413 0.415102
O O3 0.724604 0.000000 0.500000
O O4 0.243626 0.105700 0.915830
O O5 0.000000 0.110212 0.000000
O O6 0.154871 0.000000 0.000000
O O7 0.500000 0.093157 0.143923
O O8 0.718926 0.123398 0.245688
O O9 0.688090 0.000000 0.184606
O O10 0.697400 0.286883 0.500000
O O11 0.500000 0.314115 0.614332
O O12 0.714467 0.234555 0.655631
O O13 0.742808 0.365794 0.639619
O O14 0.500000 0.151514 0.659893
O O15 0.164128 0.424167 0.500000
O O16 0.208326 0.500000 0.364381
O O17 0.000000 0.411348 0.364850
#
# Coordination Sequence:
#
# PCOD8201034 Si02
#       6
#     4   4   8   8   8   8
#     4   9  14  20  32  50  74 103 132 160 189 219
#     4   9  17  29  43  57  73  93 118 155 204 247
#     4   9  16  26  41  59  76  96 126 161 194 230
#     4   9  15  23  35  51  74 101 126 154 187 222
#     4   9  15  23  34  53  79 103 127 158 192 222
#     4   8  14  24  36  49  66  90 123 161 193 220
#
# _framework density 13.846315000000001
#
# number of rings (size 3 to 8) (size 9 to 14) (size 15 to 20)
#    0.000    3.200    1.000    1.500    0.000    4.000 
#    0.000    3.000    0.000    0.000    0.000    0.000 
#    0.000    4.800    0.000    0.900    0.000   18.800 
#
# Total GULP energy -495762.548813 kJ/mol
# GULP energy per Si atom -12394.063720 kJ/mol
# Density = 1.381480 g / cm^3
# Si number density = 13.846315 Si / 1000 Ang^3
#
#
#
# Elastic Constant Matrix: (Units=GPa)
#
#
# Indices 1 2 3 4 5 6 
#
# 1 47.6122 41.7853 36.2567 0.0000 0.0000 0.0000
# 2 41.7853 114.7134 52.1435 0.0000 0.0000 0.0000
# 3 36.2567 52.1435 89.0335 0.0000 0.0000 0.0000
# 4 0.0000 0.0000 0.0000 8.8450 0.0000 0.0000
# 5 0.0000 0.0000 0.0000 0.0000 7.3144 0.0000
# 6 0.0000 0.0000 0.0000 0.0000 0.0000 11.1217
#
#
#
# Elastic Compliance Matrix: (Units=1/GPa)
#
#
# Indices 1 2 3 4 5 6 
#
# 1 0.035932 -0.008773 -0.009495 0.000000 0.000000 0.000000
# 2 -0.008773 0.014022 -0.004640 0.000000 0.000000 0.000000
# 3 -0.009495 -0.004640 0.017815 0.000000 0.000000 0.000000
# 4 0.000000 0.000000 0.000000 0.113058 0.000000 0.000000
# 5 0.000000 0.000000 0.000000 0.000000 0.136716 0.000000
# 6 0.000000 0.000000 0.000000 0.000000 0.000000 0.089915
#
#
# Mechanical properties :
#
#
# Convention : Reuss Voigt Hill
#
# Bulk Modulus (GPa) = 45.54652 56.85890 51.20271
# Shear Modulus (GPa) = 10.85560 13.53445 12.19502
#
# Velocity S-wave (km/s) = 2.80305 3.12985 2.97095
# Velocity P-wave (km/s) = 6.59104 7.36307 6.98772
#
# Compressibility (1/GPa) = 0.02195557
#
# Stress axis : x y z
#
# Youngs Moduli (GPa) = 27.82998 71.31706 56.13117
#
# Poissons Ratio (x) = 0.62565 0.53295
# Poissons Ratio (y) = 0.24415 0.26042
# Poissons Ratio (z) = 0.26424 0.33088
#
# Static dielectric constant tensor:
#      x y z
#    x 2.589990 0.000000 0.000000 
#    y 0.000000 2.895760 0.000000 
#    z 0.000000 0.000000 2.581020 
# 
# 
# High freq. dielectric constant tensor:
#      x y z
#    x 1.504000 0.000000 0.000000 
#    y 0.000000 1.521410 0.000000 
#    z 0.000000 0.000000 1.491630 
# 
# From -- ./inp_files/21254.got.cif
#   From: 2010.03.12/outbox.cif.g09.slc.cpg/sg47_11_cif.got.tgz:21254.got - 2010.04.14 03:12:58.
