data_PCOD8201351
_publ_section_title
;
Structure prediction by ZEFSAII (Michael W. Deem and Ramdas Pophale) SiO2 
 PCOD8201351
Probable space group: P N N N
;
_chemical_formula_sum "Si O2"
_cell_formula_units_Z 46
_cell_length_a 9.183191
_cell_length_b 21.016102
_cell_length_c 12.484767
_cell_angle_alpha 90.000000
_cell_angle_beta 90.000000
_cell_angle_gamma 90.000000
_cell_volume 2409.496093
_symmetry_space_group_name_H-M "P N N N"
_symmetry_group_IT_number 48
_space_group.IT_coordinate_system_code '2'
_symmetry_cell_setting 'orthorhombic'
loop_
_space_group_symop_operation_xyz
x,y,z
1/2-x,1/2-y,z
x,1/2-y,1/2-z
1/2-x,y,1/2-z
-x,-y,-z
1/2+x,1/2+y,-z
-x,1/2+y,1/2+z
1/2+x,-y,1/2+z
loop_
_atom_site_type_symbol
_atom_site_label
_atom_site_fract_x
_atom_site_fract_y
_atom_site_fract_z
Si Si1 0.592132 0.926398 0.701756
Si Si2 0.080391 0.052166 0.773185
Si Si3 0.015150 0.828720 0.628187
Si Si4 0.347447 0.378743 0.974506
Si Si5 0.250000 0.750000 0.750000
Si Si6 0.966625 0.571087 0.039851
Si Si7 0.750000 0.750000 0.958516
O O1 0.750000 0.943626 0.750000
O O2 0.518499 0.877886 0.780325
O O3 0.577933 0.892335 0.587402
O O4 0.495531 0.988369 0.689552
O O5 0.250000 0.039348 0.750000
O O6 0.058479 0.102193 0.870363
O O7 0.000216 0.078407 0.666449
O O8 0.155380 0.790445 0.666269
O O9 0.050725 0.871750 0.522374
O O10 0.876882 0.781556 0.613912
O O11 0.203564 0.421092 0.980169
O O12 0.317455 0.303510 0.964033
O O13 0.000000 0.500000 0.000000
#
# Coordination Sequence:
#
# PCOD8201351 Si02
#       7
#     8   8   8   8   2   8   4
#     4  12  20  36  60  87 120 161 200 247 307 363
#     4  10  22  37  57  91 123 149 200 253 306 358
#     4  11  24  39  61  87 118 160 199 248 308 357
#     4  10  21  34  59  88 116 160 200 248 292 350
#     4  12  28  34  56  96 122 150 204 254 304 368
#     4  10  18  38  60  82 117 157 191 241 306 357
#     4  10  20  43  61  82 124 164 209 239 292 378
#
# _framework density 19.091128999999999
#
# number of rings (size 3 to 8) (size 9 to 14) (size 15 to 20)
#    0.000    1.391    5.217    1.565    1.217    0.696 
#    0.000   16.087    0.000    0.000    0.000    4.870 
#    0.000    0.000    0.000    0.000    0.000    0.000 
#
# Total GULP energy -570140.624109 kJ/mol
# GULP energy per Si atom -12394.361394 kJ/mol
# Density = 1.904768 g / cm^3
# Si number density = 19.091129 Si / 1000 Ang^3
#
#
#
# Elastic Constant Matrix: (Units=GPa)
#
#
# Indices 1 2 3 4 5 6 
#
# 1 42.7606 39.7174 23.4536 0.0000 0.0000 0.0000
# 2 39.7174 149.3312 73.1812 0.0000 0.0000 0.0000
# 3 23.4536 73.1812 154.5698 0.0000 0.0000 0.0000
# 4 0.0000 0.0000 0.0000 48.8254 0.0000 0.0000
# 5 0.0000 0.0000 0.0000 0.0000 0.3452 0.0000
# 6 0.0000 0.0000 0.0000 0.0000 0.0000 45.7395
#
#
#
# Elastic Compliance Matrix: (Units=1/GPa)
#
#
# Indices 1 2 3 4 5 6 
#
# 1 0.031189 -0.007782 -0.001048 0.000000 0.000000 0.000000
# 2 -0.007782 0.010661 -0.003867 0.000000 0.000000 0.000000
# 3 -0.001048 -0.003867 0.008459 0.000000 0.000000 0.000000
# 4 0.000000 0.000000 0.000000 0.020481 0.000000 0.000000
# 5 0.000000 0.000000 0.000000 0.000000 2.896929 0.000000
# 6 0.000000 0.000000 0.000000 0.000000 0.000000 0.021863
#
#
# Mechanical properties :
#
#
# Convention : Reuss Voigt Hill
#
# Bulk Modulus (GPa) = 40.13472 68.81845 54.47658
# Shear Modulus (GPa) = 1.65383 33.00264 17.32824
#
# Velocity S-wave (km/s) = 0.93175 4.16226 3.01601
# Velocity P-wave (km/s) = 4.71443 7.69577 6.38164
#
# Compressibility (1/GPa) = 0.02491609
#
# Stress axis : x y z
#
# Youngs Moduli (GPa) = 32.06287 93.79867 118.21224
#
# Poissons Ratio (x) = 0.72990 0.12391
# Poissons Ratio (y) = 0.24950 0.45710
# Poissons Ratio (z) = 0.03361 0.36270
#
# Static dielectric constant tensor:
#      x y z
#    x 2.803340 0.000000 0.000000 
#    y 0.000000 4.578430 0.000000 
#    z 0.000000 0.000000 5.340990 
# 
# 
# High freq. dielectric constant tensor:
#      x y z
#    x 1.717190 0.000000 0.000000 
#    y 0.000000 1.749890 0.000000 
#    z 0.000000 0.000000 1.755530 
# 
# From -- ./inp_files/18841.got.cif
#   From: 2010.06.25/outbox.cif.g09.slc.cpg/sg48_10_cif.got.tgz:18841.got - 2010.06.26 18:06:46.
