data_PCOD8201284
_publ_section_title
;
Structure prediction by ZEFSAII (Michael W. Deem and Ramdas Pophale) SiO2 
 PCOD8201284
Probable space group: P N N N
;
_chemical_formula_sum "Si O2"
_cell_formula_units_Z 48
_cell_length_a 10.053561
_cell_length_b 14.936751
_cell_length_c 17.327300
_cell_angle_alpha 90.000000
_cell_angle_beta 90.000000
_cell_angle_gamma 90.000000
_cell_volume 2601.997969
_symmetry_space_group_name_H-M "P N N N"
_symmetry_group_IT_number 48
_space_group.IT_coordinate_system_code '2'
_symmetry_cell_setting 'orthorhombic'
loop_
_space_group_symop_operation_xyz
x,y,z
1/2-x,1/2-y,z
x,1/2-y,1/2-z
1/2-x,y,1/2-z
-x,-y,-z
1/2+x,1/2+y,-z
-x,1/2+y,1/2+z
1/2+x,-y,1/2+z
loop_
_atom_site_type_symbol
_atom_site_label
_atom_site_fract_x
_atom_site_fract_y
_atom_site_fract_z
Si Si1 0.103944 0.161120 0.715195
Si Si2 0.520742 0.696169 0.820654
Si Si3 0.881304 0.614395 0.042148
Si Si4 0.750000 0.750000 0.567017
Si Si5 0.374546 0.580860 0.565023
Si Si6 0.750000 0.250000 0.390957
Si Si7 0.908307 0.037580 0.264982
O O1 0.028780 0.250000 0.750000
O O2 0.250000 0.162755 0.750000
O O3 0.104157 0.167526 0.622467
O O4 0.040486 0.065553 0.740384
O O5 0.584347 0.750000 0.750000
O O6 0.626868 0.706968 0.887932
O O7 0.381645 0.744012 0.839903
O O8 0.492454 0.592505 0.798677
O O9 0.810582 0.517710 0.054493
O O10 0.789529 0.667737 0.985168
O O11 0.024437 0.600797 0.003792
O O12 0.262761 0.658815 0.558734
O O13 0.441959 0.578612 0.650447
O O14 0.750000 0.046503 0.250000
#
# Coordination Sequence:
#
# PCOD8201284 Si02
#       7
#     8   8   8   4   8   4   8
#     4   9  18  33  56  79 106 149 198 235 289 333
#     4  12  21  33  55  86 121 150 187 241 289 349
#     4  10  21  38  54  79 120 152 188 235 290 360
#     4  12  23  36  53  86 124 158 182 232 311 350
#     4  10  20  35  59  80 110 158 191 229 294 342
#     4  12  19  36  58  86 105 152 200 226 279 346
#     4  10  17  31  55  83 109 144 196 241 271 336
#
# _framework density 18.447362999999999
#
# number of rings (size 3 to 8) (size 9 to 14) (size 15 to 20)
#    0.000    1.500    5.000    1.500    0.000    0.000 
#    0.000    2.500    0.000    0.000    0.000    2.917 
#    0.000    0.000    0.000    0.000    0.000    0.000 
#
# Total GULP energy -594794.066469 kJ/mol
# GULP energy per Si atom -12391.543051 kJ/mol
# Density = 1.840538 g / cm^3
# Si number density = 18.447363 Si / 1000 Ang^3
#
#
#
# Elastic Constant Matrix: (Units=GPa)
#
#
# Indices 1 2 3 4 5 6 
#
# 1 49.9317 37.5158 43.3582 0.0000 0.0000 0.0000
# 2 37.5158 180.8090 65.8526 0.0000 0.0000 0.0000
# 3 43.3582 65.8526 126.6308 0.0000 0.0000 0.0000
# 4 0.0000 0.0000 0.0000 51.9222 0.0000 0.0000
# 5 0.0000 0.0000 0.0000 0.0000 22.4686 0.0000
# 6 0.0000 0.0000 0.0000 0.0000 0.0000 15.9112
#
#
#
# Elastic Compliance Matrix: (Units=1/GPa)
#
#
# Indices 1 2 3 4 5 6 
#
# 1 0.029800 -0.003043 -0.008621 0.000000 0.000000 0.000000
# 2 -0.003043 0.007134 -0.002668 0.000000 0.000000 0.000000
# 3 -0.008621 -0.002668 0.012236 0.000000 0.000000 0.000000
# 4 0.000000 0.000000 0.000000 0.019260 0.000000 0.000000
# 5 0.000000 0.000000 0.000000 0.000000 0.044507 0.000000
# 6 0.000000 0.000000 0.000000 0.000000 0.000000 0.062849
#
#
# Mechanical properties :
#
#
# Convention : Reuss Voigt Hill
#
# Bulk Modulus (GPa) = 48.76658 72.31386 60.54022
# Shear Modulus (GPa) = 23.66486 32.10338 27.88412
#
# Velocity S-wave (km/s) = 3.58555 4.17618 3.89208
# Velocity P-wave (km/s) = 6.60564 7.90817 7.28607
#
# Compressibility (1/GPa) = 0.02050585
#
# Stress axis : x y z
#
# Youngs Moduli (GPa) = 33.55729 140.17774 81.72561
#
# Poissons Ratio (x) = 0.42661 0.70454
# Poissons Ratio (y) = 0.10213 0.21803
# Poissons Ratio (z) = 0.28929 0.37397
#
# Static dielectric constant tensor:
#      x y z
#    x 2.891140 0.000000 0.000000 
#    y 0.000000 4.304620 0.000000 
#    z 0.000000 0.000000 3.519280 
# 
# 
# High freq. dielectric constant tensor:
#      x y z
#    x 1.660600 0.000000 0.000000 
#    y 0.000000 1.746400 0.000000 
#    z 0.000000 0.000000 1.716630 
# 
# From -- ./inp_files/27983.got.cif
#   From: 2010.06.25/outbox.cif.g09.slc.cpg/sg48_14_cif.got.tgz:27983.got - 2010.06.26 18:06:46.
