data_PCOD8201661
_publ_section_title
;
Structure prediction by ZEFSAII (Michael W. Deem and Ramdas Pophale) SiO2 
 PCOD8201661
Probable space group: P N N N
;
_chemical_formula_sum "Si O2"
_cell_formula_units_Z 56
_cell_length_a 8.617181
_cell_length_b 14.418240
_cell_length_c 21.917526
_cell_angle_alpha 90.000000
_cell_angle_beta 90.000000
_cell_angle_gamma 90.000000
_cell_volume 2723.133895
_symmetry_space_group_name_H-M "P N N N"
_symmetry_group_IT_number 48
_space_group.IT_coordinate_system_code '2'
_symmetry_cell_setting 'orthorhombic'
loop_
_space_group_symop_operation_xyz
x,y,z
1/2-x,1/2-y,z
x,1/2-y,1/2-z
1/2-x,y,1/2-z
-x,-y,-z
1/2+x,1/2+y,-z
-x,1/2+y,1/2+z
1/2+x,-y,1/2+z
loop_
_atom_site_type_symbol
_atom_site_label
_atom_site_fract_x
_atom_site_fract_y
_atom_site_fract_z
Si Si1 0.553227 0.827938 0.355836
Si Si2 0.405915 0.657908 0.783888
Si Si3 0.098161 0.126001 0.663931
Si Si4 0.640877 0.983466 0.044398
Si Si5 0.075432 0.528764 0.270664
Si Si6 0.366293 0.165270 0.506123
Si Si7 0.337883 0.837846 0.576609
O O1 0.719438 0.856749 0.328998
O O2 0.508389 0.724729 0.333330
O O3 0.435381 0.905566 0.330624
O O4 0.550875 0.823500 0.428717
O O5 0.471841 0.750000 0.750000
O O6 0.250000 0.623899 0.750000
O O7 0.533300 0.577127 0.784988
O O8 0.367391 0.683160 0.852930
O O9 0.069088 0.074679 0.600119
O O10 0.039483 0.063427 0.718506
O O11 0.767041 0.927915 0.005527
O O12 0.725247 0.074680 0.069226
O O13 0.500000 0.000000 0.000000
O O14 0.250000 0.532845 0.250000
O O15 0.250000 0.250000 0.491884
O O16 0.496104 0.151910 0.455219
O O17 0.250000 0.750000 0.547279
#
# Coordination Sequence:
#
# PCOD8201661 Si02
#       7
#     8   8   8   8   8   8   8
#     4  10  20  42  68  92 127 176 221 261 326 411
#     4  11  23  48  70  90 125 178 234 269 315 403
#     4  10  21  40  68  90 126 177 225 259 319 416
#     4  11  23  41  67 101 137 177 224 279 343 411
#     4  12  26  40  62 100 137 169 216 282 344 383
#     4  11  22  45  66  99 133 173 221 279 341 408
#     4  12  25  41  70 100 129 175 231 283 334 399
#
# _framework density 20.564541999999999
#
# number of rings (size 3 to 8) (size 9 to 14) (size 15 to 20)
#    0.000    1.000    4.286    5.571    0.000    4.857 
#    2.571    0.000    0.000    0.000    0.000    0.000 
#    0.000    0.000    0.000    0.000    0.000    0.000 
#
# Total GULP energy -694465.933483 kJ/mol
# GULP energy per Si atom -12401.177384 kJ/mol
# Density = 2.051774 g / cm^3
# Si number density = 20.564542 Si / 1000 Ang^3
#
#
#
# Elastic Constant Matrix: (Units=GPa)
#
#
# Indices 1 2 3 4 5 6 
#
# 1 48.6704 32.7868 43.3838 0.0000 0.0000 0.0000
# 2 32.7868 155.1499 32.5578 0.0000 0.0000 0.0000
# 3 43.3838 32.5578 96.9192 0.0000 0.0000 0.0000
# 4 0.0000 0.0000 0.0000 12.0512 0.0000 0.0000
# 5 0.0000 0.0000 0.0000 0.0000 6.6804 0.0000
# 6 0.0000 0.0000 0.0000 0.0000 0.0000 21.3478
#
#
#
# Elastic Compliance Matrix: (Units=1/GPa)
#
#
# Indices 1 2 3 4 5 6 
#
# 1 0.037105 -0.004686 -0.015035 0.000000 0.000000 0.000000
# 2 -0.004686 0.007526 -0.000431 0.000000 0.000000 0.000000
# 3 -0.015035 -0.000431 0.017193 0.000000 0.000000 0.000000
# 4 0.000000 0.000000 0.000000 0.082979 0.000000 0.000000
# 5 0.000000 0.000000 0.000000 0.000000 0.149692 0.000000
# 6 0.000000 0.000000 0.000000 0.000000 0.000000 0.046843
#
#
# Mechanical properties :
#
#
# Convention : Reuss Voigt Hill
#
# Bulk Modulus (GPa) = 46.46789 57.57739 52.02264
# Shear Modulus (GPa) = 12.85957 20.81661 16.83809
#
# Velocity S-wave (km/s) = 2.50337 3.18505 2.86456
# Velocity P-wave (km/s) = 5.56785 6.44866 6.02438
#
# Compressibility (1/GPa) = 0.02152024
#
# Stress axis : x y z
#
# Youngs Moduli (GPa) = 26.95040 132.87239 58.16427
#
# Poissons Ratio (x) = 0.62265 0.87451
# Poissons Ratio (y) = 0.12629 0.02504
# Poissons Ratio (z) = 0.40520 0.05721
#
# Static dielectric constant tensor:
#      x y z
#    x 3.570260 0.000000 0.000000 
#    y 0.000000 4.075940 0.000000 
#    z 0.000000 0.000000 3.675190 
# 
# 
# High freq. dielectric constant tensor:
#      x y z
#    x 1.785080 0.000000 0.000000 
#    y 0.000000 1.826490 0.000000 
#    z 0.000000 0.000000 1.810170 
# 
# From -- ./inp_files/33596.got.cif
#   From: 2010.06.25/outbox.cif.g09.slc.cpg/sg48_17_cif.got.tgz:33596.got - 2010.06.26 18:06:46.
