data_PCOD8201892
_publ_section_title
;
Structure prediction by ZEFSAII (Michael W. Deem and Ramdas Pophale) SiO2 
 PCOD8201892
Probable space group: P N N N
;
_chemical_formula_sum "Si O2"
_cell_formula_units_Z 56
_cell_length_a 8.231623
_cell_length_b 20.815071
_cell_length_c 14.768332
_cell_angle_alpha 90.000000
_cell_angle_beta 90.000000
_cell_angle_gamma 90.000000
_cell_volume 2530.432842
_symmetry_space_group_name_H-M "P N N N"
_symmetry_group_IT_number 48
_space_group.IT_coordinate_system_code '2'
_symmetry_cell_setting 'orthorhombic'
loop_
_space_group_symop_operation_xyz
x,y,z
1/2-x,1/2-y,z
x,1/2-y,1/2-z
1/2-x,y,1/2-z
-x,-y,-z
1/2+x,1/2+y,-z
-x,1/2+y,1/2+z
1/2+x,-y,1/2+z
loop_
_atom_site_type_symbol
_atom_site_label
_atom_site_fract_x
_atom_site_fract_y
_atom_site_fract_z
Si Si1 0.945406 0.809039 0.549978
Si Si2 0.064086 0.676001 0.462091
Si Si3 0.931672 0.381109 0.215158
Si Si4 0.570906 0.675188 0.232222
Si Si5 0.632432 0.870030 0.609696
Si Si6 0.660317 0.512952 0.660048
Si Si7 0.601429 0.376583 0.599640
O O1 0.756782 0.811521 0.583223
O O2 0.012428 0.742637 0.509705
O O3 0.061710 0.830190 0.633097
O O4 0.953493 0.860841 0.467758
O O5 0.252899 0.668782 0.437843
O O6 0.965155 0.661926 0.371625
O O7 0.010837 0.622895 0.535765
O O8 0.750000 0.386487 0.250000
O O9 0.055393 0.355604 0.292188
O O10 0.989567 0.452111 0.183587
O O11 0.560217 0.750000 0.250000
O O12 0.750000 0.647619 0.250000
O O13 0.440930 0.640467 0.296726
O O14 0.727957 0.936538 0.607818
O O15 0.750000 0.488157 0.750000
O O16 0.637084 0.452249 0.594285
#
# Coordination Sequence:
#
# PCOD8201892 Si02
#       7
#     8   8   8   8   8   8   8
#     4  11  23  40  65  96 132 174 216 269 341 408
#     4  12  24  40  66  97 131 174 221 275 335 403
#     4  10  22  44  68  95 128 173 223 287 340 395
#     4  11  24  41  62  89 132 179 216 269 335 404
#     4  10  23  43  67  93 131 173 221 276 334 404
#     4   9  21  43  66  93 133 180 227 274 337 401
#     4  12  24  41  66 100 135 176 224 279 332 398
#
# _framework density 22.130600000000001
#
# number of rings (size 3 to 8) (size 9 to 14) (size 15 to 20)
#    0.000    1.286    1.429    5.143    2.000    4.571 
#    0.000    9.286    0.000    0.000    0.000    0.000 
#    0.000    0.000    0.000    0.000    0.000    0.000 
#
# Total GULP energy -694277.811365 kJ/mol
# GULP energy per Si atom -12397.818060 kJ/mol
# Density = 2.208023 g / cm^3
# Si number density = 22.130600 Si / 1000 Ang^3
#
#
#
# Elastic Constant Matrix: (Units=GPa)
#
#
# Indices 1 2 3 4 5 6 
#
# 1 121.3702 52.4446 38.2956 0.0000 0.0000 0.0000
# 2 52.4446 98.5698 62.3592 0.0000 0.0000 0.0000
# 3 38.2956 62.3592 135.3768 0.0000 0.0000 0.0000
# 4 0.0000 0.0000 0.0000 33.3643 0.0000 0.0000
# 5 0.0000 0.0000 0.0000 0.0000 50.2233 0.0000
# 6 0.0000 0.0000 0.0000 0.0000 0.0000 -1.2073
#
#
#
# Elastic Compliance Matrix: (Units=1/GPa)
#
#
# Indices 1 2 3 4 5 6 
#
# 1 0.010730 -0.005347 -0.000572 0.000000 0.000000 0.000000
# 2 -0.005347 0.016982 -0.006310 0.000000 0.000000 0.000000
# 3 -0.000572 -0.006310 0.010455 0.000000 0.000000 0.000000
# 4 0.000000 0.000000 0.000000 0.029972 0.000000 0.000000
# 5 0.000000 0.000000 0.000000 0.000000 0.019911 0.000000
# 6 0.000000 0.000000 0.000000 0.000000 0.000000 -0.828286
#
#
# Mechanical properties :
#
#
# Convention : Reuss Voigt Hill
#
# Bulk Modulus (GPa) = 72.94524 73.50173 73.22348
# Shear Modulus (GPa) = -7.03030 29.95723 11.46347
#
# Velocity S-wave (km/s) = -1.78427 3.68320 2.27841
# Velocity P-wave (km/s) = 5.36544 7.16748 6.33091
#
# Compressibility (1/GPa) = 0.01370891
#
# Stress axis : x y z
#
# Youngs Moduli (GPa) = 93.19370 58.88629 95.64575
#
# Poissons Ratio (x) = 0.31487 0.05475
# Poissons Ratio (y) = 0.49831 0.60351
# Poissons Ratio (z) = 0.05334 0.37156
#
# Static dielectric constant tensor:
#      x y z
#    x 4.237990 0.000000 0.000000 
#    y 0.000000 3.699510 0.000000 
#    z 0.000000 0.000000 4.399160 
# 
# 
# High freq. dielectric constant tensor:
#      x y z
#    x 1.877200 0.000000 0.000000 
#    y 0.000000 1.852620 0.000000 
#    z 0.000000 0.000000 1.888410 
# 
# From -- ./inp_files/25629.got.cif
#   From: 2010.06.25/outbox.cif.g09.slc.cpg/sg48_13_cif.got.tgz:25629.got - 2010.06.26 18:06:46.
