data_PCOD8201554
_publ_section_title
;
Structure prediction by ZEFSAII (Michael W. Deem and Ramdas Pophale) SiO2 
 PCOD8201554
Probable space group: P N N N
;
_chemical_formula_sum "Si O2"
_cell_formula_units_Z 48
_cell_length_a 5.731759
_cell_length_b 14.442318
_cell_length_c 26.856275
_cell_angle_alpha 90.000000
_cell_angle_beta 90.000000
_cell_angle_gamma 90.000000
_cell_volume 2223.159388
_symmetry_space_group_name_H-M "P N N N"
_symmetry_group_IT_number 48
_space_group.IT_coordinate_system_code '2'
_symmetry_cell_setting 'orthorhombic'
loop_
_space_group_symop_operation_xyz
x,y,z
1/2-x,1/2-y,z
x,1/2-y,1/2-z
1/2-x,y,1/2-z
-x,-y,-z
1/2+x,1/2+y,-z
-x,1/2+y,1/2+z
1/2+x,-y,1/2+z
loop_
_atom_site_type_symbol
_atom_site_label
_atom_site_fract_x
_atom_site_fract_y
_atom_site_fract_z
Si Si1 0.696242 0.353436 0.374126
Si Si2 0.094471 0.577081 0.208065
Si Si3 0.426871 0.496965 0.128659
Si Si4 0.494273 0.883783 0.772007
Si Si5 0.807622 0.646505 0.122966
Si Si6 0.039904 0.002076 0.441840
O O1 0.750000 0.250000 0.392497
O O2 0.505537 0.353142 0.330195
O O3 0.611243 0.412722 0.421240
O O4 0.928502 0.406498 0.354854
O O5 0.250000 0.630758 0.250000
O O6 0.230977 0.511658 0.169459
O O7 0.957643 0.494835 0.236453
O O8 0.936018 0.649053 0.177336
O O9 0.570100 0.591538 0.128449
O O10 0.309538 0.482139 0.073968
O O11 0.250000 0.839240 0.750000
O O12 0.750000 0.850489 0.750000
O O13 0.750000 0.750000 0.105930
O O14 0.964236 0.597025 0.081224
O O15 0.000000 0.000000 0.500000
#
# Coordination Sequence:
#
# PCOD8201554 Si02
#       6
#     8   8   8   8   8   8
#     4  11  23  41  63 101 137 175 230 288 343 424
#     4  10  20  35  63  88 125 176 219 263 341 405
#     4  10  20  43  64  85 133 177 211 285 343 409
#     4  11  22  39  67  94 134 188 228 276 347 423
#     4  10  22  40  64  93 126 168 226 282 347 411
#     4  10  23  45  65  95 128 176 228 285 366 423
#
# _framework density 21.590893999999999
#
# number of rings (size 3 to 8) (size 9 to 14) (size 15 to 20)
#    0.000    1.667    5.000    2.000    0.000    6.333 
#    6.000    5.833    0.000    0.000    0.000    0.000 
#    0.000    0.000    0.000    0.000    0.000    0.000 
#
# Total GULP energy -594721.469534 kJ/mol
# GULP energy per Si atom -12390.030615 kJ/mol
# Density = 2.154175 g / cm^3
# Si number density = 21.590894 Si / 1000 Ang^3
#
#
#
# Elastic Constant Matrix: (Units=GPa)
#
#
# Indices 1 2 3 4 5 6 
#
# 1 125.7341 31.6209 46.1608 0.0000 0.0000 0.0000
# 2 31.6209 145.6826 20.7972 0.0000 0.0000 0.0000
# 3 46.1608 20.7972 131.4434 0.0000 0.0000 0.0000
# 4 0.0000 0.0000 0.0000 14.9215 0.0000 0.0000
# 5 0.0000 0.0000 0.0000 0.0000 33.8732 0.0000
# 6 0.0000 0.0000 0.0000 0.0000 0.0000 -7.3408
#
#
#
# Elastic Compliance Matrix: (Units=1/GPa)
#
#
# Indices 1 2 3 4 5 6 
#
# 1 0.009490 -0.001621 -0.003076 0.000000 0.000000 0.000000
# 2 -0.001621 0.007300 -0.000586 0.000000 0.000000 0.000000
# 3 -0.003076 -0.000586 0.008781 0.000000 0.000000 0.000000
# 4 0.000000 0.000000 0.000000 0.067017 0.000000 0.000000
# 5 0.000000 0.000000 0.000000 0.000000 0.029522 0.000000
# 6 0.000000 0.000000 0.000000 0.000000 0.000000 -0.136225
#
#
# Mechanical properties :
#
#
# Convention : Reuss Voigt Hill
#
# Bulk Modulus (GPa) = 66.64436 66.66865 66.65650
# Shear Modulus (GPa) = 3442.16616 28.57619 1735.37117
#
# Velocity S-wave (km/s) = 39.97160 3.64198 28.38127
# Velocity P-wave (km/s) = 46.48912 6.97356 33.24056
#
# Compressibility (1/GPa) = 0.01500502
#
# Stress axis : x y z
#
# Youngs Moduli (GPa) = 105.37032 136.99292 113.88342
#
# Poissons Ratio (x) = 0.22203 0.35035
# Poissons Ratio (y) = 0.17078 0.06671
# Poissons Ratio (z) = 0.32416 0.08025
#
# Static dielectric constant tensor:
#      x y z
#    x 4.294910 0.000000 0.000000 
#    y 0.000000 3.555800 0.000000 
#    z 0.000000 0.000000 3.735150 
# 
# 
# High freq. dielectric constant tensor:
#      x y z
#    x 1.861840 0.000000 0.000000 
#    y 0.000000 1.824120 0.000000 
#    z 0.000000 0.000000 1.829440 
# 
# From -- ./inp_files/24421.got.cif
#   From: 2010.06.25/outbox.cif.g09.slc.cpg/sg48_13_cif.got.tgz:24421.got - 2010.06.26 18:06:46.
