data_PCOD8201174
_publ_section_title
;
Structure prediction by ZEFSAII (Michael W. Deem and Ramdas Pophale) SiO2 
 PCOD8201174
Probable space group: P M M M
;
_chemical_formula_sum "Si O2"
_cell_formula_units_Z 36
_cell_length_a 9.186266
_cell_length_b 10.426298
_cell_length_c 22.024819
_cell_angle_alpha 90.000000
_cell_angle_beta 90.000000
_cell_angle_gamma 90.000000
_cell_volume 2109.509563
_symmetry_space_group_name_H-M "P M M M"
_symmetry_group_IT_number 47
_symmetry_cell_setting 'orthorhombic'
loop_
_space_group_symop_operation_xyz
x,y,z
-x,-y,z
x,-y,-z
-x,y,-z
-x,-y,-z
x,y,-z
-x,y,z
x,-y,z
loop_
_atom_site_type_symbol
_atom_site_label
_atom_site_fract_x
_atom_site_fract_y
_atom_site_fract_z
Si Si1 0.168993 0.149083 0.235588
Si Si2 0.826214 0.500000 0.569571
Si Si3 0.164637 0.153072 0.000000
Si Si4 0.664148 0.152622 0.116826
Si Si5 0.826169 0.000000 0.568300
Si Si6 0.827384 0.247627 0.636213
O O1 0.261012 0.200301 0.178698
O O2 0.216412 0.235546 0.293065
O O3 0.000000 0.167336 0.219656
O O4 0.200938 0.000000 0.250522
O O5 0.769423 0.500000 0.500000
O O6 0.764479 0.376458 0.605581
O O7 0.000000 0.500000 0.569776
O O8 0.246829 0.206789 0.940613
O O9 0.000000 0.205499 0.000000
O O10 0.165269 0.000000 0.000000
O O11 0.500000 0.205893 0.113982
O O12 0.665363 0.000000 0.114983
O O13 0.762223 0.874005 0.600631
O O14 0.769020 0.000000 0.500000
O O15 0.000000 0.000000 0.571593
O O16 0.000000 0.246457 0.630133
#
# Coordination Sequence:
#
# PCOD8201174 Si02
#       6
#     8   4   4   8   4   8
#     4   9  15  24  37  53  76 107 142 176 212 255
#     4   9  16  24  34  52  81 112 137 170 221 269
#     4   9  15  23  35  53  79 114 149 174 205 252
#     4   9  16  24  35  53  79 109 142 179 216 250
#     4   9  14  20  32  50  73 102 135 170 209 257
#     4   9  15  23  34  51  76 107 140 173 212 260
#
# _framework density 17.065577999999999
#
# number of rings (size 3 to 8) (size 9 to 14) (size 15 to 20)
#    0.000    3.000    1.111    1.667    0.000    6.667 
#    0.000    0.000    0.000    0.000    0.000    0.778 
#    0.000    6.222    0.000   10.444    0.000    5.111 
#
# Total GULP energy -446260.785717 kJ/mol
# GULP energy per Si atom -12396.132937 kJ/mol
# Density = 1.702674 g / cm^3
# Si number density = 17.065578 Si / 1000 Ang^3
#
#
#
# Elastic Constant Matrix: (Units=GPa)
#
#
# Indices 1 2 3 4 5 6 
#
# 1 69.5603 19.2610 60.5311 0.0000 0.0000 0.0000
# 2 19.2610 82.9280 61.2759 0.0000 0.0000 0.0000
# 3 60.5311 61.2759 181.2119 0.0000 0.0000 0.0000
# 4 0.0000 0.0000 0.0000 17.7444 0.0000 0.0000
# 5 0.0000 0.0000 0.0000 0.0000 4.7157 0.0000
# 6 0.0000 0.0000 0.0000 0.0000 0.0000 3.4551
#
#
#
# Elastic Compliance Matrix: (Units=1/GPa)
#
#
# Indices 1 2 3 4 5 6 
#
# 1 0.020277 0.000394 -0.006906 0.000000 0.000000 0.000000
# 2 0.000394 0.016083 -0.005570 0.000000 0.000000 0.000000
# 3 -0.006906 -0.005570 0.009709 0.000000 0.000000 0.000000
# 4 0.000000 0.000000 0.000000 0.056356 0.000000 0.000000
# 5 0.000000 0.000000 0.000000 0.000000 0.212060 0.000000
# 6 0.000000 0.000000 0.000000 0.000000 0.000000 0.289424
#
#
# Mechanical properties :
#
#
# Convention : Reuss Voigt Hill
#
# Bulk Modulus (GPa) = 45.65509 68.42625 57.04067
# Shear Modulus (GPa) = 7.86938 18.02519 12.94728
#
# Velocity S-wave (km/s) = 2.14971 3.25350 2.75740
# Velocity P-wave (km/s) = 5.74217 7.36863 6.60565
#
# Compressibility (1/GPa) = 0.02190336
#
# Stress axis : x y z
#
# Youngs Moduli (GPa) = 49.31740 62.17827 103.00028
#
# Poissons Ratio (x) = -0.02447 0.71134
# Poissons Ratio (y) = -0.01941 0.57369
# Poissons Ratio (z) = 0.34060 0.34632
#
# Static dielectric constant tensor:
#      x y z
#    x 2.822020 0.000000 0.000000 
#    y 0.000000 2.897520 0.000000 
#    z 0.000000 0.000000 3.409360 
# 
# 
# High freq. dielectric constant tensor:
#      x y z
#    x 1.612260 0.000000 0.000000 
#    y 0.000000 1.603420 0.000000 
#    z 0.000000 0.000000 1.679690 
# 
# From -- ./inp_files/29301.got.cif
#   From: 2010.03.12/outbox.cif.g09.slc.cpg/sg47_15_cif.got.tgz:29301.got - 2010.04.14 03:12:58.
