data_PCOD8201324
_publ_section_title
;
Structure prediction by ZEFSAII (Michael W. Deem and Ramdas Pophale) SiO2 
 PCOD8201324
Probable space group: P N N N
;
_chemical_formula_sum "Si O2"
_cell_formula_units_Z 36
_cell_length_a 11.891360
_cell_length_b 16.915833
_cell_length_c 8.240208
_cell_angle_alpha 90.000000
_cell_angle_beta 90.000000
_cell_angle_gamma 90.000000
_cell_volume 1657.536461
_symmetry_space_group_name_H-M "P N N N"
_symmetry_group_IT_number 48
_space_group.IT_coordinate_system_code '2'
_symmetry_cell_setting 'orthorhombic'
loop_
_space_group_symop_operation_xyz
x,y,z
1/2-x,1/2-y,z
x,1/2-y,1/2-z
1/2-x,y,1/2-z
-x,-y,-z
1/2+x,1/2+y,-z
-x,1/2+y,1/2+z
1/2+x,-y,1/2+z
loop_
_atom_site_type_symbol
_atom_site_label
_atom_site_fract_x
_atom_site_fract_y
_atom_site_fract_z
Si Si1 0.530164 0.532334 0.247308
Si Si2 0.045228 0.380010 0.436939
Si Si3 0.199267 0.670690 0.572450
Si Si4 0.250000 0.394015 0.250000
Si Si5 0.665502 0.471608 0.524525
O O1 0.468990 0.465483 0.143495
O O2 0.636077 0.492733 0.338007
O O3 0.442914 0.565012 0.382852
O O4 0.569304 0.603916 0.128753
O O5 0.936148 0.324243 0.419221
O O6 0.151373 0.341522 0.337472
O O7 0.250000 0.750000 0.489730
O O8 0.250000 0.663820 0.750000
O O9 0.235175 0.593517 0.469321
O O10 0.294674 0.447775 0.395850
#
# Coordination Sequence:
#
# PCOD8201324 Si02
#       5
#     8   8   8   4   8
#     4   9  18  31  57  80 120 145 183 245 298 327
#     4  10  19  35  51  85 113 149 191 236 286 345
#     4  11  22  35  56  82 120 157 191 227 279 352
#     4  10  22  32  59  87 120 144 190 244 298 326
#     4  10  18  33  52  89 116 152 185 239 289 346
#
# _framework density 21.718978
#
# number of rings (size 3 to 8) (size 9 to 14) (size 15 to 20)
#    0.000    2.000    2.222    4.000    0.000    0.000 
#    0.000    5.000    0.000    2.667    0.000    0.000 
#   13.333    0.000    0.000    0.000    0.000    0.000 
#
# Total GULP energy -446170.442703 kJ/mol
# GULP energy per Si atom -12393.623408 kJ/mol
# Density = 2.166954 g / cm^3
# Si number density = 21.718978 Si / 1000 Ang^3
#
#
#
# Elastic Constant Matrix: (Units=GPa)
#
#
# Indices 1 2 3 4 5 6 
#
# 1 164.4230 40.1189 45.6418 0.0000 0.0000 0.0000
# 2 40.1189 43.3161 11.9019 0.0000 0.0000 0.0000
# 3 45.6418 11.9019 100.8973 0.0000 0.0000 0.0000
# 4 0.0000 0.0000 0.0000 5.3356 0.0000 0.0000
# 5 0.0000 0.0000 0.0000 0.0000 25.3586 0.0000
# 6 0.0000 0.0000 0.0000 0.0000 0.0000 12.5283
#
#
#
# Elastic Compliance Matrix: (Units=1/GPa)
#
#
# Indices 1 2 3 4 5 6 
#
# 1 0.008696 -0.007207 -0.003084 0.000000 0.000000 0.000000
# 2 -0.007207 0.029832 -0.000259 0.000000 0.000000 0.000000
# 3 -0.003084 -0.000259 0.011337 0.000000 0.000000 0.000000
# 4 0.000000 0.000000 0.000000 0.187421 0.000000 0.000000
# 5 0.000000 0.000000 0.000000 0.000000 0.039434 0.000000
# 6 0.000000 0.000000 0.000000 0.000000 0.000000 0.079820
#
#
# Mechanical properties :
#
#
# Convention : Reuss Voigt Hill
#
# Bulk Modulus (GPa) = 34.76338 55.99574 45.37956
# Shear Modulus (GPa) = 12.91228 22.70941 17.81084
#
# Velocity S-wave (km/s) = 2.44092 3.23708 2.86677
# Velocity P-wave (km/s) = 4.89743 6.30948 5.64776
#
# Compressibility (1/GPa) = 0.02876591
#
# Stress axis : x y z
#
# Youngs Moduli (GPa) = 114.98972 33.52058 88.21021
#
# Poissons Ratio (x) = 0.24159 0.27202
# Poissons Ratio (y) = 0.82876 0.02283
# Poissons Ratio (z) = 0.35460 0.00867
#
# Static dielectric constant tensor:
#      x y z
#    x 4.361940 0.000000 0.000000 
#    y 0.000000 3.452050 0.000000 
#    z 0.000000 0.000000 4.168600 
# 
# 
# High freq. dielectric constant tensor:
#      x y z
#    x 1.864820 0.000000 0.000000 
#    y 0.000000 1.779300 0.000000 
#    z 0.000000 0.000000 1.863080 
# 
# From -- ./inp_files/10912.got.cif
#   From: 2010.06.25/outbox.cif.g09.slc.cpg/sg48_6_cif.got.tgz:10912.got - 2010.06.26 18:06:46.
