data_PCOD8201631
_publ_section_title
;
Structure prediction by ZEFSAII (Michael W. Deem and Ramdas Pophale) SiO2 
 PCOD8201631
Probable space group: P N N N
;
_chemical_formula_sum "Si O2"
_cell_formula_units_Z 52
_cell_length_a 17.538894
_cell_length_b 17.742799
_cell_length_c 8.634864
_cell_angle_alpha 90.000000
_cell_angle_beta 90.000000
_cell_angle_gamma 90.000000
_cell_volume 2687.075306
_symmetry_space_group_name_H-M "P N N N"
_symmetry_group_IT_number 48
_space_group.IT_coordinate_system_code '2'
_symmetry_cell_setting 'orthorhombic'
loop_
_space_group_symop_operation_xyz
x,y,z
1/2-x,1/2-y,z
x,1/2-y,1/2-z
1/2-x,y,1/2-z
-x,-y,-z
1/2+x,1/2+y,-z
-x,1/2+y,1/2+z
1/2+x,-y,1/2+z
loop_
_atom_site_type_symbol
_atom_site_label
_atom_site_fract_x
_atom_site_fract_y
_atom_site_fract_z
Si Si1 0.530117 0.566158 0.334705
Si Si2 0.171384 0.021649 0.840034
Si Si3 0.505807 0.309861 0.884456
Si Si4 0.014816 0.400072 0.164742
Si Si5 0.250000 0.250000 0.250000
Si Si6 0.868738 0.649737 0.578496
Si Si7 0.750000 0.250000 0.250000
Si Si8 0.877761 0.356237 0.370997
O O1 0.617087 0.545652 0.300447
O O2 0.494999 0.607105 0.187062
O O3 0.481764 0.490291 0.346951
O O4 0.525429 0.622607 0.484143
O O5 0.250000 0.017350 0.750000
O O6 0.149063 0.940625 0.913881
O O7 0.167313 0.080878 0.981056
O O8 0.515857 0.250000 0.750000
O O9 0.426164 0.298678 0.976636
O O10 0.578562 0.311224 0.995068
O O11 0.085530 0.377583 0.270631
O O12 0.935609 0.363526 0.224479
O O13 0.200480 0.299974 0.365462
O O14 0.803820 0.305108 0.347303
#
# Coordination Sequence:
#
# PCOD8201631 Si02
#       8
#     8   8   8   8   2   8   2   8
#     4   9  19  35  62  92 113 148 211 252 291 360
#     4  10  20  39  62  88 122 166 200 249 307 373
#     4  10  22  38  63  86 118 159 205 255 303 357
#     4   9  19  38  65  87 115 155 206 253 291 359
#     4  12  28  38  58  92 132 160 202 252 312 366
#     4  10  24  39  60  86 121 162 204 252 301 364
#     4  12  24  38  62  96 124 160 190 252 316 390
#     4  10  22  40  63  88 123 160 203 246 313 367
#
# _framework density 19.351894000000001
#
# number of rings (size 3 to 8) (size 9 to 14) (size 15 to 20)
#    0.000    2.154    0.769    0.923    6.462    6.154 
#    0.000    0.385    3.385    0.000    0.000    0.000 
#    0.000    0.000    0.000    0.000    0.000    0.000 
#
# Total GULP energy -644468.301430 kJ/mol
# GULP energy per Si atom -12393.621181 kJ/mol
# Density = 1.930785 g / cm^3
# Si number density = 19.351894 Si / 1000 Ang^3
#
#
#
# Elastic Constant Matrix: (Units=GPa)
#
#
# Indices 1 2 3 4 5 6 
#
# 1 132.1701 65.2354 64.2929 0.0000 0.0000 0.0000
# 2 65.2354 96.6564 51.4624 0.0000 0.0000 0.0000
# 3 64.2929 51.4624 114.9640 0.0000 0.0000 0.0000
# 4 0.0000 0.0000 0.0000 37.3408 0.0000 0.0000
# 5 0.0000 0.0000 0.0000 0.0000 22.1871 0.0000
# 6 0.0000 0.0000 0.0000 0.0000 0.0000 29.9884
#
#
#
# Elastic Compliance Matrix: (Units=1/GPa)
#
#
# Indices 1 2 3 4 5 6 
#
# 1 0.012794 -0.006335 -0.004319 0.000000 0.000000 0.000000
# 2 -0.006335 0.016720 -0.003942 0.000000 0.000000 0.000000
# 3 -0.004319 -0.003942 0.012878 0.000000 0.000000 0.000000
# 4 0.000000 0.000000 0.000000 0.026780 0.000000 0.000000
# 5 0.000000 0.000000 0.000000 0.000000 0.045071 0.000000
# 6 0.000000 0.000000 0.000000 0.000000 0.000000 0.033346
#
#
# Mechanical properties :
#
#
# Convention : Reuss Voigt Hill
#
# Bulk Modulus (GPa) = 75.75479 78.41911 77.08695
# Shear Modulus (GPa) = 27.59650 28.75659 28.17655
#
# Velocity S-wave (km/s) = 3.78039 3.85903 3.81991
# Velocity P-wave (km/s) = 7.63453 7.77604 7.70561
#
# Compressibility (1/GPa) = 0.01320049
#
# Stress axis : x y z
#
# Youngs Moduli (GPa) = 78.16260 59.80708 77.65061
#
# Poissons Ratio (x) = 0.37890 0.33537
# Poissons Ratio (y) = 0.49518 0.30608
# Poissons Ratio (z) = 0.33758 0.23574
#
# Static dielectric constant tensor:
#      x y z
#    x 3.494300 0.000000 0.000000 
#    y 0.000000 3.686280 0.000000 
#    z 0.000000 0.000000 3.774680 
# 
# 
# High freq. dielectric constant tensor:
#      x y z
#    x 1.748540 0.000000 0.000000 
#    y 0.000000 1.763420 0.000000 
#    z 0.000000 0.000000 1.756220 
# 
# From -- ./inp_files/14417.got.cif
#   From: 2010.06.25/outbox.cif.g09.slc.cpg/sg48_8_cif.got.tgz:14417.got - 2010.06.26 18:06:46.
