data_PCOD8202481
_publ_section_title
;
Structure prediction by ZEFSAII (Michael W. Deem and Ramdas Pophale) SiO2 
 PCOD8202481
Probable space group: P C C M
;
_chemical_formula_sum "Si O2"
_cell_formula_units_Z 48
_cell_length_a 22.718600
_cell_length_b 13.316312
_cell_length_c 9.356502
_cell_angle_alpha 90.000000
_cell_angle_beta 90.000000
_cell_angle_gamma 90.000000
_cell_volume 2830.603517
_symmetry_space_group_name_H-M "P C C M"
_symmetry_group_IT_number 49
_symmetry_cell_setting 'orthorhombic'
loop_
_space_group_symop_operation_xyz
x,y,z
-x,-y,z
x,-y,1/2-z
-x,y,1/2-z
-x,-y,-z
x,y,-z
-x,y,1/2+z
x,-y,1/2+z
loop_
_atom_site_type_symbol
_atom_site_label
_atom_site_fract_x
_atom_site_fract_y
_atom_site_fract_z
Si Si1 0.572747 0.124750 0.000000
Si Si2 0.228614 0.803782 0.666466
Si Si3 0.354766 0.117881 0.237519
Si Si4 0.827856 0.402601 0.661232
Si Si5 0.941886 0.720668 0.169176
Si Si6 0.875642 0.897255 0.325429
Si Si7 0.443229 0.887809 0.500000
O O1 0.615942 0.161013 0.877616
O O2 0.506574 0.169614 0.000000
O O3 0.556127 0.008035 0.000000
O O4 0.211699 0.826358 0.500000
O O5 0.296629 0.823343 0.693932
O O6 0.215541 0.688190 0.703953
O O7 0.190708 0.873518 0.772693
O O8 0.339789 0.000000 0.250000
O O9 0.407059 0.147518 0.134209
O O10 0.811650 0.500000 0.750000
O O11 0.817081 0.434748 0.500000
O O12 0.895092 0.368656 0.684958
O O13 0.920091 0.816350 0.259302
O O14 0.000000 0.682108 0.250000
O O15 0.951670 0.746470 0.000000
O O16 0.878638 0.901241 0.500000
O O17 0.895463 0.000000 0.250000
#
# Coordination Sequence:
#
# PCOD8202481 Si02
#       7
#     4   8   8   8   8   8   4
#     4   9  18  26  42  68  99 131 186 203 247 287
#     4  10  20  35  51  72 103 134 171 213 260 308
#     4  10  18  28  46  68 101 139 173 210 248 291
#     4   9  20  37  56  76 101 130 160 208 262 312
#     4  10  21  38  57  80 107 134 169 207 249 300
#     4  11  22  35  53  75 104 141 176 213 253 292
#     4   9  16  30  42  62  97 147 168 213 243 293
#
# _framework density 16.957514
#
# number of rings (size 3 to 8) (size 9 to 14) (size 15 to 20)
#    0.000    2.167    0.833    4.000    1.167    6.000 
#    0.000    3.333    0.000    0.000    0.000    0.000 
#    0.000    4.000    0.000    0.000    0.000    0.000 
#
# Total GULP energy -594689.660419 kJ/mol
# GULP energy per Si atom -12389.367925 kJ/mol
# Density = 1.691892 g / cm^3
# Si number density = 16.957514 Si / 1000 Ang^3
#
#
#
# Elastic Constant Matrix: (Units=GPa)
#
#
# Indices 1 2 3 4 5 6 
#
# 1 89.7908 20.6575 29.0872 0.0000 0.0000 0.0000
# 2 20.6575 63.8381 32.9806 0.0000 0.0000 0.0000
# 3 29.0872 32.9806 128.1239 0.0000 0.0000 0.0000
# 4 0.0000 0.0000 0.0000 25.8293 0.0000 0.0000
# 5 0.0000 0.0000 0.0000 0.0000 36.1511 0.0000
# 6 0.0000 0.0000 0.0000 0.0000 0.0000 12.1310
#
#
#
# Elastic Compliance Matrix: (Units=1/GPa)
#
#
# Indices 1 2 3 4 5 6 
#
# 1 0.012492 -0.002972 -0.002071 0.000000 0.000000 0.000000
# 2 -0.002972 0.018775 -0.004158 0.000000 0.000000 0.000000
# 3 -0.002071 -0.004158 0.009345 0.000000 0.000000 0.000000
# 4 0.000000 0.000000 0.000000 0.038716 0.000000 0.000000
# 5 0.000000 0.000000 0.000000 0.000000 0.027662 0.000000
# 6 0.000000 0.000000 0.000000 0.000000 0.000000 0.082433
#
#
# Mechanical properties :
#
#
# Convention : Reuss Voigt Hill
#
# Bulk Modulus (GPa) = 45.02612 49.68925 47.35768
# Shear Modulus (GPa) = 23.23121 28.09079 25.66100
#
# Velocity S-wave (km/s) = 3.70532 4.07448 3.89427
# Velocity P-wave (km/s) = 6.70193 7.17642 6.94323
#
# Compressibility (1/GPa) = 0.02220933
#
# Stress axis : x y z
#
# Youngs Moduli (GPa) = 80.05349 53.26341 107.00468
#
# Poissons Ratio (x) = 0.15832 0.22158
# Poissons Ratio (y) = 0.23795 0.44493
# Poissons Ratio (z) = 0.16577 0.22147
#
# Static dielectric constant tensor:
#      x y z
#    x 3.246450 0.000000 0.000000 
#    y 0.000000 2.814440 0.000000 
#    z 0.000000 0.000000 3.382780 
# 
# 
# High freq. dielectric constant tensor:
#      x y z
#    x 1.659020 0.000000 0.000000 
#    y 0.000000 1.610210 0.000000 
#    z 0.000000 0.000000 1.674500 
# 
# From -- ./inp_files/4178.got.cif
#   From: 2010.03.12/outbox.cif.g09.slc.cpg/sg49_3_cif.got.tgz:4178.got - 2010.04.14 03:58:27.
