data_PCOD8202715
_publ_section_title
;
Structure prediction by ZEFSAII (Michael W. Deem and Ramdas Pophale) SiO2 
 PCOD8202715
Probable space group: P C C M
;
_chemical_formula_sum "Si O2"
_cell_formula_units_Z 64
_cell_length_a 26.513381
_cell_length_b 18.199719
_cell_length_c 9.168638
_cell_angle_alpha 90.000000
_cell_angle_beta 90.000000
_cell_angle_gamma 90.000000
_cell_volume 4424.198676
_symmetry_space_group_name_H-M "P C C M"
_symmetry_group_IT_number 49
_symmetry_cell_setting 'orthorhombic'
loop_
_space_group_symop_operation_xyz
x,y,z
-x,-y,z
x,-y,1/2-z
-x,y,1/2-z
-x,-y,-z
x,y,-z
-x,y,1/2+z
x,-y,1/2+z
loop_
_atom_site_type_symbol
_atom_site_label
_atom_site_fract_x
_atom_site_fract_y
_atom_site_fract_z
Si Si1 0.892880 0.695794 0.338683
Si Si2 0.948928 0.163294 0.827490
Si Si3 0.259502 0.666905 0.667983
Si Si4 0.148618 0.924214 0.827975
Si Si5 0.454385 0.422643 0.331027
Si Si6 0.790840 0.213221 0.838615
Si Si7 0.657639 0.577475 0.330442
Si Si8 0.841944 0.576223 0.832339
O O1 0.906524 0.665628 0.500000
O O2 0.935616 0.752493 0.282453
O O3 0.841575 0.740575 0.348819
O O4 0.886878 0.627423 0.229343
O O5 0.904912 0.108395 0.774072
O O6 0.000000 0.138278 0.750000
O O7 0.955632 0.158038 0.000000
O O8 0.275455 0.671858 0.500000
O O9 0.247271 0.749026 0.724722
O O10 0.305481 0.636820 0.761912
O O11 0.211974 0.613929 0.690988
O O12 0.194154 0.868587 0.785977
O O13 0.160388 0.000000 0.750000
O O14 0.147117 0.936359 0.000000
O O15 0.451668 0.500000 0.250000
O O16 0.500000 0.377228 0.250000
O O17 0.468368 0.432330 0.500000
O O18 0.398692 0.387983 0.313341
O O19 0.765863 0.211041 0.000000
O O20 0.664013 0.500000 0.250000
O O21 0.670892 0.564619 0.500000
O O22 0.841223 0.500000 0.750000
O O23 0.853686 0.561407 0.000000
#
# Coordination Sequence:
#
# PCOD8202715 Si02
#       8
#     8   8   8   8   8   8   8   8
#     4   8  15  29  45  58  75 100 128 156 187 227
#     4   9  18  31  46  64  84 106 130 155 188 227
#     4  10  19  28  40  59  80 103 132 164 200 241
#     4   9  18  31  46  65  87 110 134 159 188 222
#     4   9  16  25  37  51  68  95 132 172 212 250
#     4   8  15  29  45  58  77 105 132 158 190 229
#     4  10  19  28  38  54  77 105 137 174 214 250
#     4  10  19  28  40  59  79  99 125 157 195 236
#
# _framework density 14.465897
#
# number of rings (size 3 to 8) (size 9 to 14) (size 15 to 20)
#    0.000    2.875    0.000    3.750    0.000    5.750 
#    0.000    3.750    0.000    0.375    0.000    2.625 
#    0.000    0.000    0.000    0.000    0.000    0.625 
#
# Total GULP energy -793173.886927 kJ/mol
# GULP energy per Si atom -12393.341983 kJ/mol
# Density = 1.443297 g / cm^3
# Si number density = 14.465897 Si / 1000 Ang^3
#
#
#
# Elastic Constant Matrix: (Units=GPa)
#
#
# Indices 1 2 3 4 5 6 
#
# 1 56.6858 37.2882 35.6777 0.0000 0.0000 0.0000
# 2 37.2882 88.0395 53.3295 0.0000 0.0000 0.0000
# 3 35.6777 53.3295 88.3831 0.0000 0.0000 0.0000
# 4 0.0000 0.0000 0.0000 23.1288 0.0000 0.0000
# 5 0.0000 0.0000 0.0000 0.0000 17.2805 0.0000
# 6 0.0000 0.0000 0.0000 0.0000 0.0000 7.6324
#
#
#
# Elastic Compliance Matrix: (Units=1/GPa)
#
#
# Indices 1 2 3 4 5 6 
#
# 1 0.026429 -0.007457 -0.006169 0.000000 0.000000 0.000000
# 2 -0.007457 0.020005 -0.009061 0.000000 0.000000 0.000000
# 3 -0.006169 -0.009061 0.019272 0.000000 0.000000 0.000000
# 4 0.000000 0.000000 0.000000 0.043236 0.000000 0.000000
# 5 0.000000 0.000000 0.000000 0.000000 0.057869 0.000000
# 6 0.000000 0.000000 0.000000 0.000000 0.000000 0.131020
#
#
# Mechanical properties :
#
#
# Convention : Reuss Voigt Hill
#
# Bulk Modulus (GPa) = 49.18244 53.96659 51.57451
# Shear Modulus (GPa) = 14.28641 16.72922 15.50781
#
# Velocity S-wave (km/s) = 3.14601 3.40436 3.27773
# Velocity P-wave (km/s) = 6.87526 7.26911 7.07493
#
# Compressibility (1/GPa) = 0.02033246
#
# Stress axis : x y z
#
# Youngs Moduli (GPa) = 37.83697 49.98649 51.88847
#
# Poissons Ratio (x) = 0.37274 0.32012
# Poissons Ratio (y) = 0.28214 0.47016
# Poissons Ratio (z) = 0.23343 0.45293
#
# Static dielectric constant tensor:
#      x y z
#    x 3.072430 0.000000 0.000000 
#    y 0.000000 2.714090 0.000000 
#    z 0.000000 0.000000 2.946060 
# 
# 
# High freq. dielectric constant tensor:
#      x y z
#    x 1.529900 0.000000 0.000000 
#    y 0.000000 1.520870 0.000000 
#    z 0.000000 0.000000 1.565090 
# 
# From -- ./inp_files/6806.got.cif
#   From: 2010.03.12/outbox.cif.g09.slc.cpg/sg49_4_cif.got.tgz:6806.got - 2010.04.14 03:58:27.
