data_PCOD8202369
_publ_section_title
;
Structure prediction by ZEFSAII (Michael W. Deem and Ramdas Pophale) SiO2 
 PCOD8202369
Probable space group: P C C M
;
_chemical_formula_sum "Si O2"
_cell_formula_units_Z 48
_cell_length_a 9.659042
_cell_length_b 30.414027
_cell_length_c 8.576782
_cell_angle_alpha 90.000000
_cell_angle_beta 90.000000
_cell_angle_gamma 90.000000
_cell_volume 2519.604372
_symmetry_space_group_name_H-M "P C C M"
_symmetry_group_IT_number 49
_symmetry_cell_setting 'orthorhombic'
loop_
_space_group_symop_operation_xyz
x,y,z
-x,-y,z
x,-y,1/2-z
-x,y,1/2-z
-x,-y,-z
x,y,-z
-x,y,1/2+z
x,-y,1/2+z
loop_
_atom_site_type_symbol
_atom_site_label
_atom_site_fract_x
_atom_site_fract_y
_atom_site_fract_z
Si Si1 0.352716 0.204493 0.684907
Si Si2 0.845320 0.955898 0.684558
Si Si3 0.846724 0.380137 0.185011
Si Si4 0.847312 0.866814 0.183989
Si Si5 0.355241 0.695775 0.182775
Si Si6 0.354154 0.548237 0.315086
O O1 0.500000 0.188792 0.750000
O O2 0.347628 0.198523 0.500000
O O3 0.236912 0.175643 0.766189
O O4 0.323364 0.254612 0.738137
O O5 0.844846 0.956924 0.500000
O O6 0.774320 0.910981 0.746070
O O7 0.000000 0.955411 0.750000
O O8 0.769511 0.000000 0.750000
O O9 0.767948 0.335850 0.239174
O O10 0.771438 0.421715 0.259720
O O11 0.000000 0.377144 0.250000
O O12 0.848620 0.385371 0.000000
O O13 0.000000 0.860765 0.250000
O O14 0.853696 0.871196 0.000000
O O15 0.500000 0.678358 0.250000
O O16 0.371250 0.694287 0.000000
O O17 0.325035 0.500000 0.250000
O O18 0.500000 0.566715 0.250000
O O19 0.361527 0.546775 0.500000
#
# Coordination Sequence:
#
# PCOD8202369 Si02
#       6
#     8   8   8   8   8   8
#     4  10  20  37  57  81 109 143 182 224 271 325
#     4  10  17  28  46  71 102 137 175 220 267 320
#     4  11  23  39  57  84 117 151 186 228 278 330
#     4  11  21  34  52  78 108 142 180 225 274 324
#     4   9  20  37  59  82 108 141 183 226 270 323
#     4  11  22  39  62  88 115 149 189 232 274 324
#
# _framework density 19.050609999999999
#
# number of rings (size 3 to 8) (size 9 to 14) (size 15 to 20)
#    0.000    1.667    0.000    8.000    0.000    4.333 
#    0.000    3.333    0.000    0.500    0.000    3.500 
#    0.000    0.000    0.000    0.000    0.000    0.000 
#
# Total GULP energy -595237.934693 kJ/mol
# GULP energy per Si atom -12400.790306 kJ/mol
# Density = 1.900725 g / cm^3
# Si number density = 19.050610 Si / 1000 Ang^3
#
#
#
# Elastic Constant Matrix: (Units=GPa)
#
#
# Indices 1 2 3 4 5 6 
#
# 1 124.0064 81.2111 51.0548 0.0000 0.0000 0.0000
# 2 81.2111 129.2800 58.0458 0.0000 0.0000 0.0000
# 3 51.0548 58.0458 146.8833 0.0000 0.0000 0.0000
# 4 0.0000 0.0000 0.0000 30.8144 0.0000 0.0000
# 5 0.0000 0.0000 0.0000 0.0000 32.1461 0.0000
# 6 0.0000 0.0000 0.0000 0.0000 0.0000 15.9802
#
#
#
# Elastic Compliance Matrix: (Units=1/GPa)
#
#
# Indices 1 2 3 4 5 6 
#
# 1 0.014039 -0.008058 -0.001696 0.000000 0.000000 0.000000
# 2 -0.008058 0.014029 -0.002743 0.000000 0.000000 0.000000
# 3 -0.001696 -0.002743 0.008481 0.000000 0.000000 0.000000
# 4 0.000000 0.000000 0.000000 0.032452 0.000000 0.000000
# 5 0.000000 0.000000 0.000000 0.000000 0.031108 0.000000
# 6 0.000000 0.000000 0.000000 0.000000 0.000000 0.062577
#
#
# Mechanical properties :
#
#
# Convention : Reuss Voigt Hill
#
# Bulk Modulus (GPa) = 86.53230 86.75481 86.64355
# Shear Modulus (GPa) = 26.10530 29.77868 27.94199
#
# Velocity S-wave (km/s) = 3.70579 3.95794 3.83394
# Velocity P-wave (km/s) = 7.98946 8.15629 8.07330
#
# Compressibility (1/GPa) = 0.01155638
#
# Stress axis : x y z
#
# Youngs Moduli (GPa) = 71.22901 71.28322 117.90415
#
# Poissons Ratio (x) = 0.57439 0.19991
# Poissons Ratio (y) = 0.57395 0.32341
# Poissons Ratio (z) = 0.12077 0.19553
#
# Static dielectric constant tensor:
#      x y z
#    x 3.251940 0.000000 0.000000 
#    y 0.000000 4.217690 0.000000 
#    z 0.000000 0.000000 3.598920 
# 
# 
# High freq. dielectric constant tensor:
#      x y z
#    x 1.713210 0.000000 0.000000 
#    y 0.000000 1.760710 0.000000 
#    z 0.000000 0.000000 1.758560 
# 
# From -- ./inp_files/2112.got.cif
#   From: 2010.03.12/outbox.cif.g09.slc.cpg/sg49_2_cif.got.tgz:2112.got - 2010.04.14 03:58:27.
