data_PCOD8202438
_publ_section_title
;
Structure prediction by ZEFSAII (Michael W. Deem and Ramdas Pophale) SiO2 
 PCOD8202438
Probable space group: P C C M
;
_chemical_formula_sum "Si O2"
_cell_formula_units_Z 64
_cell_length_a 14.538808
_cell_length_b 31.516986
_cell_length_c 8.943096
_cell_angle_alpha 90.000000
_cell_angle_beta 90.000000
_cell_angle_gamma 90.000000
_cell_volume 4097.900157
_symmetry_space_group_name_H-M "P C C M"
_symmetry_group_IT_number 49
_symmetry_cell_setting 'orthorhombic'
loop_
_space_group_symop_operation_xyz
x,y,z
-x,-y,z
x,-y,1/2-z
-x,y,1/2-z
-x,-y,-z
x,y,-z
-x,y,1/2+z
x,-y,1/2+z
loop_
_atom_site_type_symbol
_atom_site_label
_atom_site_fract_x
_atom_site_fract_y
_atom_site_fract_z
Si Si1 0.600381 0.214532 0.321813
Si Si2 0.717132 0.543435 0.176782
Si Si3 0.908193 0.322529 0.675738
Si Si4 0.599267 0.039892 0.825632
Si Si5 0.287723 0.703901 0.677299
Si Si6 0.598933 0.868006 0.324667
Si Si7 0.401188 0.376543 0.177458
Si Si8 0.091507 0.579810 0.324399
O O1 0.500000 0.220734 0.250000
O O2 0.591796 0.212477 0.500000
O O3 0.664477 0.253019 0.267294
O O4 0.649005 0.171387 0.258247
O O5 0.682404 0.500000 0.250000
O O6 0.649530 0.580708 0.229633
O O7 0.820208 0.553882 0.233135
O O8 0.714902 0.538797 0.000000
O O9 0.919455 0.317819 0.500000
O O10 0.817919 0.297479 0.734515
O O11 0.895326 0.371384 0.723515
O O12 0.000000 0.303071 0.750000
O O13 0.500000 0.041819 0.750000
O O14 0.648585 0.085957 0.799990
O O15 0.654267 0.000000 0.750000
O O16 0.588062 0.030757 0.000000
O O17 0.287349 0.701103 0.500000
O O18 0.343774 0.663565 0.739392
O O19 0.500000 0.870900 0.250000
O O20 0.589115 0.857981 0.500000
O O21 0.500000 0.375214 0.250000
O O22 0.410643 0.374606 0.000000
O O23 0.080782 0.575756 0.500000
O O24 0.000000 0.560376 0.250000
#
# Coordination Sequence:
#
# PCOD8202438 Si02
#       8
#     8   8   8   8   8   8   8   8
#     4  10  18  27  41  60  81 110 143 176 213 250
#     4  10  21  36  52  68  90 117 141 167 205 248
#     4   9  16  30  50  70  90 111 135 164 200 245
#     4   9  15  21  31  46  65  93 131 174 218 255
#     4   9  17  31  50  67  87 113 139 168 208 253
#     4   9  16  25  35  49  73 104 136 175 218 256
#     4  10  20  36  53  68  87 113 142 174 210 245
#     4   9  17  31  51  71  91 115 137 163 200 243
#
# _framework density 15.617754
#
# number of rings (size 3 to 8) (size 9 to 14) (size 15 to 20)
#    0.000    2.625    1.250    2.625    0.000    3.000 
#    0.000    5.000    0.000    0.000    0.000    0.000 
#    0.000    0.000    0.000    0.000    0.000    0.625 
#
# Total GULP energy -793093.014660 kJ/mol
# GULP energy per Si atom -12392.078354 kJ/mol
# Density = 1.558221 g / cm^3
# Si number density = 15.617754 Si / 1000 Ang^3
#
#
#
# Elastic Constant Matrix: (Units=GPa)
#
#
# Indices 1 2 3 4 5 6 
#
# 1 91.3119 55.4218 23.5504 0.0000 0.0000 0.0000
# 2 55.4218 144.7587 39.9977 0.0000 0.0000 0.0000
# 3 23.5504 39.9977 47.2555 0.0000 0.0000 0.0000
# 4 0.0000 0.0000 0.0000 24.9397 0.0000 0.0000
# 5 0.0000 0.0000 0.0000 0.0000 19.5198 0.0000
# 6 0.0000 0.0000 0.0000 0.0000 0.0000 7.6440
#
#
#
# Elastic Compliance Matrix: (Units=1/GPa)
#
#
# Indices 1 2 3 4 5 6 
#
# 1 0.014659 -0.004691 -0.003335 0.000000 0.000000 0.000000
# 2 -0.004691 0.010518 -0.006565 0.000000 0.000000 0.000000
# 3 -0.003335 -0.006565 0.028380 0.000000 0.000000 0.000000
# 4 0.000000 0.000000 0.000000 0.040097 0.000000 0.000000
# 5 0.000000 0.000000 0.000000 0.000000 0.051230 0.000000
# 6 0.000000 0.000000 0.000000 0.000000 0.000000 0.130821
#
#
# Mechanical properties :
#
#
# Convention : Reuss Voigt Hill
#
# Bulk Modulus (GPa) = 41.02468 57.91843 49.47156
# Shear Modulus (GPa) = 15.97390 21.37777 18.67584
#
# Velocity S-wave (km/s) = 3.20160 3.70376 3.46180
# Velocity P-wave (km/s) = 6.32392 7.44688 6.90825
#
# Compressibility (1/GPa) = 0.02437557
#
# Stress axis : x y z
#
# Youngs Moduli (GPa) = 68.21916 95.07720 35.23588
#
# Poissons Ratio (x) = 0.44597 0.11752
# Poissons Ratio (y) = 0.31999 0.23131
# Poissons Ratio (z) = 0.22752 0.62416
#
# Static dielectric constant tensor:
#      x y z
#    x 2.821620 0.000000 0.000000 
#    y 0.000000 3.715190 0.000000 
#    z 0.000000 0.000000 2.896140 
# 
# 
# High freq. dielectric constant tensor:
#      x y z
#    x 1.556910 0.000000 0.000000 
#    y 0.000000 1.603490 0.000000 
#    z 0.000000 0.000000 1.595140 
# 
# From -- ./inp_files/4535.got.cif
#   From: 2010.03.12/outbox.cif.g09.slc.cpg/sg49_3_cif.got.tgz:4535.got - 2010.04.14 03:58:27.
