data_PCOD8202927
_publ_section_title
;
Structure prediction by ZEFSAII (Michael W. Deem and Ramdas Pophale) SiO2 
 PCOD8202927
Probable space group: P C C M
;
_chemical_formula_sum "Si O2"
_cell_formula_units_Z 64
_cell_length_a 31.048303
_cell_length_b 14.256398
_cell_length_c 8.979248
_cell_angle_alpha 90.000000
_cell_angle_beta 90.000000
_cell_angle_gamma 90.000000
_cell_volume 3974.547081
_symmetry_space_group_name_H-M "P C C M"
_symmetry_group_IT_number 49
_symmetry_cell_setting 'orthorhombic'
loop_
_space_group_symop_operation_xyz
x,y,z
-x,-y,z
x,-y,1/2-z
-x,y,1/2-z
-x,-y,-z
x,y,-z
-x,y,1/2+z
x,-y,1/2+z
loop_
_atom_site_type_symbol
_atom_site_label
_atom_site_fract_x
_atom_site_fract_y
_atom_site_fract_z
Si Si1 0.865017 0.900518 0.673038
Si Si2 0.625017 0.223727 0.826595
Si Si3 0.754324 0.595883 0.825022
Si Si4 0.344955 0.595754 0.674701
Si Si5 0.544279 0.903130 0.675113
Si Si6 0.295234 0.099954 0.325126
Si Si7 0.040187 0.100637 0.326333
Si Si8 0.786061 0.223392 0.824467
O O1 0.858226 0.920772 0.500000
O O2 0.912507 0.855063 0.702950
O O3 0.829969 0.826128 0.729702
O O4 0.858095 0.000000 0.750000
O O5 0.625961 0.320175 0.736086
O O6 0.579432 0.176074 0.793611
O O7 0.662668 0.155198 0.769138
O O8 0.631654 0.246422 0.000000
O O9 0.770183 0.500000 0.750000
O O10 0.704663 0.615687 0.782713
O O11 0.783560 0.678748 0.761237
O O12 0.761065 0.587477 0.000000
O O13 0.360996 0.500000 0.750000
O O14 0.351671 0.586217 0.500000
O O15 0.500000 0.868689 0.750000
O O16 0.537541 0.920112 0.500000
O O17 0.559757 0.000000 0.750000
O O18 0.296770 0.083703 0.500000
O O19 0.253405 0.157765 0.275910
O O20 0.293662 0.000000 0.250000
O O21 0.030548 0.091060 0.500000
O O22 0.000000 0.157595 0.250000
O O23 0.041594 0.000000 0.250000
O O24 0.785458 0.243314 0.000000
#
# Coordination Sequence:
#
# PCOD8202927 Si02
#       8
#     8   8   8   8   8   8   8   8
#     4   9  18  29  42  62  89 124 161 195 233 276
#     4  10  20  34  51  73  98 126 159 196 235 276
#     4  10  20  33  50  71  92 120 156 195 235 276
#     4  10  20  33  52  75  98 124 155 194 236 280
#     4  10  20  34  53  75 101 130 161 197 236 278
#     4  10  20  31  45  65  93 126 158 191 226 266
#     4   9  15  24  38  57  81 111 152 196 236 275
#     4  10  19  32  47  64  92 127 157 191 232 274
#
# _framework density 16.102464000000001
#
# number of rings (size 3 to 8) (size 9 to 14) (size 15 to 20)
#    0.000    2.250    1.250    3.000    0.000    4.000 
#    0.000    0.000    0.000    0.375    0.000    2.625 
#    0.000    0.500    0.000    5.750    0.000    1.750 
#
# Total GULP energy -793549.551099 kJ/mol
# GULP energy per Si atom -12399.211736 kJ/mol
# Density = 1.606581 g / cm^3
# Si number density = 16.102464 Si / 1000 Ang^3
#
#
#
# Elastic Constant Matrix: (Units=GPa)
#
#
# Indices 1 2 3 4 5 6 
#
# 1 113.4374 63.0561 47.9332 0.0000 0.0000 0.0000
# 2 63.0561 121.4611 52.8484 0.0000 0.0000 0.0000
# 3 47.9332 52.8484 73.6042 0.0000 0.0000 0.0000
# 4 0.0000 0.0000 0.0000 30.8374 0.0000 0.0000
# 5 0.0000 0.0000 0.0000 0.0000 22.3731 0.0000
# 6 0.0000 0.0000 0.0000 0.0000 0.0000 12.6329
#
#
#
# Elastic Compliance Matrix: (Units=1/GPa)
#
#
# Indices 1 2 3 4 5 6 
#
# 1 0.013812 -0.004737 -0.005594 0.000000 0.000000 0.000000
# 2 -0.004737 0.013598 -0.006679 0.000000 0.000000 0.000000
# 3 -0.005594 -0.006679 0.022025 0.000000 0.000000 0.000000
# 4 0.000000 0.000000 0.000000 0.032428 0.000000 0.000000
# 5 0.000000 0.000000 0.000000 0.000000 0.044697 0.000000
# 6 0.000000 0.000000 0.000000 0.000000 0.000000 0.079159
#
#
# Mechanical properties :
#
#
# Convention : Reuss Voigt Hill
#
# Bulk Modulus (GPa) = 64.86794 70.68644 67.77719
# Shear Modulus (GPa) = 20.41852 22.81300 21.61576
#
# Velocity S-wave (km/s) = 3.56481 3.76804 3.66784
# Velocity P-wave (km/s) = 7.57072 7.93247 7.75370
#
# Compressibility (1/GPa) = 0.01541594
#
# Stress axis : x y z
#
# Youngs Moduli (GPa) = 72.40060 73.53969 45.40355
#
# Poissons Ratio (x) = 0.34832 0.25399
# Poissons Ratio (y) = 0.34293 0.30325
# Poissons Ratio (z) = 0.40501 0.49117
#
# Static dielectric constant tensor:
#      x y z
#    x 3.479420 0.000000 0.000000 
#    y 0.000000 2.868320 0.000000 
#    z 0.000000 0.000000 3.122990 
# 
# 
# High freq. dielectric constant tensor:
#      x y z
#    x 1.614030 0.000000 0.000000 
#    y 0.000000 1.595840 0.000000 
#    z 0.000000 0.000000 1.627950 
# 
# From -- ./inp_files/7044.got.cif
#   From: 2010.03.12/outbox.cif.g09.slc.cpg/sg49_4_cif.got.tgz:7044.got - 2010.04.14 03:58:27.
