data_PCOD8202067
_publ_section_title
;
Structure prediction by ZEFSAII (Michael W. Deem and Ramdas Pophale) SiO2 
 PCOD8202067
Probable space group: P N N N
;
_chemical_formula_sum "Si O2"
_cell_formula_units_Z 64
_cell_length_a 11.179254
_cell_length_b 9.028444
_cell_length_c 28.466314
_cell_angle_alpha 90.000000
_cell_angle_beta 90.000000
_cell_angle_gamma 90.000000
_cell_volume 2873.141187
_symmetry_space_group_name_H-M "P N N N"
_symmetry_group_IT_number 48
_space_group.IT_coordinate_system_code '2'
_symmetry_cell_setting 'orthorhombic'
loop_
_space_group_symop_operation_xyz
x,y,z
1/2-x,1/2-y,z
x,1/2-y,1/2-z
1/2-x,y,1/2-z
-x,-y,-z
1/2+x,1/2+y,-z
-x,1/2+y,1/2+z
1/2+x,-y,1/2+z
loop_
_atom_site_type_symbol
_atom_site_label
_atom_site_fract_x
_atom_site_fract_y
_atom_site_fract_z
Si Si1 0.741147 0.077384 0.194682
Si Si2 0.986103 0.046038 0.159269
Si Si3 0.486134 0.589629 0.947234
Si Si4 0.499587 0.034200 0.851744
Si Si5 0.624675 0.705728 0.696237
Si Si6 0.799403 0.411416 0.515293
Si Si7 0.067167 0.426538 0.043749
Si Si8 0.386607 0.784670 0.303411
O O1 0.750000 0.250000 0.182580
O O2 0.750000 0.048725 0.250000
O O3 0.856061 0.992600 0.174735
O O4 0.630485 0.006171 0.167403
O O5 0.996631 0.035143 0.104784
O O6 0.009877 0.216447 0.173040
O O7 0.090224 0.957286 0.186711
O O8 0.565785 0.454439 0.968334
O O9 0.546434 0.750703 0.956469
O O10 0.341666 0.593603 0.960262
O O11 0.526215 0.206283 0.841869
O O12 0.599751 0.964399 0.816186
O O13 0.520830 0.993029 0.906512
O O14 0.750000 0.750000 0.671969
O O15 0.628243 0.750000 0.750000
O O16 0.750000 0.250000 0.531447
O O17 0.706950 0.536004 0.533318
O O18 0.000000 0.500000 0.000000
O O19 0.250000 0.750000 0.314223
O O20 0.422548 0.750000 0.250000
#
# Coordination Sequence:
#
# PCOD8202067 Si02
#       8
#     8   8   8   8   8   8   8   8
#     4  11  22  41  69 101 140 183 235 296 354 434
#     4  12  25  41  73  99 141 185 237 290 355 433
#     4  11  26  47  71 109 136 190 241 302 368 436
#     4  12  26  42  72 105 140 192 247 291 372 436
#     4  11  22  39  65 101 139 178 232 291 354 430
#     4  11  26  46  76 100 144 185 238 300 368 435
#     4  12  26  46  74 104 147 192 244 311 365 434
#     4  11  26  47  70 104 150 190 236 300 368 439
#
# _framework density 22.275272000000001
#
# number of rings (size 3 to 8) (size 9 to 14) (size 15 to 20)
#    0.000    0.625    3.750    3.375    7.000    3.000 
#    0.000    1.250    0.000    0.000    0.000    0.000 
#    0.000    0.000    0.000    0.000    0.000    0.000 
#
# Total GULP energy -792859.606677 kJ/mol
# GULP energy per Si atom -12388.431354 kJ/mol
# Density = 2.222457 g / cm^3
# Si number density = 22.275272 Si / 1000 Ang^3
#
#
#
# Elastic Constant Matrix: (Units=GPa)
#
#
# Indices 1 2 3 4 5 6 
#
# 1 150.7917 32.4477 42.0188 0.0000 0.0000 0.0000
# 2 32.4477 76.3719 36.0838 0.0000 0.0000 0.0000
# 3 42.0188 36.0838 120.4995 0.0000 0.0000 0.0000
# 4 0.0000 0.0000 0.0000 45.3557 0.0000 0.0000
# 5 0.0000 0.0000 0.0000 0.0000 30.5082 0.0000
# 6 0.0000 0.0000 0.0000 0.0000 0.0000 4.6891
#
#
#
# Elastic Compliance Matrix: (Units=1/GPa)
#
#
# Indices 1 2 3 4 5 6 
#
# 1 0.007685 -0.002328 -0.001983 0.000000 0.000000 0.000000
# 2 -0.002328 0.015957 -0.003966 0.000000 0.000000 0.000000
# 3 -0.001983 -0.003966 0.010178 0.000000 0.000000 0.000000
# 4 0.000000 0.000000 0.000000 0.022048 0.000000 0.000000
# 5 0.000000 0.000000 0.000000 0.000000 0.032778 0.000000
# 6 0.000000 0.000000 0.000000 0.000000 0.000000 0.213261
#
#
# Mechanical properties :
#
#
# Convention : Reuss Voigt Hill
#
# Bulk Modulus (GPa) = 57.91993 63.19598 60.55795
# Shear Modulus (GPa) = 15.42177 31.91812 23.66994
#
# Velocity S-wave (km/s) = 2.63406 3.78947 3.26331
# Velocity P-wave (km/s) = 5.94217 6.89774 6.43771
#
# Compressibility (1/GPa) = 0.01726522
#
# Stress axis : x y z
#
# Youngs Moduli (GPa) = 130.12092 62.66790 98.25202
#
# Poissons Ratio (x) = 0.14592 0.19480
# Poissons Ratio (y) = 0.30298 0.38971
# Poissons Ratio (z) = 0.25798 0.24857
#
# Static dielectric constant tensor:
#      x y z
#    x 4.538760 0.000000 0.000000 
#    y 0.000000 3.953190 0.000000 
#    z 0.000000 0.000000 4.418020 
# 
# 
# High freq. dielectric constant tensor:
#      x y z
#    x 1.888860 0.000000 0.000000 
#    y 0.000000 1.880040 0.000000 
#    z 0.000000 0.000000 1.882440 
# 
# From -- ./inp_files/38959.got.cif
#   From: 2010.06.25/outbox.cif.g09.slc.cpg/sg48_20_cif.got.tgz:38959.got - 2010.06.26 18:06:46.
