data_PCOD8202231
_publ_section_title
;
Structure prediction by ZEFSAII (Michael W. Deem and Ramdas Pophale) SiO2 
 PCOD8202231
Probable space group: P C C M
;
_chemical_formula_sum "Si O2"
_cell_formula_units_Z 56
_cell_length_a 5.158641
_cell_length_b 31.935775
_cell_length_c 16.369361
_cell_angle_alpha 90.000000
_cell_angle_beta 90.000000
_cell_angle_gamma 90.000000
_cell_volume 2696.773624
_symmetry_space_group_name_H-M "P C C M"
_symmetry_group_IT_number 49
_symmetry_cell_setting 'orthorhombic'
loop_
_space_group_symop_operation_xyz
x,y,z
-x,-y,z
x,-y,1/2-z
-x,y,1/2-z
-x,-y,-z
x,y,-z
-x,y,1/2+z
x,-y,1/2+z
loop_
_atom_site_type_symbol
_atom_site_label
_atom_site_fract_x
_atom_site_fract_y
_atom_site_fract_z
Si Si1 0.791179 0.695219 0.403613
Si Si2 0.251468 0.518531 0.841713
Si Si3 0.749263 0.613407 0.695652
Si Si4 0.709112 0.254978 0.403093
Si Si5 0.912237 0.095099 0.593616
Si Si6 0.759294 0.173840 0.301786
Si Si7 0.601236 0.957261 0.592294
O O1 0.801892 0.693456 0.500000
O O2 0.779155 0.647764 0.374070
O O3 0.539518 0.719596 0.372192
O O4 0.041531 0.719887 0.369758
O O5 0.500000 0.500000 0.888649
O O6 0.250558 0.500000 0.750000
O O7 0.267592 0.568340 0.846457
O O8 0.000000 0.500000 0.887556
O O9 0.500000 0.622859 0.750000
O O10 0.000000 0.614810 0.750000
O O11 0.717281 0.250033 0.500000
O O12 0.681838 0.208909 0.366619
O O13 0.984755 0.107822 0.500000
O O14 0.887889 0.134942 0.651143
O O15 0.631891 0.074808 0.595970
O O16 0.138827 0.064298 0.629973
O O17 0.500000 0.161820 0.250000
O O18 0.000000 0.191785 0.250000
O O19 0.678756 0.969636 0.500000
O O20 0.500000 0.000000 0.637073
#
# Coordination Sequence:
#
# PCOD8202231 Si02
#       7
#     8   8   8   8   8   8   8
#     4  10  23  40  58  82 116 147 180 231 292 350
#     4  10  16  30  48  74 107 139 181 228 268 318
#     4  12  21  32  56  86 107 145 187 235 274 329
#     4  10  22  43  63  80 109 155 194 228 286 358
#     4  10  20  36  58  85 117 155 196 233 285 353
#     4  12  25  39  60  87 119 151 189 248 295 335
#     4   9  17  31  56  88 117 147 194 249 283 318
#
# _framework density 20.765554000000002
#
# number of rings (size 3 to 8) (size 9 to 14) (size 15 to 20)
#    0.000    1.571    2.857    3.429    0.000    5.143 
#    0.000    5.714    0.000    7.286    0.000    0.000 
#    0.000    0.000    0.000    0.000    0.000    0.000 
#
# Total GULP energy -694183.561121 kJ/mol
# GULP energy per Si atom -12396.135020 kJ/mol
# Density = 2.071829 g / cm^3
# Si number density = 20.765554 Si / 1000 Ang^3
#
#
#
# Elastic Constant Matrix: (Units=GPa)
#
#
# Indices 1 2 3 4 5 6 
#
# 1 181.7259 49.2944 24.7787 0.0000 0.0000 0.0000
# 2 49.2944 150.3775 31.0824 0.0000 0.0000 0.0000
# 3 24.7787 31.0824 22.5289 0.0000 0.0000 0.0000
# 4 0.0000 0.0000 0.0000 25.7834 0.0000 0.0000
# 5 0.0000 0.0000 0.0000 0.0000 13.7690 0.0000
# 6 0.0000 0.0000 0.0000 0.0000 0.0000 39.6835
#
#
#
# Elastic Compliance Matrix: (Units=1/GPa)
#
#
# Indices 1 2 3 4 5 6 
#
# 1 0.006564 -0.000923 -0.005947 0.000000 0.000000 0.000000
# 2 -0.000923 0.009432 -0.011999 0.000000 0.000000 0.000000
# 3 -0.005947 -0.011999 0.067482 0.000000 0.000000 0.000000
# 4 0.000000 0.000000 0.000000 0.038785 0.000000 0.000000
# 5 0.000000 0.000000 0.000000 0.000000 0.072627 0.000000
# 6 0.000000 0.000000 0.000000 0.000000 0.000000 0.025199
#
#
# Mechanical properties :
#
#
# Convention : Reuss Voigt Hill
#
# Bulk Modulus (GPa) = 21.86148 62.77147 42.31647
# Shear Modulus (GPa) = 18.31010 32.47897 25.39454
#
# Velocity S-wave (km/s) = 2.97265 3.95913 3.50082
# Velocity P-wave (km/s) = 4.72576 7.15499 6.06328
#
# Compressibility (1/GPa) = 0.04574256
#
# Stress axis : x y z
#
# Youngs Moduli (GPa) = 152.34941 106.01654 14.81867
#
# Poissons Ratio (x) = 0.09780 0.08812
# Poissons Ratio (y) = 0.14055 0.17781
# Poissons Ratio (z) = 0.90595 1.27210
#
# Static dielectric constant tensor:
#      x y z
#    x 3.434080 0.000000 0.000000 
#    y 0.000000 3.718870 0.000000 
#    z 0.000000 0.000000 3.363130 
# 
# 
# High freq. dielectric constant tensor:
#      x y z
#    x 1.844050 0.000000 0.000000 
#    y 0.000000 1.823010 0.000000 
#    z 0.000000 0.000000 1.768500 
# 
# From -- ./inp_files/10770.got.cif
#   From: 2010.03.12/outbox.cif.g09.slc.cpg/sg49_6_cif.got.tgz:10770.got - 2010.04.14 03:58:27.
