data_PCOD8202725
_publ_section_title
;
Structure prediction by ZEFSAII (Michael W. Deem and Ramdas Pophale) SiO2 
 PCOD8202725
Probable space group: P C C M
;
_chemical_formula_sum "Si O2"
_cell_formula_units_Z 44
_cell_length_a 11.260520
_cell_length_b 23.416470
_cell_length_c 9.180908
_cell_angle_alpha 90.000000
_cell_angle_beta 90.000000
_cell_angle_gamma 90.000000
_cell_volume 2420.836775
_symmetry_space_group_name_H-M "P C C M"
_symmetry_group_IT_number 49
_symmetry_cell_setting 'orthorhombic'
loop_
_space_group_symop_operation_xyz
x,y,z
-x,-y,z
x,-y,1/2-z
-x,y,1/2-z
-x,-y,-z
x,y,-z
-x,y,1/2+z
x,-y,1/2+z
loop_
_atom_site_type_symbol
_atom_site_label
_atom_site_fract_x
_atom_site_fract_y
_atom_site_fract_z
Si Si1 0.874820 0.618738 0.828034
Si Si2 0.623900 0.822481 0.331826
Si Si3 0.290487 0.721432 0.339472
Si Si4 0.500000 0.645309 0.750000
Si Si5 0.676440 0.446323 0.836387
Si Si6 0.625732 0.051999 0.169768
O O1 0.818970 0.680903 0.797872
O O2 0.792384 0.571109 0.755010
O O3 0.000000 0.616398 0.750000
O O4 0.886206 0.606391 0.000000
O O5 0.500000 0.817397 0.250000
O O6 0.597654 0.810895 0.500000
O O7 0.712089 0.773952 0.273167
O O8 0.684414 0.885252 0.309939
O O9 0.273017 0.747211 0.500000
O O10 0.413452 0.685776 0.342789
O O11 0.419225 0.604681 0.850813
O O12 0.620129 0.500000 0.750000
O O13 0.712799 0.463934 0.000000
O O14 0.500000 0.055224 0.250000
O O15 0.698211 0.000000 0.250000
O O16 0.610424 0.037301 0.000000
#
# Coordination Sequence:
#
# PCOD8202725 Si02
#       6
#     8   8   8   4   8   8
#     4  10  22  40  59  79 101 128 165 207 252 301
#     4  10  19  28  42  66  97 131 168 206 246 291
#     4  10  20  33  51  75 102 131 166 204 245 296
#     4  10  21  34  54  78 105 134 168 198 244 294
#     4  11  23  38  57  80 106 135 166 204 247 295
#     4   9  16  25  37  56  84 124 168 206 242 283
#
# _framework density 18.175533999999999
#
# number of rings (size 3 to 8) (size 9 to 14) (size 15 to 20)
#    0.000    2.000    0.909    3.545    0.000    9.091 
#    0.000    1.818    0.000    0.000    0.000    0.000 
#    0.000    0.727    0.000    8.000    0.000    5.818 
#
# Total GULP energy -545306.060384 kJ/mol
# GULP energy per Si atom -12393.319554 kJ/mol
# Density = 1.813417 g / cm^3
# Si number density = 18.175534 Si / 1000 Ang^3
#
#
#
# Elastic Constant Matrix: (Units=GPa)
#
#
# Indices 1 2 3 4 5 6 
#
# 1 60.4076 16.7776 19.8364 0.0000 0.0000 0.0000
# 2 16.7776 119.5905 59.0090 0.0000 0.0000 0.0000
# 3 19.8364 59.0090 138.9793 0.0000 0.0000 0.0000
# 4 0.0000 0.0000 0.0000 32.0233 0.0000 0.0000
# 5 0.0000 0.0000 0.0000 0.0000 18.7177 0.0000
# 6 0.0000 0.0000 0.0000 0.0000 0.0000 9.8888
#
#
#
# Elastic Compliance Matrix: (Units=1/GPa)
#
#
# Indices 1 2 3 4 5 6 
#
# 1 0.017594 -0.001555 -0.001851 0.000000 0.000000 0.000000
# 2 -0.001555 0.010715 -0.004328 0.000000 0.000000 0.000000
# 3 -0.001851 -0.004328 0.009297 0.000000 0.000000 0.000000
# 4 0.000000 0.000000 0.000000 0.031227 0.000000 0.000000
# 5 0.000000 0.000000 0.000000 0.000000 0.053425 0.000000
# 6 0.000000 0.000000 0.000000 0.000000 0.000000 0.101125
#
#
# Mechanical properties :
#
#
# Convention : Reuss Voigt Hill
#
# Bulk Modulus (GPa) = 45.16906 56.69151 50.93028
# Shear Modulus (GPa) = 20.30618 27.01625 23.66121
#
# Velocity S-wave (km/s) = 3.34612 3.85958 3.61198
# Velocity P-wave (km/s) = 6.31143 7.14987 6.74369
#
# Compressibility (1/GPa) = 0.02213905
#
# Stress axis : x y z
#
# Youngs Moduli (GPa) = 56.83793 93.32346 107.56168
#
# Poissons Ratio (x) = 0.14512 0.19909
# Poissons Ratio (y) = 0.08838 0.46550
# Poissons Ratio (z) = 0.10520 0.40388
#
# Static dielectric constant tensor:
#      x y z
#    x 2.901300 0.000000 0.000000 
#    y 0.000000 4.073550 0.000000 
#    z 0.000000 0.000000 3.417380 
# 
# 
# High freq. dielectric constant tensor:
#      x y z
#    x 1.642510 0.000000 0.000000 
#    y 0.000000 1.719750 0.000000 
#    z 0.000000 0.000000 1.720150 
# 
# From -- ./inp_files/2839.got.cif
#   From: 2010.03.12/outbox.cif.g09.slc.cpg/sg49_2_cif.got.tgz:2839.got - 2010.04.14 03:58:27.
