data_PCOD8202299
_publ_section_title
;
Structure prediction by ZEFSAII (Michael W. Deem and Ramdas Pophale) SiO2 
 PCOD8202299
Probable space group: P C C M
;
_chemical_formula_sum "Si O2"
_cell_formula_units_Z 64
_cell_length_a 30.873518
_cell_length_b 14.342756
_cell_length_c 8.798007
_cell_angle_alpha 90.000000
_cell_angle_beta 90.000000
_cell_angle_gamma 90.000000
_cell_volume 3895.857230
_symmetry_space_group_name_H-M "P C C M"
_symmetry_group_IT_number 49
_symmetry_cell_setting 'orthorhombic'
loop_
_space_group_symop_operation_xyz
x,y,z
-x,-y,z
x,-y,1/2-z
-x,y,1/2-z
-x,-y,-z
x,y,-z
-x,y,1/2+z
x,-y,1/2+z
loop_
_atom_site_type_symbol
_atom_site_label
_atom_site_fract_x
_atom_site_fract_y
_atom_site_fract_z
Si Si1 0.870606 0.899186 0.679427
Si Si2 0.629342 0.208583 0.677190
Si Si3 0.760684 0.594855 0.821153
Si Si4 0.338084 0.594138 0.678058
Si Si5 0.544843 0.902024 0.822134
Si Si6 0.293370 0.100332 0.320814
Si Si7 0.042862 0.103297 0.181504
Si Si8 0.787347 0.221874 0.822288
O O1 0.878170 0.910050 0.500000
O O2 0.912765 0.850272 0.757200
O O3 0.830397 0.834044 0.719093
O O4 0.860956 0.000000 0.750000
O O5 0.641168 0.197787 0.500000
O O6 0.633906 0.316217 0.729354
O O7 0.580609 0.176346 0.712230
O O8 0.661243 0.143512 0.771215
O O9 0.779463 0.500000 0.750000
O O10 0.711153 0.609877 0.765673
O O11 0.789733 0.679987 0.763450
O O12 0.763997 0.587850 0.000000
O O13 0.357923 0.500000 0.750000
O O14 0.339725 0.580219 0.500000
O O15 0.500000 0.866518 0.750000
O O16 0.559603 0.000000 0.750000
O O17 0.538247 0.917862 0.000000
O O18 0.292593 0.089373 0.500000
O O19 0.254155 0.164781 0.262520
O O20 0.286750 0.000000 0.250000
O O21 0.000000 0.154525 0.250000
O O22 0.043760 0.000000 0.250000
O O23 0.041108 0.102695 0.000000
O O24 0.783472 0.241353 0.000000
#
# Coordination Sequence:
#
# PCOD8202299 Si02
#       8
#     8   8   8   8   8   8   8   8
#     4  10  19  31  45  64  93 129 166 204 241 286
#     4  10  20  35  52  73  98 125 158 197 238 281
#     4  10  19  32  52  71  94 124 158 201 243 285
#     4   9  18  32  50  73  97 122 154 194 238 281
#     4  10  20  34  53  73  98 125 156 194 234 283
#     4  11  22  33  47  68  96 130 164 198 232 276
#     4  10  17  27  43  63  87 118 159 204 247 290
#     4  10  21  34  47  67  96 129 165 199 237 284
#
# _framework density 16.427707000000002
#
# number of rings (size 3 to 8) (size 9 to 14) (size 15 to 20)
#    0.000    2.000    1.250    4.875    0.000    4.500 
#    0.000    0.000    0.000    0.375    0.000    2.625 
#    0.000    0.500    0.000    5.250    0.000    2.250 
#
# Total GULP energy -793622.278394 kJ/mol
# GULP energy per Si atom -12400.348100 kJ/mol
# Density = 1.639032 g / cm^3
# Si number density = 16.427707 Si / 1000 Ang^3
#
#
#
# Elastic Constant Matrix: (Units=GPa)
#
#
# Indices 1 2 3 4 5 6 
#
# 1 106.1221 55.2526 48.3794 0.0000 0.0000 0.0000
# 2 55.2526 116.3046 45.5162 0.0000 0.0000 0.0000
# 3 48.3794 45.5162 81.7504 0.0000 0.0000 0.0000
# 4 0.0000 0.0000 0.0000 26.5610 0.0000 0.0000
# 5 0.0000 0.0000 0.0000 0.0000 18.9581 0.0000
# 6 0.0000 0.0000 0.0000 0.0000 0.0000 8.4973
#
#
#
# Elastic Compliance Matrix: (Units=1/GPa)
#
#
# Indices 1 2 3 4 5 6 
#
# 1 0.014561 -0.004533 -0.006093 0.000000 0.000000 0.000000
# 2 -0.004533 0.012405 -0.004224 0.000000 0.000000 0.000000
# 3 -0.006093 -0.004224 0.018190 0.000000 0.000000 0.000000
# 4 0.000000 0.000000 0.000000 0.037649 0.000000 0.000000
# 5 0.000000 0.000000 0.000000 0.000000 0.052748 0.000000
# 6 0.000000 0.000000 0.000000 0.000000 0.000000 0.117685
#
#
# Mechanical properties :
#
#
# Convention : Reuss Voigt Hill
#
# Bulk Modulus (GPa) = 64.70245 66.94151 65.82198
# Shear Modulus (GPa) = 17.35569 21.13853 19.24711
#
# Velocity S-wave (km/s) = 3.25389 3.59104 3.42661
# Velocity P-wave (km/s) = 7.32044 7.61785 7.47062
#
# Compressibility (1/GPa) = 0.01545536
#
# Stress axis : x y z
#
# Youngs Moduli (GPa) = 68.67673 80.61539 54.97470
#
# Poissons Ratio (x) = 0.36541 0.33498
# Poissons Ratio (y) = 0.31130 0.23222
# Poissons Ratio (z) = 0.41847 0.34052
#
# Static dielectric constant tensor:
#      x y z
#    x 3.399010 0.000000 0.000000 
#    y 0.000000 3.031840 0.000000 
#    z 0.000000 0.000000 3.143370 
# 
# 
# High freq. dielectric constant tensor:
#      x y z
#    x 1.623770 0.000000 0.000000 
#    y 0.000000 1.610480 0.000000 
#    z 0.000000 0.000000 1.644670 
# 
# From -- ./inp_files/7043.got.cif
#   From: 2010.03.12/outbox.cif.g09.slc.cpg/sg49_4_cif.got.tgz:7043.got - 2010.04.14 03:58:27.
