data_PCOD8202564
_publ_section_title
;
Structure prediction by ZEFSAII (Michael W. Deem and Ramdas Pophale) SiO2 
 PCOD8202564
Probable space group: P C C M
;
_chemical_formula_sum "Si O2"
_cell_formula_units_Z 34
_cell_length_a 10.125022
_cell_length_b 9.778951
_cell_length_c 20.326358
_cell_angle_alpha 90.000000
_cell_angle_beta 90.000000
_cell_angle_gamma 90.000000
_cell_volume 2012.555269
_symmetry_space_group_name_H-M "P C C M"
_symmetry_group_IT_number 49
_symmetry_cell_setting 'orthorhombic'
loop_
_space_group_symop_operation_xyz
x,y,z
-x,-y,z
x,-y,1/2-z
-x,y,1/2-z
-x,-y,-z
x,y,-z
-x,y,1/2+z
x,-y,1/2+z
loop_
_atom_site_type_symbol
_atom_site_label
_atom_site_fract_x
_atom_site_fract_y
_atom_site_fract_z
Si Si1 0.648797 0.353262 0.076562
Si Si2 0.500000 0.500000 0.250000
Si Si3 0.867485 0.155113 0.922371
Si Si4 0.373351 0.643496 0.367661
Si Si5 0.835997 0.846060 0.921926
O O1 0.767704 0.265825 0.108690
O O2 0.511194 0.298212 0.105111
O O3 0.672677 0.512407 0.090478
O O4 0.645970 0.325937 0.000000
O O5 0.401670 0.595504 0.292853
O O6 0.015498 0.189859 0.898412
O O7 0.815019 0.004704 0.903643
O O8 0.873731 0.164468 0.000000
O O9 0.262498 0.758864 0.375939
O O10 0.812026 0.817836 0.000000
#
# Coordination Sequence:
#
# PCOD8202564 Si02
#       5
#     8   2   8   8   8
#     4   9  16  27  44  70  96 120 145 185 227 274
#     4   8  20  36  46  64  84 120 156 210 248 248
#     4   8  16  28  43  70 108 126 139 171 226 284
#     4  10  18  30  49  63  89 119 161 195 226 275
#     4   9  16  28  47  73  99 127 147 176 225 286
#
# _framework density 16.893947000000001
#
# number of rings (size 3 to 8) (size 9 to 14) (size 15 to 20)
#    0.000    3.294    0.000    4.235    0.000    1.882 
#    0.000    7.059    0.000   22.588    0.000   13.176 
#    0.000    0.000    0.000    0.000    0.000    0.000 
#
# Total GULP energy -421303.247857 kJ/mol
# GULP energy per Si atom -12391.271996 kJ/mol
# Density = 1.685550 g / cm^3
# Si number density = 16.893947 Si / 1000 Ang^3
#
#
#
# Elastic Constant Matrix: (Units=GPa)
#
#
# Indices 1 2 3 4 5 6 
#
# 1 113.4856 64.2779 24.4209 0.0000 0.0000 0.0000
# 2 64.2779 56.2805 13.8892 0.0000 0.0000 0.0000
# 3 24.4209 13.8892 57.1685 0.0000 0.0000 0.0000
# 4 0.0000 0.0000 0.0000 0.9016 0.0000 0.0000
# 5 0.0000 0.0000 0.0000 0.0000 0.3343 0.0000
# 6 0.0000 0.0000 0.0000 0.0000 0.0000 44.6667
#
#
#
# Elastic Compliance Matrix: (Units=1/GPa)
#
#
# Indices 1 2 3 4 5 6 
#
# 1 0.025832 -0.028488 -0.004114 0.000000 0.000000 0.000000
# 2 -0.028488 0.050318 -0.000055 0.000000 0.000000 0.000000
# 3 -0.004114 -0.000055 0.019263 0.000000 0.000000 0.000000
# 4 0.000000 0.000000 0.000000 1.109138 0.000000 0.000000
# 5 0.000000 0.000000 0.000000 0.000000 2.991327 0.000000
# 6 0.000000 0.000000 0.000000 0.000000 0.000000 0.022388
#
#
# Mechanical properties :
#
#
# Convention : Reuss Voigt Hill
#
# Bulk Modulus (GPa) = 33.22383 48.01229 40.61806
# Shear Modulus (GPa) = 1.16452 17.47029 9.31741
#
# Velocity S-wave (km/s) = 0.83115 3.21926 2.35100
# Velocity P-wave (km/s) = 4.54201 6.50382 5.60935
#
# Compressibility (1/GPa) = 0.03009888
#
# Stress axis : x y z
#
# Youngs Moduli (GPa) = 38.71093 19.87359 51.91318
#
# Poissons Ratio (x) = 0.56616 0.21356
# Poissons Ratio (y) = 1.10280 0.00288
# Poissons Ratio (z) = 0.15925 0.00110
#
# Static dielectric constant tensor:
#      x y z
#    x 3.549480 0.000000 0.000000 
#    y 0.000000 3.355270 0.000000 
#    z 0.000000 0.000000 2.798390 
# 
# 
# High freq. dielectric constant tensor:
#      x y z
#    x 1.658950 0.000000 0.000000 
#    y 0.000000 1.647450 0.000000 
#    z 0.000000 0.000000 1.608150 
# 
# From -- ./inp_files/19454.got.cif
#   From: 2010.03.12/outbox.cif.g09.slc.cpg/sg49_10_cif.got.tgz:19454.got - 2010.04.14 03:58:27.
