data_PCOD8202183
_publ_section_title
;
Structure prediction by ZEFSAII (Michael W. Deem and Ramdas Pophale) SiO2 
 PCOD8202183
Probable space group: P C C M
;
_chemical_formula_sum "Si O2"
_cell_formula_units_Z 64
_cell_length_a 15.416496
_cell_length_b 30.331185
_cell_length_c 8.791238
_cell_angle_alpha 90.000000
_cell_angle_beta 90.000000
_cell_angle_gamma 90.000000
_cell_volume 4110.788095
_symmetry_space_group_name_H-M "P C C M"
_symmetry_group_IT_number 49
_symmetry_cell_setting 'orthorhombic'
loop_
_space_group_symop_operation_xyz
x,y,z
-x,-y,z
x,-y,1/2-z
-x,y,1/2-z
-x,-y,-z
x,y,-z
-x,y,1/2+z
x,-y,1/2+z
loop_
_atom_site_type_symbol
_atom_site_label
_atom_site_fract_x
_atom_site_fract_y
_atom_site_fract_z
Si Si1 0.764540 0.892878 0.821394
Si Si2 0.091592 0.953120 0.819188
Si Si3 0.906635 0.273709 0.676881
Si Si4 0.239307 0.209179 0.178125
Si Si5 0.414696 0.210643 0.330386
Si Si6 0.413256 0.894263 0.171991
Si Si7 0.096415 0.543637 0.819266
Si Si8 0.906380 0.629154 0.822796
O O1 0.836808 0.917726 0.725374
O O2 0.776723 0.841637 0.780359
O O3 0.670079 0.909865 0.768416
O O4 0.775344 0.902150 0.000000
O O5 0.000000 0.937606 0.750000
O O6 0.119153 0.000000 0.750000
O O7 0.083665 0.956905 0.000000
O O8 0.920790 0.265318 0.500000
O O9 0.839887 0.237947 0.745363
O O10 0.864538 0.322527 0.703988
O O11 0.000000 0.266906 0.750000
O O12 0.328335 0.227402 0.247990
O O13 0.247835 0.216021 0.000000
O O14 0.500000 0.230262 0.250000
O O15 0.413410 0.229263 0.500000
O O16 0.418314 0.158121 0.327786
O O17 0.500000 0.913838 0.250000
O O18 0.406213 0.912410 0.000000
O O19 0.143272 0.500000 0.750000
O O20 0.144190 0.588825 0.762558
O O21 0.000000 0.545421 0.750000
O O22 0.094855 0.540867 0.000000
O O23 0.000000 0.633375 0.750000
O O24 0.913495 0.617340 0.000000
#
# Coordination Sequence:
#
# PCOD8202183 Si02
#       8
#     8   8   8   8   8   8   8   8
#     4  10  19  32  50  72  96 120 146 178 215 253
#     4  11  22  38  57  75  94 116 145 179 217 260
#     4   9  18  30  42  56  78 111 147 181 214 249
#     4   9  18  31  45  64  90 117 146 179 213 250
#     4   9  16  26  42  63  86 112 141 175 214 254
#     4   9  16  27  44  68  95 122 149 176 209 249
#     4  10  16  22  32  47  66  87 117 160 209 252
#     4   9  15  24  36  49  67  94 130 168 207 248
#
# _framework density 15.56879
#
# number of rings (size 3 to 8) (size 9 to 14) (size 15 to 20)
#    0.000    2.500    0.000    5.250    0.000    5.000 
#    0.000    1.250    0.000    0.375    0.000    2.625 
#    0.000    0.000    0.000    0.000    0.000    0.625 
#
# Total GULP energy -793226.827359 kJ/mol
# GULP energy per Si atom -12394.169177 kJ/mol
# Density = 1.553335 g / cm^3
# Si number density = 15.568790 Si / 1000 Ang^3
#
#
#
# Elastic Constant Matrix: (Units=GPa)
#
#
# Indices 1 2 3 4 5 6 
#
# 1 99.3639 52.7628 44.0392 0.0000 0.0000 0.0000
# 2 52.7628 67.9539 42.4810 0.0000 0.0000 0.0000
# 3 44.0392 42.4810 105.7649 0.0000 0.0000 0.0000
# 4 0.0000 0.0000 0.0000 -56.4647 0.0000 0.0000
# 5 0.0000 0.0000 0.0000 0.0000 24.4874 0.0000
# 6 0.0000 0.0000 0.0000 0.0000 0.0000 0.1747
#
#
#
# Elastic Compliance Matrix: (Units=1/GPa)
#
#
# Indices 1 2 3 4 5 6 
#
# 1 0.017589 -0.012122 -0.002455 0.000000 0.000000 0.000000
# 2 -0.012122 0.028005 -0.006201 0.000000 0.000000 0.000000
# 3 -0.002455 -0.006201 0.012968 0.000000 0.000000 0.000000
# 4 0.000000 0.000000 0.000000 -0.017710 0.000000 0.000000
# 5 0.000000 0.000000 0.000000 0.000000 0.040837 0.000000
# 6 0.000000 0.000000 0.000000 0.000000 0.000000 5.724308
#
#
# Mechanical properties :
#
#
# Convention : Reuss Voigt Hill
#
# Bulk Modulus (GPa) = 58.80415 61.29430 60.04923
# Shear Modulus (GPa) = 0.85423 2.55945 1.70684
#
# Velocity S-wave (km/s) = 0.74153 1.28356 1.04819
# Velocity P-wave (km/s) = 6.21174 6.45385 6.33395
#
# Compressibility (1/GPa) = 0.01700560
#
# Stress axis : x y z
#
# Youngs Moduli (GPa) = 56.85329 35.70842 77.11540
#
# Poissons Ratio (x) = 0.43287 0.18931
# Poissons Ratio (y) = 0.68920 0.47816
# Poissons Ratio (z) = 0.13957 0.22141
#
# Static dielectric constant tensor:
#      x y z
#    x 2.861030 0.000000 0.000000 
#    y 0.000000 3.464700 0.000000 
#    z 0.000000 0.000000 3.131030 
# 
# 
# High freq. dielectric constant tensor:
#      x y z
#    x 1.562230 0.000000 0.000000 
#    y 0.000000 1.577220 0.000000 
#    z 0.000000 0.000000 1.615060 
# 
# From -- ./inp_files/4541.got.cif
#   From: 2010.03.12/outbox.cif.g09.slc.cpg/sg49_3_cif.got.tgz:4541.got - 2010.04.14 03:58:27.
