data_PCOD8202492
_publ_section_title
;
Structure prediction by ZEFSAII (Michael W. Deem and Ramdas Pophale) SiO2 
 PCOD8202492
Probable space group: P C C M
;
_chemical_formula_sum "Si O2"
_cell_formula_units_Z 64
_cell_length_a 21.537077
_cell_length_b 18.432481
_cell_length_c 8.929810
_cell_angle_alpha 90.000000
_cell_angle_beta 90.000000
_cell_angle_gamma 90.000000
_cell_volume 3544.971713
_symmetry_space_group_name_H-M "P C C M"
_symmetry_group_IT_number 49
_symmetry_cell_setting 'orthorhombic'
loop_
_space_group_symop_operation_xyz
x,y,z
-x,-y,z
x,-y,1/2-z
-x,y,1/2-z
-x,-y,-z
x,y,-z
-x,y,1/2+z
x,-y,1/2+z
loop_
_atom_site_type_symbol
_atom_site_label
_atom_site_fract_x
_atom_site_fract_y
_atom_site_fract_z
Si Si1 0.184517 0.428027 0.323524
Si Si2 0.237516 0.276045 0.324040
Si Si3 0.240934 0.936693 0.162879
Si Si4 0.433338 0.925003 0.321454
Si Si5 0.343065 0.180685 0.333629
Si Si6 0.064415 0.630446 0.325451
Si Si7 0.102150 0.072576 0.322893
Si Si8 0.881925 0.213740 0.673574
O O1 0.214492 0.500000 0.250000
O O2 0.178637 0.437941 0.500000
O O3 0.228729 0.360262 0.281138
O O4 0.116730 0.417152 0.254173
O O5 0.226543 0.263137 0.500000
O O6 0.310363 0.256206 0.281569
O O7 0.187123 0.226174 0.240170
O O8 0.280781 0.865508 0.158179
O O9 0.173559 0.923442 0.233704
O O10 0.277746 0.000000 0.250000
O O11 0.229086 0.968882 0.000000
O O12 0.500000 0.909497 0.250000
O O13 0.437836 0.933492 0.500000
O O14 0.391262 0.854981 0.281881
O O15 0.406708 0.000000 0.250000
O O16 0.373933 0.185913 0.500000
O O17 0.063199 0.610774 0.500000
O O18 0.077082 0.715207 0.298753
O O19 0.000000 0.608712 0.250000
O O20 0.091101 0.071759 0.500000
O O21 0.078532 0.148638 0.253232
O O22 0.071096 0.000000 0.250000
O O23 0.874114 0.195136 0.500000
#
# Coordination Sequence:
#
# PCOD8202492 Si02
#       8
#     8   8   8   8   8   8   8   8
#     4  10  20  35  56  79 107 139 166 197 240 293
#     4   9  18  33  51  72  99 132 165 197 243 298
#     4   9  17  26  38  58  87 119 152 190 233 280
#     4  11  22  36  51  69  95 135 181 223 264 301
#     4  10  18  31  48  69  96 126 165 210 249 292
#     4  10  21  36  54  77 101 128 166 206 245 293
#     4  10  18  29  43  63  90 122 157 194 240 293
#     4  10  19  31  48  70  97 125 157 202 251 298
#
# _framework density 18.053740000000001
#
# number of rings (size 3 to 8) (size 9 to 14) (size 15 to 20)
#    0.000    2.125    1.250    3.375    0.000    4.750 
#    0.000    1.250    0.000    0.375    0.000    2.625 
#    0.000    0.500    0.000    5.750    0.000    1.750 
#
# Total GULP energy -793099.238921 kJ/mol
# GULP energy per Si atom -12392.175608 kJ/mol
# Density = 1.801265 g / cm^3
# Si number density = 18.053740 Si / 1000 Ang^3
#
#
#
# Elastic Constant Matrix: (Units=GPa)
#
#
# Indices 1 2 3 4 5 6 
#
# 1 57.8104 20.7921 25.0766 0.0000 0.0000 0.0000
# 2 20.7921 108.3960 42.4694 0.0000 0.0000 0.0000
# 3 25.0766 42.4694 100.6672 0.0000 0.0000 0.0000
# 4 0.0000 0.0000 0.0000 30.3420 0.0000 0.0000
# 5 0.0000 0.0000 0.0000 0.0000 26.6189 0.0000
# 6 0.0000 0.0000 0.0000 0.0000 0.0000 17.6170
#
#
#
# Elastic Compliance Matrix: (Units=1/GPa)
#
#
# Indices 1 2 3 4 5 6 
#
# 1 0.019837 -0.002239 -0.003997 0.000000 0.000000 0.000000
# 2 -0.002239 0.011305 -0.004212 0.000000 0.000000 0.000000
# 3 -0.003997 -0.004212 0.012706 0.000000 0.000000 0.000000
# 4 0.000000 0.000000 0.000000 0.032958 0.000000 0.000000
# 5 0.000000 0.000000 0.000000 0.000000 0.037567 0.000000
# 6 0.000000 0.000000 0.000000 0.000000 0.000000 0.056763
#
#
# Mechanical properties :
#
#
# Convention : Reuss Voigt Hill
#
# Bulk Modulus (GPa) = 43.56718 49.28334 46.42526
# Shear Modulus (GPa) = 25.03978 26.81796 25.92887
#
# Velocity S-wave (km/s) = 3.72823 3.85834 3.79384
# Velocity P-wave (km/s) = 6.53584 6.87069 6.70536
#
# Compressibility (1/GPa) = 0.02295306
#
# Stress axis : x y z
#
# Youngs Moduli (GPa) = 50.41097 88.45622 78.70213
#
# Poissons Ratio (x) = 0.19806 0.31456
# Poissons Ratio (y) = 0.11288 0.33146
# Poissons Ratio (z) = 0.20148 0.37254
#
# Static dielectric constant tensor:
#      x y z
#    x 3.041920 0.000000 0.000000 
#    y 0.000000 3.575880 0.000000 
#    z 0.000000 0.000000 3.408580 
# 
# 
# High freq. dielectric constant tensor:
#      x y z
#    x 1.658830 0.000000 0.000000 
#    y 0.000000 1.694520 0.000000 
#    z 0.000000 0.000000 1.707420 
# 
# From -- ./inp_files/6648.got.cif
#   From: 2010.03.12/outbox.cif.g09.slc.cpg/sg49_4_cif.got.tgz:6648.got - 2010.04.14 03:58:27.
