data_PCOD8202943
_publ_section_title
;
Structure prediction by ZEFSAII (Michael W. Deem and Ramdas Pophale) SiO2 
 PCOD8202943
Probable space group: P C C M
;
_chemical_formula_sum "Si O2"
_cell_formula_units_Z 48
_cell_length_a 24.216145
_cell_length_b 13.655417
_cell_length_c 8.914354
_cell_angle_alpha 90.000000
_cell_angle_beta 90.000000
_cell_angle_gamma 90.000000
_cell_volume 2947.812470
_symmetry_space_group_name_H-M "P C C M"
_symmetry_group_IT_number 49
_symmetry_cell_setting 'orthorhombic'
loop_
_space_group_symop_operation_xyz
x,y,z
-x,-y,z
x,-y,1/2-z
-x,y,1/2-z
-x,-y,-z
x,y,-z
-x,y,1/2+z
x,-y,1/2+z
loop_
_atom_site_type_symbol
_atom_site_label
_atom_site_fract_x
_atom_site_fract_y
_atom_site_fract_z
Si Si1 0.218933 0.214265 0.677710
Si Si2 0.327019 0.896323 0.173843
Si Si3 0.447916 0.105824 0.324446
Si Si4 0.878663 0.899170 0.177041
Si Si5 0.943221 0.291814 0.326643
Si Si6 0.833085 0.603591 0.178558
O O1 0.209486 0.222676 0.500000
O O2 0.280810 0.181910 0.721111
O O3 0.177965 0.133079 0.744793
O O4 0.210197 0.318837 0.755548
O O5 0.387381 0.848396 0.210599
O O6 0.316523 0.000000 0.250000
O O7 0.322636 0.920309 0.000000
O O8 0.500000 0.164923 0.250000
O O9 0.458927 0.097724 0.500000
O O10 0.446775 0.000000 0.250000
O O11 0.926194 0.819653 0.210610
O O12 0.899284 0.000000 0.250000
O O13 0.868296 0.910484 0.000000
O O14 0.953304 0.306359 0.500000
O O15 0.894701 0.364258 0.271884
O O16 0.000000 0.321571 0.250000
O O17 0.818730 0.500000 0.250000
O O18 0.827095 0.600733 0.000000
#
# Coordination Sequence:
#
# PCOD8202943 Si02
#       6
#     8   8   8   8   8   8
#     4  10  19  32  49  69  92 120 151 188 229 271
#     4   9  18  28  41  63  92 124 158 191 225 261
#     4   9  15  24  36  54  82 118 157 193 223 256
#     4  10  20  33  47  67  93 123 155 188 224 265
#     4   9  20  35  50  69  93 117 147 183 220 263
#     4  10  21  37  54  73  93 116 144 180 225 274
#
# _framework density 16.283261
#
# number of rings (size 3 to 8) (size 9 to 14) (size 15 to 20)
#    0.000    2.500    0.000    4.000    0.000    8.000 
#    0.000    3.333    0.000    0.000    0.000    0.000 
#    0.000    0.667    0.000    7.667    0.000    2.333 
#
# Total GULP energy -594965.393386 kJ/mol
# GULP energy per Si atom -12395.112362 kJ/mol
# Density = 1.624620 g / cm^3
# Si number density = 16.283261 Si / 1000 Ang^3
#
#
#
# Elastic Constant Matrix: (Units=GPa)
#
#
# Indices 1 2 3 4 5 6 
#
# 1 132.1023 38.8793 48.3042 0.0000 0.0000 0.0000
# 2 38.8793 84.2684 33.5718 0.0000 0.0000 0.0000
# 3 48.3042 33.5718 75.8990 0.0000 0.0000 0.0000
# 4 0.0000 0.0000 0.0000 20.1604 0.0000 0.0000
# 5 0.0000 0.0000 0.0000 0.0000 336.9259 0.0000
# 6 0.0000 0.0000 0.0000 0.0000 0.0000 11.8061
#
#
#
# Elastic Compliance Matrix: (Units=1/GPa)
#
#
# Indices 1 2 3 4 5 6 
#
# 1 0.010315 -0.002602 -0.005414 0.000000 0.000000 0.000000
# 2 -0.002602 0.015062 -0.005006 0.000000 0.000000 0.000000
# 3 -0.005414 -0.005006 0.018835 0.000000 0.000000 0.000000
# 4 0.000000 0.000000 0.000000 0.049602 0.000000 0.000000
# 5 0.000000 0.000000 0.000000 0.000000 0.002968 0.000000
# 6 0.000000 0.000000 0.000000 0.000000 0.000000 0.084702
#
#
# Mechanical properties :
#
#
# Convention : Reuss Voigt Hill
#
# Bulk Modulus (GPa) = 55.04196 59.30889 57.17542
# Shear Modulus (GPa) = 23.40986 85.21276 54.31131
#
# Velocity S-wave (km/s) = 3.79577 7.24190 5.78156
# Velocity P-wave (km/s) = 7.28606 10.31645 8.93073
#
# Compressibility (1/GPa) = 0.01816796
#
# Stress axis : x y z
#
# Youngs Moduli (GPa) = 96.94185 66.39284 53.09204
#
# Poissons Ratio (x) = 0.17278 0.28744
# Poissons Ratio (y) = 0.25228 0.26578
# Poissons Ratio (z) = 0.52484 0.33236
#
# Static dielectric constant tensor:
#      x y z
#    x 3.815400 0.000000 0.000000 
#    y 0.000000 2.865260 0.000000 
#    z 0.000000 0.000000 3.192470 
# 
# 
# High freq. dielectric constant tensor:
#      x y z
#    x 1.629990 0.000000 0.000000 
#    y 0.000000 1.588580 0.000000 
#    z 0.000000 0.000000 1.641530 
# 
# From -- ./inp_files/4139.got.cif
#   From: 2010.03.12/outbox.cif.g09.slc.cpg/sg49_3_cif.got.tgz:4139.got - 2010.04.14 03:58:27.
