data_PCOD8202083
_publ_section_title
;
Structure prediction by ZEFSAII (Michael W. Deem and Ramdas Pophale) SiO2 
 PCOD8202083
Probable space group: P N N N
;
_chemical_formula_sum "Si O2"
_cell_formula_units_Z 56
_cell_length_a 14.381374
_cell_length_b 19.775863
_cell_length_c 9.049299
_cell_angle_alpha 90.000000
_cell_angle_beta 90.000000
_cell_angle_gamma 90.000000
_cell_volume 2573.657575
_symmetry_space_group_name_H-M "P N N N"
_symmetry_group_IT_number 48
_space_group.IT_coordinate_system_code '2'
_symmetry_cell_setting 'orthorhombic'
loop_
_space_group_symop_operation_xyz
x,y,z
1/2-x,1/2-y,z
x,1/2-y,1/2-z
1/2-x,y,1/2-z
-x,-y,-z
1/2+x,1/2+y,-z
-x,1/2+y,1/2+z
1/2+x,-y,1/2+z
loop_
_atom_site_type_symbol
_atom_site_label
_atom_site_fract_x
_atom_site_fract_y
_atom_site_fract_z
Si Si1 0.756127 0.324236 0.485859
Si Si2 0.046324 0.402930 0.081559
Si Si3 0.018990 0.952251 0.289024
Si Si4 0.824777 0.937352 0.123181
Si Si5 0.260273 0.329159 0.423743
Si Si6 0.695968 0.046703 0.619214
Si Si7 0.596409 0.176228 0.254251
O O1 0.750000 0.250000 0.561875
O O2 0.742417 0.384980 0.600040
O O3 0.858231 0.338561 0.413600
O O4 0.678009 0.327887 0.363379
O O5 0.059831 0.478907 0.138586
O O6 0.139335 0.361572 0.041795
O O7 0.988240 0.372380 0.216931
O O8 0.989584 0.400879 0.926830
O O9 0.092857 0.930662 0.166129
O O10 0.922549 0.952909 0.200054
O O11 0.750000 0.927657 0.250000
O O12 0.818792 0.871243 0.015433
O O13 0.800850 0.003430 0.028774
O O14 0.250000 0.250000 0.470001
O O15 0.250000 0.337775 0.250000
O O16 0.750000 0.006409 0.750000
O O17 0.550801 0.250000 0.250000
#
# Coordination Sequence:
#
# PCOD8202083 Si02
#       7
#     8   8   8   8   8   8   8
#     4   9  20  39  60  95 135 176 220 273 348 421
#     4  11  22  43  66 101 137 173 232 292 346 416
#     4  11  25  42  68 100 135 178 231 290 345 411
#     4  12  25  45  70 100 137 190 233 292 353 421
#     4  11  26  47  73 101 140 184 237 295 358 425
#     4  12  25  40  67  99 134 174 226 289 347 414
#     4   9  19  35  64  92 127 174 217 269 335 414
#
# _framework density 21.758915999999999
#
# number of rings (size 3 to 8) (size 9 to 14) (size 15 to 20)
#    0.000    1.286    1.429    5.143    8.000    1.714 
#    2.571    0.000    0.000    0.000    0.000    0.000 
#    0.000    0.000    0.000    0.000    0.000    0.000 
#
# Total GULP energy -693936.362062 kJ/mol
# GULP energy per Si atom -12391.720751 kJ/mol
# Density = 2.170939 g / cm^3
# Si number density = 21.758916 Si / 1000 Ang^3
#
#
#
# Elastic Constant Matrix: (Units=GPa)
#
#
# Indices 1 2 3 4 5 6 
#
# 1 71.7808 28.7531 10.7312 0.0000 0.0000 0.0000
# 2 28.7531 121.0878 37.8207 0.0000 0.0000 0.0000
# 3 10.7312 37.8207 90.8036 0.0000 0.0000 0.0000
# 4 0.0000 0.0000 0.0000 32.6271 0.0000 0.0000
# 5 0.0000 0.0000 0.0000 0.0000 27.8394 0.0000
# 6 0.0000 0.0000 0.0000 0.0000 0.0000 32.3788
#
#
#
# Elastic Compliance Matrix: (Units=1/GPa)
#
#
# Indices 1 2 3 4 5 6 
#
# 1 0.015405 -0.003551 -0.000341 0.000000 0.000000 0.000000
# 2 -0.003551 0.010312 -0.003875 0.000000 0.000000 0.000000
# 3 -0.000341 -0.003875 0.012667 0.000000 0.000000 0.000000
# 4 0.000000 0.000000 0.000000 0.030649 0.000000 0.000000
# 5 0.000000 0.000000 0.000000 0.000000 0.035920 0.000000
# 6 0.000000 0.000000 0.000000 0.000000 0.000000 0.030884
#
#
# Mechanical properties :
#
#
# Convention : Reuss Voigt Hill
#
# Bulk Modulus (GPa) = 43.76746 48.69802 46.23274
# Shear Modulus (GPa) = 31.44835 32.32688 31.88761
#
# Velocity S-wave (km/s) = 3.80585 3.85864 3.83233
# Velocity P-wave (km/s) = 6.28260 6.50242 6.39345
#
# Compressibility (1/GPa) = 0.02284802
#
# Stress axis : x y z
#
# Youngs Moduli (GPa) = 64.91439 96.97220 78.94346
#
# Poissons Ratio (x) = 0.34438 0.02695
# Poissons Ratio (y) = 0.23054 0.30594
# Poissons Ratio (z) = 0.02216 0.37581
#
# Static dielectric constant tensor:
#      x y z
#    x 4.021450 0.000000 0.000000 
#    y 0.000000 4.133090 0.000000 
#    z 0.000000 0.000000 4.880240 
# 
# 
# High freq. dielectric constant tensor:
#      x y z
#    x 1.854090 0.000000 0.000000 
#    y 0.000000 1.851670 0.000000 
#    z 0.000000 0.000000 1.862480 
# 
# From -- ./inp_files/13132.got.cif
#   From: 2010.06.25/outbox.cif.g09.slc.cpg/sg48_7_cif.got.tgz:13132.got - 2010.06.26 18:06:46.
