data_PCOD8202579
_publ_section_title
;
Structure prediction by ZEFSAII (Michael W. Deem and Ramdas Pophale) SiO2 
 PCOD8202579
Probable space group: P C C M
;
_chemical_formula_sum "Si O2"
_cell_formula_units_Z 48
_cell_length_a 11.753071
_cell_length_b 12.307803
_cell_length_c 15.597076
_cell_angle_alpha 90.000000
_cell_angle_beta 90.000000
_cell_angle_gamma 90.000000
_cell_volume 2256.186957
_symmetry_space_group_name_H-M "P C C M"
_symmetry_group_IT_number 49
_symmetry_cell_setting 'orthorhombic'
loop_
_space_group_symop_operation_xyz
x,y,z
-x,-y,z
x,-y,1/2-z
-x,y,1/2-z
-x,-y,-z
x,y,-z
-x,y,1/2+z
x,-y,1/2+z
loop_
_atom_site_type_symbol
_atom_site_label
_atom_site_fract_x
_atom_site_fract_y
_atom_site_fract_z
Si Si1 0.875899 0.026470 0.898297
Si Si2 0.497462 0.122701 0.601930
Si Si3 0.911792 0.641142 0.095804
Si Si4 0.733804 0.230870 0.101916
Si Si5 0.258552 0.179332 0.898046
Si Si6 0.141529 0.570549 0.836265
O O1 0.830811 0.144538 0.870145
O O2 0.789630 0.935092 0.864015
O O3 0.880699 0.020815 0.000000
O O4 0.000000 0.000000 0.859265
O O5 0.491836 0.115747 0.500000
O O6 0.387586 0.187500 0.635573
O O7 0.610499 0.187255 0.633102
O O8 0.500000 0.000000 0.638878
O O9 0.819739 0.723131 0.138494
O O10 0.856673 0.520746 0.089045
O O11 0.022596 0.637285 0.156953
O O12 0.946517 0.680212 0.000000
O O13 0.756244 0.344650 0.150365
O O14 0.734565 0.249381 0.000000
O O15 0.254727 0.185388 0.000000
O O16 0.152378 0.500000 0.750000
#
# Coordination Sequence:
#
# PCOD8202579 Si02
#       6
#     8   8   8   8   8   8
#     4   9  15  23  41  75 114 142 171 222 280 332
#     4   9  15  27  48  80 120 153 179 223 285 338
#     4  10  19  34  57  81 108 141 186 234 281 340
#     4  10  18  30  52  80 112 150 192 230 275 338
#     4   9  16  27  47  80 115 145 178 224 282 335
#     4  11  22  36  53  75 107 148 190 235 287 337
#
# _framework density 21.274832
#
# number of rings (size 3 to 8) (size 9 to 14) (size 15 to 20)
#    0.000    2.333    1.667    4.000    0.000    2.667 
#    0.000    0.833    0.000    8.000    0.000    7.000 
#    0.000    0.000    0.000    0.000    0.000    2.167 
#
# Total GULP energy -594838.386952 kJ/mol
# GULP energy per Si atom -12392.466395 kJ/mol
# Density = 2.122641 g / cm^3
# Si number density = 21.274832 Si / 1000 Ang^3
#
#
#
# Elastic Constant Matrix: (Units=GPa)
#
#
# Indices 1 2 3 4 5 6 
#
# 1 155.2119 79.8193 25.7053 0.0000 0.0000 0.0000
# 2 79.8193 138.3752 21.3183 0.0000 0.0000 0.0000
# 3 25.7053 21.3183 43.5773 0.0000 0.0000 0.0000
# 4 0.0000 0.0000 0.0000 15.0737 0.0000 0.0000
# 5 0.0000 0.0000 0.0000 0.0000 4.5987 0.0000
# 6 0.0000 0.0000 0.0000 0.0000 0.0000 47.9153
#
#
#
# Elastic Compliance Matrix: (Units=1/GPa)
#
#
# Indices 1 2 3 4 5 6 
#
# 1 0.009550 -0.005019 -0.003178 0.000000 0.000000 0.000000
# 2 -0.005019 0.010454 -0.002153 0.000000 0.000000 0.000000
# 3 -0.003178 -0.002153 0.025876 0.000000 0.000000 0.000000
# 4 0.000000 0.000000 0.000000 0.066341 0.000000 0.000000
# 5 0.000000 0.000000 0.000000 0.000000 0.217452 0.000000
# 6 0.000000 0.000000 0.000000 0.000000 0.000000 0.020870
#
#
# Mechanical properties :
#
#
# Convention : Reuss Voigt Hill
#
# Bulk Modulus (GPa) = 39.71622 65.65003 52.68312
# Shear Modulus (GPa) = 13.17047 27.53897 20.35472
#
# Velocity S-wave (km/s) = 2.49080 3.60173 3.09650
# Velocity P-wave (km/s) = 5.19430 6.94419 6.13199
#
# Compressibility (1/GPa) = 0.02517863
#
# Stress axis : x y z
#
# Youngs Moduli (GPa) = 104.70761 95.65908 38.64614
#
# Poissons Ratio (x) = 0.48015 0.12282
# Poissons Ratio (y) = 0.52557 0.08321
# Poissons Ratio (z) = 0.33277 0.20598
#
# Static dielectric constant tensor:
#      x y z
#    x 4.075680 0.000000 0.000000 
#    y 0.000000 4.079940 0.000000 
#    z 0.000000 0.000000 3.360770 
# 
# 
# High freq. dielectric constant tensor:
#      x y z
#    x 1.828320 0.000000 0.000000 
#    y 0.000000 1.834970 0.000000 
#    z 0.000000 0.000000 1.791030 
# 
# From -- ./inp_files/17046.got.cif
#   From: 2010.03.12/outbox.cif.g09.slc.cpg/sg49_9_cif.got.tgz:17046.got - 2010.04.14 03:58:27.
