data_PCOD8202947
_publ_section_title
;
Structure prediction by ZEFSAII (Michael W. Deem and Ramdas Pophale) SiO2 
 PCOD8202947
Probable space group: P C C M
;
_chemical_formula_sum "Si O2"
_cell_formula_units_Z 56
_cell_length_a 15.223501
_cell_length_b 20.912900
_cell_length_c 8.959488
_cell_angle_alpha 90.000000
_cell_angle_beta 90.000000
_cell_angle_gamma 90.000000
_cell_volume 2852.410280
_symmetry_space_group_name_H-M "P C C M"
_symmetry_group_IT_number 49
_symmetry_cell_setting 'orthorhombic'
loop_
_space_group_symop_operation_xyz
x,y,z
-x,-y,z
x,-y,1/2-z
-x,y,1/2-z
-x,-y,-z
x,y,-z
-x,y,1/2+z
x,-y,1/2+z
loop_
_atom_site_type_symbol
_atom_site_label
_atom_site_fract_x
_atom_site_fract_y
_atom_site_fract_z
Si Si1 0.186708 0.809617 0.334144
Si Si2 0.218816 0.318929 0.674967
Si Si3 0.415443 0.311679 0.673928
Si Si4 0.392891 0.184530 0.834590
Si Si5 0.612749 0.062402 0.832315
Si Si6 0.822073 0.064289 0.832011
Si Si7 0.091512 0.434111 0.323504
O O1 0.144883 0.805302 0.500000
O O2 0.171969 0.742149 0.250271
O O3 0.289267 0.820848 0.347097
O O4 0.143916 0.870573 0.249008
O O5 0.221786 0.303959 0.500000
O O6 0.318760 0.333856 0.731855
O O7 0.163161 0.381041 0.715290
O O8 0.500000 0.347492 0.750000
O O9 0.424601 0.323332 0.500000
O O10 0.422801 0.237420 0.716156
O O11 0.428459 0.119208 0.765331
O O12 0.432152 0.197956 0.000000
O O13 0.717573 0.064369 0.835044
O O14 0.577687 0.000000 0.750000
O O15 0.575858 0.065380 0.000000
O O16 0.856817 0.000000 0.750000
O O17 0.859769 0.064136 0.000000
O O18 0.124535 0.500000 0.250000
O O19 0.078987 0.443187 0.500000
O O20 0.000000 0.412781 0.250000
#
# Coordination Sequence:
#
# PCOD8202947 Si02
#       7
#     8   8   8   8   8   8   8
#     4   9  16  25  40  63  91 124 167 215 263 313
#     4   9  19  34  52  75 107 143 177 216 264 313
#     4  10  19  32  49  70  96 129 170 215 259 303
#     4   9  16  26  39  57  81 112 153 203 256 309
#     4   9  15  22  33  50  72 103 145 197 255 313
#     4   9  15  22  33  51  81 120 163 211 264 317
#     4  10  20  36  59  88 119 150 180 211 251 305
#
# _framework density 19.63252
#
# number of rings (size 3 to 8) (size 9 to 14) (size 15 to 20)
#    0.000    2.714    0.000    3.000    0.000    8.571 
#    0.000    0.000    0.000    0.857    0.000    6.000 
#    0.000    0.571    0.000    6.000    0.000    9.000 
#
# Total GULP energy -694025.545495 kJ/mol
# GULP energy per Si atom -12393.313312 kJ/mol
# Density = 1.958784 g / cm^3
# Si number density = 19.632520 Si / 1000 Ang^3
#
#
#
# Elastic Constant Matrix: (Units=GPa)
#
#
# Indices 1 2 3 4 5 6 
#
# 1 55.0496 58.2501 27.8052 0.0000 0.0000 0.0000
# 2 58.2501 126.3021 57.5889 0.0000 0.0000 0.0000
# 3 27.8052 57.5889 117.2989 0.0000 0.0000 0.0000
# 4 0.0000 0.0000 0.0000 27.7903 0.0000 0.0000
# 5 0.0000 0.0000 0.0000 0.0000 15.0543 0.0000
# 6 0.0000 0.0000 0.0000 0.0000 0.0000 -7.9778
#
#
#
# Elastic Compliance Matrix: (Units=1/GPa)
#
#
# Indices 1 2 3 4 5 6 
#
# 1 0.035501 -0.016152 -0.000486 0.000000 0.000000 0.000000
# 2 -0.016152 0.017550 -0.004787 0.000000 0.000000 0.000000
# 3 -0.000486 -0.004787 0.010991 0.000000 0.000000 0.000000
# 4 0.000000 0.000000 0.000000 0.035984 0.000000 0.000000
# 5 0.000000 0.000000 0.000000 0.000000 0.066426 0.000000
# 6 0.000000 0.000000 0.000000 0.000000 0.000000 -0.125348
#
#
# Mechanical properties :
#
#
# Convention : Reuss Voigt Hill
#
# Bulk Modulus (GPa) = 47.18710 65.10435 56.14573
# Shear Modulus (GPa) = 54.93471 17.30712 36.12091
#
# Velocity S-wave (km/s) = 5.29549 2.97232 4.29400
# Velocity P-wave (km/s) = 7.84073 6.70918 7.29692
#
# Compressibility (1/GPa) = 0.02119223
#
# Stress axis : x y z
#
# Youngs Moduli (GPa) = 28.16784 56.98166 90.98552
#
# Poissons Ratio (x) = 0.92035 0.04419
# Poissons Ratio (y) = 0.45496 0.43558
# Poissons Ratio (z) = 0.01368 0.27279
#
# Static dielectric constant tensor:
#      x y z
#    x 3.386220 0.000000 0.000000 
#    y 0.000000 3.421310 0.000000 
#    z 0.000000 0.000000 3.806340 
# 
# 
# High freq. dielectric constant tensor:
#      x y z
#    x 1.735600 0.000000 0.000000 
#    y 0.000000 1.739920 0.000000 
#    z 0.000000 0.000000 1.778430 
# 
# From -- ./inp_files/5151.got.cif
#   From: 2010.03.12/outbox.cif.g09.slc.cpg/sg49_3_cif.got.tgz:5151.got - 2010.04.14 03:58:27.
