data_PCOD8202003
_publ_section_title
;
Structure prediction by ZEFSAII (Michael W. Deem and Ramdas Pophale) SiO2 
 PCOD8202003
Probable space group: P N N N
;
_chemical_formula_sum "Si O2"
_cell_formula_units_Z 48
_cell_length_a 14.186892
_cell_length_b 9.303143
_cell_length_c 17.690820
_cell_angle_alpha 90.000000
_cell_angle_beta 90.000000
_cell_angle_gamma 90.000000
_cell_volume 2334.881923
_symmetry_space_group_name_H-M "P N N N"
_symmetry_group_IT_number 48
_space_group.IT_coordinate_system_code '2'
_symmetry_cell_setting 'orthorhombic'
loop_
_space_group_symop_operation_xyz
x,y,z
1/2-x,1/2-y,z
x,1/2-y,1/2-z
1/2-x,y,1/2-z
-x,-y,-z
1/2+x,1/2+y,-z
-x,1/2+y,1/2+z
1/2+x,-y,1/2+z
loop_
_atom_site_type_symbol
_atom_site_label
_atom_site_fract_x
_atom_site_fract_y
_atom_site_fract_z
Si Si1 0.961248 0.026982 0.636080
Si Si2 0.868509 0.068756 0.040552
Si Si3 0.087720 0.507967 0.307993
Si Si4 0.743778 0.416052 0.600657
Si Si5 0.985676 0.686751 0.427530
Si Si6 0.057726 0.735932 0.666380
O O1 0.861206 0.020676 0.593138
O O2 0.027130 0.145477 0.593374
O O3 0.929360 0.056006 0.722270
O O4 0.024030 0.884996 0.629512
O O5 0.858518 0.161382 0.117656
O O6 0.888459 0.902108 0.063886
O O7 0.780084 0.069451 0.985615
O O8 0.957647 0.151789 0.003791
O O9 0.196947 0.494255 0.336015
O O10 0.046637 0.635912 0.357002
O O11 0.036993 0.359270 0.327948
O O12 0.750000 0.250000 0.625386
O O13 0.101418 0.750000 0.750000
#
# Coordination Sequence:
#
# PCOD8202003 Si02
#       6
#     8   8   8   8   8   8
#     4  11  19  30  53  83 102 137 186 208 262 333
#     4   9  18  35  49  67 111 137 180 218 274 310
#     4   9  18  32  49  76 116 136 164 206 271 331
#     4  11  20  32  50  79 104 148 168 217 270 326
#     4   9  17  30  51  72  98 150 170 214 255 313
#     4   9  20  35  53  76 106 142 172 224 272 320
#
# _framework density 20.557786
#
# number of rings (size 3 to 8) (size 9 to 14) (size 15 to 20)
#    0.000    2.333    3.333    2.000    0.000    2.000 
#    0.000    2.500    0.000    0.500    0.000    0.000 
#    0.000    0.000    0.000    0.000    0.000    1.500 
#
# Total GULP energy -594672.432326 kJ/mol
# GULP energy per Si atom -12389.009007 kJ/mol
# Density = 2.051100 g / cm^3
# Si number density = 20.557786 Si / 1000 Ang^3
#
#
#
# Elastic Constant Matrix: (Units=GPa)
#
#
# Indices 1 2 3 4 5 6 
#
# 1 18.8673 8.4633 27.8791 0.0000 0.0000 0.0000
# 2 8.4633 103.5099 37.8826 0.0000 0.0000 0.0000
# 3 27.8791 37.8826 111.8796 0.0000 0.0000 0.0000
# 4 0.0000 0.0000 0.0000 35.4058 0.0000 0.0000
# 5 0.0000 0.0000 0.0000 0.0000 28.3877 0.0000
# 6 0.0000 0.0000 0.0000 0.0000 0.0000 12.3084
#
#
#
# Elastic Compliance Matrix: (Units=1/GPa)
#
#
# Indices 1 2 3 4 5 6 
#
# 1 0.083965 0.000904 -0.021229 0.000000 0.000000 0.000000
# 2 0.000904 0.011037 -0.003963 0.000000 0.000000 0.000000
# 3 -0.021229 -0.003963 0.015570 0.000000 0.000000 0.000000
# 4 0.000000 0.000000 0.000000 0.028244 0.000000 0.000000
# 5 0.000000 0.000000 0.000000 0.000000 0.035227 0.000000
# 6 0.000000 0.000000 0.000000 0.000000 0.000000 0.081246
#
#
# Mechanical properties :
#
#
# Convention : Reuss Voigt Hill
#
# Bulk Modulus (GPa) = 16.12974 42.52300 29.32637
# Shear Modulus (GPa) = 15.40689 25.88915 20.64802
#
# Velocity S-wave (km/s) = 2.74057 3.55256 3.17265
# Velocity P-wave (km/s) = 4.22816 6.12839 5.26472
#
# Compressibility (1/GPa) = 0.06199727
#
# Stress axis : x y z
#
# Youngs Moduli (GPa) = 11.90965 90.60283 64.22598
#
# Poissons Ratio (x) = -0.08193 1.36348
# Poissons Ratio (y) = -0.01077 0.25450
# Poissons Ratio (z) = 0.25283 0.35902
#
# Static dielectric constant tensor:
#      x y z
#    x 3.320490 0.000000 0.000000 
#    y 0.000000 3.765180 0.000000 
#    z 0.000000 0.000000 4.221630 
# 
# 
# High freq. dielectric constant tensor:
#      x y z
#    x 1.751880 0.000000 0.000000 
#    y 0.000000 1.800530 0.000000 
#    z 0.000000 0.000000 1.818980 
# 
# From -- ./inp_files/14154.got.cif
#   From: 2010.06.25/outbox.cif.g09.slc.cpg/sg48_8_cif.got.tgz:14154.got - 2010.06.26 18:06:46.
