data_PCOD8202884
_publ_section_title
;
Structure prediction by ZEFSAII (Michael W. Deem and Ramdas Pophale) SiO2 
 PCOD8202884
Probable space group: P C C M
;
_chemical_formula_sum "Si O2"
_cell_formula_units_Z 40
_cell_length_a 18.787369
_cell_length_b 13.691814
_cell_length_c 8.790587
_cell_angle_alpha 90.000000
_cell_angle_beta 90.000000
_cell_angle_gamma 90.000000
_cell_volume 2261.230489
_symmetry_space_group_name_H-M "P C C M"
_symmetry_group_IT_number 49
_symmetry_cell_setting 'orthorhombic'
loop_
_space_group_symop_operation_xyz
x,y,z
-x,-y,z
x,-y,1/2-z
-x,y,1/2-z
-x,-y,-z
x,y,-z
-x,y,1/2+z
x,-y,1/2+z
loop_
_atom_site_type_symbol
_atom_site_label
_atom_site_fract_x
_atom_site_fract_y
_atom_site_fract_z
Si Si1 0.348166 0.896397 0.680400
Si Si2 0.425953 0.717032 0.180214
Si Si3 0.072488 0.895897 0.178294
Si Si4 0.782627 0.202908 0.822216
Si Si5 0.711451 0.601510 0.676517
O O1 0.354047 0.899851 0.500000
O O2 0.404645 0.819779 0.746175
O O3 0.267779 0.869188 0.727758
O O4 0.369101 0.000000 0.750000
O O5 0.500000 0.680426 0.250000
O O6 0.367533 0.635696 0.225192
O O7 0.431413 0.730259 0.000000
O O8 0.135631 0.820579 0.215409
O O9 0.000000 0.852999 0.250000
O O10 0.091671 0.000000 0.250000
O O11 0.061571 0.910219 0.000000
O O12 0.767801 0.314902 0.774380
O O13 0.764488 0.187127 0.000000
O O14 0.733520 0.500000 0.750000
O O15 0.714893 0.583211 0.500000
#
# Coordination Sequence:
#
# PCOD8202884 Si02
#       5
#     8   8   8   8   8
#     4  11  21  33  51  74 100 133 170 206 246 296
#     4  10  21  37  53  73 101 130 164 207 251 298
#     4  10  19  31  49  74 106 138 169 202 242 289
#     4   9  19  35  52  73 102 134 167 209 251 292
#     4   9  19  35  54  75  99 126 162 207 254 300
#
# _framework density 17.689485999999999
#
# number of rings (size 3 to 8) (size 9 to 14) (size 15 to 20)
#    0.000    2.200    0.000    5.400    0.000    8.000 
#    0.000    4.000    0.000    0.600    0.000    4.200 
#    0.000    0.000    0.000    0.000    0.000    0.000 
#
# Total GULP energy -496045.234772 kJ/mol
# GULP energy per Si atom -12401.130869 kJ/mol
# Density = 1.764922 g / cm^3
# Si number density = 17.689486 Si / 1000 Ang^3
#
#
#
# Elastic Constant Matrix: (Units=GPa)
#
#
# Indices 1 2 3 4 5 6 
#
# 1 123.0892 45.4563 41.5587 0.0000 0.0000 0.0000
# 2 45.4563 101.4953 36.1388 0.0000 0.0000 0.0000
# 3 41.5587 36.1388 86.2992 0.0000 0.0000 0.0000
# 4 0.0000 0.0000 0.0000 30.2125 0.0000 0.0000
# 5 0.0000 0.0000 0.0000 0.0000 -19.5358 0.0000
# 6 0.0000 0.0000 0.0000 0.0000 0.0000 18.3631
#
#
#
# Elastic Compliance Matrix: (Units=1/GPa)
#
#
# Indices 1 2 3 4 5 6 
#
# 1 0.010642 -0.003457 -0.003677 0.000000 0.000000 0.000000
# 2 -0.003457 0.012702 -0.003654 0.000000 0.000000 0.000000
# 3 -0.003677 -0.003654 0.014889 0.000000 0.000000 0.000000
# 4 0.000000 0.000000 0.000000 0.033099 0.000000 0.000000
# 5 0.000000 0.000000 0.000000 0.000000 -0.051188 0.000000
# 6 0.000000 0.000000 0.000000 0.000000 0.000000 0.054457
#
#
# Mechanical properties :
#
#
# Convention : Reuss Voigt Hill
#
# Bulk Modulus (GPa) = 60.03896 61.91013 60.97454
# Shear Modulus (GPa) = 49.14934 18.32329 33.73631
#
# Velocity S-wave (km/s) = 5.27682 3.22192 4.37182
# Velocity P-wave (km/s) = 8.43449 6.99395 7.74777
#
# Compressibility (1/GPa) = 0.01665585
#
# Stress axis : x y z
#
# Youngs Moduli (GPa) = 93.96342 78.72679 67.16462
#
# Poissons Ratio (x) = 0.27216 0.24699
# Poissons Ratio (y) = 0.32483 0.24545
# Poissons Ratio (z) = 0.34554 0.28770
#
# Static dielectric constant tensor:
#      x y z
#    x 3.338990 0.000000 0.000000 
#    y 0.000000 3.301020 0.000000 
#    z 0.000000 0.000000 3.327540 
# 
# 
# High freq. dielectric constant tensor:
#      x y z
#    x 1.679140 0.000000 0.000000 
#    y 0.000000 1.672980 0.000000 
#    z 0.000000 0.000000 1.693820 
# 
# From -- ./inp_files/2672.got.cif
#   From: 2010.03.12/outbox.cif.g09.slc.cpg/sg49_2_cif.got.tgz:2672.got - 2010.04.14 03:58:27.
