data_PCOD8202645
_publ_section_title
;
Structure prediction by ZEFSAII (Michael W. Deem and Ramdas Pophale) SiO2 
 PCOD8202645
Probable space group: P C C M
;
_chemical_formula_sum "Si O2"
_cell_formula_units_Z 56
_cell_length_a 18.893555
_cell_length_b 18.523707
_cell_length_c 8.865273
_cell_angle_alpha 90.000000
_cell_angle_beta 90.000000
_cell_angle_gamma 90.000000
_cell_volume 3102.656516
_symmetry_space_group_name_H-M "P C C M"
_symmetry_group_IT_number 49
_symmetry_cell_setting 'orthorhombic'
loop_
_space_group_symop_operation_xyz
x,y,z
-x,-y,z
x,-y,1/2-z
-x,y,1/2-z
-x,-y,-z
x,y,-z
-x,y,1/2+z
x,-y,1/2+z
loop_
_atom_site_type_symbol
_atom_site_label
_atom_site_fract_x
_atom_site_fract_y
_atom_site_fract_z
Si Si1 0.787349 0.150022 0.176327
Si Si2 0.790144 0.425699 0.821521
Si Si3 0.424619 0.213832 0.176726
Si Si4 0.661338 0.073763 0.678415
Si Si5 0.073029 0.192256 0.823008
Si Si6 0.698351 0.709879 0.674204
Si Si7 0.926815 0.640223 0.822723
O O1 0.738645 0.089713 0.253931
O O2 0.864668 0.145336 0.249539
O O3 0.756036 0.228967 0.210208
O O4 0.792409 0.133347 0.000000
O O5 0.762555 0.500000 0.750000
O O6 0.731818 0.366130 0.777772
O O7 0.865428 0.406583 0.750868
O O8 0.798990 0.432164 0.000000
O O9 0.500000 0.225882 0.250000
O O10 0.392980 0.136585 0.227102
O O11 0.372283 0.277491 0.229239
O O12 0.433618 0.218480 0.000000
O O13 0.667196 0.066630 0.500000
O O14 0.631807 0.000000 0.750000
O O15 0.086025 0.276028 0.784479
O O16 0.000000 0.165498 0.750000
O O17 0.070504 0.177999 0.000000
O O18 0.676527 0.711506 0.500000
O O19 0.000000 0.613698 0.750000
O O20 0.928976 0.625832 0.000000
#
# Coordination Sequence:
#
# PCOD8202645 Si02
#       7
#     8   8   8   8   8   8   8
#     4  10  18  32  54  77 103 138 178 222 267 313
#     4  11  22  36  53  76 105 140 180 223 272 324
#     4  10  21  36  58  85 113 142 176 212 255 307
#     4  10  21  36  54  81 113 147 180 213 254 306
#     4  10  19  30  48  74 103 135 176 225 273 319
#     4   9  19  35  55  77 105 137 175 218 262 313
#     4  10  20  33  50  72 102 139 178 224 273 324
#
# _framework density 18.049050000000001
#
# number of rings (size 3 to 8) (size 9 to 14) (size 15 to 20)
#    0.000    2.000    1.429    2.571    0.000    5.143 
#    0.000    2.857    0.000    0.857    0.000    6.000 
#    0.000    0.000    0.000    0.000    0.000    0.000 
#
# Total GULP energy -694656.829901 kJ/mol
# GULP energy per Si atom -12404.586248 kJ/mol
# Density = 1.800797 g / cm^3
# Si number density = 18.049050 Si / 1000 Ang^3
#
#
#
# Elastic Constant Matrix: (Units=GPa)
#
#
# Indices 1 2 3 4 5 6 
#
# 1 130.7234 43.0072 52.1177 0.0000 0.0000 0.0000
# 2 43.0072 72.4759 34.0495 0.0000 0.0000 0.0000
# 3 52.1177 34.0495 83.0194 0.0000 0.0000 0.0000
# 4 0.0000 0.0000 0.0000 28.4207 0.0000 0.0000
# 5 0.0000 0.0000 0.0000 0.0000 32.6850 0.0000
# 6 0.0000 0.0000 0.0000 0.0000 0.0000 15.6565
#
#
#
# Elastic Compliance Matrix: (Units=1/GPa)
#
#
# Indices 1 2 3 4 5 6 
#
# 1 0.011110 -0.004107 -0.005290 0.000000 0.000000 0.000000
# 2 -0.004107 0.018609 -0.005054 0.000000 0.000000 0.000000
# 3 -0.005290 -0.005054 0.017439 0.000000 0.000000 0.000000
# 4 0.000000 0.000000 0.000000 0.035186 0.000000 0.000000
# 5 0.000000 0.000000 0.000000 0.000000 0.030595 0.000000
# 6 0.000000 0.000000 0.000000 0.000000 0.000000 0.063871
#
#
# Mechanical properties :
#
#
# Convention : Reuss Voigt Hill
#
# Bulk Modulus (GPa) = 54.77683 60.50749 57.64216
# Shear Modulus (GPa) = 23.60731 25.82206 24.71468
#
# Velocity S-wave (km/s) = 3.62049 3.78651 3.70443
# Velocity P-wave (km/s) = 6.92040 7.26041 7.09245
#
# Compressibility (1/GPa) = 0.01825589
#
# Stress axis : x y z
#
# Youngs Moduli (GPa) = 90.00774 53.73631 57.34223
#
# Poissons Ratio (x) = 0.22072 0.30334
# Poissons Ratio (y) = 0.36970 0.28980
# Poissons Ratio (z) = 0.47615 0.27158
#
# Static dielectric constant tensor:
#      x y z
#    x 3.283960 0.000000 0.000000 
#    y 0.000000 3.229010 0.000000 
#    z 0.000000 0.000000 3.390610 
# 
# 
# High freq. dielectric constant tensor:
#      x y z
#    x 1.694890 0.000000 0.000000 
#    y 0.000000 1.676030 0.000000 
#    z 0.000000 0.000000 1.714370 
# 
# From -- ./inp_files/4054.got.cif
#   From: 2010.03.12/outbox.cif.g09.slc.cpg/sg49_3_cif.got.tgz:4054.got - 2010.04.14 03:58:27.
