data_PCOD8202062
_publ_section_title
;
Structure prediction by ZEFSAII (Michael W. Deem and Ramdas Pophale) SiO2 
 PCOD8202062
Probable space group: P N N N
;
_chemical_formula_sum "Si O2"
_cell_formula_units_Z 40
_cell_length_a 4.969618
_cell_length_b 16.236150
_cell_length_c 23.450710
_cell_angle_alpha 90.000000
_cell_angle_beta 90.000000
_cell_angle_gamma 90.000000
_cell_volume 1892.178302
_symmetry_space_group_name_H-M "P N N N"
_symmetry_group_IT_number 48
_space_group.IT_coordinate_system_code '2'
_symmetry_cell_setting 'orthorhombic'
loop_
_space_group_symop_operation_xyz
x,y,z
1/2-x,1/2-y,z
x,1/2-y,1/2-z
1/2-x,y,1/2-z
-x,-y,-z
1/2+x,1/2+y,-z
-x,1/2+y,1/2+z
1/2+x,-y,1/2+z
loop_
_atom_site_type_symbol
_atom_site_label
_atom_site_fract_x
_atom_site_fract_y
_atom_site_fract_z
Si Si1 0.493756 0.486297 0.712165
Si Si2 0.304614 0.438074 0.401646
Si Si3 0.695144 0.342835 0.060582
Si Si4 0.164997 0.339090 0.863347
Si Si5 0.673784 0.117769 0.566387
O O1 0.750000 0.468925 0.750000
O O2 0.579140 0.548416 0.661913
O O3 0.405719 0.397261 0.689271
O O4 0.250000 0.524299 0.750000
O O5 0.523644 0.389512 0.437631
O O6 0.261454 0.522605 0.435644
O O7 0.029720 0.384879 0.399045
O O8 0.750000 0.250000 0.081086
O O9 0.597300 0.346556 0.995226
O O10 0.250000 0.250000 0.839751
O O11 0.407929 0.381753 0.896063
O O12 0.911443 0.327833 0.905753
#
# Coordination Sequence:
#
# PCOD8202062 Si02
#       5
#     8   8   8   8   8
#     4  11  23  42  64  85 113 160 212 258 306 350
#     4  11  23  41  62  89 122 159 206 248 291 363
#     4  12  23  38  63  95 128 158 194 245 302 359
#     4  11  22  38  60  93 130 160 198 245 292 356
#     4  11  22  39  62  91 129 170 196 225 292 370
#
# _framework density 21.139657
#
# number of rings (size 3 to 8) (size 9 to 14) (size 15 to 20)
#    0.000    0.800    0.000   10.800    0.000    0.400 
#    0.000    3.000    0.000    9.000    0.000    0.000 
#    0.000    0.000    0.000    0.000    0.000    0.000 
#
# Total GULP energy -496235.059997 kJ/mol
# GULP energy per Si atom -12405.876500 kJ/mol
# Density = 2.109154 g / cm^3
# Si number density = 21.139657 Si / 1000 Ang^3
#
#
#
# Elastic Constant Matrix: (Units=GPa)
#
#
# Indices 1 2 3 4 5 6 
#
# 1 135.8168 31.5410 31.7592 0.0000 0.0000 0.0000
# 2 31.5410 83.4794 29.1570 0.0000 0.0000 0.0000
# 3 31.7592 29.1570 82.0045 0.0000 0.0000 0.0000
# 4 0.0000 0.0000 0.0000 -31.2977 0.0000 0.0000
# 5 0.0000 0.0000 0.0000 0.0000 79.1856 0.0000
# 6 0.0000 0.0000 0.0000 0.0000 0.0000 37.8904
#
#
#
# Elastic Compliance Matrix: (Units=1/GPa)
#
#
# Indices 1 2 3 4 5 6 
#
# 1 0.008481 -0.002349 -0.002449 0.000000 0.000000 0.000000
# 2 -0.002349 0.014328 -0.004185 0.000000 0.000000 0.000000
# 3 -0.002449 -0.004185 0.014631 0.000000 0.000000 0.000000
# 4 0.000000 0.000000 0.000000 -0.031951 0.000000 0.000000
# 5 0.000000 0.000000 0.000000 0.000000 0.012629 0.000000
# 6 0.000000 0.000000 0.000000 0.000000 0.000000 0.026392
#
#
# Mechanical properties :
#
#
# Convention : Reuss Voigt Hill
#
# Bulk Modulus (GPa) = 51.35038 54.02393 52.68715
# Shear Modulus (GPa) = 72.49850 31.07856 51.78853
#
# Velocity S-wave (km/s) = 5.86255 3.83842 4.95494
# Velocity P-wave (km/s) = 8.37674 6.72724 7.59689
#
# Compressibility (1/GPa) = 0.01947405
#
# Stress axis : x y z
#
# Youngs Moduli (GPa) = 117.90885 69.79298 68.34807
#
# Poissons Ratio (x) = 0.16394 0.16742
# Poissons Ratio (y) = 0.27696 0.28602
# Poissons Ratio (z) = 0.28881 0.29206
#
# Static dielectric constant tensor:
#      x y z
#    x 4.040680 0.000000 0.000000 
#    y 0.000000 3.219890 0.000000 
#    z 0.000000 0.000000 4.716170 
# 
# 
# High freq. dielectric constant tensor:
#      x y z
#    x 1.857350 0.000000 0.000000 
#    y 0.000000 1.821340 0.000000 
#    z 0.000000 0.000000 1.815580 
# 
# From -- ./inp_files/24308.got.cif
#   From: 2010.06.25/outbox.cif.g09.slc.cpg/sg48_13_cif.got.tgz:24308.got - 2010.06.26 18:06:46.
