data_PCOD8202823
_publ_section_title
;
Structure prediction by ZEFSAII (Michael W. Deem and Ramdas Pophale) SiO2 
 PCOD8202823
Probable space group: P C C M
;
_chemical_formula_sum "Si O2"
_cell_formula_units_Z 64
_cell_length_a 31.580862
_cell_length_b 14.396373
_cell_length_c 8.761996
_cell_angle_alpha 90.000000
_cell_angle_beta 90.000000
_cell_angle_gamma 90.000000
_cell_volume 3983.640334
_symmetry_space_group_name_H-M "P C C M"
_symmetry_group_IT_number 49
_symmetry_cell_setting 'orthorhombic'
loop_
_space_group_symop_operation_xyz
x,y,z
-x,-y,z
x,-y,1/2-z
-x,y,1/2-z
-x,-y,-z
x,y,-z
-x,y,1/2+z
x,-y,1/2+z
loop_
_atom_site_type_symbol
_atom_site_label
_atom_site_fract_x
_atom_site_fract_y
_atom_site_fract_z
Si Si1 0.040953 0.897629 0.679462
Si Si2 0.300010 0.207808 0.320620
Si Si3 0.422202 0.593721 0.179911
Si Si4 0.776772 0.897512 0.180510
Si Si5 0.622294 0.100756 0.318797
Si Si6 0.131193 0.901018 0.676566
Si Si7 0.544388 0.790498 0.318423
Si Si8 0.326526 0.591698 0.822727
O O1 0.034195 0.903209 0.500000
O O2 0.086740 0.848754 0.721954
O O3 0.000000 0.843474 0.750000
O O4 0.042035 0.000000 0.750000
O O5 0.307285 0.188949 0.500000
O O6 0.255360 0.169306 0.266000
O O7 0.337746 0.162649 0.226162
O O8 0.299107 0.317563 0.283944
O O9 0.442680 0.500000 0.250000
O O10 0.447862 0.684225 0.234547
O O11 0.374198 0.605568 0.241023
O O12 0.423747 0.585226 0.000000
O O13 0.823673 0.852476 0.214530
O O14 0.772380 0.000000 0.250000
O O15 0.767121 0.901845 0.000000
O O16 0.618404 0.095031 0.500000
O O17 0.579875 0.142949 0.249287
O O18 0.630117 0.000000 0.250000
O O19 0.128978 0.921779 0.500000
O O20 0.132456 0.000000 0.750000
O O21 0.500000 0.824249 0.250000
O O22 0.544783 0.800177 0.500000
O O23 0.305174 0.500000 0.750000
O O24 0.328837 0.573607 0.000000
#
# Coordination Sequence:
#
# PCOD8202823 Si02
#       8
#     8   8   8   8   8   8   8   8
#     4   9  14  20  30  46  67  97 136 184 232 274
#     4  11  21  36  54  75 101 125 152 190 230 271
#     4   9  18  34  55  78 105 131 154 184 220 263
#     4  10  19  31  45  65  90 122 160 197 236 279
#     4  12  25  41  60  79  98 126 158 193 231 269
#     4   8  15  25  36  50  75 107 144 188 233 274
#     4  11  23  41  59  80 106 130 158 190 225 267
#     4   9  18  33  53  76 100 125 149 181 221 264
#
# _framework density 16.065708000000001
#
# number of rings (size 3 to 8) (size 9 to 14) (size 15 to 20)
#    0.000    2.125    1.250    3.375    0.000    3.500 
#    0.000    2.500    0.000    0.000    0.000    0.000 
#    0.000    0.000    0.000    0.000    0.000    0.625 
#
# Total GULP energy -792994.415272 kJ/mol
# GULP energy per Si atom -12390.537739 kJ/mol
# Density = 1.602914 g / cm^3
# Si number density = 16.065708 Si / 1000 Ang^3
#
#
#
# Elastic Constant Matrix: (Units=GPa)
#
#
# Indices 1 2 3 4 5 6 
#
# 1 124.6589 35.4929 35.4561 0.0000 0.0000 0.0000
# 2 35.4929 69.9927 30.7807 0.0000 0.0000 0.0000
# 3 35.4561 30.7807 67.4549 0.0000 0.0000 0.0000
# 4 0.0000 0.0000 0.0000 22.9937 0.0000 0.0000
# 5 0.0000 0.0000 0.0000 0.0000 23.3482 0.0000
# 6 0.0000 0.0000 0.0000 0.0000 0.0000 -1.1146
#
#
#
# Elastic Compliance Matrix: (Units=1/GPa)
#
#
# Indices 1 2 3 4 5 6 
#
# 1 0.010065 -0.003475 -0.003705 0.000000 0.000000 0.000000
# 2 -0.003475 0.019074 -0.006877 0.000000 0.000000 0.000000
# 3 -0.003705 -0.006877 0.019910 0.000000 0.000000 0.000000
# 4 0.000000 0.000000 0.000000 0.043490 0.000000 0.000000
# 5 0.000000 0.000000 0.000000 0.000000 0.042830 0.000000
# 6 0.000000 0.000000 0.000000 0.000000 0.000000 -0.897205
#
#
# Mechanical properties :
#
#
# Convention : Reuss Voigt Hill
#
# Bulk Modulus (GPa) = 47.76602 51.72955 49.74779
# Shear Modulus (GPa) = -6.88000 19.73724 6.42862
#
# Velocity S-wave (km/s) = -2.07164 3.50885 2.00253
# Velocity P-wave (km/s) = 4.90652 6.97744 6.03152
#
# Compressibility (1/GPa) = 0.02093538
#
# Stress axis : x y z
#
# Youngs Moduli (GPa) = 99.35493 52.42862 50.22529
#
# Poissons Ratio (x) = 0.18217 0.18608
# Poissons Ratio (y) = 0.34522 0.34541
# Poissons Ratio (z) = 0.36810 0.36056
#
# Static dielectric constant tensor:
#      x y z
#    x 3.705930 0.000000 0.000000 
#    y 0.000000 2.876140 0.000000 
#    z 0.000000 0.000000 3.113700 
# 
# 
# High freq. dielectric constant tensor:
#      x y z
#    x 1.621720 0.000000 0.000000 
#    y 0.000000 1.573400 0.000000 
#    z 0.000000 0.000000 1.631130 
# 
# From -- ./inp_files/7062.got.cif
#   From: 2010.03.12/outbox.cif.g09.slc.cpg/sg49_4_cif.got.tgz:7062.got - 2010.04.14 03:58:27.
