data_PCOD8202787
_publ_section_title
;
Structure prediction by ZEFSAII (Michael W. Deem and Ramdas Pophale) SiO2 
 PCOD8202787
Probable space group: P C C M
;
_chemical_formula_sum "Si O2"
_cell_formula_units_Z 64
_cell_length_a 19.220167
_cell_length_b 23.614887
_cell_length_c 8.886218
_cell_angle_alpha 90.000000
_cell_angle_beta 90.000000
_cell_angle_gamma 90.000000
_cell_volume 4033.295037
_symmetry_space_group_name_H-M "P C C M"
_symmetry_group_IT_number 49
_symmetry_cell_setting 'orthorhombic'
loop_
_space_group_symop_operation_xyz
x,y,z
-x,-y,z
x,-y,1/2-z
-x,y,1/2-z
-x,-y,-z
x,y,-z
-x,y,1/2+z
x,-y,1/2+z
loop_
_atom_site_type_symbol
_atom_site_label
_atom_site_fract_x
_atom_site_fract_y
_atom_site_fract_z
Si Si1 0.426198 0.557592 0.177375
Si Si2 0.647969 0.328609 0.175823
Si Si3 0.425804 0.776047 0.678458
Si Si4 0.789264 0.940572 0.677509
Si Si5 0.303842 0.163177 0.677767
Si Si6 0.930792 0.753114 0.323811
Si Si7 0.930175 0.884200 0.676722
Si Si8 0.217112 0.269536 0.323617
O O1 0.396330 0.500000 0.250000
O O2 0.500000 0.573251 0.250000
O O3 0.372236 0.607354 0.216110
O O4 0.436033 0.549309 0.000000
O O5 0.601104 0.285450 0.269554
O O6 0.729902 0.320638 0.217323
O O7 0.635385 0.315195 0.000000
O O8 0.500000 0.788234 0.750000
O O9 0.431355 0.776610 0.500000
O O10 0.375761 0.826614 0.734595
O O11 0.793760 0.947164 0.500000
O O12 0.727483 0.897554 0.721612
O O13 0.863215 0.917803 0.739731
O O14 0.770024 0.000000 0.750000
O O15 0.317556 0.168895 0.500000
O O16 0.249633 0.210766 0.734743
O O17 0.939432 0.744856 0.500000
O O18 0.922151 0.818664 0.278592
O O19 0.861182 0.721559 0.258995
O O20 0.000000 0.726625 0.250000
O O21 0.936202 0.891631 0.500000
O O22 0.000000 0.909998 0.750000
O O23 0.207074 0.263235 0.500000
#
# Coordination Sequence:
#
# PCOD8202787 Si02
#       8
#     8   8   8   8   8   8   8   8
#     4  10  19  30  45  65  91 127 164 193 223 259
#     4   9  18  31  48  69  93 124 159 191 224 265
#     4  11  21  32  49  73  96 118 144 180 225 268
#     4  10  20  33  49  66  87 116 150 185 226 271
#     4   9  17  33  51  65  86 116 147 180 222 274
#     4   9  15  25  42  62  85 115 147 178 217 266
#     4   9  17  29  44  63  85 116 150 182 220 262
#     4   8  13  26  47  64  83 114 149 182 220 268
#
# _framework density 15.86792
#
# number of rings (size 3 to 8) (size 9 to 14) (size 15 to 20)
#    0.000    2.625    1.250    3.000    0.000    3.250 
#    0.000    3.750    0.000    0.375    0.000    2.625 
#    0.000    0.500    0.000    6.250    0.000    0.000 
#
# Total GULP energy -793296.705716 kJ/mol
# GULP energy per Si atom -12395.261027 kJ/mol
# Density = 1.583180 g / cm^3
# Si number density = 15.867920 Si / 1000 Ang^3
#
#
#
# Elastic Constant Matrix: (Units=GPa)
#
#
# Indices 1 2 3 4 5 6 
#
# 1 155.9485 68.4337 47.4700 0.0000 0.0000 0.0000
# 2 68.4337 96.0882 37.3358 0.0000 0.0000 0.0000
# 3 47.4700 37.3358 56.2431 0.0000 0.0000 0.0000
# 4 0.0000 0.0000 0.0000 2.6211 0.0000 0.0000
# 5 0.0000 0.0000 0.0000 0.0000 22.9915 0.0000
# 6 0.0000 0.0000 0.0000 0.0000 0.0000 24.7979
#
#
#
# Elastic Compliance Matrix: (Units=1/GPa)
#
#
# Indices 1 2 3 4 5 6 
#
# 1 0.010334 -0.005351 -0.005170 0.000000 0.000000 0.000000
# 2 -0.005351 0.016795 -0.006633 0.000000 0.000000 0.000000
# 3 -0.005170 -0.006633 0.026547 0.000000 0.000000 0.000000
# 4 0.000000 0.000000 0.000000 0.381516 0.000000 0.000000
# 5 0.000000 0.000000 0.000000 0.000000 0.043494 0.000000
# 6 0.000000 0.000000 0.000000 0.000000 0.000000 0.040326
#
#
# Mechanical properties :
#
#
# Convention : Reuss Voigt Hill
#
# Bulk Modulus (GPa) = 51.63085 68.30653 59.96869
# Shear Modulus (GPa) = 8.93212 20.41811 14.67512
#
# Velocity S-wave (km/s) = 2.37513 3.59103 3.04440
# Velocity P-wave (km/s) = 6.33484 7.76752 7.08747
#
# Compressibility (1/GPa) = 0.01936827
#
# Stress axis : x y z
#
# Youngs Moduli (GPa) = 96.76468 59.53987 37.66955
#
# Poissons Ratio (x) = 0.31861 0.19475
# Poissons Ratio (y) = 0.51781 0.24986
# Poissons Ratio (z) = 0.50028 0.39492
#
# Static dielectric constant tensor:
#      x y z
#    x 3.313940 0.000000 0.000000 
#    y 0.000000 2.866020 0.000000 
#    z 0.000000 0.000000 2.889100 
# 
# 
# High freq. dielectric constant tensor:
#      x y z
#    x 1.614160 0.000000 0.000000 
#    y 0.000000 1.575680 0.000000 
#    z 0.000000 0.000000 1.598790 
# 
# From -- ./inp_files/6120.got.cif
#   From: 2010.03.12/outbox.cif.g09.slc.cpg/sg49_4_cif.got.tgz:6120.got - 2010.04.14 03:58:27.
