data_PCOD8202767
_publ_section_title
;
Structure prediction by ZEFSAII (Michael W. Deem and Ramdas Pophale) SiO2 
 PCOD8202767
Probable space group: P C C M
;
_chemical_formula_sum "Si O2"
_cell_formula_units_Z 64
_cell_length_a 19.556599
_cell_length_b 19.451908
_cell_length_c 9.188041
_cell_angle_alpha 90.000000
_cell_angle_beta 90.000000
_cell_angle_gamma 90.000000
_cell_volume 3495.251753
_symmetry_space_group_name_H-M "P C C M"
_symmetry_group_IT_number 49
_symmetry_cell_setting 'orthorhombic'
loop_
_space_group_symop_operation_xyz
x,y,z
-x,-y,z
x,-y,1/2-z
-x,y,1/2-z
-x,-y,-z
x,y,-z
-x,y,1/2+z
x,-y,1/2+z
loop_
_atom_site_type_symbol
_atom_site_label
_atom_site_fract_x
_atom_site_fract_y
_atom_site_fract_z
Si Si1 0.428656 0.681456 0.170599
Si Si2 0.844385 0.064587 0.337397
Si Si3 0.062758 0.147501 0.339146
Si Si4 0.324641 0.780404 0.324626
Si Si5 0.682103 0.570237 0.665193
Si Si6 0.063459 0.691496 0.840082
Si Si7 0.682756 0.935166 0.839017
Si Si8 0.782985 0.311019 0.173870
O O1 0.500000 0.671860 0.250000
O O2 0.387997 0.741038 0.253606
O O3 0.389363 0.609456 0.187684
O O4 0.437039 0.700704 0.000000
O O5 0.874662 0.066341 0.500000
O O6 0.867796 0.132364 0.249743
O O7 0.763766 0.060728 0.342470
O O8 0.875273 0.000000 0.250000
O O9 0.066885 0.114706 0.500000
O O10 0.052050 0.227978 0.352960
O O11 0.000000 0.114067 0.250000
O O12 0.322797 0.772610 0.500000
O O13 0.336145 0.859899 0.276941
O O14 0.253280 0.752137 0.258127
O O15 0.681974 0.500000 0.750000
O O16 0.693537 0.549598 0.500000
O O17 0.743746 0.619299 0.716887
O O18 0.138847 0.678929 0.771495
O O19 0.000000 0.658743 0.750000
O O20 0.060867 0.657461 0.000000
O O21 0.652193 0.000000 0.750000
O O22 0.652088 0.942902 0.000000
O O23 0.779458 0.295942 0.000000
#
# Coordination Sequence:
#
# PCOD8202767 Si02
#       8
#     8   8   8   8   8   8   8   8
#     4  10  21  37  56  81 111 144 176 209 248 295
#     4  10  19  31  44  60  83 112 148 192 239 293
#     4  10  19  30  43  60  81 110 146 189 242 299
#     4  10  19  32  52  79 106 135 173 216 257 305
#     4   9  19  34  53  78 109 141 175 209 247 294
#     4   9  18  31  48  69  95 124 160 207 258 307
#     4   9  19  32  48  71  98 127 162 205 254 302
#     4   9  18  33  51  74 103 137 173 213 260 311
#
# _framework density 18.310555000000001
#
# number of rings (size 3 to 8) (size 9 to 14) (size 15 to 20)
#    0.000    2.500    0.000    3.000    0.000    5.500 
#    0.000    2.500    0.000    0.750    0.000    5.250 
#    0.000    0.000    0.000    0.000    0.000    0.000 
#
# Total GULP energy -793222.662302 kJ/mol
# GULP energy per Si atom -12394.104098 kJ/mol
# Density = 1.826888 g / cm^3
# Si number density = 18.310555 Si / 1000 Ang^3
#
#
#
# Elastic Constant Matrix: (Units=GPa)
#
#
# Indices 1 2 3 4 5 6 
#
# 1 94.8471 23.1711 36.6939 0.0000 0.0000 0.0000
# 2 23.1711 99.7828 46.7000 0.0000 0.0000 0.0000
# 3 36.6939 46.7000 104.8913 0.0000 0.0000 0.0000
# 4 0.0000 0.0000 0.0000 28.6772 0.0000 0.0000
# 5 0.0000 0.0000 0.0000 0.0000 27.5274 0.0000
# 6 0.0000 0.0000 0.0000 0.0000 0.0000 14.8498
#
#
#
# Elastic Compliance Matrix: (Units=1/GPa)
#
#
# Indices 1 2 3 4 5 6 
#
# 1 0.012282 -0.001063 -0.003824 0.000000 0.000000 0.000000
# 2 -0.001063 0.012752 -0.005306 0.000000 0.000000 0.000000
# 3 -0.003824 -0.005306 0.013233 0.000000 0.000000 0.000000
# 4 0.000000 0.000000 0.000000 0.034871 0.000000 0.000000
# 5 0.000000 0.000000 0.000000 0.000000 0.036327 0.000000
# 6 0.000000 0.000000 0.000000 0.000000 0.000000 0.067341
#
#
# Mechanical properties :
#
#
# Convention : Reuss Voigt Hill
#
# Bulk Modulus (GPa) = 55.91682 56.96124 56.43903
# Shear Modulus (GPa) = 24.61221 27.07462 25.84342
#
# Velocity S-wave (km/s) = 3.67025 3.84947 3.76093
# Velocity P-wave (km/s) = 6.96888 7.13680 7.05334
#
# Compressibility (1/GPa) = 0.01788371
#
# Stress axis : x y z
#
# Youngs Moduli (GPa) = 81.41926 78.42139 75.56633
#
# Poissons Ratio (x) = 0.08333 0.28893
# Poissons Ratio (y) = 0.08652 0.40092
# Poissons Ratio (z) = 0.31131 0.41607
#
# Static dielectric constant tensor:
#      x y z
#    x 3.324850 0.000000 0.000000 
#    y 0.000000 3.215640 0.000000 
#    z 0.000000 0.000000 3.723480 
# 
# 
# High freq. dielectric constant tensor:
#      x y z
#    x 1.696150 0.000000 0.000000 
#    y 0.000000 1.688850 0.000000 
#    z 0.000000 0.000000 1.718370 
# 
# From -- ./inp_files/6017.got.cif
#   From: 2010.03.12/outbox.cif.g09.slc.cpg/sg49_4_cif.got.tgz:6017.got - 2010.04.14 03:58:27.
