data_PCOD8202384
_publ_section_title
;
Structure prediction by ZEFSAII (Michael W. Deem and Ramdas Pophale) SiO2 
 PCOD8202384
Probable space group: P C C M
;
_chemical_formula_sum "Si O2"
_cell_formula_units_Z 40
_cell_length_a 26.357521
_cell_length_b 9.322593
_cell_length_c 8.616507
_cell_angle_alpha 90.000000
_cell_angle_beta 90.000000
_cell_angle_gamma 90.000000
_cell_volume 2117.251898
_symmetry_space_group_name_H-M "P C C M"
_symmetry_group_IT_number 49
_symmetry_cell_setting 'orthorhombic'
loop_
_space_group_symop_operation_xyz
x,y,z
-x,-y,z
x,-y,1/2-z
-x,y,1/2-z
-x,-y,-z
x,y,-z
-x,y,1/2+z
x,-y,1/2+z
loop_
_atom_site_type_symbol
_atom_site_label
_atom_site_fract_x
_atom_site_fract_y
_atom_site_fract_z
Si Si1 0.549355 0.657897 0.181728
Si Si2 0.660189 0.656405 0.817884
Si Si3 0.245380 0.841690 0.684699
Si Si4 0.050778 0.659906 0.315558
Si Si5 0.845694 0.341330 0.815874
O O1 0.548507 0.500000 0.250000
O O2 0.500000 0.743604 0.250000
O O3 0.604613 0.722031 0.228541
O O4 0.542606 0.652092 0.000000
O O5 0.670481 0.500000 0.750000
O O6 0.702711 0.766222 0.759350
O O7 0.663410 0.636277 0.000000
O O8 0.239170 0.841273 0.500000
O O9 0.199371 0.759314 0.762896
O O10 0.246496 0.000000 0.750000
O O11 0.050675 0.500000 0.250000
O O12 0.050309 0.661081 0.500000
O O13 0.102470 0.730682 0.251125
O O14 0.000000 0.739107 0.250000
O O15 0.836526 0.500000 0.750000
O O16 0.848904 0.349949 0.000000
#
# Coordination Sequence:
#
# PCOD8202384 Si02
#       5
#     8   8   8   8   8
#     4   9  15  25  42  69 100 130 160 200 248 300
#     4   9  19  33  52  76 104 133 169 211 256 306
#     4  11  23  39  55  75 102 137 176 219 266 316
#     4  10  17  28  47  75 108 140 172 212 258 307
#     4  11  21  35  55  81 109 140 176 218 261 309
#
# _framework density 18.892416000000001
#
# number of rings (size 3 to 8) (size 9 to 14) (size 15 to 20)
#    0.000    2.000    0.000    7.800    0.000    4.000 
#    0.000    0.000    0.000    1.200    0.000    8.400 
#    0.000    0.000    0.000    0.000    0.000    0.000 
#
# Total GULP energy -495674.512451 kJ/mol
# GULP energy per Si atom -12391.862811 kJ/mol
# Density = 1.884942 g / cm^3
# Si number density = 18.892416 Si / 1000 Ang^3
#
#
#
# Elastic Constant Matrix: (Units=GPa)
#
#
# Indices 1 2 3 4 5 6 
#
# 1 226.6524 68.7644 79.0508 0.0000 0.0000 0.0000
# 2 68.7644 73.2319 35.0635 0.0000 0.0000 0.0000
# 3 79.0508 35.0635 132.9618 0.0000 0.0000 0.0000
# 4 0.0000 0.0000 0.0000 18.8863 0.0000 0.0000
# 5 0.0000 0.0000 0.0000 0.0000 33.5635 0.0000
# 6 0.0000 0.0000 0.0000 0.0000 0.0000 118.5395
#
#
#
# Elastic Compliance Matrix: (Units=1/GPa)
#
#
# Indices 1 2 3 4 5 6 
#
# 1 0.006956 -0.005209 -0.002762 0.000000 0.000000 0.000000
# 2 -0.005209 0.019530 -0.002053 0.000000 0.000000 0.000000
# 3 -0.002762 -0.002053 0.009704 0.000000 0.000000 0.000000
# 4 0.000000 0.000000 0.000000 0.052948 0.000000 0.000000
# 5 0.000000 0.000000 0.000000 0.000000 0.029794 0.000000
# 6 0.000000 0.000000 0.000000 0.000000 0.000000 0.008436
#
#
# Mechanical properties :
#
#
# Convention : Reuss Voigt Hill
#
# Bulk Modulus (GPa) = 61.95141 88.73374 75.34258
# Shear Modulus (GPa) = 32.72323 50.86235 41.79279
#
# Velocity S-wave (km/s) = 4.16635 5.19428 4.70845
# Velocity P-wave (km/s) = 7.48381 9.11284 8.33821
#
# Compressibility (1/GPa) = 0.01614168
#
# Stress axis : x y z
#
# Youngs Moduli (GPa) = 143.76861 51.20448 103.04645
#
# Poissons Ratio (x) = 0.26672 0.28458
# Poissons Ratio (y) = 0.74889 0.21158
# Poissons Ratio (z) = 0.39705 0.10513
#
# Static dielectric constant tensor:
#      x y z
#    x 5.469810 0.000000 0.000000 
#    y 0.000000 2.959330 0.000000 
#    z 0.000000 0.000000 3.605270 
# 
# 
# High freq. dielectric constant tensor:
#      x y z
#    x 1.773840 0.000000 0.000000 
#    y 0.000000 1.666570 0.000000 
#    z 0.000000 0.000000 1.750160 
# 
# From -- ./inp_files/1933.got.cif
#   From: 2010.03.12/outbox.cif.g09.slc.cpg/sg49_1_cif.got.tgz:1933.got - 2010.04.14 03:58:27.
