data_PCOD8202855
_publ_section_title
;
Structure prediction by ZEFSAII (Michael W. Deem and Ramdas Pophale) SiO2 
 PCOD8202855
Probable space group: P C C M
;
_chemical_formula_sum "Si O2"
_cell_formula_units_Z 56
_cell_length_a 14.922370
_cell_length_b 20.646422
_cell_length_c 9.050217
_cell_angle_alpha 90.000000
_cell_angle_beta 90.000000
_cell_angle_gamma 90.000000
_cell_volume 2788.313468
_symmetry_space_group_name_H-M "P C C M"
_symmetry_group_IT_number 49
_symmetry_cell_setting 'orthorhombic'
loop_
_space_group_symop_operation_xyz
x,y,z
-x,-y,z
x,-y,1/2-z
-x,y,1/2-z
-x,-y,-z
x,y,-z
-x,y,1/2+z
x,-y,1/2+z
loop_
_atom_site_type_symbol
_atom_site_label
_atom_site_fract_x
_atom_site_fract_y
_atom_site_fract_z
Si Si1 0.914119 0.225533 0.336520
Si Si2 0.734934 0.938282 0.673353
Si Si3 0.719666 0.431747 0.172039
Si Si4 0.917458 0.569013 0.671951
Si Si5 0.083580 0.074697 0.836052
Si Si6 0.268351 0.792882 0.826400
Si Si7 0.595014 0.316815 0.825961
O O1 0.908080 0.257810 0.500000
O O2 0.931134 0.150239 0.356624
O O3 0.820528 0.235208 0.250985
O O4 0.000000 0.255981 0.250000
O O5 0.725538 0.947811 0.500000
O O6 0.836594 0.942441 0.725956
O O7 0.702111 0.866099 0.721693
O O8 0.683167 0.000000 0.750000
O O9 0.703848 0.500000 0.250000
O O10 0.818975 0.400453 0.199211
O O11 0.648338 0.379890 0.232039
O O12 0.706308 0.445116 0.000000
O O13 0.913688 0.500000 0.750000
O O14 0.938793 0.561705 0.500000
O O15 0.000000 0.608641 0.750000
O O16 0.000000 0.044018 0.750000
O O17 0.097494 0.043942 0.000000
O O18 0.350873 0.747517 0.781536
O O19 0.247368 0.791126 0.000000
O O20 0.500000 0.314001 0.750000
O O21 0.581523 0.320770 0.000000
#
# Coordination Sequence:
#
# PCOD8202855 Si02
#       7
#     8   8   8   8   8   8   8
#     4   9  16  27  47  74 105 141 181 222 266 316
#     4  10  19  31  48  71  97 129 168 213 265 318
#     4   9  19  35  56  83 117 151 183 221 266 312
#     4   9  15  25  44  72 106 145 182 216 253 296
#     4   9  16  26  40  62  94 132 173 216 259 308
#     4   9  19  36  56  76 105 142 179 221 271 323
#     4  10  22  41  62  84 109 140 178 224 276 331
#
# _framework density 20.083825999999998
#
# number of rings (size 3 to 8) (size 9 to 14) (size 15 to 20)
#    0.000    2.714    0.000    2.143    0.000    6.286 
#    0.000    3.571    0.000    2.143    0.000    3.000 
#    0.000    0.000    0.000    0.000    0.000    0.000 
#
# Total GULP energy -693787.760718 kJ/mol
# GULP energy per Si atom -12389.067156 kJ/mol
# Density = 2.003811 g / cm^3
# Si number density = 20.083826 Si / 1000 Ang^3
#
#
#
# Elastic Constant Matrix: (Units=GPa)
#
#
# Indices 1 2 3 4 5 6 
#
# 1 146.1422 67.1331 56.1777 0.0000 0.0000 0.0000
# 2 67.1331 109.1509 40.1692 0.0000 0.0000 0.0000
# 3 56.1777 40.1692 89.5667 0.0000 0.0000 0.0000
# 4 0.0000 0.0000 0.0000 21.2437 0.0000 0.0000
# 5 0.0000 0.0000 0.0000 0.0000 28.0226 0.0000
# 6 0.0000 0.0000 0.0000 0.0000 0.0000 86.8811
#
#
#
# Elastic Compliance Matrix: (Units=1/GPa)
#
#
# Indices 1 2 3 4 5 6 
#
# 1 0.010916 -0.005023 -0.004594 0.000000 0.000000 0.000000
# 2 -0.005023 0.013284 -0.002807 0.000000 0.000000 0.000000
# 3 -0.004594 -0.002807 0.015305 0.000000 0.000000 0.000000
# 4 0.000000 0.000000 0.000000 0.047073 0.000000 0.000000
# 5 0.000000 0.000000 0.000000 0.000000 0.035685 0.000000
# 6 0.000000 0.000000 0.000000 0.000000 0.000000 0.011510
#
#
# Mechanical properties :
#
#
# Convention : Reuss Voigt Hill
#
# Bulk Modulus (GPa) = 68.22690 74.64664 71.43677
# Shear Modulus (GPa) = 30.57954 39.32146 34.95050
#
# Velocity S-wave (km/s) = 3.90628 4.42958 4.17613
# Velocity P-wave (km/s) = 7.37497 7.96303 7.67463
#
# Compressibility (1/GPa) = 0.01465698
#
# Stress axis : x y z
#
# Youngs Moduli (GPa) = 91.60764 75.27711 65.33754
#
# Poissons Ratio (x) = 0.37814 0.30015
# Poissons Ratio (y) = 0.46017 0.18341
# Poissons Ratio (z) = 0.42084 0.21131
#
# Static dielectric constant tensor:
#      x y z
#    x 3.779140 0.000000 0.000000 
#    y 0.000000 3.907390 0.000000 
#    z 0.000000 0.000000 3.665630 
# 
# 
# High freq. dielectric constant tensor:
#      x y z
#    x 1.752210 0.000000 0.000000 
#    y 0.000000 1.784970 0.000000 
#    z 0.000000 0.000000 1.787880 
# 
# From -- ./inp_files/4097.got.cif
#   From: 2010.03.12/outbox.cif.g09.slc.cpg/sg49_3_cif.got.tgz:4097.got - 2010.04.14 03:58:27.
