data_PCOD8202109
_publ_section_title
;
Structure prediction by ZEFSAII (Michael W. Deem and Ramdas Pophale) SiO2 
 PCOD8202109
Probable space group: P N N N
;
_chemical_formula_sum "Si O2"
_cell_formula_units_Z 56
_cell_length_a 13.848871
_cell_length_b 11.994969
_cell_length_c 16.026678
_cell_angle_alpha 90.000000
_cell_angle_beta 90.000000
_cell_angle_gamma 90.000000
_cell_volume 2662.300117
_symmetry_space_group_name_H-M "P N N N"
_symmetry_group_IT_number 48
_space_group.IT_coordinate_system_code '2'
_symmetry_cell_setting 'orthorhombic'
loop_
_space_group_symop_operation_xyz
x,y,z
1/2-x,1/2-y,z
x,1/2-y,1/2-z
1/2-x,y,1/2-z
-x,-y,-z
1/2+x,1/2+y,-z
-x,1/2+y,1/2+z
1/2+x,-y,1/2+z
loop_
_atom_site_type_symbol
_atom_site_label
_atom_site_fract_x
_atom_site_fract_y
_atom_site_fract_z
Si Si1 0.962259 0.624033 0.272719
Si Si2 0.666930 0.170220 0.514388
Si Si3 0.002076 0.678045 0.975515
Si Si4 0.896726 0.974851 0.394201
Si Si5 0.830659 0.451593 0.679438
Si Si6 0.658773 0.822312 0.589057
Si Si7 0.324488 0.453053 0.919818
O O1 0.935611 0.750000 0.250000
O O2 0.942544 0.543199 0.195593
O O3 0.897729 0.589606 0.350757
O O4 0.074680 0.612321 0.291369
O O5 0.750000 0.250000 0.478142
O O6 0.568227 0.238124 0.529682
O O7 0.708622 0.114225 0.598570
O O8 0.640550 0.075030 0.447907
O O9 0.072806 0.597251 0.924363
O O10 0.936452 0.745130 0.909390
O O11 0.932866 0.614663 0.038938
O O12 0.782665 0.962838 0.383696
O O13 0.750000 0.445789 0.750000
O O14 0.854841 0.578861 0.655730
O O15 0.750000 0.750000 0.617837
O O16 0.674772 0.867334 0.496013
#
# Coordination Sequence:
#
# PCOD8202109 Si02
#       7
#     8   8   8   8   8   8   8
#     4  12  27  43  67 100 142 180 217 290 353 391
#     4  11  23  43  72  94 130 182 220 281 338 406
#     4  11  23  42  71  98 134 184 233 276 338 410
#     4  11  24  40  69 101 135 173 235 281 333 415
#     4  11  28  43  65 103 139 174 231 280 340 419
#     4  11  23  43  71  95 132 183 226 280 336 406
#     4  11  23  45  67 104 130 174 237 277 335 414
#
# _framework density 21.034441999999999
#
# number of rings (size 3 to 8) (size 9 to 14) (size 15 to 20)
#    0.000    0.857    2.857    3.857    6.000    3.143 
#    0.000    2.143    0.000    0.000    0.000    0.000 
#    0.000    0.000    0.000    0.000    0.000    0.000 
#
# Total GULP energy -694739.654673 kJ/mol
# GULP energy per Si atom -12406.065262 kJ/mol
# Density = 2.098657 g / cm^3
# Si number density = 21.034442 Si / 1000 Ang^3
#
#
#
# Elastic Constant Matrix: (Units=GPa)
#
#
# Indices 1 2 3 4 5 6 
#
# 1 131.3846 46.2923 34.3077 0.0000 0.0000 0.0000
# 2 46.2923 129.7223 43.4250 0.0000 0.0000 0.0000
# 3 34.3077 43.4250 99.7104 0.0000 0.0000 0.0000
# 4 0.0000 0.0000 0.0000 15.8692 0.0000 0.0000
# 5 0.0000 0.0000 0.0000 0.0000 33.4249 0.0000
# 6 0.0000 0.0000 0.0000 0.0000 0.0000 36.3805
#
#
#
# Elastic Compliance Matrix: (Units=1/GPa)
#
#
# Indices 1 2 3 4 5 6 
#
# 1 0.009033 -0.002556 -0.001995 0.000000 0.000000 0.000000
# 2 -0.002556 0.009747 -0.003366 0.000000 0.000000 0.000000
# 3 -0.001995 -0.003366 0.012181 0.000000 0.000000 0.000000
# 4 0.000000 0.000000 0.000000 0.063015 0.000000 0.000000
# 5 0.000000 0.000000 0.000000 0.000000 0.029918 0.000000
# 6 0.000000 0.000000 0.000000 0.000000 0.000000 0.027487
#
#
# Mechanical properties :
#
#
# Convention : Reuss Voigt Hill
#
# Bulk Modulus (GPa) = 66.09916 67.65190 66.87553
# Shear Modulus (GPa) = 29.02636 32.92106 30.97371
#
# Velocity S-wave (km/s) = 3.71879 3.96043 3.84151
# Velocity P-wave (km/s) = 7.06623 7.29010 7.17904
#
# Compressibility (1/GPa) = 0.01512879
#
# Stress axis : x y z
#
# Youngs Moduli (GPa) = 110.71032 102.59079 82.09306
#
# Poissons Ratio (x) = 0.26217 0.16377
# Poissons Ratio (y) = 0.28292 0.27631
# Poissons Ratio (z) = 0.22086 0.34530
#
# Static dielectric constant tensor:
#      x y z
#    x 3.853660 0.000000 0.000000 
#    y 0.000000 4.082970 0.000000 
#    z 0.000000 0.000000 3.689130 
# 
# 
# High freq. dielectric constant tensor:
#      x y z
#    x 1.837100 0.000000 0.000000 
#    y 0.000000 1.844210 0.000000 
#    z 0.000000 0.000000 1.810750 
# 
# From -- ./inp_files/21354.got.cif
#   From: 2010.06.25/outbox.cif.g09.slc.cpg/sg48_11_cif.got.tgz:21354.got - 2010.06.26 18:06:46.
