data_PCOD8202331
_publ_section_title
;
Structure prediction by ZEFSAII (Michael W. Deem and Ramdas Pophale) SiO2 
 PCOD8202331
Probable space group: P C C M
;
_chemical_formula_sum "Si O2"
_cell_formula_units_Z 48
_cell_length_a 9.168069
_cell_length_b 31.001097
_cell_length_c 8.602055
_cell_angle_alpha 90.000000
_cell_angle_beta 90.000000
_cell_angle_gamma 90.000000
_cell_volume 2444.877761
_symmetry_space_group_name_H-M "P C C M"
_symmetry_group_IT_number 49
_symmetry_cell_setting 'orthorhombic'
loop_
_space_group_symop_operation_xyz
x,y,z
-x,-y,z
x,-y,1/2-z
-x,y,1/2-z
-x,-y,-z
x,y,-z
-x,y,1/2+z
x,-y,1/2+z
loop_
_atom_site_type_symbol
_atom_site_label
_atom_site_fract_x
_atom_site_fract_y
_atom_site_fract_z
Si Si1 0.154372 0.546914 0.815716
Si Si2 0.839663 0.704644 0.183416
Si Si3 0.162709 0.043173 0.315794
Si Si4 0.160900 0.869210 0.684179
Si Si5 0.339600 0.786200 0.683782
Si Si6 0.341474 0.621629 0.684316
O O1 0.191550 0.500000 0.750000
O O2 0.282422 0.578239 0.762066
O O3 0.000000 0.563850 0.750000
O O4 0.145116 0.544876 0.000000
O O5 0.750159 0.745422 0.249682
O O6 0.760634 0.661010 0.236955
O O7 0.000000 0.705385 0.250000
O O8 0.849681 0.707407 0.000000
O O9 0.163026 0.042094 0.500000
O O10 0.235961 0.087294 0.253703
O O11 0.000000 0.043599 0.250000
O O12 0.242891 0.000000 0.250000
O O13 0.151257 0.873239 0.500000
O O14 0.260512 0.829708 0.739688
O O15 0.000000 0.861508 0.750000
O O16 0.500000 0.784817 0.750000
O O17 0.348428 0.784130 0.500000
O O18 0.500000 0.631622 0.750000
O O19 0.346642 0.616023 0.500000
#
# Coordination Sequence:
#
# PCOD8202331 Si02
#       6
#     8   8   8   8   8   8
#     4  11  22  39  62  88 118 153 195 240 287 337
#     4  10  22  39  60  86 114 146 186 230 276 329
#     4  10  17  27  45  71 103 137 174 218 269 318
#     4  10  19  32  51  77 107 139 179 223 268 320
#     4  10  22  38  56  80 110 144 182 224 271 325
#     4  11  23  39  59  86 119 154 193 235 284 338
#
# _framework density 19.632881000000001
#
# number of rings (size 3 to 8) (size 9 to 14) (size 15 to 20)
#    0.000    1.667    0.000    7.500    0.000    5.000 
#    0.000    1.667    0.000    0.500    0.000    3.500 
#    0.000    0.000    0.000    0.000    0.000    0.000 
#
# Total GULP energy -595282.275718 kJ/mol
# GULP energy per Si atom -12401.714077 kJ/mol
# Density = 1.958820 g / cm^3
# Si number density = 19.632881 Si / 1000 Ang^3
#
#
#
# Elastic Constant Matrix: (Units=GPa)
#
#
# Indices 1 2 3 4 5 6 
#
# 1 131.0338 79.8800 37.6978 0.0000 0.0000 0.0000
# 2 79.8800 163.7778 56.0801 0.0000 0.0000 0.0000
# 3 37.6978 56.0801 106.3159 0.0000 0.0000 0.0000
# 4 0.0000 0.0000 0.0000 30.9405 0.0000 0.0000
# 5 0.0000 0.0000 0.0000 0.0000 31.8100 0.0000
# 6 0.0000 0.0000 0.0000 0.0000 0.0000 18.7008
#
#
#
# Elastic Compliance Matrix: (Units=1/GPa)
#
#
# Indices 1 2 3 4 5 6 
#
# 1 0.011008 -0.004921 -0.001307 0.000000 0.000000 0.000000
# 2 -0.004921 0.009652 -0.003346 0.000000 0.000000 0.000000
# 3 -0.001307 -0.003346 0.011635 0.000000 0.000000 0.000000
# 4 0.000000 0.000000 0.000000 0.032320 0.000000 0.000000
# 5 0.000000 0.000000 0.000000 0.000000 0.031437 0.000000
# 6 0.000000 0.000000 0.000000 0.000000 0.000000 0.053474
#
#
# Mechanical properties :
#
#
# Convention : Reuss Voigt Hill
#
# Bulk Modulus (GPa) = 76.07630 83.16037 79.61833
# Shear Modulus (GPa) = 28.89240 31.45489 30.17365
#
# Velocity S-wave (km/s) = 3.84035 4.00703 3.92458
# Velocity P-wave (km/s) = 7.64839 7.99112 7.82164
#
# Compressibility (1/GPa) = 0.01314470
#
# Stress axis : x y z
#
# Youngs Moduli (GPa) = 90.84489 103.60661 85.95078
#
# Poissons Ratio (x) = 0.50987 0.11236
# Poissons Ratio (y) = 0.44707 0.28761
# Poissons Ratio (z) = 0.11876 0.34669
#
# Static dielectric constant tensor:
#      x y z
#    x 3.418260 0.000000 0.000000 
#    y 0.000000 4.354780 0.000000 
#    z 0.000000 0.000000 3.585500 
# 
# 
# High freq. dielectric constant tensor:
#      x y z
#    x 1.742380 0.000000 0.000000 
#    y 0.000000 1.791540 0.000000 
#    z 0.000000 0.000000 1.772730 
# 
# From -- ./inp_files/2068.got.cif
#   From: 2010.03.12/outbox.cif.g09.slc.cpg/sg49_2_cif.got.tgz:2068.got - 2010.04.14 03:58:27.
