data_PCOD8202496
_publ_section_title
;
Structure prediction by ZEFSAII (Michael W. Deem and Ramdas Pophale) SiO2 
 PCOD8202496
Probable space group: P C C M
;
_chemical_formula_sum "Si O2"
_cell_formula_units_Z 56
_cell_length_a 18.465455
_cell_length_b 21.233289
_cell_length_c 8.549687
_cell_angle_alpha 90.000000
_cell_angle_beta 90.000000
_cell_angle_gamma 90.000000
_cell_volume 3352.181307
_symmetry_space_group_name_H-M "P C C M"
_symmetry_group_IT_number 49
_symmetry_cell_setting 'orthorhombic'
loop_
_space_group_symop_operation_xyz
x,y,z
-x,-y,z
x,-y,1/2-z
-x,y,1/2-z
-x,-y,-z
x,y,-z
-x,y,1/2+z
x,-y,1/2+z
loop_
_atom_site_type_symbol
_atom_site_label
_atom_site_fract_x
_atom_site_fract_y
_atom_site_fract_z
Si Si1 0.292780 0.256091 0.673020
Si Si2 0.349717 0.933291 0.186994
Si Si3 0.422760 0.811364 0.684553
Si Si4 0.790047 0.874075 0.670345
Si Si5 0.921554 0.197831 0.187368
Si Si6 0.158915 0.316948 0.815407
Si Si7 0.077716 0.568117 0.814682
O O1 0.309793 0.283646 0.500000
O O2 0.366924 0.243340 0.765824
O O3 0.250891 0.191470 0.652237
O O4 0.242133 0.304017 0.768826
O O5 0.403668 0.879703 0.245641
O O6 0.267297 0.920894 0.255195
O O7 0.377752 0.000000 0.250000
O O8 0.348786 0.931864 0.000000
O O9 0.500000 0.790314 0.750000
O O10 0.424412 0.817207 0.500000
O O11 0.807459 0.902663 0.500000
O O12 0.866823 0.857392 0.753106
O O13 0.897026 0.265363 0.249915
O O14 0.000000 0.180003 0.250000
O O15 0.919671 0.199639 0.000000
O O16 0.138642 0.383764 0.742095
O O17 0.151167 0.318787 0.000000
O O18 0.099335 0.500000 0.750000
O O19 0.000000 0.590028 0.750000
O O20 0.074062 0.565898 0.000000
#
# Coordination Sequence:
#
# PCOD8202496 Si02
#       7
#     8   8   8   8   8   8   8
#     4   9  17  32  50  70  94 122 153 191 233 276
#     4  10  19  33  50  69  90 118 154 192 230 277
#     4  11  21  34  51  73  99 128 155 186 228 278
#     4   7  14  28  45  61  84 113 143 181 230 277
#     4  10  18  29  44  65  89 116 149 193 242 286
#     4  11  20  31  47  69  94 125 162 198 234 281
#     4  11  21  34  48  66  94 131 170 209 248 288
#
# _framework density 16.705539999999999
#
# number of rings (size 3 to 8) (size 9 to 14) (size 15 to 20)
#    0.000    2.143    0.000    7.714    0.000    0.286 
#    0.000    3.571    0.000    0.429    0.000    3.000 
#    0.000    0.571    0.000    5.714    0.000    3.429 
#
# Total GULP energy -694019.587292 kJ/mol
# GULP energy per Si atom -12393.206916 kJ/mol
# Density = 1.666752 g / cm^3
# Si number density = 16.705540 Si / 1000 Ang^3
#
#
#
# Elastic Constant Matrix: (Units=GPa)
#
#
# Indices 1 2 3 4 5 6 
#
# 1 121.3687 35.4436 37.9391 0.0000 0.0000 0.0000
# 2 35.4436 49.9096 24.0406 0.0000 0.0000 0.0000
# 3 37.9391 24.0406 120.6094 0.0000 0.0000 0.0000
# 4 0.0000 0.0000 0.0000 19.8673 0.0000 0.0000
# 5 0.0000 0.0000 0.0000 0.0000 26.6741 0.0000
# 6 0.0000 0.0000 0.0000 0.0000 0.0000 22.7296
#
#
#
# Elastic Compliance Matrix: (Units=1/GPa)
#
#
# Indices 1 2 3 4 5 6 
#
# 1 0.010845 -0.006702 -0.002076 0.000000 0.000000 0.000000
# 2 -0.006702 0.026306 -0.003135 0.000000 0.000000 0.000000
# 3 -0.002076 -0.003135 0.009569 0.000000 0.000000 0.000000
# 4 0.000000 0.000000 0.000000 0.050334 0.000000 0.000000
# 5 0.000000 0.000000 0.000000 0.000000 0.037489 0.000000
# 6 0.000000 0.000000 0.000000 0.000000 0.000000 0.043996
#
#
# Mechanical properties :
#
#
# Convention : Reuss Voigt Hill
#
# Bulk Modulus (GPa) = 43.67871 54.08158 48.88015
# Shear Modulus (GPa) = 23.80986 26.81849 25.31418
#
# Velocity S-wave (km/s) = 3.77937 4.01105 3.89693
# Velocity P-wave (km/s) = 6.72665 7.34133 7.04070
#
# Compressibility (1/GPa) = 0.02289445
#
# Stress axis : x y z
#
# Youngs Moduli (GPa) = 92.20469 38.01416 104.50320
#
# Poissons Ratio (x) = 0.25478 0.21691
# Poissons Ratio (y) = 0.61797 0.32764
# Poissons Ratio (z) = 0.19138 0.11918
#
# Static dielectric constant tensor:
#      x y z
#    x 3.714340 0.000000 0.000000 
#    y 0.000000 2.920360 0.000000 
#    z 0.000000 0.000000 3.200400 
# 
# 
# High freq. dielectric constant tensor:
#      x y z
#    x 1.640850 0.000000 0.000000 
#    y 0.000000 1.605910 0.000000 
#    z 0.000000 0.000000 1.653340 
# 
# From -- ./inp_files/5189.got.cif
#   From: 2010.03.12/outbox.cif.g09.slc.cpg/sg49_3_cif.got.tgz:5189.got - 2010.04.14 03:58:27.
