data_PCOD8202455
_publ_section_title
;
Structure prediction by ZEFSAII (Michael W. Deem and Ramdas Pophale) SiO2 
 PCOD8202455
Probable space group: P C C M
;
_chemical_formula_sum "Si O2"
_cell_formula_units_Z 64
_cell_length_a 26.700422
_cell_length_b 18.271450
_cell_length_c 8.966009
_cell_angle_alpha 90.000000
_cell_angle_beta 90.000000
_cell_angle_gamma 90.000000
_cell_volume 4374.116136
_symmetry_space_group_name_H-M "P C C M"
_symmetry_group_IT_number 49
_symmetry_cell_setting 'orthorhombic'
loop_
_space_group_symop_operation_xyz
x,y,z
-x,-y,z
x,-y,1/2-z
-x,y,1/2-z
-x,-y,-z
x,y,-z
-x,y,1/2+z
x,-y,1/2+z
loop_
_atom_site_type_symbol
_atom_site_label
_atom_site_fract_x
_atom_site_fract_y
_atom_site_fract_z
Si Si1 0.746599 0.164151 0.823389
Si Si2 0.342401 0.923242 0.323054
Si Si3 0.550142 0.337310 0.173430
Si Si4 0.843218 0.077143 0.172634
Si Si5 0.297459 0.704042 0.332267
Si Si6 0.349806 0.421704 0.323478
Si Si7 0.953062 0.078780 0.825485
Si Si8 0.401831 0.787149 0.664283
O O1 0.707569 0.107660 0.752227
O O2 0.801822 0.136204 0.779965
O O3 0.742384 0.245474 0.754622
O O4 0.737283 0.167964 0.000000
O O5 0.333229 0.930032 0.500000
O O6 0.390237 0.870748 0.288794
O O7 0.356346 0.000000 0.250000
O O8 0.500000 0.367766 0.250000
O O9 0.595926 0.389380 0.220856
O O10 0.560990 0.253375 0.222074
O O11 0.540851 0.338232 0.000000
O O12 0.898063 0.112886 0.207628
O O13 0.833534 0.000000 0.250000
O O14 0.838732 0.058602 0.000000
O O15 0.278325 0.687149 0.500000
O O16 0.305608 0.628768 0.242387
O O17 0.348825 0.747539 0.338334
O O18 0.344371 0.500000 0.250000
O O19 0.343429 0.426885 0.500000
O O20 0.000000 0.123116 0.750000
O O21 0.951867 0.000000 0.750000
O O22 0.963521 0.072307 0.000000
O O23 0.426516 0.783532 0.500000
#
# Coordination Sequence:
#
# PCOD8202455 Si02
#       8
#     8   8   8   8   8   8   8   8
#     4  10  18  28  41  58  81 108 136 168 205 247
#     4  10  19  29  42  61  82 105 131 165 205 244
#     4  10  20  32  48  67  86 108 133 159 192 230
#     4   9  18  27  36  52  76 104 136 176 218 254
#     4   9  17  30  46  63  83 108 135 164 195 234
#     4  10  20  33  49  69  90 113 137 162 190 225
#     4   9  15  24  35  48  66  93 131 173 215 255
#     4   8  16  30  45  60  80 104 131 160 193 233
#
# _framework density 14.631527999999999
#
# number of rings (size 3 to 8) (size 9 to 14) (size 15 to 20)
#    0.000    2.625    0.000    3.750    0.000    7.750 
#    0.000    1.250    0.000    0.375    0.000    2.625 
#    0.000    0.000    0.000    0.000    0.000    0.625 
#
# Total GULP energy -793212.438415 kJ/mol
# GULP energy per Si atom -12393.944350 kJ/mol
# Density = 1.459823 g / cm^3
# Si number density = 14.631528 Si / 1000 Ang^3
#
#
#
# Elastic Constant Matrix: (Units=GPa)
#
#
# Indices 1 2 3 4 5 6 
#
# 1 63.9527 39.6478 33.8703 0.0000 0.0000 0.0000
# 2 39.6478 99.2076 43.5353 0.0000 0.0000 0.0000
# 3 33.8703 43.5353 79.8609 0.0000 0.0000 0.0000
# 4 0.0000 0.0000 0.0000 24.5033 0.0000 0.0000
# 5 0.0000 0.0000 0.0000 0.0000 11.0108 0.0000
# 6 0.0000 0.0000 0.0000 0.0000 0.0000 11.7279
#
#
#
# Elastic Compliance Matrix: (Units=1/GPa)
#
#
# Indices 1 2 3 4 5 6 
#
# 1 0.022914 -0.006431 -0.006212 0.000000 0.000000 0.000000
# 2 -0.006431 0.015055 -0.005479 0.000000 0.000000 0.000000
# 3 -0.006212 -0.005479 0.018143 0.000000 0.000000 0.000000
# 4 0.000000 0.000000 0.000000 0.040811 0.000000 0.000000
# 5 0.000000 0.000000 0.000000 0.000000 0.090820 0.000000
# 6 0.000000 0.000000 0.000000 0.000000 0.000000 0.085267
#
#
# Mechanical properties :
#
#
# Convention : Reuss Voigt Hill
#
# Bulk Modulus (GPa) = 50.33632 53.01424 51.67528
# Shear Modulus (GPa) = 15.82899 17.84626 16.83762
#
# Velocity S-wave (km/s) = 3.29270 3.49623 3.39599
# Velocity P-wave (km/s) = 6.99523 7.25325 7.12541
#
# Compressibility (1/GPa) = 0.01986637
#
# Stress axis : x y z
#
# Youngs Moduli (GPa) = 43.64197 66.42508 55.11655
#
# Poissons Ratio (x) = 0.42720 0.34239
# Poissons Ratio (y) = 0.28067 0.30200
# Poissons Ratio (z) = 0.27111 0.36396
#
# Static dielectric constant tensor:
#      x y z
#    x 3.236690 0.000000 0.000000 
#    y 0.000000 2.771660 0.000000 
#    z 0.000000 0.000000 3.022410 
# 
# 
# High freq. dielectric constant tensor:
#      x y z
#    x 1.536350 0.000000 0.000000 
#    y 0.000000 1.528830 0.000000 
#    z 0.000000 0.000000 1.578510 
# 
# From -- ./inp_files/6785.got.cif
#   From: 2010.03.12/outbox.cif.g09.slc.cpg/sg49_4_cif.got.tgz:6785.got - 2010.04.14 03:58:27.
