data_PCOD8202425
_publ_section_title
;
Structure prediction by ZEFSAII (Michael W. Deem and Ramdas Pophale) SiO2 
 PCOD8202425
Probable space group: P C C M
;
_chemical_formula_sum "Si O2"
_cell_formula_units_Z 48
_cell_length_a 15.984169
_cell_length_b 8.717719
_cell_length_c 16.877302
_cell_angle_alpha 90.000000
_cell_angle_beta 90.000000
_cell_angle_gamma 90.000000
_cell_volume 2351.775981
_symmetry_space_group_name_H-M "P C C M"
_symmetry_group_IT_number 49
_symmetry_cell_setting 'orthorhombic'
loop_
_space_group_symop_operation_xyz
x,y,z
-x,-y,z
x,-y,1/2-z
-x,y,1/2-z
-x,-y,-z
x,y,-z
-x,y,1/2+z
x,-y,1/2+z
loop_
_atom_site_type_symbol
_atom_site_label
_atom_site_fract_x
_atom_site_fract_y
_atom_site_fract_z
Si Si1 0.422316 0.390448 0.091861
Si Si2 0.971710 0.824461 0.912128
Si Si3 0.151039 0.235497 0.591317
Si Si4 0.819392 0.927002 0.167999
Si Si5 0.637765 0.163349 0.717455
Si Si6 0.705260 0.404612 0.173980
O O1 0.500000 0.500000 0.111587
O O2 0.422948 0.242529 0.151558
O O3 0.340489 0.492687 0.108088
O O4 0.423352 0.335602 0.000000
O O5 0.889773 0.801439 0.856950
O O6 0.054636 0.736160 0.880995
O O7 0.947695 0.767050 0.000000
O O8 0.000000 0.000000 0.914963
O O9 0.160940 0.275223 0.500000
O O10 0.207402 0.349392 0.640654
O O11 0.183311 0.061106 0.602745
O O12 0.728708 0.850568 0.176154
O O13 0.849620 0.000000 0.250000
O O14 0.645072 0.266238 0.796723
O O15 0.603154 0.000000 0.750000
O O16 0.730180 0.500000 0.250000
#
# Coordination Sequence:
#
# PCOD8202425 Si02
#       6
#     8   8   8   8   8   8
#     4  10  23  43  66  91 120 160 204 241 296 376
#     4   8  16  27  43  75 114 153 196 240 299 357
#     4  10  18  31  52  80 116 159 203 248 298 355
#     4  10  17  30  51  84 120 150 195 256 302 355
#     4  10  20  38  61  93 122 152 197 254 305 356
#     4  10  20  37  60  83 121 162 204 243 302 372
#
# _framework density 20.410108000000001
#
# number of rings (size 3 to 8) (size 9 to 14) (size 15 to 20)
#    0.000    2.333    3.333    2.000    0.000    7.333 
#    0.000    1.667    0.000    9.000    0.000   10.500 
#    0.000    0.000    0.000    0.000    0.000    0.000 
#
# Total GULP energy -594839.962814 kJ/mol
# GULP energy per Si atom -12392.499225 kJ/mol
# Density = 2.036365 g / cm^3
# Si number density = 20.410108 Si / 1000 Ang^3
#
#
#
# Elastic Constant Matrix: (Units=GPa)
#
#
# Indices 1 2 3 4 5 6 
#
# 1 96.3513 30.9840 51.4391 0.0000 0.0000 0.0000
# 2 30.9840 91.3522 42.9876 0.0000 0.0000 0.0000
# 3 51.4391 42.9876 99.8814 0.0000 0.0000 0.0000
# 4 0.0000 0.0000 0.0000 28.5164 0.0000 0.0000
# 5 0.0000 0.0000 0.0000 0.0000 30.7645 0.0000
# 6 0.0000 0.0000 0.0000 0.0000 0.0000 36.0326
#
#
#
# Elastic Compliance Matrix: (Units=1/GPa)
#
#
# Indices 1 2 3 4 5 6 
#
# 1 0.014538 -0.001765 -0.006727 0.000000 0.000000 0.000000
# 2 -0.001765 0.013941 -0.005091 0.000000 0.000000 0.000000
# 3 -0.006727 -0.005091 0.015668 0.000000 0.000000 0.000000
# 4 0.000000 0.000000 0.000000 0.035068 0.000000 0.000000
# 5 0.000000 0.000000 0.000000 0.000000 0.032505 0.000000
# 6 0.000000 0.000000 0.000000 0.000000 0.000000 0.027753
#
#
# Mechanical properties :
#
#
# Convention : Reuss Voigt Hill
#
# Bulk Modulus (GPa) = 58.89447 59.82290 59.35869
# Shear Modulus (GPa) = 29.01945 29.87431 29.44688
#
# Velocity S-wave (km/s) = 3.77479 3.82999 3.80249
# Velocity P-wave (km/s) = 6.92220 6.99517 6.95878
#
# Compressibility (1/GPa) = 0.01697952
#
# Stress axis : x y z
#
# Youngs Moduli (GPa) = 68.78611 71.73098 63.82623
#
# Poissons Ratio (x) = 0.12661 0.42938
# Poissons Ratio (y) = 0.12142 0.32494
# Poissons Ratio (z) = 0.46275 0.36518
#
# Static dielectric constant tensor:
#      x y z
#    x 3.790490 0.000000 0.000000 
#    y 0.000000 3.652710 0.000000 
#    z 0.000000 0.000000 3.757290 
# 
# 
# High freq. dielectric constant tensor:
#      x y z
#    x 1.794670 0.000000 0.000000 
#    y 0.000000 1.769630 0.000000 
#    z 0.000000 0.000000 1.796840 
# 
# From -- ./inp_files/17688.got.cif
#   From: 2010.03.12/outbox.cif.g09.slc.cpg/sg49_9_cif.got.tgz:17688.got - 2010.04.14 03:58:27.
