data_PCOD8202739
_publ_section_title
;
Structure prediction by ZEFSAII (Michael W. Deem and Ramdas Pophale) SiO2 
 PCOD8202739
Probable space group: P C C M
;
_chemical_formula_sum "Si O2"
_cell_formula_units_Z 64
_cell_length_a 24.069599
_cell_length_b 18.704681
_cell_length_c 8.885395
_cell_angle_alpha 90.000000
_cell_angle_beta 90.000000
_cell_angle_gamma 90.000000
_cell_volume 4000.330745
_symmetry_space_group_name_H-M "P C C M"
_symmetry_group_IT_number 49
_symmetry_cell_setting 'orthorhombic'
loop_
_space_group_symop_operation_xyz
x,y,z
-x,-y,z
x,-y,1/2-z
-x,y,1/2-z
-x,-y,-z
x,y,-z
-x,y,1/2+z
x,-y,1/2+z
loop_
_atom_site_type_symbol
_atom_site_label
_atom_site_fract_x
_atom_site_fract_y
_atom_site_fract_z
Si Si1 0.115859 0.075256 0.819761
Si Si2 0.552095 0.076851 0.325854
Si Si3 0.058354 0.209473 0.680235
Si Si4 0.778204 0.861190 0.326099
Si Si5 0.831906 0.288977 0.829448
Si Si6 0.825636 0.424473 0.670311
Si Si7 0.325363 0.077369 0.823928
Si Si8 0.049345 0.424673 0.830732
O O1 0.073698 0.133400 0.752735
O O2 0.178838 0.091268 0.768559
O O3 0.097096 0.000000 0.750000
O O4 0.112274 0.074121 0.000000
O O5 0.500000 0.120180 0.250000
O O6 0.538812 0.068403 0.500000
O O7 0.612930 0.111739 0.300335
O O8 0.554580 0.000000 0.250000
O O9 0.055086 0.201490 0.500000
O O10 0.106018 0.266718 0.727381
O O11 0.000000 0.235483 0.750000
O O12 0.780979 0.885641 0.500000
O O13 0.791634 0.777968 0.310358
O O14 0.717077 0.870036 0.258282
O O15 0.799055 0.354398 0.746022
O O16 0.837652 0.314427 0.000000
O O17 0.813660 0.500000 0.750000
O O18 0.805543 0.434309 0.500000
O O19 0.888863 0.395178 0.682207
O O20 0.320223 0.000000 0.750000
O O21 0.311353 0.070496 0.000000
O O22 0.051779 0.500000 0.750000
O O23 0.000000 0.378126 0.750000
O O24 0.030271 0.434274 0.000000
#
# Coordination Sequence:
#
# PCOD8202739 Si02
#       8
#     8   8   8   8   8   8   8   8
#     4  11  21  34  51  69  89 112 139 177 221 264
#     4   9  16  25  38  57  84 117 153 190 228 262
#     4  10  21  37  53  70  89 111 139 171 211 263
#     4  10  20  34  49  66  88 115 146 182 223 266
#     4   9  20  36  51  66  87 111 137 171 212 258
#     4  10  20  32  48  67  86 107 134 165 201 246
#     4  10  19  29  43  65  90 119 155 194 229 264
#     4   9  16  25  37  55  76  98 120 146 180 220
#
# _framework density 15.998677000000001
#
# number of rings (size 3 to 8) (size 9 to 14) (size 15 to 20)
#    0.000    2.250    0.000    5.250    0.000    6.750 
#    0.000    3.750    0.000    0.000    0.000    0.000 
#    0.000    0.000    0.000    0.000    0.000    0.625 
#
# Total GULP energy -792917.439572 kJ/mol
# GULP energy per Si atom -12389.334993 kJ/mol
# Density = 1.596226 g / cm^3
# Si number density = 15.998677 Si / 1000 Ang^3
#
#
#
# Elastic Constant Matrix: (Units=GPa)
#
#
# Indices 1 2 3 4 5 6 
#
# 1 78.5299 15.6200 30.0564 0.0000 0.0000 0.0000
# 2 15.6200 81.4372 40.9742 0.0000 0.0000 0.0000
# 3 30.0564 40.9742 118.1278 0.0000 0.0000 0.0000
# 4 0.0000 0.0000 0.0000 18.8547 0.0000 0.0000
# 5 0.0000 0.0000 0.0000 0.0000 22.9113 0.0000
# 6 0.0000 0.0000 0.0000 0.0000 0.0000 6.0072
#
#
#
# Elastic Compliance Matrix: (Units=1/GPa)
#
#
# Indices 1 2 3 4 5 6 
#
# 1 0.014188 -0.001096 -0.003230 0.000000 0.000000 0.000000
# 2 -0.001096 0.014960 -0.004910 0.000000 0.000000 0.000000
# 3 -0.003230 -0.004910 0.010990 0.000000 0.000000 0.000000
# 4 0.000000 0.000000 0.000000 0.053037 0.000000 0.000000
# 5 0.000000 0.000000 0.000000 0.000000 0.043647 0.000000
# 6 0.000000 0.000000 0.000000 0.000000 0.000000 0.166467
#
#
# Mechanical properties :
#
#
# Convention : Reuss Voigt Hill
#
# Bulk Modulus (GPa) = 46.15489 50.15512 48.15500
# Shear Modulus (GPa) = 15.19829 22.31761 18.75795
#
# Velocity S-wave (km/s) = 3.08551 3.73898 3.42785
# Velocity P-wave (km/s) = 6.45024 7.07513 6.76990
#
# Compressibility (1/GPa) = 0.02166618
#
# Stress axis : x y z
#
# Youngs Moduli (GPa) = 70.48097 66.84409 90.98886
#
# Poissons Ratio (x) = 0.07328 0.29387
# Poissons Ratio (y) = 0.07727 0.44677
# Poissons Ratio (z) = 0.22764 0.32822
#
# Static dielectric constant tensor:
#      x y z
#    x 2.779240 0.000000 0.000000 
#    y 0.000000 2.853620 0.000000 
#    z 0.000000 0.000000 3.239750 
# 
# 
# High freq. dielectric constant tensor:
#      x y z
#    x 1.582840 0.000000 0.000000 
#    y 0.000000 1.588980 0.000000 
#    z 0.000000 0.000000 1.636430 
# 
# From -- ./inp_files/6619.got.cif
#   From: 2010.03.12/outbox.cif.g09.slc.cpg/sg49_4_cif.got.tgz:6619.got - 2010.04.14 03:58:27.
