data_PCOD8202558
_publ_section_title
;
Structure prediction by ZEFSAII (Michael W. Deem and Ramdas Pophale) SiO2 
 PCOD8202558
Probable space group: P C C M
;
_chemical_formula_sum "Si O2"
_cell_formula_units_Z 64
_cell_length_a 14.847995
_cell_length_b 28.612601
_cell_length_c 8.742569
_cell_angle_alpha 90.000000
_cell_angle_beta 90.000000
_cell_angle_gamma 90.000000
_cell_volume 3714.190886
_symmetry_space_group_name_H-M "P C C M"
_symmetry_group_IT_number 49
_symmetry_cell_setting 'orthorhombic'
loop_
_space_group_symop_operation_xyz
x,y,z
-x,-y,z
x,-y,1/2-z
-x,y,1/2-z
-x,-y,-z
x,y,-z
-x,y,1/2+z
x,-y,1/2+z
loop_
_atom_site_type_symbol
_atom_site_label
_atom_site_fract_x
_atom_site_fract_y
_atom_site_fract_z
Si Si1 0.901983 0.044722 0.678252
Si Si2 0.268127 0.547404 0.681838
Si Si3 0.904629 0.587029 0.318055
Si Si4 0.593455 0.731735 0.818698
Si Si5 0.098512 0.852399 0.680016
Si Si6 0.093509 0.313222 0.181341
Si Si7 0.221865 0.770260 0.319461
Si Si8 0.592851 0.625562 0.819780
O O1 0.908826 0.036182 0.500000
O O2 0.860490 0.095829 0.715650
O O3 0.000000 0.045103 0.750000
O O4 0.847705 0.000000 0.750000
O O5 0.311713 0.500000 0.750000
O O6 0.260722 0.544649 0.500000
O O7 0.169933 0.551532 0.757061
O O8 0.327897 0.591439 0.735805
O O9 0.909309 0.586707 0.500000
O O10 0.878736 0.638310 0.257913
O O11 0.000000 0.570865 0.250000
O O12 0.500000 0.750927 0.750000
O O13 0.675561 0.764530 0.758578
O O14 0.612283 0.678524 0.763678
O O15 0.586774 0.733649 0.000000
O O16 0.086434 0.845007 0.500000
O O17 0.170695 0.815583 0.749701
O O18 0.000000 0.844279 0.750000
O O19 0.168993 0.276241 0.227086
O O20 0.000000 0.294506 0.250000
O O21 0.084796 0.320319 0.000000
O O22 0.224254 0.775665 0.500000
O O23 0.500000 0.606849 0.750000
O O24 0.583879 0.623937 0.000000
#
# Coordination Sequence:
#
# PCOD8202558 Si02
#       8
#     8   8   8   8   8   8   8   8
#     4   9  15  23  37  55  79 113 156 196 232 268
#     4  11  23  39  56  77 101 125 153 187 228 273
#     4  11  22  37  55  74  96 125 159 195 229 267
#     4   9  17  32  51  70  90 117 150 185 222 265
#     4   9  17  28  41  61  89 124 160 194 229 273
#     4  10  18  30  48  70  95 124 155 187 222 266
#     4   9  17  29  46  65  92 126 155 184 228 277
#     4   9  19  35  56  77  99 124 151 183 222 269
#
# _framework density 17.231210000000001
#
# number of rings (size 3 to 8) (size 9 to 14) (size 15 to 20)
#    0.000    2.375    0.000    4.500    0.000    4.000 
#    0.000    7.500    0.000    0.000    0.000    0.000 
#    0.000    0.500    0.000    6.250    0.000    0.000 
#
# Total GULP energy -793271.843804 kJ/mol
# GULP energy per Si atom -12394.872559 kJ/mol
# Density = 1.719199 g / cm^3
# Si number density = 17.231210 Si / 1000 Ang^3
#
#
#
# Elastic Constant Matrix: (Units=GPa)
#
#
# Indices 1 2 3 4 5 6 
#
# 1 108.7322 61.3333 27.2352 0.0000 0.0000 0.0000
# 2 61.3333 93.2470 30.3656 0.0000 0.0000 0.0000
# 3 27.2352 30.3656 61.8530 0.0000 0.0000 0.0000
# 4 0.0000 0.0000 0.0000 31.8875 0.0000 0.0000
# 5 0.0000 0.0000 0.0000 0.0000 23.3482 0.0000
# 6 0.0000 0.0000 0.0000 0.0000 0.0000 -25.8342
#
#
#
# Elastic Compliance Matrix: (Units=1/GPa)
#
#
# Indices 1 2 3 4 5 6 
#
# 1 0.014842 -0.009087 -0.002074 0.000000 0.000000 0.000000
# 2 -0.009087 0.018328 -0.004997 0.000000 0.000000 0.000000
# 3 -0.002074 -0.004997 0.019534 0.000000 0.000000 0.000000
# 4 0.000000 0.000000 0.000000 0.031360 0.000000 0.000000
# 5 0.000000 0.000000 0.000000 0.000000 0.042830 0.000000
# 6 0.000000 0.000000 0.000000 0.000000 0.000000 -0.038708
#
#
# Mechanical properties :
#
#
# Convention : Reuss Voigt Hill
#
# Bulk Modulus (GPa) = 49.04770 55.74448 52.39609
# Shear Modulus (GPa) = 39.27779 15.54017 27.40898
#
# Velocity S-wave (km/s) = 4.77954 3.00636 3.99263
# Velocity P-wave (km/s) = 7.68017 6.66874 7.19225
#
# Compressibility (1/GPa) = 0.02038831
#
# Stress axis : x y z
#
# Youngs Moduli (GPa) = 67.37521 54.56009 51.19333
#
# Poissons Ratio (x) = 0.49579 0.10619
# Poissons Ratio (y) = 0.61224 0.25580
# Poissons Ratio (z) = 0.13975 0.27263
#
# Static dielectric constant tensor:
#      x y z
#    x 3.189820 0.000000 0.000000 
#    y 0.000000 3.912700 0.000000 
#    z 0.000000 0.000000 3.169670 
# 
# 
# High freq. dielectric constant tensor:
#      x y z
#    x 1.642720 0.000000 0.000000 
#    y 0.000000 1.660800 0.000000 
#    z 0.000000 0.000000 1.660620 
# 
# From -- ./inp_files/4524.got.cif
#   From: 2010.03.12/outbox.cif.g09.slc.cpg/sg49_3_cif.got.tgz:4524.got - 2010.04.14 03:58:27.
