data_PCOD8202608
_publ_section_title
;
Structure prediction by ZEFSAII (Michael W. Deem and Ramdas Pophale) SiO2 
 PCOD8202608
Probable space group: P C C M
;
_chemical_formula_sum "Si O2"
_cell_formula_units_Z 64
_cell_length_a 18.963445
_cell_length_b 10.475568
_cell_length_c 17.330181
_cell_angle_alpha 90.000000
_cell_angle_beta 90.000000
_cell_angle_gamma 90.000000
_cell_volume 3442.689979
_symmetry_space_group_name_H-M "P C C M"
_symmetry_group_IT_number 49
_symmetry_cell_setting 'orthorhombic'
loop_
_space_group_symop_operation_xyz
x,y,z
-x,-y,z
x,-y,1/2-z
-x,y,1/2-z
-x,-y,-z
x,y,-z
-x,y,1/2+z
x,-y,1/2+z
loop_
_atom_site_type_symbol
_atom_site_label
_atom_site_fract_x
_atom_site_fract_y
_atom_site_fract_z
Si Si1 0.035422 0.626468 0.408620
Si Si2 0.670439 0.991345 0.339580
Si Si3 0.661968 0.731235 0.908315
Si Si4 0.169765 0.006550 0.661438
Si Si5 0.456196 0.120080 0.590054
Si Si6 0.958582 0.876879 0.408642
Si Si7 0.475010 0.361057 0.162134
Si Si8 0.179580 0.265400 0.089902
O O1 0.026103 0.624375 0.500000
O O2 0.119088 0.631845 0.387356
O O3 0.000000 0.500000 0.372017
O O4 0.994432 0.749283 0.374586
O O5 0.750432 0.947541 0.351901
O O6 0.621764 0.880224 0.373924
O O7 0.652182 0.000000 0.250000
O O8 0.653256 0.121174 0.385491
O O9 0.609324 0.648001 0.854278
O O10 0.741959 0.686260 0.887150
O O11 0.645882 0.714783 0.000000
O O12 0.121871 0.112201 0.619582
O O13 0.149130 0.000000 0.750000
O O14 0.157922 0.866140 0.628854
O O15 0.449700 0.104062 0.500000
O O16 0.491401 0.254360 0.608262
O O17 0.500000 0.000000 0.625011
O O18 0.960469 0.873604 0.500000
O O19 0.000000 0.000000 0.376422
O O20 0.500000 0.500000 0.134621
O O21 0.500000 0.337141 0.250000
O O22 0.177901 0.235484 0.000000
#
# Coordination Sequence:
#
# PCOD8202608 Si02
#       8
#     8   8   8   8   8   8   8   8
#     4   9  17  31  52  79 108 139 179 222 265 321
#     4  10  20  34  54  80 112 145 182 226 278 338
#     4  10  19  34  58  83 108 143 188 233 276 329
#     4  10  20  32  50  80 110 142 179 224 274 323
#     4  11  22  35  56  87 113 138 182 235 284 327
#     4  10  18  31  52  77 103 134 176 224 270 317
#     4  11  24  40  58  82 112 153 192 226 276 341
#     4   9  17  32  55  80 107 142 184 223 267 326
#
# _framework density 18.590115000000001
#
# number of rings (size 3 to 8) (size 9 to 14) (size 15 to 20)
#    0.000    2.000    2.500    1.875    0.000    2.750 
#    0.000    1.250    0.000    3.000    0.000    0.000 
#    0.000    0.000    0.000    0.000    0.000    0.000 
#
# Total GULP energy -793418.228805 kJ/mol
# GULP energy per Si atom -12397.159825 kJ/mol
# Density = 1.854780 g / cm^3
# Si number density = 18.590115 Si / 1000 Ang^3
#
#
#
# Elastic Constant Matrix: (Units=GPa)
#
#
# Indices 1 2 3 4 5 6 
#
# 1 150.5822 71.0689 46.4470 0.0000 0.0000 0.0000
# 2 71.0689 102.9589 26.7358 0.0000 0.0000 0.0000
# 3 46.4470 26.7358 44.6709 0.0000 0.0000 0.0000
# 4 0.0000 0.0000 0.0000 15.3317 0.0000 0.0000
# 5 0.0000 0.0000 0.0000 0.0000 26.9528 0.0000
# 6 0.0000 0.0000 0.0000 0.0000 0.0000 26.8423
#
#
#
# Elastic Compliance Matrix: (Units=1/GPa)
#
#
# Indices 1 2 3 4 5 6 
#
# 1 0.012383 -0.006162 -0.009187 0.000000 0.000000 0.000000
# 2 -0.006162 0.014566 -0.002311 0.000000 0.000000 0.000000
# 3 -0.009187 -0.002311 0.033322 0.000000 0.000000 0.000000
# 4 0.000000 0.000000 0.000000 0.065224 0.000000 0.000000
# 5 0.000000 0.000000 0.000000 0.000000 0.037102 0.000000
# 6 0.000000 0.000000 0.000000 0.000000 0.000000 0.037255
#
#
# Mechanical properties :
#
#
# Convention : Reuss Voigt Hill
#
# Bulk Modulus (GPa) = 40.07981 65.19061 52.63521
# Shear Modulus (GPa) = 20.53486 24.08937 22.31211
#
# Velocity S-wave (km/s) = 3.32718 3.60365 3.46817
# Velocity P-wave (km/s) = 6.03048 7.24283 6.66428
#
# Compressibility (1/GPa) = 0.02495022
#
# Stress axis : x y z
#
# Youngs Moduli (GPa) = 80.75734 68.65331 30.01042
#
# Poissons Ratio (x) = 0.42302 0.27571
# Poissons Ratio (y) = 0.49760 0.06936
# Poissons Ratio (z) = 0.74194 0.15867
#
# Static dielectric constant tensor:
#      x y z
#    x 3.858070 0.000000 0.000000 
#    y 0.000000 3.339570 0.000000 
#    z 0.000000 0.000000 3.271980 
# 
# 
# High freq. dielectric constant tensor:
#      x y z
#    x 1.740720 0.000000 0.000000 
#    y 0.000000 1.692810 0.000000 
#    z 0.000000 0.000000 1.709090 
# 
# From -- ./inp_files/18310.got.cif
#   From: 2010.03.12/outbox.cif.g09.slc.cpg/sg49_10_cif.got.tgz:18310.got - 2010.04.14 03:58:27.
