data_PCOD8202989
_publ_section_title
;
Structure prediction by ZEFSAII (Michael W. Deem and Ramdas Pophale) SiO2 
 PCOD8202989
Probable space group: P C C M
;
_chemical_formula_sum "Si O2"
_cell_formula_units_Z 44
_cell_length_a 18.066174
_cell_length_b 16.203536
_cell_length_c 8.968956
_cell_angle_alpha 90.000000
_cell_angle_beta 90.000000
_cell_angle_gamma 90.000000
_cell_volume 2625.535414
_symmetry_space_group_name_H-M "P C C M"
_symmetry_group_IT_number 49
_symmetry_cell_setting 'orthorhombic'
loop_
_space_group_symop_operation_xyz
x,y,z
-x,-y,z
x,-y,1/2-z
-x,y,1/2-z
-x,-y,-z
x,y,-z
-x,y,1/2+z
x,-y,1/2+z
loop_
_atom_site_type_symbol
_atom_site_label
_atom_site_fract_x
_atom_site_fract_y
_atom_site_fract_z
Si Si1 0.166171 0.244563 0.175392
Si Si2 0.922760 0.085041 0.676194
Si Si3 0.931253 0.610767 0.160025
Si Si4 0.713868 0.345602 0.830769
Si Si5 0.192008 0.500000 0.750000
Si Si6 0.575405 0.411026 0.678705
O O1 0.141408 0.151430 0.210008
O O2 0.100170 0.304709 0.231336
O O3 0.239301 0.268525 0.267509
O O4 0.181446 0.258899 0.000000
O O5 0.935076 0.073843 0.500000
O O6 0.000000 0.113300 0.750000
O O7 0.895448 0.000000 0.750000
O O8 0.863550 0.546630 0.137743
O O9 0.000000 0.573913 0.250000
O O10 0.964893 0.631109 0.000000
O O11 0.757802 0.432467 0.832431
O O12 0.642028 0.351123 0.725441
O O13 0.690419 0.325883 0.000000
O O14 0.591202 0.500000 0.750000
O O15 0.500000 0.374983 0.750000
O O16 0.569470 0.417709 0.500000
#
# Coordination Sequence:
#
# PCOD8202989 Si02
#       6
#     8   8   8   8   4   8
#     4   9  20  35  48  66  94 125 157 198 248 295
#     4  10  19  32  51  73  98 128 163 205 252 303
#     4  10  20  32  44  59  81 114 154 198 241 282
#     4  11  21  33  51  71  94 126 163 201 244 289
#     4  10  21  32  45  60  88 118 160 198 239 286
#     4  11  21  34  52  73  99 128 164 203 242 287
#
# _framework density 16.758486000000001
#
# number of rings (size 3 to 8) (size 9 to 14) (size 15 to 20)
#    0.000    1.818    0.909    5.182    0.000    7.273 
#    0.000    0.000    0.000    0.000    0.000    0.000 
#    0.000    0.727    0.000    7.636    0.000    4.182 
#
# Total GULP energy -545347.227388 kJ/mol
# GULP energy per Si atom -12394.255168 kJ/mol
# Density = 1.672034 g / cm^3
# Si number density = 16.758486 Si / 1000 Ang^3
#
#
#
# Elastic Constant Matrix: (Units=GPa)
#
#
# Indices 1 2 3 4 5 6 
#
# 1 110.9149 43.3592 52.9819 0.0000 0.0000 0.0000
# 2 43.3592 86.0207 34.7018 0.0000 0.0000 0.0000
# 3 52.9819 34.7018 118.3179 0.0000 0.0000 0.0000
# 4 0.0000 0.0000 0.0000 14.3010 0.0000 0.0000
# 5 0.0000 0.0000 0.0000 0.0000 26.1528 0.0000
# 6 0.0000 0.0000 0.0000 0.0000 0.0000 21.5795
#
#
#
# Elastic Compliance Matrix: (Units=1/GPa)
#
#
# Indices 1 2 3 4 5 6 
#
# 1 0.012989 -0.004765 -0.004419 0.000000 0.000000 0.000000
# 2 -0.004765 0.014933 -0.002246 0.000000 0.000000 0.000000
# 3 -0.004419 -0.002246 0.011089 0.000000 0.000000 0.000000
# 4 0.000000 0.000000 0.000000 0.069925 0.000000 0.000000
# 5 0.000000 0.000000 0.000000 0.000000 0.038237 0.000000
# 6 0.000000 0.000000 0.000000 0.000000 0.000000 0.046340
#
#
# Mechanical properties :
#
#
# Convention : Reuss Voigt Hill
#
# Bulk Modulus (GPa) = 61.91220 64.14883 63.03052
# Shear Modulus (GPa) = 22.54710 24.68737 23.61723
#
# Velocity S-wave (km/s) = 3.67197 3.84230 3.75810
# Velocity P-wave (km/s) = 7.41632 7.61878 7.51823
#
# Compressibility (1/GPa) = 0.01615191
#
# Stress axis : x y z
#
# Youngs Moduli (GPa) = 76.98534 66.96629 90.17588
#
# Poissons Ratio (x) = 0.31907 0.39850
# Poissons Ratio (y) = 0.36681 0.20255
# Poissons Ratio (z) = 0.34021 0.15041
#
# Static dielectric constant tensor:
#      x y z
#    x 3.157080 0.000000 0.000000 
#    y 0.000000 2.972390 0.000000 
#    z 0.000000 0.000000 3.151150 
# 
# 
# High freq. dielectric constant tensor:
#      x y z
#    x 1.634020 0.000000 0.000000 
#    y 0.000000 1.612000 0.000000 
#    z 0.000000 0.000000 1.657030 
# 
# From -- ./inp_files/4845.got.cif
#   From: 2010.03.12/outbox.cif.g09.slc.cpg/sg49_3_cif.got.tgz:4845.got - 2010.04.14 03:58:27.
