data_PCOD8202723
_publ_section_title
;
Structure prediction by ZEFSAII (Michael W. Deem and Ramdas Pophale) SiO2 
 PCOD8202723
Probable space group: P C C M
;
_chemical_formula_sum "Si O2"
_cell_formula_units_Z 56
_cell_length_a 21.067247
_cell_length_b 18.353347
_cell_length_c 8.959052
_cell_angle_alpha 90.000000
_cell_angle_beta 90.000000
_cell_angle_gamma 90.000000
_cell_volume 3464.057722
_symmetry_space_group_name_H-M "P C C M"
_symmetry_group_IT_number 49
_symmetry_cell_setting 'orthorhombic'
loop_
_space_group_symop_operation_xyz
x,y,z
-x,-y,z
x,-y,1/2-z
-x,y,1/2-z
-x,-y,-z
x,y,-z
-x,y,1/2+z
x,-y,1/2+z
loop_
_atom_site_type_symbol
_atom_site_label
_atom_site_fract_x
_atom_site_fract_y
_atom_site_fract_z
Si Si1 0.762838 0.213291 0.834689
Si Si2 0.932999 0.576165 0.321383
Si Si3 0.174424 0.663682 0.326950
Si Si4 0.366898 0.300930 0.335100
Si Si5 0.302467 0.576995 0.672258
Si Si6 0.565347 0.839519 0.677156
Si Si7 0.688662 0.923613 0.323466
O O1 0.810137 0.253014 0.719243
O O2 0.698045 0.257199 0.845988
O O3 0.745327 0.132106 0.777815
O O4 0.794152 0.210723 0.000000
O O5 0.910049 0.500000 0.250000
O O6 0.938388 0.568982 0.500000
O O7 0.882815 0.637557 0.277122
O O8 0.000000 0.598688 0.250000
O O9 0.154784 0.661484 0.500000
O O10 0.234326 0.612244 0.293521
O O11 0.385821 0.329086 0.500000
O O12 0.359166 0.370581 0.228431
O O13 0.419364 0.244000 0.273065
O O14 0.306745 0.500000 0.750000
O O15 0.313375 0.563989 0.500000
O O16 0.500000 0.865687 0.750000
O O17 0.560013 0.843191 0.500000
O O18 0.620699 0.893650 0.734320
O O19 0.686566 0.932196 0.500000
O O20 0.704886 0.000000 0.250000
#
# Coordination Sequence:
#
# PCOD8202723 Si02
#       7
#     8   8   8   8   8   8   8
#     4   8  15  29  46  63  85 115 147 181 221 264
#     4  11  21  33  47  64  91 127 163 197 231 265
#     4  10  19  30  45  67  91 117 152 188 222 265
#     4   8  15  29  45  59  80 108 139 176 219 262
#     4  10  19  28  42  64  87 110 139 177 221 265
#     4   9  18  31  46  64  85 113 146 179 214 259
#     4   9  18  31  46  66  93 121 148 178 219 265
#
# _framework density 16.166011000000001
#
# number of rings (size 3 to 8) (size 9 to 14) (size 15 to 20)
#    0.000    2.714    0.000    4.714    0.000    4.857 
#    0.000    4.286    0.000    0.429    0.000    3.000 
#    0.000    0.571    0.000    6.000    0.000    3.286 
#
# Total GULP energy -694176.898950 kJ/mol
# GULP energy per Si atom -12396.016053 kJ/mol
# Density = 1.612922 g / cm^3
# Si number density = 16.166011 Si / 1000 Ang^3
#
#
#
# Elastic Constant Matrix: (Units=GPa)
#
#
# Indices 1 2 3 4 5 6 
#
# 1 46.0728 35.9587 24.3426 0.0000 0.0000 0.0000
# 2 35.9587 121.5528 47.3895 0.0000 0.0000 0.0000
# 3 24.3426 47.3895 68.6966 0.0000 0.0000 0.0000
# 4 0.0000 0.0000 0.0000 28.2070 0.0000 0.0000
# 5 0.0000 0.0000 0.0000 0.0000 18.7895 0.0000
# 6 0.0000 0.0000 0.0000 0.0000 0.0000 19.3190
#
#
#
# Elastic Compliance Matrix: (Units=1/GPa)
#
#
# Indices 1 2 3 4 5 6 
#
# 1 0.030018 -0.006475 -0.006171 0.000000 0.000000 0.000000
# 2 -0.006475 0.012650 -0.006432 0.000000 0.000000 0.000000
# 3 -0.006171 -0.006432 0.021180 0.000000 0.000000 0.000000
# 4 0.000000 0.000000 0.000000 0.035452 0.000000 0.000000
# 5 0.000000 0.000000 0.000000 0.000000 0.053221 0.000000
# 6 0.000000 0.000000 0.000000 0.000000 0.000000 0.051762
#
#
# Mechanical properties :
#
#
# Convention : Reuss Voigt Hill
#
# Bulk Modulus (GPa) = 38.91943 50.18932 44.55437
# Shear Modulus (GPa) = 19.92004 21.83853 20.87928
#
# Velocity S-wave (km/s) = 3.51410 3.67944 3.59772
# Velocity P-wave (km/s) = 6.37121 7.01175 6.69914
#
# Compressibility (1/GPa) = 0.02569410
#
# Stress axis : x y z
#
# Youngs Moduli (GPa) = 33.31310 79.05190 47.21333
#
# Poissons Ratio (x) = 0.51182 0.29133
# Poissons Ratio (y) = 0.21569 0.30368
# Poissons Ratio (z) = 0.20556 0.50847
#
# Static dielectric constant tensor:
#      x y z
#    x 2.934830 0.000000 0.000000 
#    y 0.000000 3.195080 0.000000 
#    z 0.000000 0.000000 3.097300 
# 
# 
# High freq. dielectric constant tensor:
#      x y z
#    x 1.586820 0.000000 0.000000 
#    y 0.000000 1.612420 0.000000 
#    z 0.000000 0.000000 1.626570 
# 
# From -- ./inp_files/5185.got.cif
#   From: 2010.03.12/outbox.cif.g09.slc.cpg/sg49_3_cif.got.tgz:5185.got - 2010.04.14 03:58:27.
