data_PCOD8202909
_publ_section_title
;
Structure prediction by ZEFSAII (Michael W. Deem and Ramdas Pophale) SiO2 
 PCOD8202909
Probable space group: P C C M
;
_chemical_formula_sum "Si O2"
_cell_formula_units_Z 56
_cell_length_a 13.947227
_cell_length_b 10.520562
_cell_length_c 19.354120
_cell_angle_alpha 90.000000
_cell_angle_beta 90.000000
_cell_angle_gamma 90.000000
_cell_volume 2839.881633
_symmetry_space_group_name_H-M "P C C M"
_symmetry_group_IT_number 49
_symmetry_cell_setting 'orthorhombic'
loop_
_space_group_symop_operation_xyz
x,y,z
-x,-y,z
x,-y,1/2-z
-x,y,1/2-z
-x,-y,-z
x,y,-z
-x,y,1/2+z
x,-y,1/2+z
loop_
_atom_site_type_symbol
_atom_site_label
_atom_site_fract_x
_atom_site_fract_y
_atom_site_fract_z
Si Si1 0.998746 0.358394 0.332071
Si Si2 0.673612 0.895517 0.922682
Si Si3 0.797176 0.271456 0.166342
Si Si4 0.799839 0.244563 0.675632
Si Si5 0.334556 0.484428 0.173074
Si Si6 0.359005 0.172237 0.420072
Si Si7 0.531577 0.338313 0.578850
O O1 0.905366 0.278308 0.353860
O O2 0.000000 0.500000 0.364215
O O3 0.000000 0.370885 0.250000
O O4 0.094267 0.289584 0.359506
O O5 0.759726 0.875157 0.867673
O O6 0.601847 0.779762 0.916649
O O7 0.612192 0.024488 0.908471
O O8 0.717977 0.901941 0.000000
O O9 0.799719 0.212594 0.243141
O O10 0.735689 0.399610 0.157735
O O11 0.745215 0.174710 0.115307
O O12 0.732369 0.363905 0.664691
O O13 0.378005 0.500000 0.250000
O O14 0.424466 0.461533 0.120082
O O15 0.350735 0.206259 0.500000
O O16 0.433155 0.277847 0.388211
O O17 0.517763 0.382598 0.500000
#
# Coordination Sequence:
#
# PCOD8202909 Si02
#       7
#     8   8   8   8   8   8   8
#     4   9  15  29  55  79 104 135 172 209 254 317
#     4   9  18  35  57  76  99 135 182 225 260 304
#     4  10  19  31  51  79 109 138 168 208 262 322
#     4   9  17  32  55  81 102 132 174 218 261 307
#     4   9  17  31  51  78 110 136 165 214 269 316
#     4  10  21  36  52  73 104 141 177 220 266 305
#     4   9  18  34  57  78  99 138 187 221 252 306
#
# _framework density 19.719131999999998
#
# number of rings (size 3 to 8) (size 9 to 14) (size 15 to 20)
#    0.000    2.714    1.429    0.429    0.000    3.429 
#    0.000   11.429    0.000   10.286    0.000    0.000 
#    0.000    0.000    0.000    0.000    0.000    0.286 
#
# Total GULP energy -693838.854838 kJ/mol
# GULP energy per Si atom -12389.979551 kJ/mol
# Density = 1.967425 g / cm^3
# Si number density = 19.719132 Si / 1000 Ang^3
#
#
#
# Elastic Constant Matrix: (Units=GPa)
#
#
# Indices 1 2 3 4 5 6 
#
# 1 120.7482 28.7188 44.0179 0.0000 0.0000 0.0000
# 2 28.7188 67.6979 22.2969 0.0000 0.0000 0.0000
# 3 44.0179 22.2969 57.4881 0.0000 0.0000 0.0000
# 4 0.0000 0.0000 0.0000 24.7006 0.0000 0.0000
# 5 0.0000 0.0000 0.0000 0.0000 23.0941 0.0000
# 6 0.0000 0.0000 0.0000 0.0000 0.0000 33.8583
#
#
#
# Elastic Compliance Matrix: (Units=1/GPa)
#
#
# Indices 1 2 3 4 5 6 
#
# 1 0.011800 -0.002327 -0.008132 0.000000 0.000000 0.000000
# 2 -0.002327 0.017394 -0.004964 0.000000 0.000000 0.000000
# 3 -0.008132 -0.004964 0.025547 0.000000 0.000000 0.000000
# 4 0.000000 0.000000 0.000000 0.040485 0.000000 0.000000
# 5 0.000000 0.000000 0.000000 0.000000 0.043301 0.000000
# 6 0.000000 0.000000 0.000000 0.000000 0.000000 0.029535
#
#
# Mechanical properties :
#
#
# Convention : Reuss Voigt Hill
#
# Bulk Modulus (GPa) = 41.85321 48.44459 45.14890
# Shear Modulus (GPa) = 24.16934 26.39063 25.27999
#
# Velocity S-wave (km/s) = 3.50477 3.66228 3.58439
# Velocity P-wave (km/s) = 6.13585 6.51949 6.33057
#
# Compressibility (1/GPa) = 0.02389303
#
# Stress axis : x y z
#
# Youngs Moduli (GPa) = 84.74730 57.49175 39.14335
#
# Poissons Ratio (x) = 0.13380 0.31833
# Poissons Ratio (y) = 0.19723 0.19432
# Poissons Ratio (z) = 0.68919 0.28540
#
# Static dielectric constant tensor:
#      x y z
#    x 3.863560 0.000000 0.000000 
#    y 0.000000 3.657350 0.000000 
#    z 0.000000 0.000000 3.537080 
# 
# 
# High freq. dielectric constant tensor:
#      x y z
#    x 1.771530 0.000000 0.000000 
#    y 0.000000 1.770600 0.000000 
#    z 0.000000 0.000000 1.738850 
# 
# From -- ./inp_files/20536.got.cif
#   From: 2010.03.12/outbox.cif.g09.slc.cpg/sg49_11_cif.got.tgz:20536.got - 2010.04.14 03:58:27.
