data_PCOD8202395
_publ_section_title
;
Structure prediction by ZEFSAII (Michael W. Deem and Ramdas Pophale) SiO2 
 PCOD8202395
Probable space group: P C C M
;
_chemical_formula_sum "Si O2"
_cell_formula_units_Z 40
_cell_length_a 9.260463
_cell_length_b 26.152797
_cell_length_c 8.575500
_cell_angle_alpha 90.000000
_cell_angle_beta 90.000000
_cell_angle_gamma 90.000000
_cell_volume 2076.874695
_symmetry_space_group_name_H-M "P C C M"
_symmetry_group_IT_number 49
_symmetry_cell_setting 'orthorhombic'
loop_
_space_group_symop_operation_xyz
x,y,z
-x,-y,z
x,-y,1/2-z
-x,y,1/2-z
-x,-y,-z
x,y,-z
-x,y,1/2+z
x,-y,1/2+z
loop_
_atom_site_type_symbol
_atom_site_label
_atom_site_fract_x
_atom_site_fract_y
_atom_site_fract_z
Si Si1 0.338846 0.551226 0.184565
Si Si2 0.342086 0.049351 0.179691
Si Si3 0.159249 0.252545 0.316162
Si Si4 0.659354 0.655377 0.816014
Si Si5 0.660574 0.162242 0.316526
O O1 0.259262 0.500000 0.250000
O O2 0.500000 0.551577 0.250000
O O3 0.267041 0.603637 0.246385
O O4 0.338003 0.550036 0.000000
O O5 0.500000 0.050618 0.250000
O O6 0.273209 0.105189 0.212321
O O7 0.255231 0.000000 0.250000
O O8 0.355929 0.038853 0.000000
O O9 0.158215 0.262421 0.500000
O O10 0.240539 0.297979 0.229763
O O11 0.236814 0.199520 0.278535
O O12 0.000000 0.249614 0.250000
O O13 0.500000 0.665218 0.750000
O O14 0.648300 0.650023 0.000000
O O15 0.500000 0.167486 0.250000
O O16 0.658734 0.175833 0.500000
#
# Coordination Sequence:
#
# PCOD8202395 Si02
#       5
#     8   8   8   8   8
#     4  10  17  28  47  76 110 143 177 218 266 316
#     4   9  16  26  45  73 107 139 172 212 260 310
#     4  12  25  41  58  78 105 141 180 224 273 325
#     4  11  21  36  57  83 112 144 181 224 268 317
#     4  10  20  35  55  82 111 143 180 222 266 316
#
# _framework density 19.259708
#
# number of rings (size 3 to 8) (size 9 to 14) (size 15 to 20)
#    0.000    1.600    0.000    9.600    0.000    2.400 
#    0.000    0.000    0.000    1.200    0.000    8.400 
#    0.000    0.000    0.000    0.000    0.000    0.000 
#
# Total GULP energy -495761.731510 kJ/mol
# GULP energy per Si atom -12394.043288 kJ/mol
# Density = 1.921587 g / cm^3
# Si number density = 19.259708 Si / 1000 Ang^3
#
#
#
# Elastic Constant Matrix: (Units=GPa)
#
#
# Indices 1 2 3 4 5 6 
#
# 1 62.7867 42.2040 24.2042 0.0000 0.0000 0.0000
# 2 42.2040 165.2258 55.2336 0.0000 0.0000 0.0000
# 3 24.2042 55.2336 157.5451 0.0000 0.0000 0.0000
# 4 0.0000 0.0000 0.0000 40.2169 0.0000 0.0000
# 5 0.0000 0.0000 0.0000 0.0000 23.0497 0.0000
# 6 0.0000 0.0000 0.0000 0.0000 0.0000 -6.3809
#
#
#
# Elastic Compliance Matrix: (Units=1/GPa)
#
#
# Indices 1 2 3 4 5 6 
#
# 1 0.019503 -0.004508 -0.001416 0.000000 0.000000 0.000000
# 2 -0.004508 0.007898 -0.002076 0.000000 0.000000 0.000000
# 3 -0.001416 -0.002076 0.007293 0.000000 0.000000 0.000000
# 4 0.000000 0.000000 0.000000 0.024865 0.000000 0.000000
# 5 0.000000 0.000000 0.000000 0.000000 0.043384 0.000000
# 6 0.000000 0.000000 0.000000 0.000000 0.000000 -0.156718
#
#
# Mechanical properties :
#
#
# Convention : Reuss Voigt Hill
#
# Bulk Modulus (GPa) = 53.49587 69.87124 61.68356
# Shear Modulus (GPa) = -158.51517 28.97156 -64.77181
#
# Velocity S-wave (km/s) = -9.08200 3.88268 -5.80549
# Velocity P-wave (km/s) = 9.06314 7.51382 3.58351
#
# Compressibility (1/GPa) = 0.01869303
#
# Stress axis : x y z
#
# Youngs Moduli (GPa) = 51.27362 126.61401 137.12113
#
# Poissons Ratio (x) = 0.57084 0.19413
# Poissons Ratio (y) = 0.23117 0.28471
# Poissons Ratio (z) = 0.07259 0.26289
#
# Static dielectric constant tensor:
#      x y z
#    x 3.011290 0.000000 0.000000 
#    y 0.000000 5.049980 0.000000 
#    z 0.000000 0.000000 3.798350 
# 
# 
# High freq. dielectric constant tensor:
#      x y z
#    x 1.681730 0.000000 0.000000 
#    y 0.000000 1.786810 0.000000 
#    z 0.000000 0.000000 1.774800 
# 
# From -- ./inp_files/1904.got.cif
#   From: 2010.03.12/outbox.cif.g09.slc.cpg/sg49_1_cif.got.tgz:1904.got - 2010.04.14 03:58:27.
