data_PCOD8202596
_publ_section_title
;
Structure prediction by ZEFSAII (Michael W. Deem and Ramdas Pophale) SiO2 
 PCOD8202596
Probable space group: P C C M
;
_chemical_formula_sum "Si O2"
_cell_formula_units_Z 64
_cell_length_a 18.071854
_cell_length_b 22.243236
_cell_length_c 8.977132
_cell_angle_alpha 90.000000
_cell_angle_beta 90.000000
_cell_angle_gamma 90.000000
_cell_volume 3608.596222
_symmetry_space_group_name_H-M "P C C M"
_symmetry_group_IT_number 49
_symmetry_cell_setting 'orthorhombic'
loop_
_space_group_symop_operation_xyz
x,y,z
-x,-y,z
x,-y,1/2-z
-x,y,1/2-z
-x,-y,-z
x,y,-z
-x,y,1/2+z
x,-y,1/2+z
loop_
_atom_site_type_symbol
_atom_site_label
_atom_site_fract_x
_atom_site_fract_y
_atom_site_fract_z
Si Si1 0.396471 0.558176 0.166231
Si Si2 0.076216 0.065114 0.179465
Si Si3 0.832094 0.332144 0.663977
Si Si4 0.424600 0.315066 0.821553
Si Si5 0.931832 0.253969 0.163059
Si Si6 0.776494 0.443871 0.836520
Si Si7 0.187375 0.151577 0.666148
Si Si8 0.709445 0.231947 0.334958
O O1 0.431359 0.500000 0.250000
O O2 0.411906 0.617773 0.261366
O O3 0.310221 0.546699 0.148595
O O4 0.431406 0.564949 0.000000
O O5 0.147989 0.103621 0.225740
O O6 0.000000 0.092154 0.250000
O O7 0.088452 0.000000 0.250000
O O8 0.069575 0.062654 0.000000
O O9 0.853902 0.354992 0.500000
O O10 0.906470 0.313986 0.750672
O O11 0.789130 0.383344 0.748874
O O12 0.778897 0.275465 0.652636
O O13 0.500000 0.289481 0.750000
O O14 0.360117 0.269098 0.767892
O O15 0.428032 0.317636 0.000000
O O16 0.865489 0.208074 0.151194
O O17 0.000000 0.223645 0.250000
O O18 0.959185 0.273047 0.000000
O O19 0.812803 0.500000 0.750000
O O20 0.812892 0.439914 0.000000
O O21 0.201408 0.124601 0.500000
O O22 0.266056 0.174617 0.733907
O O23 0.689149 0.207821 0.500000
#
# Coordination Sequence:
#
# PCOD8202596 Si02
#       8
#     8   8   8   8   8   8   8   8
#     4  10  20  33  50  70  94 124 159 201 248 303
#     4  11  21  34  52  76 111 150 188 221 255 295
#     4  10  18  31  50  69  91 119 152 194 243 290
#     4  11  22  36  52  72  99 131 166 206 256 311
#     4  10  20  32  47  70  97 126 160 199 242 288
#     4  10  19  30  47  69  91 115 149 191 237 290
#     4  10  20  33  52  76 103 136 174 213 251 291
#     4   9  19  34  51  71  97 128 165 207 250 297
#
# _framework density 17.735429
#
# number of rings (size 3 to 8) (size 9 to 14) (size 15 to 20)
#    0.000    1.875    1.250    4.125    0.000    5.250 
#    0.000    1.250    0.000    0.375    0.000    2.625 
#    0.000    0.500    0.000    5.250    0.000    2.875 
#
# Total GULP energy -793286.219253 kJ/mol
# GULP energy per Si atom -12395.097176 kJ/mol
# Density = 1.769506 g / cm^3
# Si number density = 17.735429 Si / 1000 Ang^3
#
#
#
# Elastic Constant Matrix: (Units=GPa)
#
#
# Indices 1 2 3 4 5 6 
#
# 1 65.4987 28.8675 35.9707 0.0000 0.0000 0.0000
# 2 28.8675 58.2112 40.6891 0.0000 0.0000 0.0000
# 3 35.9707 40.6891 156.8447 0.0000 0.0000 0.0000
# 4 0.0000 0.0000 0.0000 15.5757 0.0000 0.0000
# 5 0.0000 0.0000 0.0000 0.0000 18.9493 0.0000
# 6 0.0000 0.0000 0.0000 0.0000 0.0000 -5.6022
#
#
#
# Elastic Compliance Matrix: (Units=1/GPa)
#
#
# Indices 1 2 3 4 5 6 
#
# 1 0.020308 -0.008325 -0.002498 0.000000 0.000000 0.000000
# 2 -0.008325 0.024397 -0.004420 0.000000 0.000000 0.000000
# 3 -0.002498 -0.004420 0.008095 0.000000 0.000000 0.000000
# 4 0.000000 0.000000 0.000000 0.064203 0.000000 0.000000
# 5 0.000000 0.000000 0.000000 0.000000 0.052772 0.000000
# 6 0.000000 0.000000 0.000000 0.000000 0.000000 -0.178502
#
#
# Mechanical properties :
#
#
# Convention : Reuss Voigt Hill
#
# Bulk Modulus (GPa) = 44.81330 54.62327 49.71828
# Shear Modulus (GPa) = 171.24858 17.45304 94.35081
#
# Velocity S-wave (km/s) = 9.83702 3.14040 7.30168
# Velocity P-wave (km/s) = 12.42357 6.63441 9.95893
#
# Compressibility (1/GPa) = 0.02231480
#
# Stress axis : x y z
#
# Youngs Moduli (GPa) = 49.24064 40.98902 123.53055
#
# Poissons Ratio (x) = 0.34124 0.30855
# Poissons Ratio (y) = 0.40994 0.54598
# Poissons Ratio (z) = 0.12299 0.18116
#
# Static dielectric constant tensor:
#      x y z
#    x 3.211410 0.000000 0.000000 
#    y 0.000000 3.077830 0.000000 
#    z 0.000000 0.000000 3.835020 
# 
# 
# High freq. dielectric constant tensor:
#      x y z
#    x 1.658290 0.000000 0.000000 
#    y 0.000000 1.654510 0.000000 
#    z 0.000000 0.000000 1.710440 
# 
# From -- ./inp_files/6086.got.cif
#   From: 2010.03.12/outbox.cif.g09.slc.cpg/sg49_4_cif.got.tgz:6086.got - 2010.04.14 03:58:27.
