data_PCOD8202416
_publ_section_title
;
Structure prediction by ZEFSAII (Michael W. Deem and Ramdas Pophale) SiO2 
 PCOD8202416
Probable space group: P C C M
;
_chemical_formula_sum "Si O2"
_cell_formula_units_Z 48
_cell_length_a 18.548287
_cell_length_b 14.083528
_cell_length_c 8.859780
_cell_angle_alpha 90.000000
_cell_angle_beta 90.000000
_cell_angle_gamma 90.000000
_cell_volume 2314.398860
_symmetry_space_group_name_H-M "P C C M"
_symmetry_group_IT_number 49
_symmetry_cell_setting 'orthorhombic'
loop_
_space_group_symop_operation_xyz
x,y,z
-x,-y,z
x,-y,1/2-z
-x,y,1/2-z
-x,-y,-z
x,y,-z
-x,y,1/2+z
x,-y,1/2+z
loop_
_atom_site_type_symbol
_atom_site_label
_atom_site_fract_x
_atom_site_fract_y
_atom_site_fract_z
Si Si1 0.711908 0.600469 0.327792
Si Si2 0.814134 0.256040 0.333889
Si Si3 0.924997 0.896960 0.818731
Si Si4 0.927691 0.415179 0.663537
Si Si5 0.420391 0.093544 0.180391
Si Si6 0.576114 0.718234 0.675222
O O1 0.728484 0.500000 0.250000
O O2 0.733160 0.585562 0.500000
O O3 0.755898 0.692295 0.270363
O O4 0.627858 0.627259 0.307271
O O5 0.779472 0.237471 0.500000
O O6 0.852309 0.160908 0.269005
O O7 0.881907 0.322753 0.351361
O O8 0.000000 0.854588 0.750000
O O9 0.912524 0.000000 0.750000
O O10 0.931739 0.899497 0.000000
O O11 0.885052 0.500000 0.750000
O O12 0.947822 0.454587 0.500000
O O13 0.000000 0.389329 0.750000
O O14 0.500000 0.096013 0.250000
O O15 0.385481 0.191821 0.239709
O O16 0.380616 0.000000 0.250000
O O17 0.420585 0.088237 0.000000
O O18 0.500000 0.690944 0.750000
O O19 0.563887 0.744762 0.500000
#
# Coordination Sequence:
#
# PCOD8202416 Si02
#       6
#     8   8   8   8   8   8
#     4  11  25  42  62  85 113 148 190 238 294 357
#     4  10  22  38  57  81 112 149 191 233 282 338
#     4  10  20  36  59  89 122 159 200 244 288 337
#     4  10  19  31  48  74 105 139 178 222 267 318
#     4  10  17  28  50  80 113 147 178 218 269 327
#     4  10  21  38  59  86 114 147 192 242 296 357
#
# _framework density 20.739726999999998
#
# number of rings (size 3 to 8) (size 9 to 14) (size 15 to 20)
#    0.000    1.833    0.000    7.000    0.000    7.000 
#    0.000    2.500    0.000    2.000    0.000    0.000 
#    0.000    0.000    0.000    0.000    0.000    0.000 
#
# Total GULP energy -594671.590793 kJ/mol
# GULP energy per Si atom -12388.991475 kJ/mol
# Density = 2.069252 g / cm^3
# Si number density = 20.739727 Si / 1000 Ang^3
#
#
#
# Elastic Constant Matrix: (Units=GPa)
#
#
# Indices 1 2 3 4 5 6 
#
# 1 72.1008 39.8651 49.0189 0.0000 0.0000 0.0000
# 2 39.8651 91.5997 42.9906 0.0000 0.0000 0.0000
# 3 49.0189 42.9906 162.7125 0.0000 0.0000 0.0000
# 4 0.0000 0.0000 0.0000 12.4456 0.0000 0.0000
# 5 0.0000 0.0000 0.0000 0.0000 28.2376 0.0000
# 6 0.0000 0.0000 0.0000 0.0000 0.0000 37.3769
#
#
#
# Elastic Compliance Matrix: (Units=1/GPa)
#
#
# Indices 1 2 3 4 5 6 
#
# 1 0.020701 -0.006943 -0.004402 0.000000 0.000000 0.000000
# 2 -0.006943 0.014791 -0.001816 0.000000 0.000000 0.000000
# 3 -0.004402 -0.001816 0.007952 0.000000 0.000000 0.000000
# 4 0.000000 0.000000 0.000000 0.080350 0.000000 0.000000
# 5 0.000000 0.000000 0.000000 0.000000 0.035414 0.000000
# 6 0.000000 0.000000 0.000000 0.000000 0.000000 0.026754
#
#
# Mechanical properties :
#
#
# Convention : Reuss Voigt Hill
#
# Bulk Modulus (GPa) = 58.40726 65.57358 61.99042
# Shear Modulus (GPa) = 22.93653 28.58125 25.75889
#
# Velocity S-wave (km/s) = 3.32915 3.71629 3.52804
# Velocity P-wave (km/s) = 6.55750 7.07817 6.82280
#
# Compressibility (1/GPa) = 0.01712116
#
# Stress axis : x y z
#
# Youngs Moduli (GPa) = 48.30617 67.60706 125.75741
#
# Poissons Ratio (x) = 0.46943 0.55358
# Poissons Ratio (y) = 0.33541 0.22841
# Poissons Ratio (z) = 0.21264 0.12279
#
# Static dielectric constant tensor:
#      x y z
#    x 3.549630 0.000000 0.000000 
#    y 0.000000 4.313700 0.000000 
#    z 0.000000 0.000000 4.079010 
# 
# 
# High freq. dielectric constant tensor:
#      x y z
#    x 1.786730 0.000000 0.000000 
#    y 0.000000 1.820310 0.000000 
#    z 0.000000 0.000000 1.824600 
# 
# From -- ./inp_files/4876.got.cif
#   From: 2010.03.12/outbox.cif.g09.slc.cpg/sg49_3_cif.got.tgz:4876.got - 2010.04.14 03:58:27.
