data_PCOD8202079
_publ_section_title
;
Structure prediction by ZEFSAII (Michael W. Deem and Ramdas Pophale) SiO2 
 PCOD8202079
Probable space group: P N N N
;
_chemical_formula_sum "Si O2"
_cell_formula_units_Z 38
_cell_length_a 11.223429
_cell_length_b 11.599022
_cell_length_c 13.587078
_cell_angle_alpha 90.000000
_cell_angle_beta 90.000000
_cell_angle_gamma 90.000000
_cell_volume 1768.776682
_symmetry_space_group_name_H-M "P N N N"
_symmetry_group_IT_number 48
_space_group.IT_coordinate_system_code '2'
_symmetry_cell_setting 'orthorhombic'
loop_
_space_group_symop_operation_xyz
x,y,z
1/2-x,1/2-y,z
x,1/2-y,1/2-z
1/2-x,y,1/2-z
-x,-y,-z
1/2+x,1/2+y,-z
-x,1/2+y,1/2+z
1/2+x,-y,1/2+z
loop_
_atom_site_type_symbol
_atom_site_label
_atom_site_fract_x
_atom_site_fract_y
_atom_site_fract_z
Si Si1 0.750000 0.250000 0.051503
Si Si2 0.067987 0.863266 0.810761
Si Si3 0.413823 0.058548 0.844531
Si Si4 0.857547 0.448766 0.947540
Si Si5 0.801447 0.630617 0.641305
Si Si6 0.250000 0.250000 0.750000
O O1 0.822951 0.156753 0.115279
O O2 0.837772 0.318800 0.981729
O O3 0.042580 0.750000 0.750000
O O4 0.944019 0.883661 0.866785
O O5 0.112774 0.965068 0.739859
O O6 0.557180 0.069953 0.851709
O O7 0.337014 0.172543 0.818764
O O8 0.396824 0.020701 0.956995
O O9 0.740981 0.516435 0.913602
O O10 0.750000 0.750000 0.592409
O O11 0.750000 0.628754 0.750000
#
# Coordination Sequence:
#
# PCOD8202079 Si02
#       6
#     4   8   8   8   8   2
#     4  12  27  40  71 104 134 182 227 288 340 405
#     4  12  22  44  73  96 132 183 234 274 332 416
#     4  11  25  44  66  94 139 177 224 280 338 410
#     4  11  25  43  65 101 136 173 224 286 338 401
#     4  11  22  42  69 101 131 183 227 274 341 413
#     4  12  28  44  66 102 134 192 220 282 362 408
#
# _framework density 21.483775999999999
#
# number of rings (size 3 to 8) (size 9 to 14) (size 15 to 20)
#    0.000    0.632    6.316    1.579    4.421    2.526 
#    0.000    0.000    0.000    0.000    0.000    0.000 
#    0.000    0.000    0.000    0.000    0.000    0.000 
#
# Total GULP energy -470812.830569 kJ/mol
# GULP energy per Si atom -12389.811331 kJ/mol
# Density = 2.143488 g / cm^3
# Si number density = 21.483776 Si / 1000 Ang^3
#
#
#
# Elastic Constant Matrix: (Units=GPa)
#
#
# Indices 1 2 3 4 5 6 
#
# 1 123.7210 46.1980 33.7815 0.0000 0.0000 0.0000
# 2 46.1980 123.9568 53.8846 0.0000 0.0000 0.0000
# 3 33.7815 53.8846 67.1740 0.0000 0.0000 0.0000
# 4 0.0000 0.0000 0.0000 199.8227 0.0000 0.0000
# 5 0.0000 0.0000 0.0000 0.0000 -45.9508 0.0000
# 6 0.0000 0.0000 0.0000 0.0000 0.0000 37.6472
#
#
#
# Elastic Compliance Matrix: (Units=1/GPa)
#
#
# Indices 1 2 3 4 5 6 
#
# 1 0.009783 -0.002315 -0.003063 0.000000 0.000000 0.000000
# 2 -0.002315 0.012934 -0.009211 0.000000 0.000000 0.000000
# 3 -0.003063 -0.009211 0.023816 0.000000 0.000000 0.000000
# 4 0.000000 0.000000 0.000000 0.005004 0.000000 0.000000
# 5 0.000000 0.000000 0.000000 0.000000 -0.021762 0.000000
# 6 0.000000 0.000000 0.000000 0.000000 0.000000 0.026562
#
#
# Mechanical properties :
#
#
# Convention : Reuss Voigt Hill
#
# Bulk Modulus (GPa) = 57.61930 64.73111 61.17520
# Shear Modulus (GPa) = 54.76335 50.36968 52.56651
#
# Velocity S-wave (km/s) = 5.05429 4.84730 4.95188
# Velocity P-wave (km/s) = 7.80636 7.84373 7.82507
#
# Compressibility (1/GPa) = 0.01735530
#
# Stress axis : x y z
#
# Youngs Moduli (GPa) = 102.21381 77.31458 41.98808
#
# Poissons Ratio (x) = 0.17895 0.12863
# Poissons Ratio (y) = 0.23658 0.38677
# Poissons Ratio (z) = 0.31312 0.71217
#
# Static dielectric constant tensor:
#      x y z
#    x 4.354990 0.000000 0.000000 
#    y 0.000000 3.871870 0.000000 
#    z 0.000000 0.000000 3.724380 
# 
# 
# High freq. dielectric constant tensor:
#      x y z
#    x 1.860640 0.000000 0.000000 
#    y 0.000000 1.839290 0.000000 
#    z 0.000000 0.000000 1.830500 
# 
# From -- ./inp_files/26290.got.cif
#   From: 2010.06.25/outbox.cif.g09.slc.cpg/sg48_14_cif.got.tgz:26290.got - 2010.06.26 18:06:46.
