data_PCOD8202778
_publ_section_title
;
Structure prediction by ZEFSAII (Michael W. Deem and Ramdas Pophale) SiO2 
 PCOD8202778
Probable space group: P C C M
;
_chemical_formula_sum "Si O2"
_cell_formula_units_Z 64
_cell_length_a 14.302323
_cell_length_b 31.825413
_cell_length_c 8.785444
_cell_angle_alpha 90.000000
_cell_angle_beta 90.000000
_cell_angle_gamma 90.000000
_cell_volume 3998.934998
_symmetry_space_group_name_H-M "P C C M"
_symmetry_group_IT_number 49
_symmetry_cell_setting 'orthorhombic'
loop_
_space_group_symop_operation_xyz
x,y,z
-x,-y,z
x,-y,1/2-z
-x,y,1/2-z
-x,-y,-z
x,y,-z
-x,y,1/2+z
x,-y,1/2+z
loop_
_atom_site_type_symbol
_atom_site_label
_atom_site_fract_x
_atom_site_fract_y
_atom_site_fract_z
Si Si1 0.601732 0.221238 0.178702
Si Si2 0.720851 0.542750 0.181154
Si Si3 0.906006 0.331605 0.677787
Si Si4 0.602893 0.040555 0.820885
Si Si5 0.289904 0.704720 0.675873
Si Si6 0.599880 0.869859 0.322641
Si Si7 0.398480 0.377549 0.179799
Si Si8 0.097809 0.578287 0.181410
O O1 0.500000 0.229271 0.250000
O O2 0.676308 0.255033 0.232742
O O3 0.645391 0.175054 0.224560
O O4 0.588667 0.225575 0.000000
O O5 0.677256 0.500000 0.250000
O O6 0.654539 0.580713 0.235103
O O7 0.822756 0.547981 0.254182
O O8 0.728741 0.540493 0.000000
O O9 0.921246 0.341782 0.500000
O O10 0.821260 0.299276 0.701819
O O11 0.881320 0.374588 0.762947
O O12 0.000000 0.311532 0.750000
O O13 0.500000 0.041517 0.750000
O O14 0.652954 0.085936 0.780209
O O15 0.657557 0.000000 0.750000
O O16 0.596479 0.033930 0.000000
O O17 0.314066 0.711522 0.500000
O O18 0.341089 0.662957 0.737394
O O19 0.500000 0.871225 0.250000
O O20 0.582476 0.869746 0.500000
O O21 0.500000 0.376299 0.250000
O O22 0.406931 0.377214 0.000000
O O23 0.000000 0.562221 0.250000
O O24 0.095312 0.576547 0.000000
#
# Coordination Sequence:
#
# PCOD8202778 Si02
#       8
#     8   8   8   8   8   8   8   8
#     4  10  19  30  44  64  89 120 157 195 232 275
#     4  11  23  41  58  77 102 127 155 190 225 266
#     4  10  19  34  54  77 103 125 150 182 220 263
#     4   9  14  20  30  45  66  95 134 181 228 271
#     4  10  20  35  52  72  97 124 149 186 227 265
#     4   8  15  25  35  49  74 106 141 184 231 270
#     4  10  22  39  56  73  98 124 153 189 226 263
#     4  11  21  35  57  82 105 130 154 180 218 265
#
# _framework density 16.004259999999999
#
# number of rings (size 3 to 8) (size 9 to 14) (size 15 to 20)
#    0.000    2.125    1.250    4.125    0.000    5.000 
#    0.000    2.500    0.000    0.000    0.000    0.000 
#    0.000    0.000    0.000    0.000    0.000    0.625 
#
# Total GULP energy -793032.489304 kJ/mol
# GULP energy per Si atom -12391.132645 kJ/mol
# Density = 1.596783 g / cm^3
# Si number density = 16.004260 Si / 1000 Ang^3
#
#
#
# Elastic Constant Matrix: (Units=GPa)
#
#
# Indices 1 2 3 4 5 6 
#
# 1 68.8917 45.7380 26.4965 0.0000 0.0000 0.0000
# 2 45.7380 151.0662 44.9588 0.0000 0.0000 0.0000
# 3 26.4965 44.9588 70.0974 0.0000 0.0000 0.0000
# 4 0.0000 0.0000 0.0000 23.6922 0.0000 0.0000
# 5 0.0000 0.0000 0.0000 0.0000 21.5927 0.0000
# 6 0.0000 0.0000 0.0000 0.0000 0.0000 10.2977
#
#
#
# Elastic Compliance Matrix: (Units=1/GPa)
#
#
# Indices 1 2 3 4 5 6 
#
# 1 0.019188 -0.004512 -0.004359 0.000000 0.000000 0.000000
# 2 -0.004512 0.009242 -0.004222 0.000000 0.000000 0.000000
# 3 -0.004359 -0.004222 0.018622 0.000000 0.000000 0.000000
# 4 0.000000 0.000000 0.000000 0.042208 0.000000 0.000000
# 5 0.000000 0.000000 0.000000 0.000000 0.046312 0.000000
# 6 0.000000 0.000000 0.000000 0.000000 0.000000 0.097109
#
#
# Mechanical properties :
#
#
# Convention : Reuss Voigt Hill
#
# Bulk Modulus (GPa) = 47.92711 58.27133 53.09922
# Shear Modulus (GPa) = 18.80959 22.64066 20.72513
#
# Velocity S-wave (km/s) = 3.43196 3.76528 3.60248
# Velocity P-wave (km/s) = 6.76136 7.44258 7.11014
#
# Compressibility (1/GPa) = 0.02086502
#
# Stress axis : x y z
#
# Youngs Moduli (GPa) = 52.11670 108.19778 53.70130
#
# Poissons Ratio (x) = 0.48821 0.23408
# Poissons Ratio (y) = 0.23516 0.22674
# Poissons Ratio (z) = 0.22717 0.45684
#
# Static dielectric constant tensor:
#      x y z
#    x 2.780960 0.000000 0.000000 
#    y 0.000000 3.749360 0.000000 
#    z 0.000000 0.000000 3.044340 
# 
# 
# High freq. dielectric constant tensor:
#      x y z
#    x 1.568470 0.000000 0.000000 
#    y 0.000000 1.621910 0.000000 
#    z 0.000000 0.000000 1.628190 
# 
# From -- ./inp_files/4538.got.cif
#   From: 2010.03.12/outbox.cif.g09.slc.cpg/sg49_3_cif.got.tgz:4538.got - 2010.04.14 03:58:27.
