data_PCOD8202115
_publ_section_title
;
Structure prediction by ZEFSAII (Michael W. Deem and Ramdas Pophale) SiO2 
 PCOD8202115
Probable space group: P N N N
;
_chemical_formula_sum "Si O2"
_cell_formula_units_Z 40
_cell_length_a 9.989093
_cell_length_b 10.279128
_cell_length_c 16.103755
_cell_angle_alpha 90.000000
_cell_angle_beta 90.000000
_cell_angle_gamma 90.000000
_cell_volume 1653.520126
_symmetry_space_group_name_H-M "P N N N"
_symmetry_group_IT_number 48
_space_group.IT_coordinate_system_code '2'
_symmetry_cell_setting 'orthorhombic'
loop_
_space_group_symop_operation_xyz
x,y,z
1/2-x,1/2-y,z
x,1/2-y,1/2-z
1/2-x,y,1/2-z
-x,-y,-z
1/2+x,1/2+y,-z
-x,1/2+y,1/2+z
1/2+x,-y,1/2+z
loop_
_atom_site_type_symbol
_atom_site_label
_atom_site_fract_x
_atom_site_fract_y
_atom_site_fract_z
Si Si1 0.524148 0.561402 0.188314
Si Si2 0.988475 0.841789 0.363427
Si Si3 0.628133 0.162469 0.422591
Si Si4 0.738791 0.422310 0.901500
Si Si5 0.121974 0.336099 0.033900
O O1 0.540837 0.558933 0.288031
O O2 0.574932 0.700483 0.154299
O O3 0.611414 0.450213 0.145453
O O4 0.366434 0.544699 0.170028
O O5 0.150083 0.811509 0.377541
O O6 0.924745 0.900263 0.446649
O O7 0.750000 0.250000 0.391026
O O8 0.660459 0.100729 0.512333
O O9 0.493968 0.247592 0.426619
O O10 0.839447 0.546274 0.905905
O O11 0.250000 0.250000 0.015926
#
# Coordination Sequence:
#
# PCOD8202115 Si02
#       5
#     8   8   8   8   8
#     4  11  23  44  73 108 151 191 245 318 380 435
#     4  11  24  43  71 111 146 192 245 319 380 435
#     4  12  24  45  77 110 150 200 257 308 370 459
#     4  12  22  43  76 106 146 198 263 304 366 465
#     4  12  24  44  77 109 147 200 256 307 376 455
#
# _framework density 24.190815000000001
#
# number of rings (size 3 to 8) (size 9 to 14) (size 15 to 20)
#    0.000    0.400    6.000    3.600    0.000    1.600 
#    0.000    8.000    4.400    0.000    0.000    0.000 
#    0.000    0.000    0.000    0.000    0.000    0.000 
#
# Total GULP energy -496169.666970 kJ/mol
# GULP energy per Si atom -12404.241674 kJ/mol
# Density = 2.413576 g / cm^3
# Si number density = 24.190815 Si / 1000 Ang^3
#
#
#
# Elastic Constant Matrix: (Units=GPa)
#
#
# Indices 1 2 3 4 5 6 
#
# 1 114.3564 43.8042 24.5330 0.0000 0.0000 0.0000
# 2 43.8042 98.4377 52.4971 0.0000 0.0000 0.0000
# 3 24.5330 52.4971 118.4371 0.0000 0.0000 0.0000
# 4 0.0000 0.0000 0.0000 40.7713 0.0000 0.0000
# 5 0.0000 0.0000 0.0000 0.0000 33.2726 0.0000
# 6 0.0000 0.0000 0.0000 0.0000 0.0000 50.0880
#
#
#
# Elastic Compliance Matrix: (Units=1/GPa)
#
#
# Indices 1 2 3 4 5 6 
#
# 1 0.010543 -0.004619 -0.000137 0.000000 0.000000 0.000000
# 2 -0.004619 0.015327 -0.005837 0.000000 0.000000 0.000000
# 3 -0.000137 -0.005837 0.011059 0.000000 0.000000 0.000000
# 4 0.000000 0.000000 0.000000 0.024527 0.000000 0.000000
# 5 0.000000 0.000000 0.000000 0.000000 0.030055 0.000000
# 6 0.000000 0.000000 0.000000 0.000000 0.000000 0.019965
#
#
# Mechanical properties :
#
#
# Convention : Reuss Voigt Hill
#
# Bulk Modulus (GPa) = 63.51541 63.65555 63.58548
# Shear Modulus (GPa) = 36.25603 38.85283 37.55443
#
# Velocity S-wave (km/s) = 3.87557 4.01196 3.94436
# Velocity P-wave (km/s) = 6.80733 6.91608 6.86192
#
# Compressibility (1/GPa) = 0.01574421
#
# Stress axis : x y z
#
# Youngs Moduli (GPa) = 94.84862 65.24496 90.42577
#
# Poissons Ratio (x) = 0.30135 0.01236
# Poissons Ratio (y) = 0.43808 0.52780
# Poissons Ratio (z) = 0.01296 0.38083
#
# Static dielectric constant tensor:
#      x y z
#    x 4.670710 0.000000 0.000000 
#    y 0.000000 5.103050 0.000000 
#    z 0.000000 0.000000 4.152980 
# 
# 
# High freq. dielectric constant tensor:
#      x y z
#    x 1.975840 0.000000 0.000000 
#    y 0.000000 1.966050 0.000000 
#    z 0.000000 0.000000 1.941680 
# 
# From -- ./inp_files/30018.got.cif
#   From: 2010.06.25/outbox.cif.g09.slc.cpg/sg48_16_cif.got.tgz:30018.got - 2010.06.26 18:06:46.
