data_PCOD8202143
_publ_section_title
;
Structure prediction by ZEFSAII (Michael W. Deem and Ramdas Pophale) SiO2 
 PCOD8202143
Probable space group: P N N N
;
_chemical_formula_sum "Si O2"
_cell_formula_units_Z 32
_cell_length_a 7.725371
_cell_length_b 11.382324
_cell_length_c 13.665743
_cell_angle_alpha 90.000000
_cell_angle_beta 90.000000
_cell_angle_gamma 90.000000
_cell_volume 1201.665348
_symmetry_space_group_name_H-M "P N N N"
_symmetry_group_IT_number 48
_space_group.IT_coordinate_system_code '2'
_symmetry_cell_setting 'orthorhombic'
loop_
_space_group_symop_operation_xyz
x,y,z
1/2-x,1/2-y,z
x,1/2-y,1/2-z
1/2-x,y,1/2-z
-x,-y,-z
1/2+x,1/2+y,-z
-x,1/2+y,1/2+z
1/2+x,-y,1/2+z
loop_
_atom_site_type_symbol
_atom_site_label
_atom_site_fract_x
_atom_site_fract_y
_atom_site_fract_z
Si Si1 0.504669 0.789767 0.649151
Si Si2 0.447150 0.115834 0.724692
Si Si3 0.158237 0.632555 0.459897
Si Si4 0.164186 0.059229 0.360577
O O1 0.410220 0.750000 0.750000
O O2 0.383830 0.859991 0.574985
O O3 0.551128 0.666091 0.595555
O O4 0.663421 0.873374 0.682569
O O5 0.485635 0.250000 0.750000
O O6 0.250000 0.080526 0.750000
O O7 0.489801 0.106016 0.608170
O O8 0.575459 0.026653 0.780309
O O9 0.250000 0.750000 0.421252
O O10 0.286657 0.521641 0.452527
#
# Coordination Sequence:
#
# PCOD8202143 Si02
#       4
#     8   8   8   8
#     4  11  25  48  77 110 157 211 256 311 390 465
#     4  11  24  46  77 117 150 193 261 334 392 455
#     4  12  25  46  77 112 153 206 261 316 389 463
#     4  11  24  50  81 107 156 208 257 321 391 463
#
# _framework density 26.629708000000001
#
# number of rings (size 3 to 8) (size 9 to 14) (size 15 to 20)
#    0.000    0.750    2.500    6.000    0.000    5.500 
#   13.500    0.000    0.000    1.500    0.000    0.000 
#    0.000    0.000    0.000    0.000    0.000    0.000 
#
# Total GULP energy -396426.051683 kJ/mol
# GULP energy per Si atom -12388.314115 kJ/mol
# Density = 2.656910 g / cm^3
# Si number density = 26.629708 Si / 1000 Ang^3
#
#
#
# Elastic Constant Matrix: (Units=GPa)
#
#
# Indices 1 2 3 4 5 6 
#
# 1 119.9900 69.6423 70.7534 0.0000 0.0000 0.0000
# 2 69.6423 235.5585 59.2151 0.0000 0.0000 0.0000
# 3 70.7534 59.2151 192.8428 0.0000 0.0000 0.0000
# 4 0.0000 0.0000 0.0000 31.9837 0.0000 0.0000
# 5 0.0000 0.0000 0.0000 0.0000 35.0424 0.0000
# 6 0.0000 0.0000 0.0000 0.0000 0.0000 24.3874
#
#
#
# Elastic Compliance Matrix: (Units=1/GPa)
#
#
# Indices 1 2 3 4 5 6 
#
# 1 0.011981 -0.002641 -0.003585 0.000000 0.000000 0.000000
# 2 -0.002641 0.005182 -0.000622 0.000000 0.000000 0.000000
# 3 -0.003585 -0.000622 0.006692 0.000000 0.000000 0.000000
# 4 0.000000 0.000000 0.000000 0.031266 0.000000 0.000000
# 5 0.000000 0.000000 0.000000 0.000000 0.028537 0.000000
# 6 0.000000 0.000000 0.000000 0.000000 0.000000 0.041005
#
#
# Mechanical properties :
#
#
# Convention : Reuss Voigt Hill
#
# Bulk Modulus (GPa) = 98.43572 105.29029 101.86301
# Shear Modulus (GPa) = 35.27467 41.53475 38.40471
#
# Velocity S-wave (km/s) = 3.64350 3.95361 3.80172
# Velocity P-wave (km/s) = 7.39899 7.77598 7.58982
#
# Compressibility (1/GPa) = 0.01015891
#
# Stress axis : x y z
#
# Youngs Moduli (GPa) = 83.46849 192.95826 149.43419
#
# Poissons Ratio (x) = 0.50958 0.53568
# Poissons Ratio (y) = 0.22043 0.09301
# Poissons Ratio (z) = 0.29921 0.12010
#
# Static dielectric constant tensor:
#      x y z
#    x 4.795480 0.000000 0.000000 
#    y 0.000000 5.798460 0.000000 
#    z 0.000000 0.000000 4.363960 
# 
# 
# High freq. dielectric constant tensor:
#      x y z
#    x 2.047400 0.000000 0.000000 
#    y 0.000000 2.121420 0.000000 
#    z 0.000000 0.000000 2.058630 
# 
# From -- ./inp_files/24860.got.cif
#   From: 2010.06.25/outbox.cif.g09.slc.cpg/sg48_13_cif.got.tgz:24860.got - 2010.06.26 18:06:46.
