data_PCOD8202536
_publ_section_title
;
Structure prediction by ZEFSAII (Michael W. Deem and Ramdas Pophale) SiO2 
 PCOD8202536
Probable space group: P C C M
;
_chemical_formula_sum "Si O2"
_cell_formula_units_Z 56
_cell_length_a 18.403439
_cell_length_b 21.336677
_cell_length_c 8.804549
_cell_angle_alpha 90.000000
_cell_angle_beta 90.000000
_cell_angle_gamma 90.000000
_cell_volume 3457.266704
_symmetry_space_group_name_H-M "P C C M"
_symmetry_group_IT_number 49
_symmetry_cell_setting 'orthorhombic'
loop_
_space_group_symop_operation_xyz
x,y,z
-x,-y,z
x,-y,1/2-z
-x,y,1/2-z
-x,-y,-z
x,y,-z
-x,y,1/2+z
x,-y,1/2+z
loop_
_atom_site_type_symbol
_atom_site_label
_atom_site_fract_x
_atom_site_fract_y
_atom_site_fract_z
Si Si1 0.576415 0.701601 0.821080
Si Si2 0.348348 0.821425 0.174733
Si Si3 0.577081 0.934039 0.819833
Si Si4 0.218475 0.258080 0.671661
Si Si5 0.163038 0.435830 0.322137
Si Si6 0.075115 0.314976 0.673182
Si Si7 0.713518 0.629242 0.172649
O O1 0.500000 0.682268 0.750000
O O2 0.605458 0.762984 0.735348
O O3 0.628183 0.640858 0.792269
O O4 0.570531 0.716692 0.000000
O O5 0.363501 0.882467 0.275110
O O6 0.261180 0.807758 0.188629
O O7 0.370375 0.833682 0.000000
O O8 0.500000 0.913285 0.750000
O O9 0.602266 0.000000 0.750000
O O10 0.570353 0.940018 0.000000
O O11 0.232891 0.285131 0.500000
O O12 0.130968 0.255994 0.695230
O O13 0.249731 0.303740 0.798627
O O14 0.133939 0.500000 0.250000
O O15 0.158681 0.442705 0.500000
O O16 0.112580 0.378611 0.262068
O O17 0.247417 0.423288 0.275688
O O18 0.056217 0.326854 0.500000
O O19 0.000000 0.297484 0.750000
O O20 0.725960 0.608712 0.000000
#
# Coordination Sequence:
#
# PCOD8202536 Si02
#       7
#     8   8   8   8   8   8   8
#     4  10  19  29  43  65  89 113 143 181 223 267
#     4  10  18  30  47  65  88 119 153 189 224 260
#     4  11  21  33  46  63  90 124 161 195 229 267
#     4   8  16  30  46  64  88 117 148 179 217 262
#     4  10  20  33  48  65  86 113 147 179 213 258
#     4   9  18  31  46  67  93 120 145 174 213 258
#     4   9  17  29  45  64  85 109 141 179 220 261
#
# _framework density 16.197766999999999
#
# number of rings (size 3 to 8) (size 9 to 14) (size 15 to 20)
#    0.000    2.429    0.000    4.714    0.000    5.429 
#    0.000    1.429    0.000    0.429    0.000    3.000 
#    0.000    0.571    0.000    6.571    0.000    2.000 
#
# Total GULP energy -693951.676589 kJ/mol
# GULP energy per Si atom -12391.994225 kJ/mol
# Density = 1.616090 g / cm^3
# Si number density = 16.197767 Si / 1000 Ang^3
#
#
#
# Elastic Constant Matrix: (Units=GPa)
#
#
# Indices 1 2 3 4 5 6 
#
# 1 115.3223 36.5897 38.0914 0.0000 0.0000 0.0000
# 2 36.5897 50.8800 21.7391 0.0000 0.0000 0.0000
# 3 38.0914 21.7391 79.0359 0.0000 0.0000 0.0000
# 4 0.0000 0.0000 0.0000 23.2005 0.0000 0.0000
# 5 0.0000 0.0000 0.0000 0.0000 25.1205 0.0000
# 6 0.0000 0.0000 0.0000 0.0000 0.0000 18.9715
#
#
#
# Elastic Compliance Matrix: (Units=1/GPa)
#
#
# Indices 1 2 3 4 5 6 
#
# 1 0.012228 -0.007111 -0.003937 0.000000 0.000000 0.000000
# 2 -0.007111 0.026407 -0.003836 0.000000 0.000000 0.000000
# 3 -0.003937 -0.003836 0.015605 0.000000 0.000000 0.000000
# 4 0.000000 0.000000 0.000000 0.043103 0.000000 0.000000
# 5 0.000000 0.000000 0.000000 0.000000 0.039808 0.000000
# 6 0.000000 0.000000 0.000000 0.000000 0.000000 0.052711
#
#
# Mechanical properties :
#
#
# Convention : Reuss Voigt Hill
#
# Bulk Modulus (GPa) = 40.86485 48.67540 44.77012
# Shear Modulus (GPa) = 21.95019 23.37971 22.66495
#
# Velocity S-wave (km/s) = 3.68521 3.80332 3.74473
# Velocity P-wave (km/s) = 6.58720 7.02872 6.81154
#
# Compressibility (1/GPa) = 0.02447091
#
# Stress axis : x y z
#
# Youngs Moduli (GPa) = 81.77816 37.86848 64.08117
#
# Poissons Ratio (x) = 0.26930 0.25231
# Poissons Ratio (y) = 0.58156 0.24582
# Poissons Ratio (z) = 0.32199 0.14526
#
# Static dielectric constant tensor:
#      x y z
#    x 3.196350 0.000000 0.000000 
#    y 0.000000 2.886080 0.000000 
#    z 0.000000 0.000000 3.162310 
# 
# 
# High freq. dielectric constant tensor:
#      x y z
#    x 1.612230 0.000000 0.000000 
#    y 0.000000 1.584270 0.000000 
#    z 0.000000 0.000000 1.638330 
# 
# From -- ./inp_files/5156.got.cif
#   From: 2010.03.12/outbox.cif.g09.slc.cpg/sg49_3_cif.got.tgz:5156.got - 2010.04.14 03:58:27.
