data_PCOD8202887
_publ_section_title
;
Structure prediction by ZEFSAII (Michael W. Deem and Ramdas Pophale) SiO2 
 PCOD8202887
Probable space group: P C C M
;
_chemical_formula_sum "Si O2"
_cell_formula_units_Z 42
_cell_length_a 19.284893
_cell_length_b 13.755790
_cell_length_c 9.009292
_cell_angle_alpha 90.000000
_cell_angle_beta 90.000000
_cell_angle_gamma 90.000000
_cell_volume 2389.975416
_symmetry_space_group_name_H-M "P C C M"
_symmetry_group_IT_number 49
_symmetry_cell_setting 'orthorhombic'
loop_
_space_group_symop_operation_xyz
x,y,z
-x,-y,z
x,-y,1/2-z
-x,y,1/2-z
-x,-y,-z
x,y,-z
-x,y,1/2+z
x,-y,1/2+z
loop_
_atom_site_type_symbol
_atom_site_label
_atom_site_fract_x
_atom_site_fract_y
_atom_site_fract_z
Si Si1 0.500000 0.000000 0.250000
Si Si2 0.366978 0.091349 0.665020
Si Si3 0.069617 0.736323 0.173365
Si Si4 0.150603 0.102227 0.828628
Si Si5 0.282741 0.237300 0.170662
Si Si6 0.200738 0.396828 0.326785
O O1 0.450072 0.071237 0.345984
O O2 0.335501 0.098670 0.500000
O O3 0.351027 0.190606 0.753661
O O4 0.331173 0.000000 0.750000
O O5 0.089527 0.838419 0.248616
O O6 0.128214 0.656309 0.203275
O O7 0.000000 0.696401 0.250000
O O8 0.057349 0.753579 0.000000
O O9 0.221913 0.159697 0.809924
O O10 0.159242 0.000000 0.750000
O O11 0.130655 0.087923 0.000000
O O12 0.263605 0.336631 0.253992
O O13 0.298827 0.261013 0.000000
O O14 0.196526 0.500000 0.250000
O O15 0.216149 0.408945 0.500000
#
# Coordination Sequence:
#
# PCOD8202887 Si02
#       6
#     2   8   8   8   8   8
#     4   8  22  32  50  76 116 152 184 212 246 288
#     4  10  19  31  49  74 109 146 180 212 248 294
#     4  10  21  36  53  73  98 129 166 211 260 315
#     4  10  20  33  49  71  99 132 170 211 253 304
#     4  10  20  33  52  76 103 136 173 214 260 306
#     4  10  21  37  56  77 102 130 167 215 266 315
#
# _framework density 17.573402999999999
#
# number of rings (size 3 to 8) (size 9 to 14) (size 15 to 20)
#    0.571    1.524    0.000    3.714    0.000    6.857 
#    0.000    3.810    0.000    0.000    0.000    0.667 
#    0.000    4.571    0.000    0.000    0.000    0.000 
#
# Total GULP energy -520729.897736 kJ/mol
# GULP energy per Si atom -12398.330898 kJ/mol
# Density = 1.753341 g / cm^3
# Si number density = 17.573403 Si / 1000 Ang^3
#
#
#
# Elastic Constant Matrix: (Units=GPa)
#
#
# Indices 1 2 3 4 5 6 
#
# 1 62.5184 22.5652 38.1152 0.0000 0.0000 0.0000
# 2 22.5652 98.3774 66.4206 0.0000 0.0000 0.0000
# 3 38.1152 66.4206 154.6738 0.0000 0.0000 0.0000
# 4 0.0000 0.0000 0.0000 34.6785 0.0000 0.0000
# 5 0.0000 0.0000 0.0000 0.0000 23.7631 0.0000
# 6 0.0000 0.0000 0.0000 0.0000 0.0000 17.9662
#
#
#
# Elastic Compliance Matrix: (Units=1/GPa)
#
#
# Indices 1 2 3 4 5 6 
#
# 1 0.019020 -0.001687 -0.003962 0.000000 0.000000 0.000000
# 2 -0.001687 0.014465 -0.005796 0.000000 0.000000 0.000000
# 3 -0.003962 -0.005796 0.009930 0.000000 0.000000 0.000000
# 4 0.000000 0.000000 0.000000 0.028836 0.000000 0.000000
# 5 0.000000 0.000000 0.000000 0.000000 0.042082 0.000000
# 6 0.000000 0.000000 0.000000 0.000000 0.000000 0.055660
#
#
# Mechanical properties :
#
#
# Convention : Reuss Voigt Hill
#
# Bulk Modulus (GPa) = 48.72256 63.30797 56.01526
# Shear Modulus (GPa) = 25.03418 27.84613 26.44015
#
# Velocity S-wave (km/s) = 3.77841 3.98497 3.88307
# Velocity P-wave (km/s) = 6.84256 7.56812 7.21447
#
# Compressibility (1/GPa) = 0.02052437
#
# Stress axis : x y z
#
# Youngs Moduli (GPa) = 52.57603 69.13181 100.69993
#
# Poissons Ratio (x) = 0.11666 0.39901
# Poissons Ratio (y) = 0.08872 0.58364
# Poissons Ratio (z) = 0.20832 0.40068
#
# Static dielectric constant tensor:
#      x y z
#    x 3.067580 0.000000 0.000000 
#    y 0.000000 3.134070 0.000000 
#    z 0.000000 0.000000 3.404480 
# 
# 
# High freq. dielectric constant tensor:
#      x y z
#    x 1.655490 0.000000 0.000000 
#    y 0.000000 1.664050 0.000000 
#    z 0.000000 0.000000 1.699520 
# 
# From -- ./inp_files/6296.got.cif
#   From: 2010.03.12/outbox.cif.g09.slc.cpg/sg49_4_cif.got.tgz:6296.got - 2010.04.14 03:58:27.
