data_PCOD8202916
_publ_section_title
;
Structure prediction by ZEFSAII (Michael W. Deem and Ramdas Pophale) SiO2 
 PCOD8202916
Probable space group: P C C M
;
_chemical_formula_sum "Si O2"
_cell_formula_units_Z 56
_cell_length_a 15.478160
_cell_length_b 20.128401
_cell_length_c 9.037820
_cell_angle_alpha 90.000000
_cell_angle_beta 90.000000
_cell_angle_gamma 90.000000
_cell_volume 2815.738345
_symmetry_space_group_name_H-M "P C C M"
_symmetry_group_IT_number 49
_symmetry_cell_setting 'orthorhombic'
loop_
_space_group_symop_operation_xyz
x,y,z
-x,-y,z
x,-y,1/2-z
-x,y,1/2-z
-x,-y,-z
x,y,-z
-x,y,1/2+z
x,-y,1/2+z
loop_
_atom_site_type_symbol
_atom_site_label
_atom_site_fract_x
_atom_site_fract_y
_atom_site_fract_z
Si Si1 0.584096 0.624218 0.674624
Si Si2 0.761038 0.936695 0.672068
Si Si3 0.585055 0.901250 0.830218
Si Si4 0.367122 0.246885 0.167896
Si Si5 0.912003 0.328805 0.170085
Si Si6 0.198679 0.208289 0.330553
Si Si7 0.232594 0.431826 0.325097
O O1 0.500000 0.589949 0.750000
O O2 0.573193 0.621712 0.500000
O O3 0.586697 0.700599 0.726000
O O4 0.670948 0.587295 0.727968
O O5 0.750255 0.951665 0.500000
O O6 0.666998 0.928983 0.743274
O O7 0.818085 0.870101 0.699330
O O8 0.807390 0.000000 0.750000
O O9 0.500000 0.929773 0.750000
O O10 0.581416 0.821695 0.821391
O O11 0.588598 0.925516 0.000000
O O12 0.269331 0.236097 0.219489
O O13 0.365881 0.273937 0.000000
O O14 0.887935 0.251165 0.196659
O O15 0.833706 0.374896 0.228219
O O16 0.000000 0.347357 0.250000
O O17 0.928403 0.343893 0.000000
O O18 0.231284 0.218660 0.500000
O O19 0.203742 0.500000 0.250000
O O20 0.230266 0.440316 0.500000
#
# Coordination Sequence:
#
# PCOD8202916 Si02
#       7
#     8   8   8   8   8   8   8
#     4  11  22  37  56  81 115 156 199 246 291 343
#     4  10  20  34  54  77 105 146 186 231 284 342
#     4  10  20  32  46  70 104 141 187 239 287 340
#     4  10  19  31  52  81 110 145 191 241 290 342
#     4  10  21  40  64  93 121 151 190 236 290 350
#     4   9  18  36  59  81 114 152 187 231 289 342
#     4  10  23  42  62  84 120 159 195 240 292 345
#
# _framework density 19.888211999999999
#
# number of rings (size 3 to 8) (size 9 to 14) (size 15 to 20)
#    0.000    2.000    1.429    2.143    0.000    6.571 
#    0.000    4.286    0.000    0.429    0.000    3.000 
#    0.000    0.000    0.000    0.000    0.000    0.000 
#
# Total GULP energy -694383.334986 kJ/mol
# GULP energy per Si atom -12399.702410 kJ/mol
# Density = 1.984295 g / cm^3
# Si number density = 19.888212 Si / 1000 Ang^3
#
#
#
# Elastic Constant Matrix: (Units=GPa)
#
#
# Indices 1 2 3 4 5 6 
#
# 1 110.0943 46.0505 42.1710 0.0000 0.0000 0.0000
# 2 46.0505 116.5357 40.9565 0.0000 0.0000 0.0000
# 3 42.1710 40.9565 85.2116 0.0000 0.0000 0.0000
# 4 0.0000 0.0000 0.0000 29.7802 0.0000 0.0000
# 5 0.0000 0.0000 0.0000 0.0000 29.0590 0.0000
# 6 0.0000 0.0000 0.0000 0.0000 0.0000 8.9048
#
#
#
# Elastic Compliance Matrix: (Units=1/GPa)
#
#
# Indices 1 2 3 4 5 6 
#
# 1 0.012142 -0.003232 -0.004455 0.000000 0.000000 0.000000
# 2 -0.003232 0.011186 -0.003777 0.000000 0.000000 0.000000
# 3 -0.004455 -0.003777 0.015756 0.000000 0.000000 0.000000
# 4 0.000000 0.000000 0.000000 0.033579 0.000000 0.000000
# 5 0.000000 0.000000 0.000000 0.000000 0.034413 0.000000
# 6 0.000000 0.000000 0.000000 0.000000 0.000000 0.112300
#
#
# Mechanical properties :
#
#
# Convention : Reuss Voigt Hill
#
# Bulk Modulus (GPa) = 61.90208 63.35527 62.62867
# Shear Modulus (GPa) = 20.18669 25.72635 22.95652
#
# Velocity S-wave (km/s) = 3.18937 3.60049 3.40115
# Velocity P-wave (km/s) = 6.68995 7.01495 6.85438
#
# Compressibility (1/GPa) = 0.01615455
#
# Stress axis : x y z
#
# Youngs Moduli (GPa) = 82.36106 89.40075 63.46893
#
# Poissons Ratio (x) = 0.28895 0.28278
# Poissons Ratio (y) = 0.26620 0.23971
# Poissons Ratio (z) = 0.36695 0.33764
#
# Static dielectric constant tensor:
#      x y z
#    x 3.360860 0.000000 0.000000 
#    y 0.000000 3.800570 0.000000 
#    z 0.000000 0.000000 3.615900 
# 
# 
# High freq. dielectric constant tensor:
#      x y z
#    x 1.745330 0.000000 0.000000 
#    y 0.000000 1.780480 0.000000 
#    z 0.000000 0.000000 1.779010 
# 
# From -- ./inp_files/4015.got.cif
#   From: 2010.03.12/outbox.cif.g09.slc.cpg/sg49_3_cif.got.tgz:4015.got - 2010.04.14 03:58:27.
