data_PCOD8202303
_publ_section_title
;
Structure prediction by ZEFSAII (Michael W. Deem and Ramdas Pophale) SiO2 
 PCOD8202303
Probable space group: P C C M
;
_chemical_formula_sum "Si O2"
_cell_formula_units_Z 64
_cell_length_a 15.351121
_cell_length_b 30.419595
_cell_length_c 8.879741
_cell_angle_alpha 90.000000
_cell_angle_beta 90.000000
_cell_angle_gamma 90.000000
_cell_volume 4146.616020
_symmetry_space_group_name_H-M "P C C M"
_symmetry_group_IT_number 49
_symmetry_cell_setting 'orthorhombic'
loop_
_space_group_symop_operation_xyz
x,y,z
-x,-y,z
x,-y,1/2-z
-x,y,1/2-z
-x,-y,-z
x,y,-z
-x,y,1/2+z
x,-y,1/2+z
loop_
_atom_site_type_symbol
_atom_site_label
_atom_site_fract_x
_atom_site_fract_y
_atom_site_fract_z
Si Si1 0.092781 0.861811 0.825325
Si Si2 0.581474 0.205209 0.324424
Si Si3 0.413735 0.700106 0.821507
Si Si4 0.094345 0.361697 0.323868
Si Si5 0.227014 0.800311 0.670631
Si Si6 0.093600 0.541204 0.825866
Si Si7 0.762018 0.302572 0.323688
Si Si8 0.905860 0.041518 0.176007
O O1 0.162225 0.825492 0.779292
O O2 0.133813 0.910222 0.788287
O O3 0.000000 0.853224 0.750000
O O4 0.074426 0.857335 0.000000
O O5 0.500000 0.177859 0.250000
O O6 0.564416 0.216080 0.500000
O O7 0.586006 0.249362 0.227558
O O8 0.674363 0.180818 0.306553
O O9 0.500000 0.676971 0.750000
O O10 0.325207 0.678764 0.756157
O O11 0.415382 0.694887 0.000000
O O12 0.086169 0.350572 0.500000
O O13 0.135929 0.410645 0.300422
O O14 0.155381 0.326946 0.243267
O O15 0.000000 0.357828 0.250000
O O16 0.196340 0.808391 0.500000
O O17 0.225107 0.748921 0.709882
O O18 0.146511 0.500000 0.750000
O O19 0.000000 0.543079 0.750000
O O20 0.083343 0.530615 0.000000
O O21 0.753645 0.311738 0.500000
O O22 0.000000 0.041985 0.250000
O O23 0.852974 0.000000 0.250000
O O24 0.912847 0.032865 0.000000
#
# Coordination Sequence:
#
# PCOD8202303 Si02
#       8
#     8   8   8   8   8   8   8   8
#     4  10  20  31  44  61  83 112 146 178 210 248
#     4   9  16  27  43  63  84 107 137 174 215 257
#     4  10  17  27  44  64  85 109 138 175 218 261
#     4  10  20  32  45  63  86 116 150 183 217 256
#     4   9  19  32  44  60  84 113 146 179 211 247
#     4   9  16  26  42  62  83 106 137 174 216 260
#     4  10  20  33  46  62  85 115 150 185 217 254
#     4   9  16  26  41  61  80 102 132 168 210 253
#
# _framework density 15.434272
#
# number of rings (size 3 to 8) (size 9 to 14) (size 15 to 20)
#    0.000    2.500    0.000    5.625    0.000    6.500 
#    0.000    0.000    0.000    0.000    0.000    0.000 
#    0.000    1.000    0.000   10.750    0.000    7.125 
#
# Total GULP energy -792860.813091 kJ/mol
# GULP energy per Si atom -12388.450205 kJ/mol
# Density = 1.539914 g / cm^3
# Si number density = 15.434272 Si / 1000 Ang^3
#
#
#
# Elastic Constant Matrix: (Units=GPa)
#
#
# Indices 1 2 3 4 5 6 
#
# 1 90.3204 42.5423 49.4494 0.0000 0.0000 0.0000
# 2 42.5423 61.8352 45.4222 0.0000 0.0000 0.0000
# 3 49.4494 45.4222 116.2308 0.0000 0.0000 0.0000
# 4 0.0000 0.0000 0.0000 23.6032 0.0000 0.0000
# 5 0.0000 0.0000 0.0000 0.0000 27.0934 0.0000
# 6 0.0000 0.0000 0.0000 0.0000 0.0000 -0.2822
#
#
#
# Elastic Compliance Matrix: (Units=1/GPa)
#
#
# Indices 1 2 3 4 5 6 
#
# 1 0.017527 -0.009231 -0.003849 0.000000 0.000000 0.000000
# 2 -0.009231 0.027545 -0.006837 0.000000 0.000000 0.000000
# 3 -0.003849 -0.006837 0.012913 0.000000 0.000000 0.000000
# 4 0.000000 0.000000 0.000000 0.042367 0.000000 0.000000
# 5 0.000000 0.000000 0.000000 0.000000 0.036909 0.000000
# 6 0.000000 0.000000 0.000000 0.000000 0.000000 -3.543014
#
#
# Mechanical properties :
#
#
# Convention : Reuss Voigt Hill
#
# Bulk Modulus (GPa) = 55.09507 60.35712 57.72610
# Shear Modulus (GPa) = -1.48815 18.81437 8.66311
#
# Velocity S-wave (km/s) = -0.98300 3.49521 2.37173
# Velocity P-wave (km/s) = 5.87245 7.44845 6.70690
#
# Compressibility (1/GPa) = 0.01815044
#
# Stress axis : x y z
#
# Youngs Moduli (GPa) = 57.05458 36.30386 77.44001
#
# Poissons Ratio (x) = 0.33512 0.29810
# Poissons Ratio (y) = 0.52666 0.52948
# Poissons Ratio (z) = 0.21962 0.24822
#
# Static dielectric constant tensor:
#      x y z
#    x 3.069710 0.000000 0.000000 
#    y 0.000000 3.436470 0.000000 
#    z 0.000000 0.000000 3.130080 
# 
# 
# High freq. dielectric constant tensor:
#      x y z
#    x 1.565520 0.000000 0.000000 
#    y 0.000000 1.564310 0.000000 
#    z 0.000000 0.000000 1.614380 
# 
# From -- ./inp_files/4511.got.cif
#   From: 2010.03.12/outbox.cif.g09.slc.cpg/sg49_3_cif.got.tgz:4511.got - 2010.04.14 03:58:27.
