data_PCOD8202199
_publ_section_title
;
Structure prediction by ZEFSAII (Michael W. Deem and Ramdas Pophale) SiO2 
 PCOD8202199
Probable space group: P C C M
;
_chemical_formula_sum "Si O2"
_cell_formula_units_Z 64
_cell_length_a 14.365976
_cell_length_b 31.265161
_cell_length_c 8.756408
_cell_angle_alpha 90.000000
_cell_angle_beta 90.000000
_cell_angle_gamma 90.000000
_cell_volume 3932.980517
_symmetry_space_group_name_H-M "P C C M"
_symmetry_group_IT_number 49
_symmetry_cell_setting 'orthorhombic'
loop_
_space_group_symop_operation_xyz
x,y,z
-x,-y,z
x,-y,1/2-z
-x,y,1/2-z
-x,-y,-z
x,y,-z
-x,y,1/2+z
x,-y,1/2+z
loop_
_atom_site_type_symbol
_atom_site_label
_atom_site_fract_x
_atom_site_fract_y
_atom_site_fract_z
Si Si1 0.907944 0.673045 0.176709
Si Si2 0.711770 0.544205 0.680142
Si Si3 0.599977 0.874776 0.323711
Si Si4 0.396421 0.957612 0.319027
Si Si5 0.399018 0.373479 0.680637
Si Si6 0.094718 0.419084 0.319501
Si Si7 0.708745 0.704379 0.176645
Si Si8 0.601677 0.219885 0.177422
O O1 0.887884 0.628479 0.259677
O O2 0.820115 0.704092 0.200072
O O3 0.000000 0.694898 0.250000
O O4 0.926748 0.663396 0.000000
O O5 0.674945 0.500000 0.750000
O O6 0.704608 0.541347 0.500000
O O7 0.646959 0.582609 0.741435
O O8 0.818147 0.552137 0.732868
O O9 0.500000 0.869769 0.250000
O O10 0.590476 0.887633 0.500000
O O11 0.654615 0.913608 0.236790
O O12 0.645724 0.827914 0.303623
O O13 0.500000 0.955721 0.250000
O O14 0.397915 0.960547 0.500000
O O15 0.346159 0.000000 0.250000
O O16 0.500000 0.367965 0.750000
O O17 0.406358 0.373531 0.500000
O O18 0.336025 0.334018 0.729844
O O19 0.086183 0.417476 0.500000
O O20 0.000000 0.438952 0.250000
O O21 0.673495 0.749455 0.238454
O O22 0.681579 0.699055 0.000000
O O23 0.500000 0.224795 0.250000
O O24 0.592933 0.232154 0.000000
#
# Coordination Sequence:
#
# PCOD8202199 Si02
#       8
#     8   8   8   8   8   8   8   8
#     4  10  20  33  53  78 100 124 150 181 221 266
#     4  10  23  39  56  75  99 126 153 185 223 267
#     4   9  16  26  38  54  77 108 147 189 235 279
#     4  10  16  22  33  49  71 102 142 190 238 280
#     4  11  23  40  57  75  97 123 155 191 229 268
#     4  10  19  34  54  78 102 126 151 179 218 264
#     4  11  22  35  53  76  98 123 154 188 227 272
#     4  10  20  32  47  66  92 125 158 197 239 279
#
# _framework density 16.272646000000002
#
# number of rings (size 3 to 8) (size 9 to 14) (size 15 to 20)
#    0.000    1.875    1.250    5.625    0.000    5.500 
#    0.000    2.500    0.000    0.000    0.000    0.000 
#    0.000    0.000    0.000    0.000    0.000    0.625 
#
# Total GULP energy -793361.640940 kJ/mol
# GULP energy per Si atom -12396.275640 kJ/mol
# Density = 1.623561 g / cm^3
# Si number density = 16.272646 Si / 1000 Ang^3
#
#
#
# Elastic Constant Matrix: (Units=GPa)
#
#
# Indices 1 2 3 4 5 6 
#
# 1 66.0863 33.0914 29.3068 0.0000 0.0000 0.0000
# 2 33.0914 109.1467 36.1011 0.0000 0.0000 0.0000
# 3 29.3068 36.1011 92.5969 0.0000 0.0000 0.0000
# 4 0.0000 0.0000 0.0000 26.9210 0.0000 0.0000
# 5 0.0000 0.0000 0.0000 0.0000 19.3794 0.0000
# 6 0.0000 0.0000 0.0000 0.0000 0.0000 7.3638
#
#
#
# Elastic Compliance Matrix: (Units=1/GPa)
#
#
# Indices 1 2 3 4 5 6 
#
# 1 0.019278 -0.004393 -0.004389 0.000000 0.000000 0.000000
# 2 -0.004393 0.011519 -0.003101 0.000000 0.000000 0.000000
# 3 -0.004389 -0.003101 0.013397 0.000000 0.000000 0.000000
# 4 0.000000 0.000000 0.000000 0.037146 0.000000 0.000000
# 5 0.000000 0.000000 0.000000 0.000000 0.051601 0.000000
# 6 0.000000 0.000000 0.000000 0.000000 0.000000 0.135800
#
#
# Mechanical properties :
#
#
# Convention : Reuss Voigt Hill
#
# Bulk Modulus (GPa) = 48.94845 51.64763 50.29804
# Shear Modulus (GPa) = 16.70475 22.02153 19.36314
#
# Velocity S-wave (km/s) = 3.20746 3.68269 3.45326
# Velocity P-wave (km/s) = 6.62289 7.06334 6.84666
#
# Compressibility (1/GPa) = 0.02042966
#
# Stress axis : x y z
#
# Youngs Moduli (GPa) = 51.87350 86.80948 74.64140
#
# Poissons Ratio (x) = 0.38136 0.32757
# Poissons Ratio (y) = 0.22788 0.23144
# Poissons Ratio (z) = 0.22765 0.26917
#
# Static dielectric constant tensor:
#      x y z
#    x 2.907990 0.000000 0.000000 
#    y 0.000000 3.732150 0.000000 
#    z 0.000000 0.000000 3.220940 
# 
# 
# High freq. dielectric constant tensor:
#      x y z
#    x 1.581680 0.000000 0.000000 
#    y 0.000000 1.626330 0.000000 
#    z 0.000000 0.000000 1.646330 
# 
# From -- ./inp_files/4546.got.cif
#   From: 2010.03.12/outbox.cif.g09.slc.cpg/sg49_3_cif.got.tgz:4546.got - 2010.04.14 03:58:27.
