data_PCOD8202797
_publ_section_title
;
Structure prediction by ZEFSAII (Michael W. Deem and Ramdas Pophale) SiO2 
 PCOD8202797
Probable space group: P C C M
;
_chemical_formula_sum "Si O2"
_cell_formula_units_Z 64
_cell_length_a 19.778613
_cell_length_b 19.809880
_cell_length_c 8.842136
_cell_angle_alpha 90.000000
_cell_angle_beta 90.000000
_cell_angle_gamma 90.000000
_cell_volume 3464.454549
_symmetry_space_group_name_H-M "P C C M"
_symmetry_group_IT_number 49
_symmetry_cell_setting 'orthorhombic'
loop_
_space_group_symop_operation_xyz
x,y,z
-x,-y,z
x,-y,1/2-z
-x,y,1/2-z
-x,-y,-z
x,y,-z
-x,y,1/2+z
x,-y,1/2+z
loop_
_atom_site_type_symbol
_atom_site_label
_atom_site_fract_x
_atom_site_fract_y
_atom_site_fract_z
Si Si1 0.752842 0.287738 0.323417
Si Si2 0.567118 0.888201 0.324700
Si Si3 0.073563 0.930148 0.680955
Si Si4 0.617175 0.744959 0.329230
Si Si5 0.176319 0.170581 0.676535
Si Si6 0.568611 0.400800 0.827111
Si Si7 0.291106 0.566669 0.321588
Si Si8 0.709742 0.066073 0.175724
O O1 0.766852 0.279154 0.500000
O O2 0.679405 0.257963 0.285867
O O3 0.811812 0.247340 0.234160
O O4 0.752448 0.367038 0.275267
O O5 0.500000 0.919090 0.250000
O O6 0.562286 0.903576 0.500000
O O7 0.570784 0.808587 0.289330
O O8 0.634638 0.922455 0.256701
O O9 0.070522 0.935763 0.500000
O O10 0.117413 0.865675 0.729679
O O11 0.000000 0.918445 0.750000
O O12 0.103954 0.000000 0.750000
O O13 0.647170 0.752253 0.500000
O O14 0.569556 0.680132 0.316082
O O15 0.157120 0.170838 0.500000
O O16 0.245604 0.131264 0.711267
O O17 0.500000 0.427630 0.750000
O O18 0.632799 0.430480 0.740650
O O19 0.570847 0.425564 0.000000
O O20 0.255867 0.500000 0.250000
O O21 0.294556 0.559794 0.500000
O O22 0.742833 0.000000 0.250000
O O23 0.706505 0.052542 0.000000
#
# Coordination Sequence:
#
# PCOD8202797 Si02
#       8
#     8   8   8   8   8   8   8   8
#     4  10  20  33  53  80 105 131 171 221 266 317
#     4  10  20  34  48  66  89 121 162 213 270 327
#     4  11  22  38  59  88 124 162 199 231 270 319
#     4   9  17  32  49  66  93 124 159 207 266 327
#     4  11  21  37  59  82 111 147 184 227 271 318
#     4  10  19  30  47  68  92 123 160 206 263 327
#     4  10  21  36  52  72 100 132 170 214 268 328
#     4  10  22  37  52  70  97 129 170 217 267 321
#
# _framework density 18.473327000000001
#
# number of rings (size 3 to 8) (size 9 to 14) (size 15 to 20)
#    0.000    1.875    1.250    3.750    0.000    5.500 
#    0.000    2.500    0.000    0.000    0.000    0.000 
#    0.000    0.500    0.000    5.250    0.000    2.875 
#
# Total GULP energy -793537.445298 kJ/mol
# GULP energy per Si atom -12399.022583 kJ/mol
# Density = 1.843128 g / cm^3
# Si number density = 18.473327 Si / 1000 Ang^3
#
#
#
# Elastic Constant Matrix: (Units=GPa)
#
#
# Indices 1 2 3 4 5 6 
#
# 1 64.3932 34.1809 38.8897 0.0000 0.0000 0.0000
# 2 34.1809 111.7530 50.7783 0.0000 0.0000 0.0000
# 3 38.8897 50.7783 94.5361 0.0000 0.0000 0.0000
# 4 0.0000 0.0000 0.0000 29.1495 0.0000 0.0000
# 5 0.0000 0.0000 0.0000 0.0000 25.6802 0.0000
# 6 0.0000 0.0000 0.0000 0.0000 0.0000 17.6898
#
#
#
# Elastic Compliance Matrix: (Units=1/GPa)
#
#
# Indices 1 2 3 4 5 6 
#
# 1 0.021597 -0.003398 -0.007059 0.000000 0.000000 0.000000
# 2 -0.003398 0.012372 -0.005248 0.000000 0.000000 0.000000
# 3 -0.007059 -0.005248 0.016301 0.000000 0.000000 0.000000
# 4 0.000000 0.000000 0.000000 0.034306 0.000000 0.000000
# 5 0.000000 0.000000 0.000000 0.000000 0.038940 0.000000
# 6 0.000000 0.000000 0.000000 0.000000 0.000000 0.056530
#
#
# Mechanical properties :
#
#
# Convention : Reuss Voigt Hill
#
# Bulk Modulus (GPa) = 53.02287 57.59780 55.31034
# Shear Modulus (GPa) = 22.96305 24.29281 23.62793
#
# Velocity S-wave (km/s) = 3.52950 3.63026 3.58023
# Velocity P-wave (km/s) = 6.73606 6.98701 6.86268
#
# Compressibility (1/GPa) = 0.01885979
#
# Stress axis : x y z
#
# Youngs Moduli (GPa) = 46.30361 80.82761 61.34781
#
# Poissons Ratio (x) = 0.27466 0.43306
# Poissons Ratio (y) = 0.15734 0.32192
# Poissons Ratio (z) = 0.32686 0.42414
#
# Static dielectric constant tensor:
#      x y z
#    x 3.113250 0.000000 0.000000 
#    y 0.000000 3.653720 0.000000 
#    z 0.000000 0.000000 3.412310 
# 
# 
# High freq. dielectric constant tensor:
#      x y z
#    x 1.673210 0.000000 0.000000 
#    y 0.000000 1.722530 0.000000 
#    z 0.000000 0.000000 1.723090 
# 
# From -- ./inp_files/6053.got.cif
#   From: 2010.03.12/outbox.cif.g09.slc.cpg/sg49_4_cif.got.tgz:6053.got - 2010.04.14 03:58:27.
