data_PCOD8202988
_publ_section_title
;
Structure prediction by ZEFSAII (Michael W. Deem and Ramdas Pophale) SiO2 
 PCOD8202988
Probable space group: P C C M
;
_chemical_formula_sum "Si O2"
_cell_formula_units_Z 58
_cell_length_a 26.361693
_cell_length_b 14.358985
_cell_length_c 9.244161
_cell_angle_alpha 90.000000
_cell_angle_beta 90.000000
_cell_angle_gamma 90.000000
_cell_volume 3499.165958
_symmetry_space_group_name_H-M "P C C M"
_symmetry_group_IT_number 49
_symmetry_cell_setting 'orthorhombic'
loop_
_space_group_symop_operation_xyz
x,y,z
-x,-y,z
x,-y,1/2-z
-x,y,1/2-z
-x,-y,-z
x,y,-z
-x,y,1/2+z
x,-y,1/2+z
loop_
_atom_site_type_symbol
_atom_site_label
_atom_site_fract_x
_atom_site_fract_y
_atom_site_fract_z
Si Si1 0.170980 0.766249 0.166537
Si Si2 0.098012 0.082115 0.341240
Si Si3 0.320863 0.589813 0.332987
Si Si4 0.203199 0.590761 0.668978
Si Si5 0.449425 0.094097 0.830173
Si Si6 0.264251 0.096885 0.330511
Si Si7 0.350056 0.792697 0.667181
Si Si8 0.000000 0.000000 0.750000
O O1 0.117628 0.816840 0.209381
O O2 0.173007 0.678927 0.271666
O O3 0.216233 0.837655 0.198085
O O4 0.172009 0.732501 0.000000
O O5 0.120049 0.067320 0.500000
O O6 0.124093 0.000000 0.250000
O O7 0.036478 0.069947 0.340860
O O8 0.343181 0.500000 0.250000
O O9 0.328713 0.567854 0.500000
O O10 0.262096 0.605017 0.294047
O O11 0.349431 0.684160 0.285655
O O12 0.182043 0.500000 0.750000
O O13 0.192832 0.579977 0.500000
O O14 0.500000 0.130651 0.750000
O O15 0.407168 0.172755 0.811016
O O16 0.431126 0.000000 0.750000
O O17 0.459766 0.074125 0.000000
O O18 0.273126 0.078197 0.500000
O O19 0.313707 0.146981 0.267502
O O20 0.255193 0.000000 0.250000
O O21 0.332269 0.802378 0.500000
#
# Coordination Sequence:
#
# PCOD8202988 Si02
#       8
#     8   8   8   8   8   8   8   2
#     4  10  20  33  47  71 102 135 170 206 248 295
#     4   9  18  31  49  71 100 133 170 212 248 290
#     4   9  18  32  50  72  98 127 164 204 245 292
#     4  10  19  32  51  72  99 134 169 210 250 297
#     4  10  20  34  53  73  97 126 162 206 248 295
#     4  11  22  32  46  68 100 136 168 200 241 294
#     4  10  20  35  52  72  99 130 165 205 249 296
#     4   8  18  32  54  72 100 136 178 212 260 284
#
# _framework density 16.575378000000001
#
# number of rings (size 3 to 8) (size 9 to 14) (size 15 to 20)
#    0.414    1.793    1.379    2.690    0.000    4.414 
#    0.000    0.000    0.000    0.414    0.000    3.379 
#    0.000    3.310    0.000    0.000    0.000    0.000 
#
# Total GULP energy -718904.205737 kJ/mol
# GULP energy per Si atom -12394.900099 kJ/mol
# Density = 1.653765 g / cm^3
# Si number density = 16.575378 Si / 1000 Ang^3
#
#
#
# Elastic Constant Matrix: (Units=GPa)
#
#
# Indices 1 2 3 4 5 6 
#
# 1 73.5487 53.1069 35.4064 0.0000 0.0000 0.0000
# 2 53.1069 139.6032 65.8470 0.0000 0.0000 0.0000
# 3 35.4064 65.8470 94.3526 0.0000 0.0000 0.0000
# 4 0.0000 0.0000 0.0000 33.5087 0.0000 0.0000
# 5 0.0000 0.0000 0.0000 0.0000 9.4834 0.0000
# 6 0.0000 0.0000 0.0000 0.0000 0.0000 23.0445
#
#
#
# Elastic Compliance Matrix: (Units=1/GPa)
#
#
# Indices 1 2 3 4 5 6 
#
# 1 0.019361 -0.005871 -0.003168 0.000000 0.000000 0.000000
# 2 -0.005871 0.012458 -0.006491 0.000000 0.000000 0.000000
# 3 -0.003168 -0.006491 0.016318 0.000000 0.000000 0.000000
# 4 0.000000 0.000000 0.000000 0.029843 0.000000 0.000000
# 5 0.000000 0.000000 0.000000 0.000000 0.105447 0.000000
# 6 0.000000 0.000000 0.000000 0.000000 0.000000 0.043394
#
#
# Mechanical properties :
#
#
# Convention : Reuss Voigt Hill
#
# Bulk Modulus (GPa) = 58.56152 68.46945 63.51549
# Shear Modulus (GPa) = 18.97007 23.41694 21.19350
#
# Velocity S-wave (km/s) = 3.38668 3.76274 3.57965
# Velocity P-wave (km/s) = 7.12039 7.76371 7.44900
#
# Compressibility (1/GPa) = 0.01707606
#
# Stress axis : x y z
#
# Youngs Moduli (GPa) = 51.65130 80.26805 61.28344
#
# Poissons Ratio (x) = 0.47123 0.19415
# Poissons Ratio (y) = 0.30323 0.39781
# Poissons Ratio (z) = 0.16364 0.52105
#
# Static dielectric constant tensor:
#      x y z
#    x 2.941810 0.000000 0.000000 
#    y 0.000000 3.204670 0.000000 
#    z 0.000000 0.000000 3.204570 
# 
# 
# High freq. dielectric constant tensor:
#      x y z
#    x 1.611660 0.000000 0.000000 
#    y 0.000000 1.636770 0.000000 
#    z 0.000000 0.000000 1.647910 
# 
# From -- ./inp_files/6779.got.cif
#   From: 2010.03.12/outbox.cif.g09.slc.cpg/sg49_4_cif.got.tgz:6779.got - 2010.04.14 03:58:27.
