data_PCOD8202355
_publ_section_title
;
Structure prediction by ZEFSAII (Michael W. Deem and Ramdas Pophale) SiO2 
 PCOD8202355
Probable space group: P C C M
;
_chemical_formula_sum "Si O2"
_cell_formula_units_Z 64
_cell_length_a 28.220483
_cell_length_b 14.440104
_cell_length_c 8.709435
_cell_angle_alpha 90.000000
_cell_angle_beta 90.000000
_cell_angle_gamma 90.000000
_cell_volume 3549.153198
_symmetry_space_group_name_H-M "P C C M"
_symmetry_group_IT_number 49
_symmetry_cell_setting 'orthorhombic'
loop_
_space_group_symop_operation_xyz
x,y,z
-x,-y,z
x,-y,1/2-z
-x,y,1/2-z
-x,-y,-z
x,y,-z
-x,y,1/2+z
x,-y,1/2+z
loop_
_atom_site_type_symbol
_atom_site_label
_atom_site_fract_x
_atom_site_fract_y
_atom_site_fract_z
Si Si1 0.452891 0.602774 0.683074
Si Si2 0.356585 0.398232 0.317922
Si Si3 0.729551 0.708256 0.818740
Si Si4 0.765660 0.908144 0.819917
Si Si5 0.914785 0.408956 0.319133
Si Si6 0.049562 0.789841 0.318494
Si Si7 0.140972 0.853694 0.829295
Si Si8 0.177968 0.647270 0.828455
O O1 0.452931 0.500000 0.750000
O O2 0.500000 0.654196 0.750000
O O3 0.453826 0.603135 0.500000
O O4 0.404398 0.647584 0.746408
O O5 0.346094 0.500000 0.250000
O O6 0.361479 0.406896 0.500000
O O7 0.315494 0.327333 0.273908
O O8 0.738409 0.814964 0.767769
O O9 0.774017 0.644775 0.770744
O O10 0.721283 0.699049 0.000000
O O11 0.820154 0.910409 0.765069
O O12 0.740404 0.000000 0.750000
O O13 0.764915 0.915662 0.000000
O O14 0.941042 0.500000 0.250000
O O15 0.914116 0.414726 0.500000
O O16 0.941367 0.316085 0.263579
O O17 0.861025 0.413690 0.257440
O O18 0.048729 0.797030 0.500000
O O19 0.090373 0.857895 0.255908
O O20 0.000000 0.824073 0.250000
O O21 0.158187 0.749607 0.838678
O O22 0.135780 0.895897 0.000000
O O23 0.187645 0.608481 0.000000
#
# Coordination Sequence:
#
# PCOD8202355 Si02
#       8
#     8   8   8   8   8   8   8   8
#     4  10  17  28  45  66  93 128 172 219 263 305
#     4  11  21  33  48  69  99 137 178 218 259 304
#     4  10  20  34  50  72 102 134 167 207 251 297
#     4  10  20  34  55  80 106 133 164 201 244 294
#     4  10  20  32  45  62  85 114 150 193 235 280
#     4  10  20  33  49  68  90 117 150 187 233 284
#     4   9  17  31  51  72  94 118 148 184 225 274
#     4   9  17  30  47  65  85 114 150 188 230 279
#
# _framework density 18.032468999999999
#
# number of rings (size 3 to 8) (size 9 to 14) (size 15 to 20)
#    0.000    2.125    0.000    5.625    0.000    6.750 
#    0.000    3.750    0.000    0.375    0.000    2.625 
#    0.000    0.500    0.000    5.250    0.000    2.875 
#
# Total GULP energy -793390.054102 kJ/mol
# GULP energy per Si atom -12396.719595 kJ/mol
# Density = 1.799143 g / cm^3
# Si number density = 18.032469 Si / 1000 Ang^3
#
#
#
# Elastic Constant Matrix: (Units=GPa)
#
#
# Indices 1 2 3 4 5 6 
#
# 1 119.1320 23.4336 44.0667 0.0000 0.0000 0.0000
# 2 23.4336 49.4266 23.2484 0.0000 0.0000 0.0000
# 3 44.0667 23.2484 114.7742 0.0000 0.0000 0.0000
# 4 0.0000 0.0000 0.0000 22.4908 0.0000 0.0000
# 5 0.0000 0.0000 0.0000 0.0000 32.3862 0.0000
# 6 0.0000 0.0000 0.0000 0.0000 0.0000 13.1465
#
#
#
# Elastic Compliance Matrix: (Units=1/GPa)
#
#
# Indices 1 2 3 4 5 6 
#
# 1 0.010256 -0.003327 -0.003264 0.000000 0.000000 0.000000
# 2 -0.003327 0.023442 -0.003471 0.000000 0.000000 0.000000
# 3 -0.003264 -0.003471 0.010669 0.000000 0.000000 0.000000
# 4 0.000000 0.000000 0.000000 0.044463 0.000000 0.000000
# 5 0.000000 0.000000 0.000000 0.000000 0.030877 0.000000
# 6 0.000000 0.000000 0.000000 0.000000 0.000000 0.076066
#
#
# Mechanical properties :
#
#
# Convention : Reuss Voigt Hill
#
# Bulk Modulus (GPa) = 41.24889 51.64780 46.44834
# Shear Modulus (GPa) = 22.32368 26.44364 24.38366
#
# Velocity S-wave (km/s) = 3.52230 3.83357 3.68123
# Velocity P-wave (km/s) = 6.28224 6.94973 6.62440
#
# Compressibility (1/GPa) = 0.02424308
#
# Stress axis : x y z
#
# Youngs Moduli (GPa) = 97.50626 42.65836 93.73058
#
# Poissons Ratio (x) = 0.14194 0.30590
# Poissons Ratio (y) = 0.32443 0.32533
# Poissons Ratio (z) = 0.31823 0.14806
#
# Static dielectric constant tensor:
#      x y z
#    x 3.797020 0.000000 0.000000 
#    y 0.000000 3.200170 0.000000 
#    z 0.000000 0.000000 3.482230 
# 
# 
# High freq. dielectric constant tensor:
#      x y z
#    x 1.686750 0.000000 0.000000 
#    y 0.000000 1.662110 0.000000 
#    z 0.000000 0.000000 1.718110 
# 
# From -- ./inp_files/7039.got.cif
#   From: 2010.03.12/outbox.cif.g09.slc.cpg/sg49_4_cif.got.tgz:7039.got - 2010.04.14 03:58:27.
