data_PCOD8202971
_publ_section_title
;
Structure prediction by ZEFSAII (Michael W. Deem and Ramdas Pophale) SiO2 
 PCOD8202971
Probable space group: P C C M
;
_chemical_formula_sum "Si O2"
_cell_formula_units_Z 64
_cell_length_a 19.395011
_cell_length_b 19.374680
_cell_length_c 8.866164
_cell_angle_alpha 90.000000
_cell_angle_beta 90.000000
_cell_angle_gamma 90.000000
_cell_volume 3331.657346
_symmetry_space_group_name_H-M "P C C M"
_symmetry_group_IT_number 49
_symmetry_cell_setting 'orthorhombic'
loop_
_space_group_symop_operation_xyz
x,y,z
-x,-y,z
x,-y,1/2-z
-x,y,1/2-z
-x,-y,-z
x,y,-z
-x,y,1/2+z
x,-y,1/2+z
loop_
_atom_site_type_symbol
_atom_site_label
_atom_site_fract_x
_atom_site_fract_y
_atom_site_fract_z
Si Si1 0.353921 0.937571 0.162491
Si Si2 0.804604 0.932803 0.667067
Si Si3 0.432790 0.813742 0.822644
Si Si4 0.429161 0.340432 0.679637
Si Si5 0.713933 0.342829 0.678611
Si Si6 0.192697 0.216180 0.178728
Si Si7 0.832654 0.571270 0.325645
Si Si8 0.926431 0.301446 0.826314
O O1 0.274210 0.952499 0.145409
O O2 0.369265 0.861978 0.232642
O O3 0.389943 0.000000 0.250000
O O4 0.390412 0.937144 0.000000
O O5 0.838391 0.923650 0.500000
O O6 0.805592 0.861635 0.758958
O O7 0.839486 0.000000 0.750000
O O8 0.500000 0.848431 0.750000
O O9 0.423395 0.737521 0.757666
O O10 0.440294 0.806230 0.000000
O O11 0.500000 0.373355 0.750000
O O12 0.431419 0.349771 0.500000
O O13 0.357326 0.369361 0.744592
O O14 0.705178 0.346699 0.500000
O O15 0.742080 0.265639 0.727120
O O16 0.768885 0.398638 0.732714
O O17 0.122985 0.248637 0.240971
O O18 0.188981 0.211929 0.000000
O O19 0.855381 0.500000 0.250000
O O20 0.811218 0.561498 0.500000
O O21 0.898365 0.621037 0.311398
O O22 0.000000 0.297236 0.750000
O O23 0.931475 0.278570 0.000000
#
# Coordination Sequence:
#
# PCOD8202971 Si02
#       8
#     8   8   8   8   8   8   8   8
#     4   9  18  30  42  58  82 114 153 199 252 310
#     4  10  19  32  50  72  99 131 171 220 274 327
#     4   9  18  30  42  58  82 114 153 199 252 310
#     4  10  19  32  50  72  99 131 171 220 274 327
#     4  10  20  34  54  80 109 142 182 227 274 325
#     4  10  20  34  54  80 109 142 182 227 274 325
#     4  10  21  37  58  85 117 152 187 222 262 309
#     4  10  21  37  58  85 117 152 187 222 262 309
#
# _framework density 19.209658999999998
#
# number of rings (size 3 to 8) (size 9 to 14) (size 15 to 20)
#    0.000    2.250    0.000    3.000    0.000    6.000 
#    0.000    2.500    0.000    0.750    0.000    5.250 
#    0.000    0.000    0.000    0.000    0.000    0.000 
#
# Total GULP energy -792931.649731 kJ/mol
# GULP energy per Si atom -12389.557027 kJ/mol
# Density = 1.916594 g / cm^3
# Si number density = 19.209659 Si / 1000 Ang^3
#
#
#
# Elastic Constant Matrix: (Units=GPa)
#
#
# Indices 1 2 3 4 5 6 
#
# 1 80.9703 -1.9325 29.4067 0.0000 0.0000 0.0000
# 2 -1.9325 61.7171 23.9810 0.0000 0.0000 0.0000
# 3 29.4067 23.9810 93.2293 0.0000 0.0000 0.0000
# 4 0.0000 0.0000 0.0000 31.2091 0.0000 0.0000
# 5 0.0000 0.0000 0.0000 0.0000 28.7465 0.0000
# 6 0.0000 0.0000 0.0000 0.0000 0.0000 -139.4111
#
#
#
# Elastic Compliance Matrix: (Units=1/GPa)
#
#
# Indices 1 2 3 4 5 6 
#
# 1 0.014271 0.002440 -0.005129 0.000000 0.000000 0.000000
# 2 0.002440 0.018419 -0.005508 0.000000 0.000000 0.000000
# 3 -0.005129 -0.005508 0.013761 0.000000 0.000000 0.000000
# 4 0.000000 0.000000 0.000000 0.032042 0.000000 0.000000
# 5 0.000000 0.000000 0.000000 0.000000 0.034787 0.000000
# 6 0.000000 0.000000 0.000000 0.000000 0.000000 -0.007173
#
#
# Mechanical properties :
#
#
# Convention : Reuss Voigt Hill
#
# Bulk Modulus (GPa) = 33.26920 37.64745 35.45832
# Shear Modulus (GPa) = 37.73016 -3.59367 17.06824
#
# Velocity S-wave (km/s) = 4.43665 -1.36924 2.98405
# Velocity P-wave (km/s) = 6.60316 4.14017 5.51102
#
# Compressibility (1/GPa) = 0.03005783
#
# Stress axis : x y z
#
# Youngs Moduli (GPa) = 70.07117 54.29058 72.67043
#
# Poissons Ratio (x) = -0.13246 0.37273
# Poissons Ratio (y) = -0.17096 0.40024
# Poissons Ratio (z) = 0.35940 0.29901
#
# Static dielectric constant tensor:
#      x y z
#    x 3.369840 0.000000 0.000000 
#    y 0.000000 3.484610 0.000000 
#    z 0.000000 0.000000 3.759300 
# 
# 
# High freq. dielectric constant tensor:
#      x y z
#    x 1.725670 0.000000 0.000000 
#    y 0.000000 1.737120 0.000000 
#    z 0.000000 0.000000 1.759000 
# 
# From -- ./inp_files/5957.got.cif
#   From: 2010.03.12/outbox.cif.g09.slc.cpg/sg49_3_cif.got.tgz:5957.got - 2010.04.14 03:58:27.
