data_PCOD8202129
_publ_section_title
;
Structure prediction by ZEFSAII (Michael W. Deem and Ramdas Pophale) SiO2 
 PCOD8202129
Probable space group: P N N N
;
_chemical_formula_sum "Si O2"
_cell_formula_units_Z 24
_cell_length_a 27.160591
_cell_length_b 4.952735
_cell_length_c 7.907585
_cell_angle_alpha 90.000000
_cell_angle_beta 90.000000
_cell_angle_gamma 90.000000
_cell_volume 1063.722085
_symmetry_space_group_name_H-M "P N N N"
_symmetry_group_IT_number 48
_space_group.IT_coordinate_system_code '2'
_symmetry_cell_setting 'orthorhombic'
loop_
_space_group_symop_operation_xyz
x,y,z
1/2-x,1/2-y,z
x,1/2-y,1/2-z
1/2-x,y,1/2-z
-x,-y,-z
1/2+x,1/2+y,-z
-x,1/2+y,1/2+z
1/2+x,-y,1/2+z
loop_
_atom_site_type_symbol
_atom_site_label
_atom_site_fract_x
_atom_site_fract_y
_atom_site_fract_z
Si Si1 0.458254 0.982931 0.862917
Si Si2 0.638310 0.170072 0.937787
Si Si3 0.307011 0.312090 0.941615
O O1 0.480766 0.750000 0.750000
O O2 0.448735 0.250000 0.750000
O O3 0.408640 0.865034 0.943788
O O4 0.500000 0.000000 0.000000
O O5 0.621162 0.250000 0.750000
O O6 0.677362 0.382444 0.016147
O O7 0.664931 0.882187 0.928285
O O8 0.250000 0.250000 0.968124
O O9 0.323068 0.250000 0.750000
#
# Coordination Sequence:
#
# PCOD8202129 Si02
#       3
#     8   8   8
#     4  12  26  46  71  99 135 177 226 279 339 404
#     4  12  25  42  66  98 134 173 221 275 334 398
#     4  11  24  43  67  95 131 176 223 273 334 399
#
# _framework density 22.562282
#
# number of rings (size 3 to 8) (size 9 to 14) (size 15 to 20)
#    0.000    0.333    0.000   10.000    0.000    9.333 
#    0.000    0.000    0.000    0.000    0.000    0.000 
#    0.000    0.000    0.000    0.000    0.000    0.000 
#
# Total GULP energy -297585.516418 kJ/mol
# GULP energy per Si atom -12399.396517 kJ/mol
# Density = 2.251093 g / cm^3
# Si number density = 22.562282 Si / 1000 Ang^3
#
#
#
# Elastic Constant Matrix: (Units=GPa)
#
#
# Indices 1 2 3 4 5 6 
#
# 1 140.2342 51.3283 53.2389 0.0000 0.0000 0.0000
# 2 51.3283 126.0699 47.6246 0.0000 0.0000 0.0000
# 3 53.2389 47.6246 136.9297 0.0000 0.0000 0.0000
# 4 0.0000 0.0000 0.0000 49.2246 0.0000 0.0000
# 5 0.0000 0.0000 0.0000 0.0000 38.1506 0.0000
# 6 0.0000 0.0000 0.0000 0.0000 0.0000 45.9018
#
#
#
# Elastic Compliance Matrix: (Units=1/GPa)
#
#
# Indices 1 2 3 4 5 6 
#
# 1 0.009116 -0.002731 -0.002594 0.000000 0.000000 0.000000
# 2 -0.002731 0.009950 -0.002399 0.000000 0.000000 0.000000
# 3 -0.002594 -0.002399 0.009146 0.000000 0.000000 0.000000
# 4 0.000000 0.000000 0.000000 0.020315 0.000000 0.000000
# 5 0.000000 0.000000 0.000000 0.000000 0.026212 0.000000
# 6 0.000000 0.000000 0.000000 0.000000 0.000000 0.021786
#
#
# Mechanical properties :
#
#
# Convention : Reuss Voigt Hill
#
# Bulk Modulus (GPa) = 78.35044 78.62416 78.48730
# Shear Modulus (GPa) = 43.01911 43.39152 43.20532
#
# Velocity S-wave (km/s) = 4.37129 4.39018 4.38075
# Velocity P-wave (km/s) = 7.76397 7.78598 7.77498
#
# Compressibility (1/GPa) = 0.01276317
#
# Stress axis : x y z
#
# Youngs Moduli (GPa) = 109.70320 100.49925 109.33787
#
# Poissons Ratio (x) = 0.27450 0.28364
# Poissons Ratio (y) = 0.29963 0.26228
# Poissons Ratio (z) = 0.28459 0.24108
#
# Static dielectric constant tensor:
#      x y z
#    x 4.161090 0.000000 0.000000 
#    y 0.000000 4.315580 0.000000 
#    z 0.000000 0.000000 4.236860 
# 
# 
# High freq. dielectric constant tensor:
#      x y z
#    x 1.897850 0.000000 0.000000 
#    y 0.000000 1.908670 0.000000 
#    z 0.000000 0.000000 1.905670 
# 
# From -- ./inp_files/6146.got.cif
#   From: 2010.06.25/outbox.cif.g09.slc.cpg/sg48_4_cif.got.tgz:6146.got - 2010.06.26 18:06:46.
