data_PCOD8202196
_publ_section_title
;
Structure prediction by ZEFSAII (Michael W. Deem and Ramdas Pophale) SiO2 
 PCOD8202196
Probable space group: P C C M
;
_chemical_formula_sum "Si O2"
_cell_formula_units_Z 48
_cell_length_a 20.590533
_cell_length_b 20.727226
_cell_length_c 8.606512
_cell_angle_alpha 90.000000
_cell_angle_beta 90.000000
_cell_angle_gamma 90.000000
_cell_volume 3673.127048
_symmetry_space_group_name_H-M "P C C M"
_symmetry_group_IT_number 49
_symmetry_cell_setting 'orthorhombic'
loop_
_space_group_symop_operation_xyz
x,y,z
-x,-y,z
x,-y,1/2-z
-x,y,1/2-z
-x,-y,-z
x,y,-z
-x,y,1/2+z
x,-y,1/2+z
loop_
_atom_site_type_symbol
_atom_site_label
_atom_site_fract_x
_atom_site_fract_y
_atom_site_fract_z
Si Si1 0.428735 0.824645 0.317051
Si Si2 0.935216 0.072068 0.317409
Si Si3 0.427387 0.564723 0.684110
Si Si4 0.335390 0.071317 0.318779
Si Si5 0.191941 0.070020 0.678969
Si Si6 0.572329 0.306065 0.184077
O O1 0.500000 0.837757 0.250000
O O2 0.433991 0.814838 0.500000
O O3 0.384546 0.885273 0.277314
O O4 0.395126 0.760653 0.241509
O O5 0.940309 0.071060 0.500000
O O6 0.868004 0.107559 0.264019
O O7 0.000000 0.107029 0.250000
O O8 0.932314 0.000000 0.250000
O O9 0.392197 0.500000 0.750000
O O10 0.500000 0.565802 0.750000
O O11 0.427833 0.563178 0.500000
O O12 0.392057 0.630093 0.745634
O O13 0.354521 0.069596 0.500000
O O14 0.262855 0.102183 0.298051
O O15 0.339924 0.000000 0.250000
O O16 0.173044 0.064224 0.500000
O O17 0.198947 0.000000 0.750000
O O18 0.500000 0.303529 0.250000
O O19 0.572710 0.310529 0.000000
#
# Coordination Sequence:
#
# PCOD8202196 Si02
#       6
#     8   8   8   8   8   8
#     4  11  21  33  46  58  71  88 112 144 182 224
#     4  10  16  22  33  49  70  91 112 132 156 190
#     4  10  16  23  34  51  72  93 114 134 159 193
#     4  10  20  33  46  59  72  88 111 143 182 224
#     4   9  16  26  39  53  70  88 108 133 165 203
#     4  10  17  27  40  54  71  90 111 136 168 206
#
# _framework density 13.067885
#
# number of rings (size 3 to 8) (size 9 to 14) (size 15 to 20)
#    0.000    2.000    0.000   11.000    0.000    2.333 
#    0.000    1.667    0.000    0.000    0.000    0.000 
#    0.000    0.000    0.000    0.000    0.000    0.000 
#
# Total GULP energy -594693.349927 kJ/mol
# GULP energy per Si atom -12389.444790 kJ/mol
# Density = 1.303814 g / cm^3
# Si number density = 13.067885 Si / 1000 Ang^3
#
#
#
# Elastic Constant Matrix: (Units=GPa)
#
#
# Indices 1 2 3 4 5 6 
#
# 1 58.7819 26.1087 30.6377 0.0000 0.0000 0.0000
# 2 26.1087 68.4944 29.1414 0.0000 0.0000 0.0000
# 3 30.6377 29.1414 130.4597 0.0000 0.0000 0.0000
# 4 0.0000 0.0000 0.0000 20.0220 0.0000 0.0000
# 5 0.0000 0.0000 0.0000 0.0000 17.2590 0.0000
# 6 0.0000 0.0000 0.0000 0.0000 0.0000 -0.2852
#
#
#
# Elastic Compliance Matrix: (Units=1/GPa)
#
#
# Indices 1 2 3 4 5 6 
#
# 1 0.021930 -0.006816 -0.003628 0.000000 0.000000 0.000000
# 2 -0.006816 0.018251 -0.002476 0.000000 0.000000 0.000000
# 3 -0.003628 -0.002476 0.009070 0.000000 0.000000 0.000000
# 4 0.000000 0.000000 0.000000 0.049945 0.000000 0.000000
# 5 0.000000 0.000000 0.000000 0.000000 0.057941 0.000000
# 6 0.000000 0.000000 0.000000 0.000000 0.000000 -3.505744
#
#
# Mechanical properties :
#
#
# Convention : Reuss Voigt Hill
#
# Bulk Modulus (GPa) = 42.71284 47.72353 45.21819
# Shear Modulus (GPa) = -1.50831 18.85570 8.67369
#
# Velocity S-wave (km/s) = -1.07551 3.80268 2.57911
# Velocity P-wave (km/s) = 5.58695 7.47526 6.59900
#
# Compressibility (1/GPa) = 0.02341216
#
# Stress axis : x y z
#
# Youngs Moduli (GPa) = 45.59923 54.79043 110.25036
#
# Poissons Ratio (x) = 0.37345 0.39995
# Poissons Ratio (y) = 0.31080 0.27300
# Poissons Ratio (z) = 0.16542 0.13567
#
# Static dielectric constant tensor:
#      x y z
#    x 2.985360 0.000000 0.000000 
#    y 0.000000 3.140860 0.000000 
#    z 0.000000 0.000000 2.805350 
# 
# 
# High freq. dielectric constant tensor:
#      x y z
#    x 1.460100 0.000000 0.000000 
#    y 0.000000 1.461720 0.000000 
#    z 0.000000 0.000000 1.525470 
# 
# From -- ./inp_files/6030.got.cif
#   From: 2010.03.12/outbox.cif.g09.slc.cpg/sg49_4_cif.got.tgz:6030.got - 2010.04.14 03:58:27.
