data_PCOD8202597
_publ_section_title
;
Structure prediction by ZEFSAII (Michael W. Deem and Ramdas Pophale) SiO2 
 PCOD8202597
Probable space group: P C C M
;
_chemical_formula_sum "Si O2"
_cell_formula_units_Z 48
_cell_length_a 8.662840
_cell_length_b 12.540725
_cell_length_c 26.734363
_cell_angle_alpha 90.000000
_cell_angle_beta 90.000000
_cell_angle_gamma 90.000000
_cell_volume 2904.375592
_symmetry_space_group_name_H-M "P C C M"
_symmetry_group_IT_number 49
_symmetry_cell_setting 'orthorhombic'
loop_
_space_group_symop_operation_xyz
x,y,z
-x,-y,z
x,-y,1/2-z
-x,y,1/2-z
-x,-y,-z
x,y,-z
-x,y,1/2+z
x,-y,1/2+z
loop_
_atom_site_type_symbol
_atom_site_label
_atom_site_fract_x
_atom_site_fract_y
_atom_site_fract_z
Si Si1 0.114455 0.413941 0.876980
Si Si2 0.141632 0.779614 0.442193
Si Si3 0.679463 0.533691 0.697467
Si Si4 0.905278 0.284534 0.801498
Si Si5 0.096551 0.103121 0.624161
Si Si6 0.320427 0.986826 0.555884
O O1 0.185885 0.333985 0.917892
O O2 0.255812 0.472998 0.850561
O O3 0.000000 0.500000 0.903090
O O4 0.019597 0.352686 0.835061
O O5 0.107119 0.760462 0.500000
O O6 0.279534 0.863419 0.432883
O O7 0.988015 0.824339 0.416738
O O8 0.500000 0.500000 0.697979
O O9 0.755908 0.500000 0.750000
O O10 0.735308 0.658132 0.697927
O O11 0.871208 0.168660 0.825340
O O12 0.000000 0.269355 0.750000
O O13 0.252796 0.065739 0.597364
O O14 0.000000 0.000000 0.639943
O O15 0.258327 0.015717 0.500000
O O16 0.500000 0.000000 0.558912
#
# Coordination Sequence:
#
# PCOD8202597 Si02
#       6
#     8   8   8   8   8   8
#     4   9  18  30  48  69  93 124 157 196 241 284
#     4   9  17  30  48  70  95 123 160 199 236 285
#     4  10  19  31  49  71  94 121 158 199 241 289
#     4  10  18  31  50  70  93 124 160 200 243 291
#     4   9  18  31  48  72  95 125 162 200 242 285
#     4   9  17  30  49  71  97 130 163 198 243 293
#
# _framework density 16.526788
#
# number of rings (size 3 to 8) (size 9 to 14) (size 15 to 20)
#    0.000    2.667    1.667    0.500    0.000    4.000 
#    0.000    0.000    0.000    0.500    0.000    1.167 
#    0.000    0.000    0.000    0.000    0.000    0.000 
#
# Total GULP energy -594637.698870 kJ/mol
# GULP energy per Si atom -12388.285393 kJ/mol
# Density = 1.648917 g / cm^3
# Si number density = 16.526788 Si / 1000 Ang^3
#
#
#
# Elastic Constant Matrix: (Units=GPa)
#
#
# Indices 1 2 3 4 5 6 
#
# 1 72.4620 40.6926 38.6735 0.0000 0.0000 0.0000
# 2 40.6926 115.2440 69.4567 0.0000 0.0000 0.0000
# 3 38.6735 69.4567 94.6041 0.0000 0.0000 0.0000
# 4 0.0000 0.0000 0.0000 31.9901 0.0000 0.0000
# 5 0.0000 0.0000 0.0000 0.0000 15.1994 0.0000
# 6 0.0000 0.0000 0.0000 0.0000 0.0000 16.9911
#
#
#
# Elastic Compliance Matrix: (Units=1/GPa)
#
#
# Indices 1 2 3 4 5 6 
#
# 1 0.018417 -0.003525 -0.004940 0.000000 0.000000 0.000000
# 2 -0.003525 0.016239 -0.010481 0.000000 0.000000 0.000000
# 3 -0.004940 -0.010481 0.020285 0.000000 0.000000 0.000000
# 4 0.000000 0.000000 0.000000 0.031260 0.000000 0.000000
# 5 0.000000 0.000000 0.000000 0.000000 0.065792 0.000000
# 6 0.000000 0.000000 0.000000 0.000000 0.000000 0.058854
#
#
# Mechanical properties :
#
#
# Convention : Reuss Voigt Hill
#
# Bulk Modulus (GPa) = 58.66180 64.43955 61.55067
# Shear Modulus (GPa) = 19.65229 21.73528 20.69378
#
# Velocity S-wave (km/s) = 3.45210 3.63044 3.54239
# Velocity P-wave (km/s) = 7.17366 7.52656 7.35223
#
# Compressibility (1/GPa) = 0.01704687
#
# Stress axis : x y z
#
# Youngs Moduli (GPa) = 54.29817 61.57993 49.29726
#
# Poissons Ratio (x) = 0.21710 0.24355
# Poissons Ratio (y) = 0.19143 0.51670
# Poissons Ratio (z) = 0.26825 0.64543
#
# Static dielectric constant tensor:
#      x y z
#    x 2.885590 0.000000 0.000000 
#    y 0.000000 3.418360 0.000000 
#    z 0.000000 0.000000 3.212700 
# 
# 
# High freq. dielectric constant tensor:
#      x y z
#    x 1.618530 0.000000 0.000000 
#    y 0.000000 1.638440 0.000000 
#    z 0.000000 0.000000 1.633920 
# 
# From -- ./inp_files/22369.got.cif
#   From: 2010.03.12/outbox.cif.g09.slc.cpg/sg49_12_cif.got.tgz:22369.got - 2010.04.14 03:58:27.
