data_PCOD8202404
_publ_section_title
;
Structure prediction by ZEFSAII (Michael W. Deem and Ramdas Pophale) SiO2 
 PCOD8202404
Probable space group: P C C M
;
_chemical_formula_sum "Si O2"
_cell_formula_units_Z 48
_cell_length_a 9.106917
_cell_length_b 29.373145
_cell_length_c 9.009576
_cell_angle_alpha 90.000000
_cell_angle_beta 90.000000
_cell_angle_gamma 90.000000
_cell_volume 2410.050710
_symmetry_space_group_name_H-M "P C C M"
_symmetry_group_IT_number 49
_symmetry_cell_setting 'orthorhombic'
loop_
_space_group_symop_operation_xyz
x,y,z
-x,-y,z
x,-y,1/2-z
-x,y,1/2-z
-x,-y,-z
x,y,-z
-x,y,1/2+z
x,-y,1/2+z
loop_
_atom_site_type_symbol
_atom_site_label
_atom_site_fract_x
_atom_site_fract_y
_atom_site_fract_z
Si Si1 0.650275 0.700596 0.664996
Si Si2 0.842445 0.784262 0.677759
Si Si3 0.339783 0.864515 0.320017
Si Si4 0.148252 0.565271 0.500000
Si Si5 0.814850 0.458207 0.000000
Si Si6 0.661997 0.044796 0.819565
Si Si7 0.674176 0.400118 0.766539
O O1 0.500000 0.705927 0.750000
O O2 0.607400 0.713992 0.500000
O O3 0.772316 0.735676 0.721726
O O4 0.714050 0.649433 0.669984
O O5 0.847266 0.792804 0.500000
O O6 0.752869 0.822332 0.764269
O O7 0.000000 0.784285 0.750000
O O8 0.500000 0.858503 0.250000
O O9 0.345906 0.867346 0.500000
O O10 0.263159 0.909702 0.247814
O O11 0.183455 0.512143 0.500000
O O12 0.222834 0.593868 0.627507
O O13 0.972041 0.567469 0.500000
O O14 0.720684 0.442897 0.862159
O O15 0.500000 0.045092 0.750000
O O16 0.742477 0.000000 0.750000
O O17 0.661079 0.044280 0.000000
O O18 0.500000 0.403857 0.750000
#
# Coordination Sequence:
#
# PCOD8202404 Si02
#       7
#     8   8   8   4   4   8   8
#     4  10  23  42  65  90 120 154 193 244 299 359
#     4  11  24  42  61  89 120 156 201 248 303 364
#     4  11  21  36  58  87 120 161 205 254 310 366
#     4  11  25  39  63  91 119 173 195 251 300 365
#     4  11  23  43  61  87 131 155 211 241 304 365
#     4  10  17  28  48  79 117 157 201 255 308 365
#     4  11  23  41  63  93 121 157 202 254 304 361
#
# _framework density 19.916592999999999
#
# number of rings (size 3 to 8) (size 9 to 14) (size 15 to 20)
#    0.000    1.333    0.833    7.000    3.500    7.333 
#    0.000    0.000    0.000    0.500    0.000    3.500 
#    0.000    0.000    0.000    0.000    0.000    0.000 
#
# Total GULP energy -594669.162425 kJ/mol
# GULP energy per Si atom -12388.940884 kJ/mol
# Density = 1.987126 g / cm^3
# Si number density = 19.916593 Si / 1000 Ang^3
#
#
#
# Elastic Constant Matrix: (Units=GPa)
#
#
# Indices 1 2 3 4 5 6 
#
# 1 85.4738 61.0277 31.6518 0.0000 0.0000 0.0000
# 2 61.0277 122.4280 41.1996 0.0000 0.0000 0.0000
# 3 31.6518 41.1996 142.0237 0.0000 0.0000 0.0000
# 4 0.0000 0.0000 0.0000 53.2775 0.0000 0.0000
# 5 0.0000 0.0000 0.0000 0.0000 26.4395 0.0000
# 6 0.0000 0.0000 0.0000 0.0000 0.0000 63.0656
#
#
#
# Elastic Compliance Matrix: (Units=1/GPa)
#
#
# Indices 1 2 3 4 5 6 
#
# 1 0.018488 -0.008676 -0.001603 0.000000 0.000000 0.000000
# 2 -0.008676 0.013123 -0.001873 0.000000 0.000000 0.000000
# 3 -0.001603 -0.001873 0.007942 0.000000 0.000000 0.000000
# 4 0.000000 0.000000 0.000000 0.018770 0.000000 0.000000
# 5 0.000000 0.000000 0.000000 0.000000 0.037822 0.000000
# 6 0.000000 0.000000 0.000000 0.000000 0.000000 0.015856
#
#
# Mechanical properties :
#
#
# Convention : Reuss Voigt Hill
#
# Bulk Modulus (GPa) = 65.58563 68.63153 67.10858
# Shear Modulus (GPa) = 35.36311 42.95962 39.16137
#
# Velocity S-wave (km/s) = 4.21831 4.64936 4.43907
# Velocity P-wave (km/s) = 7.53174 7.95967 7.74866
#
# Compressibility (1/GPa) = 0.01524724
#
# Stress axis : x y z
#
# Youngs Moduli (GPa) = 54.08888 76.19941 125.91523
#
# Poissons Ratio (x) = 0.66113 0.20189
# Poissons Ratio (y) = 0.46929 0.23588
# Poissons Ratio (z) = 0.08673 0.14275
#
# Static dielectric constant tensor:
#      x y z
#    x 3.813710 0.000000 0.000000 
#    y 0.000000 4.446090 0.000000 
#    z 0.000000 0.000000 3.796980 
# 
# 
# High freq. dielectric constant tensor:
#      x y z
#    x 1.752940 0.000000 0.000000 
#    y 0.000000 1.801900 0.000000 
#    z 0.000000 0.000000 1.795750 
# 
# From -- ./inp_files/2145.got.cif
#   From: 2010.03.12/outbox.cif.g09.slc.cpg/sg49_2_cif.got.tgz:2145.got - 2010.04.14 03:58:27.
