data_PCOD8202506
_publ_section_title
;
Structure prediction by ZEFSAII (Michael W. Deem and Ramdas Pophale) SiO2 
 PCOD8202506
Probable space group: P C C M
;
_chemical_formula_sum "Si O2"
_cell_formula_units_Z 64
_cell_length_a 18.969548
_cell_length_b 23.494999
_cell_length_c 8.677962
_cell_angle_alpha 90.000000
_cell_angle_beta 90.000000
_cell_angle_gamma 90.000000
_cell_volume 3867.676643
_symmetry_space_group_name_H-M "P C C M"
_symmetry_group_IT_number 49
_symmetry_cell_setting 'orthorhombic'
loop_
_space_group_symop_operation_xyz
x,y,z
-x,-y,z
x,-y,1/2-z
-x,y,1/2-z
-x,-y,-z
x,y,-z
-x,y,1/2+z
x,-y,1/2+z
loop_
_atom_site_type_symbol
_atom_site_label
_atom_site_fract_x
_atom_site_fract_y
_atom_site_fract_z
Si Si1 0.288217 0.728625 0.678006
Si Si2 0.924829 0.773047 0.682848
Si Si3 0.924733 0.560729 0.682660
Si Si4 0.571393 0.248798 0.180296
Si Si5 0.799363 0.162331 0.317582
Si Si6 0.571747 0.119593 0.181777
Si Si7 0.149221 0.664757 0.681289
Si Si8 0.714611 0.938234 0.316599
O O1 0.307782 0.728645 0.500000
O O2 0.359912 0.715349 0.770070
O O3 0.257882 0.789923 0.728485
O O4 0.230483 0.680440 0.716366
O O5 0.927260 0.767521 0.500000
O O6 0.872260 0.823120 0.733521
O O7 0.902250 0.712928 0.754416
O O8 0.000000 0.790378 0.750000
O O9 0.901908 0.500000 0.750000
O O10 0.930083 0.556829 0.500000
O O11 0.865828 0.605745 0.733221
O O12 0.000000 0.580044 0.750000
O O13 0.500000 0.275842 0.250000
O O14 0.580639 0.184206 0.242499
O O15 0.563947 0.250830 0.000000
O O16 0.811950 0.161333 0.500000
O O17 0.774049 0.101895 0.255536
O O18 0.500000 0.092699 0.250000
O O19 0.637700 0.082588 0.239931
O O20 0.566580 0.118420 0.000000
O O21 0.135413 0.658983 0.500000
O O22 0.720728 0.937609 0.500000
O O23 0.729029 0.000000 0.250000
#
# Coordination Sequence:
#
# PCOD8202506 Si02
#       8
#     8   8   8   8   8   8   8   8
#     4   9  18  31  49  71  97 127 160 200 247 292
#     4  11  21  34  53  77 103 130 160 199 243 292
#     4  11  21  34  51  72 101 141 181 217 252 291
#     4  10  18  29  46  68  95 127 162 198 240 294
#     4  10  20  35  53  73  96 124 156 196 244 295
#     4   9  19  32  47  67  92 123 158 197 238 285
#     4  10  20  34  50  74 105 136 171 210 249 292
#     4  11  22  36  51  71  94 123 160 199 242 290
#
# _framework density 16.547402000000002
#
# number of rings (size 3 to 8) (size 9 to 14) (size 15 to 20)
#    0.000    1.875    1.250    5.250    0.000    4.250 
#    0.000    1.250    0.000    0.375    0.000    2.625 
#    0.000    0.500    0.000    5.250    0.000    2.250 
#
# Total GULP energy -793773.785494 kJ/mol
# GULP energy per Si atom -12402.715398 kJ/mol
# Density = 1.650974 g / cm^3
# Si number density = 16.547402 Si / 1000 Ang^3
#
#
#
# Elastic Constant Matrix: (Units=GPa)
#
#
# Indices 1 2 3 4 5 6 
#
# 1 124.3550 51.4830 46.9706 0.0000 0.0000 0.0000
# 2 51.4830 85.4594 33.8743 0.0000 0.0000 0.0000
# 3 46.9706 33.8743 92.9478 0.0000 0.0000 0.0000
# 4 0.0000 0.0000 0.0000 24.5838 0.0000 0.0000
# 5 0.0000 0.0000 0.0000 0.0000 31.5401 0.0000
# 6 0.0000 0.0000 0.0000 0.0000 0.0000 22.8762
#
#
#
# Elastic Compliance Matrix: (Units=1/GPa)
#
#
# Indices 1 2 3 4 5 6 
#
# 1 0.011839 -0.005565 -0.003955 0.000000 0.000000 0.000000
# 2 -0.005565 0.016293 -0.003126 0.000000 0.000000 0.000000
# 3 -0.003955 -0.003126 0.013896 0.000000 0.000000 0.000000
# 4 0.000000 0.000000 0.000000 0.040677 0.000000 0.000000
# 5 0.000000 0.000000 0.000000 0.000000 0.031706 0.000000
# 6 0.000000 0.000000 0.000000 0.000000 0.000000 0.043714
#
#
# Mechanical properties :
#
#
# Convention : Reuss Voigt Hill
#
# Bulk Modulus (GPa) = 59.74466 63.04644 61.39555
# Shear Modulus (GPa) = 26.45584 27.16228 26.80906
#
# Velocity S-wave (km/s) = 4.00283 4.05592 4.02946
# Velocity P-wave (km/s) = 7.58598 7.75353 7.67021
#
# Compressibility (1/GPa) = 0.01673790
#
# Stress axis : x y z
#
# Youngs Moduli (GPa) = 84.46662 61.37726 71.96088
#
# Poissons Ratio (x) = 0.34154 0.28459
# Poissons Ratio (y) = 0.47002 0.22493
# Poissons Ratio (z) = 0.33405 0.19185
#
# Static dielectric constant tensor:
#      x y z
#    x 3.184170 0.000000 0.000000 
#    y 0.000000 2.893140 0.000000 
#    z 0.000000 0.000000 3.158660 
# 
# 
# High freq. dielectric constant tensor:
#      x y z
#    x 1.637110 0.000000 0.000000 
#    y 0.000000 1.602220 0.000000 
#    z 0.000000 0.000000 1.652980 
# 
# From -- ./inp_files/5402.got.cif
#   From: 2010.03.12/outbox.cif.g09.slc.cpg/sg49_3_cif.got.tgz:5402.got - 2010.04.14 03:58:27.
