data_PCOD8202686
_publ_section_title
;
Structure prediction by ZEFSAII (Michael W. Deem and Ramdas Pophale) SiO2 
 PCOD8202686
Probable space group: P C C M
;
_chemical_formula_sum "Si O2"
_cell_formula_units_Z 64
_cell_length_a 25.181519
_cell_length_b 14.998852
_cell_length_c 8.541060
_cell_angle_alpha 90.000000
_cell_angle_beta 90.000000
_cell_angle_gamma 90.000000
_cell_volume 3225.906062
_symmetry_space_group_name_H-M "P C C M"
_symmetry_group_IT_number 49
_symmetry_cell_setting 'orthorhombic'
loop_
_space_group_symop_operation_xyz
x,y,z
-x,-y,z
x,-y,1/2-z
-x,y,1/2-z
-x,-y,-z
x,y,-z
-x,y,1/2+z
x,-y,1/2+z
loop_
_atom_site_type_symbol
_atom_site_label
_atom_site_fract_x
_atom_site_fract_y
_atom_site_fract_z
Si Si1 0.058812 0.906098 0.685940
Si Si2 0.698738 0.369051 0.176871
Si Si3 0.813706 0.406181 0.314301
Si Si4 0.445415 0.773567 0.185217
Si Si5 0.335602 0.831301 0.824999
Si Si6 0.589091 0.590892 0.817049
Si Si7 0.768359 0.091935 0.814035
Si Si8 0.143002 0.772364 0.186008
O O1 0.058670 0.909596 0.500000
O O2 0.091673 0.821136 0.744904
O O3 0.000000 0.892967 0.750000
O O4 0.082677 0.000000 0.750000
O O5 0.754141 0.395163 0.252491
O O6 0.693097 0.263534 0.171954
O O7 0.651773 0.409988 0.280410
O O8 0.695612 0.407494 0.000000
O O9 0.836553 0.500000 0.250000
O O10 0.814017 0.405931 0.500000
O O11 0.851840 0.327394 0.252505
O O12 0.500000 0.816029 0.250000
O O13 0.393838 0.826006 0.257710
O O14 0.441583 0.670651 0.231863
O O15 0.444399 0.780321 0.000000
O O16 0.291793 0.895206 0.743612
O O17 0.345963 0.865548 0.000000
O O18 0.563890 0.500000 0.750000
O O19 0.578993 0.599535 0.000000
O O20 0.805760 0.171799 0.756962
O O21 0.792059 0.000000 0.750000
O O22 0.766356 0.090397 0.000000
O O23 0.138576 0.768325 0.000000
#
# Coordination Sequence:
#
# PCOD8202686 Si02
#       8
#     8   8   8   8   8   8   8   8
#     4  11  22  39  63  94 129 168 212 255 303 358
#     4  10  18  34  54  74 104 145 188 233 285 339
#     4  12  24  37  55  82 116 158 206 252 298 352
#     4  10  20  35  54  73  95 129 174 224 281 341
#     4   8  16  33  54  74 103 142 177 219 278 340
#     4  11  21  33  48  71  99 131 173 222 277 339
#     4  10  20  35  56  85 118 153 187 227 286 352
#     4  11  22  39  61  87 124 164 203 250 303 354
#
# _framework density 19.839389000000001
#
# number of rings (size 3 to 8) (size 9 to 14) (size 15 to 20)
#    0.000    1.625    1.250    6.375    0.000    2.250 
#    0.000    2.500    0.000    0.750    0.000    5.250 
#    0.000    0.000    0.000    0.000    0.000    0.000 
#
# Total GULP energy -793362.220324 kJ/mol
# GULP energy per Si atom -12396.284693 kJ/mol
# Density = 1.979423 g / cm^3
# Si number density = 19.839389 Si / 1000 Ang^3
#
#
#
# Elastic Constant Matrix: (Units=GPa)
#
#
# Indices 1 2 3 4 5 6 
#
# 1 97.0274 46.6762 29.6682 0.0000 0.0000 0.0000
# 2 46.6762 98.2915 31.2308 0.0000 0.0000 0.0000
# 3 29.6682 31.2308 99.4242 0.0000 0.0000 0.0000
# 4 0.0000 0.0000 0.0000 26.2282 0.0000 0.0000
# 5 0.0000 0.0000 0.0000 0.0000 25.1581 0.0000
# 6 0.0000 0.0000 0.0000 0.0000 0.0000 -15.9410
#
#
#
# Elastic Compliance Matrix: (Units=1/GPa)
#
#
# Indices 1 2 3 4 5 6 
#
# 1 0.013812 -0.005831 -0.002290 0.000000 0.000000 0.000000
# 2 -0.005831 0.013764 -0.002583 0.000000 0.000000 0.000000
# 3 -0.002290 -0.002583 0.011553 0.000000 0.000000 0.000000
# 4 0.000000 0.000000 0.000000 0.038127 0.000000 0.000000
# 5 0.000000 0.000000 0.000000 0.000000 0.039749 0.000000
# 6 0.000000 0.000000 0.000000 0.000000 0.000000 -0.062731
#
#
# Mechanical properties :
#
#
# Convention : Reuss Voigt Hill
#
# Bulk Modulus (GPa) = 56.43542 56.65483 56.54513
# Shear Modulus (GPa) = 61.28400 19.56694 40.42547
#
# Velocity S-wave (km/s) = 5.56391 3.14390 4.51892
# Velocity P-wave (km/s) = 8.35369 6.46510 7.46932
#
# Compressibility (1/GPa) = 0.01771937
#
# Stress axis : x y z
#
# Youngs Moduli (GPa) = 72.40222 72.65437 86.56026
#
# Poissons Ratio (x) = 0.42367 0.19820
# Poissons Ratio (y) = 0.42220 0.22362
# Poissons Ratio (z) = 0.16578 0.18769
#
# Static dielectric constant tensor:
#      x y z
#    x 3.691080 0.000000 0.000000 
#    y 0.000000 3.690320 0.000000 
#    z 0.000000 0.000000 3.557240 
# 
# 
# High freq. dielectric constant tensor:
#      x y z
#    x 1.766480 0.000000 0.000000 
#    y 0.000000 1.761280 0.000000 
#    z 0.000000 0.000000 1.770260 
# 
# From -- ./inp_files/6499.got.cif
#   From: 2010.03.12/outbox.cif.g09.slc.cpg/sg49_4_cif.got.tgz:6499.got - 2010.04.14 03:58:27.
