data_PCOD8202081
_publ_section_title
;
Structure prediction by ZEFSAII (Michael W. Deem and Ramdas Pophale) SiO2 
 PCOD8202081
Probable space group: P N N N
;
_chemical_formula_sum "Si O2"
_cell_formula_units_Z 58
_cell_length_a 8.921872
_cell_length_b 18.270453
_cell_length_c 17.108443
_cell_angle_alpha 90.000000
_cell_angle_beta 90.000000
_cell_angle_gamma 90.000000
_cell_volume 2788.789861
_symmetry_space_group_name_H-M "P N N N"
_symmetry_group_IT_number 48
_space_group.IT_coordinate_system_code '2'
_symmetry_cell_setting 'orthorhombic'
loop_
_space_group_symop_operation_xyz
x,y,z
1/2-x,1/2-y,z
x,1/2-y,1/2-z
1/2-x,y,1/2-z
-x,-y,-z
1/2+x,1/2+y,-z
-x,1/2+y,1/2+z
1/2+x,-y,1/2+z
loop_
_atom_site_type_symbol
_atom_site_label
_atom_site_fract_x
_atom_site_fract_y
_atom_site_fract_z
Si Si1 0.584166 0.733209 0.482719
Si Si2 0.070095 0.874373 0.058146
Si Si3 0.938644 0.595477 0.934150
Si Si4 0.734518 0.482263 0.470181
Si Si5 0.250000 0.750000 0.250000
Si Si6 0.617737 0.351682 0.632832
Si Si7 0.090420 0.005214 0.289575
Si Si8 0.145888 0.051585 0.820487
O O1 0.750000 0.750000 0.454254
O O2 0.495099 0.808905 0.495427
O O3 0.584433 0.683372 0.561333
O O4 0.516328 0.678956 0.418494
O O5 0.219844 0.842809 0.094739
O O6 0.949877 0.891215 0.127184
O O7 0.113572 0.944523 0.004531
O O8 0.937720 0.576141 0.842771
O O9 0.096513 0.574584 0.976096
O O10 0.801529 0.553927 0.978065
O O11 0.752979 0.504287 0.379603
O O12 0.370813 0.698682 0.291946
O O13 0.579006 0.434963 0.653799
O O14 0.250000 0.009161 0.250000
O O15 0.968624 0.003710 0.221167
O O16 0.250000 0.086479 0.750000
#
# Coordination Sequence:
#
# PCOD8202081 Si02
#       8
#     8   8   8   8   2   8   8   8
#     4  12  27  42  64  98 136 177 233 288 344 410
#     4  12  23  44  69  95 134 190 230 277 345 441
#     4  11  22  43  69  96 136 183 232 290 346 412
#     4  11  22  42  71  97 134 179 233 291 340 415
#     4  12  20  36  62  92 140 172 214 256 328 448
#     4  12  22  41  63  93 131 186 224 259 342 430
#     4  12  23  42  70 101 134 182 224 285 358 417
#     4  12  25  39  65 109 141 163 229 295 348 403
#
# _framework density 20.797550000000001
#
# number of rings (size 3 to 8) (size 9 to 14) (size 15 to 20)
#    0.000    0.276    7.586    2.069    1.931    1.103 
#    0.000    0.345    0.000    2.897    0.000    0.000 
#    0.000    0.000    0.000    0.000    0.000    0.000 
#
# Total GULP energy -719118.775336 kJ/mol
# GULP energy per Si atom -12398.599575 kJ/mol
# Density = 2.075021 g / cm^3
# Si number density = 20.797550 Si / 1000 Ang^3
#
#
#
# Elastic Constant Matrix: (Units=GPa)
#
#
# Indices 1 2 3 4 5 6 
#
# 1 107.3002 51.0067 31.6865 0.0000 0.0000 0.0000
# 2 51.0067 116.8934 49.9024 0.0000 0.0000 0.0000
# 3 31.6865 49.9024 80.8905 0.0000 0.0000 0.0000
# 4 0.0000 0.0000 0.0000 39.7723 0.0000 0.0000
# 5 0.0000 0.0000 0.0000 0.0000 32.1966 0.0000
# 6 0.0000 0.0000 0.0000 0.0000 0.0000 32.6200
#
#
#
# Elastic Compliance Matrix: (Units=1/GPa)
#
#
# Indices 1 2 3 4 5 6 
#
# 1 0.011991 -0.004381 -0.001995 0.000000 0.000000 0.000000
# 2 -0.004381 0.013214 -0.006436 0.000000 0.000000 0.000000
# 3 -0.001995 -0.006436 0.017114 0.000000 0.000000 0.000000
# 4 0.000000 0.000000 0.000000 0.025143 0.000000 0.000000
# 5 0.000000 0.000000 0.000000 0.000000 0.031059 0.000000
# 6 0.000000 0.000000 0.000000 0.000000 0.000000 0.030656
#
#
# Mechanical properties :
#
#
# Convention : Reuss Voigt Hill
#
# Bulk Modulus (GPa) = 59.89215 63.36392 61.62803
# Shear Modulus (GPa) = 31.17884 32.41703 31.79793
#
# Velocity S-wave (km/s) = 3.87610 3.95231 3.91439
# Velocity P-wave (km/s) = 6.99231 7.16665 7.08002
#
# Compressibility (1/GPa) = 0.01669668
#
# Stress axis : x y z
#
# Youngs Moduli (GPa) = 83.39465 75.67821 58.43175
#
# Poissons Ratio (x) = 0.33154 0.11655
# Poissons Ratio (y) = 0.36534 0.37605
# Poissons Ratio (z) = 0.16634 0.48704
#
# Static dielectric constant tensor:
#      x y z
#    x 4.040010 0.000000 0.000000 
#    y 0.000000 3.745410 0.000000 
#    z 0.000000 0.000000 3.882790 
# 
# 
# High freq. dielectric constant tensor:
#      x y z
#    x 1.834420 0.000000 0.000000 
#    y 0.000000 1.794450 0.000000 
#    z 0.000000 0.000000 1.802740 
# 
# From -- ./inp_files/30489.got.cif
#   From: 2010.06.25/outbox.cif.g09.slc.cpg/sg48_16_cif.got.tgz:30489.got - 2010.06.26 18:06:46.
