data_PCOD8202554
_publ_section_title
;
Structure prediction by ZEFSAII (Michael W. Deem and Ramdas Pophale) SiO2 
 PCOD8202554
Probable space group: P C C M
;
_chemical_formula_sum "Si O2"
_cell_formula_units_Z 40
_cell_length_a 13.708865
_cell_length_b 18.856806
_cell_length_c 8.575919
_cell_angle_alpha 90.000000
_cell_angle_beta 90.000000
_cell_angle_gamma 90.000000
_cell_volume 2216.921438
_symmetry_space_group_name_H-M "P C C M"
_symmetry_group_IT_number 49
_symmetry_cell_setting 'orthorhombic'
loop_
_space_group_symop_operation_xyz
x,y,z
-x,-y,z
x,-y,1/2-z
-x,y,1/2-z
-x,-y,-z
x,y,-z
-x,y,1/2+z
x,-y,1/2+z
loop_
_atom_site_type_symbol
_atom_site_label
_atom_site_fract_x
_atom_site_fract_y
_atom_site_fract_z
Si Si1 0.209312 0.925047 0.184559
Si Si2 0.607612 0.426371 0.685510
Si Si3 0.394994 0.145608 0.185012
Si Si4 0.292686 0.713977 0.316039
Si Si5 0.103187 0.792221 0.684657
O O1 0.317171 0.910084 0.249907
O O2 0.131453 0.867276 0.241509
O O3 0.172875 0.000000 0.250000
O O4 0.212102 0.926132 0.000000
O O5 0.651706 0.500000 0.750000
O O6 0.500000 0.413923 0.750000
O O7 0.603992 0.429123 0.500000
O O8 0.675069 0.362392 0.750638
O O9 0.500000 0.124798 0.250000
O O10 0.365580 0.224448 0.244328
O O11 0.394438 0.140770 0.000000
O O12 0.300011 0.711312 0.500000
O O13 0.182410 0.732721 0.264595
O O14 0.100005 0.801158 0.500000
O O15 0.000000 0.766108 0.750000
#
# Coordination Sequence:
#
# PCOD8202554 Si02
#       5
#     8   8   8   8   8
#     4  11  22  37  54  75 101 132 166 207 253 302
#     4  10  18  30  47  73 105 139 170 203 242 288
#     4  10  19  33  51  74 101 134 171 210 251 300
#     4   8  17  32  51  72 101 133 166 207 251 294
#     4  10  20  37  57  79 101 127 163 208 256 305
#
# _framework density 18.043039
#
# number of rings (size 3 to 8) (size 9 to 14) (size 15 to 20)
#    0.000    2.200    0.000    6.000    0.000    0.800 
#    0.000   15.000    0.000    0.600    0.000    4.200 
#    0.000    0.000    0.000    0.000    0.000    0.000 
#
# Total GULP energy -495988.293123 kJ/mol
# GULP energy per Si atom -12399.707328 kJ/mol
# Density = 1.800197 g / cm^3
# Si number density = 18.043039 Si / 1000 Ang^3
#
#
#
# Elastic Constant Matrix: (Units=GPa)
#
#
# Indices 1 2 3 4 5 6 
#
# 1 97.0289 38.3147 27.5844 0.0000 0.0000 0.0000
# 2 38.3147 125.6974 31.9209 0.0000 0.0000 0.0000
# 3 27.5844 31.9209 98.8060 0.0000 0.0000 0.0000
# 4 0.0000 0.0000 0.0000 21.4533 0.0000 0.0000
# 5 0.0000 0.0000 0.0000 0.0000 29.1315 0.0000
# 6 0.0000 0.0000 0.0000 0.0000 0.0000 23.0693
#
#
#
# Elastic Compliance Matrix: (Units=1/GPa)
#
#
# Indices 1 2 3 4 5 6 
#
# 1 0.012220 -0.003114 -0.002405 0.000000 0.000000 0.000000
# 2 -0.003114 0.009460 -0.002187 0.000000 0.000000 0.000000
# 3 -0.002405 -0.002187 0.011499 0.000000 0.000000 0.000000
# 4 0.000000 0.000000 0.000000 0.046613 0.000000 0.000000
# 5 0.000000 0.000000 0.000000 0.000000 0.034327 0.000000
# 6 0.000000 0.000000 0.000000 0.000000 0.000000 0.043348
#
#
# Mechanical properties :
#
#
# Convention : Reuss Voigt Hill
#
# Bulk Modulus (GPa) = 56.28673 57.46357 56.87515
# Shear Modulus (GPa) = 27.96405 29.64496 28.80450
#
# Velocity S-wave (km/s) = 3.94109 4.05781 3.99987
# Velocity P-wave (km/s) = 7.20924 7.33973 7.27477
#
# Compressibility (1/GPa) = 0.01776618
#
# Stress axis : x y z
#
# Youngs Moduli (GPa) = 81.83524 105.70650 86.96467
#
# Poissons Ratio (x) = 0.32916 0.20919
# Poissons Ratio (y) = 0.25483 0.19019
# Poissons Ratio (z) = 0.19685 0.23117
#
# Static dielectric constant tensor:
#      x y z
#    x 3.283470 0.000000 0.000000 
#    y 0.000000 3.642670 0.000000 
#    z 0.000000 0.000000 3.278950 
# 
# 
# High freq. dielectric constant tensor:
#      x y z
#    x 1.689560 0.000000 0.000000 
#    y 0.000000 1.694670 0.000000 
#    z 0.000000 0.000000 1.700750 
# 
# From -- ./inp_files/3559.got.cif
#   From: 2010.03.12/outbox.cif.g09.slc.cpg/sg49_2_cif.got.tgz:3559.got - 2010.04.14 03:58:27.
