data_PCOD8202051
_publ_section_title
;
Structure prediction by ZEFSAII (Michael W. Deem and Ramdas Pophale) SiO2 
 PCOD8202051
Probable space group: P N N N
;
_chemical_formula_sum "Si O2"
_cell_formula_units_Z 32
_cell_length_a 10.746386
_cell_length_b 6.982128
_cell_length_c 18.433480
_cell_angle_alpha 90.000000
_cell_angle_beta 90.000000
_cell_angle_gamma 90.000000
_cell_volume 1383.112717
_symmetry_space_group_name_H-M "P N N N"
_symmetry_group_IT_number 48
_space_group.IT_coordinate_system_code '2'
_symmetry_cell_setting 'orthorhombic'
loop_
_space_group_symop_operation_xyz
x,y,z
1/2-x,1/2-y,z
x,1/2-y,1/2-z
1/2-x,y,1/2-z
-x,-y,-z
1/2+x,1/2+y,-z
-x,1/2+y,1/2+z
1/2+x,-y,1/2+z
loop_
_atom_site_type_symbol
_atom_site_label
_atom_site_fract_x
_atom_site_fract_y
_atom_site_fract_z
Si Si1 0.987078 0.795628 0.833488
Si Si2 0.139143 0.600939 0.411932
Si Si3 0.803232 0.047243 0.067054
Si Si4 0.037076 0.065480 0.579011
O O1 0.006598 0.750000 0.750000
O O2 0.103805 0.914288 0.866406
O O3 0.972053 0.587187 0.868511
O O4 0.867730 0.932544 0.850655
O O5 0.250000 0.750000 0.395372
O O6 0.139706 0.484456 0.488930
O O7 0.010290 0.720677 0.406505
O O8 0.750000 0.250000 0.041605
O O9 0.686214 0.915517 0.090832
O O10 0.000000 0.000000 0.500000
#
# Coordination Sequence:
#
# PCOD8202051 Si02
#       4
#     8   8   8   8
#     4  11  25  43  66 100 138 180 225 286 353 408
#     4  11  22  43  69  98 136 179 236 286 329 416
#     4   9  19  38  68 102 129 173 230 287 330 407
#     4  11  21  41  69 103 134 177 229 283 341 403
#
# _framework density 23.136216999999998
#
# number of rings (size 3 to 8) (size 9 to 14) (size 15 to 20)
#    0.000    1.500    7.500    0.750    0.000    7.500 
#    0.000    3.750    0.000    9.000    0.000    0.000 
#    0.000    0.000    0.000    0.000    0.000    0.000 
#
# Total GULP energy -396491.501516 kJ/mol
# GULP energy per Si atom -12390.359422 kJ/mol
# Density = 2.308356 g / cm^3
# Si number density = 23.136217 Si / 1000 Ang^3
#
#
#
# Elastic Constant Matrix: (Units=GPa)
#
#
# Indices 1 2 3 4 5 6 
#
# 1 79.7108 34.8187 40.2476 0.0000 0.0000 0.0000
# 2 34.8187 99.7512 60.7159 0.0000 0.0000 0.0000
# 3 40.2476 60.7159 172.6126 0.0000 0.0000 0.0000
# 4 0.0000 0.0000 0.0000 31.1816 0.0000 0.0000
# 5 0.0000 0.0000 0.0000 0.0000 14.6474 0.0000
# 6 0.0000 0.0000 0.0000 0.0000 0.0000 40.4283
#
#
#
# Elastic Compliance Matrix: (Units=1/GPa)
#
#
# Indices 1 2 3 4 5 6 
#
# 1 0.015413 -0.004062 -0.002165 0.000000 0.000000 0.000000
# 2 -0.004062 0.013827 -0.003916 0.000000 0.000000 0.000000
# 3 -0.002165 -0.003916 0.007676 0.000000 0.000000 0.000000
# 4 0.000000 0.000000 0.000000 0.032070 0.000000 0.000000
# 5 0.000000 0.000000 0.000000 0.000000 0.068272 0.000000
# 6 0.000000 0.000000 0.000000 0.000000 0.000000 0.024735
#
#
# Mechanical properties :
#
#
# Convention : Reuss Voigt Hill
#
# Bulk Modulus (GPa) = 60.13839 69.29322 64.71581
# Shear Modulus (GPa) = 26.62099 31.67096 29.14597
#
# Velocity S-wave (km/s) = 3.39576 3.70387 3.55315
# Velocity P-wave (km/s) = 6.43619 6.95030 6.69818
#
# Compressibility (1/GPa) = 0.01662831
#
# Stress axis : x y z
#
# Youngs Moduli (GPa) = 64.88075 72.32417 130.28220
#
# Poissons Ratio (x) = 0.29380 0.28205
# Poissons Ratio (y) = 0.26356 0.51022
# Poissons Ratio (z) = 0.14046 0.28324
#
# Static dielectric constant tensor:
#      x y z
#    x -3.530610 0.000000 0.000000 
#    y 0.000000 2.346930 0.000000 
#    z 0.000000 0.000000 3.458750 
# 
# 
# High freq. dielectric constant tensor:
#      x y z
#    x 1.921380 0.000000 0.000000 
#    y 0.000000 1.932860 0.000000 
#    z 0.000000 0.000000 1.873800 
# 
# From -- ./inp_files/26050.got.cif
#   From: 2010.06.25/outbox.cif.g09.slc.cpg/sg48_14_cif.got.tgz:26050.got - 2010.06.26 18:06:46.
