data_PCOD8202184
_publ_section_title
;
Structure prediction by ZEFSAII (Michael W. Deem and Ramdas Pophale) SiO2 
 PCOD8202184
Probable space group: P C C M
;
_chemical_formula_sum "Si O2"
_cell_formula_units_Z 64
_cell_length_a 14.382499
_cell_length_b 31.469262
_cell_length_c 8.793803
_cell_angle_alpha 90.000000
_cell_angle_beta 90.000000
_cell_angle_gamma 90.000000
_cell_volume 3980.133534
_symmetry_space_group_name_H-M "P C C M"
_symmetry_group_IT_number 49
_symmetry_cell_setting 'orthorhombic'
loop_
_space_group_symop_operation_xyz
x,y,z
-x,-y,z
x,-y,1/2-z
-x,y,1/2-z
-x,-y,-z
x,y,-z
-x,y,1/2+z
x,-y,1/2+z
loop_
_atom_site_type_symbol
_atom_site_label
_atom_site_fract_x
_atom_site_fract_y
_atom_site_fract_z
Si Si1 0.095741 0.824683 0.678314
Si Si2 0.600934 0.876217 0.679402
Si Si3 0.600588 0.624586 0.322427
Si Si4 0.603324 0.542057 0.180749
Si Si5 0.096576 0.077335 0.179471
Si Si6 0.719893 0.956596 0.319590
Si Si7 0.399887 0.717856 0.176675
Si Si8 0.720449 0.795999 0.680188
O O1 0.089682 0.818502 0.500000
O O2 0.112829 0.873601 0.724071
O O3 0.178779 0.796542 0.744088
O O4 0.000000 0.807944 0.750000
O O5 0.500000 0.874163 0.750000
O O6 0.590490 0.875269 0.500000
O O7 0.652546 0.918792 0.734744
O O8 0.660080 0.836008 0.737189
O O9 0.500000 0.628496 0.250000
O O10 0.593223 0.613595 0.500000
O O11 0.654574 0.585570 0.237645
O O12 0.646167 0.671048 0.294250
O O13 0.653584 0.500000 0.250000
O O14 0.500000 0.543718 0.250000
O O15 0.601672 0.539436 0.000000
O O16 0.177479 0.049873 0.253853
O O17 0.000000 0.061069 0.250000
O O18 0.095352 0.070221 0.000000
O O19 0.725210 0.959455 0.500000
O O20 0.678578 0.000000 0.250000
O O21 0.500000 0.723782 0.250000
O O22 0.329114 0.753123 0.239421
O O23 0.416856 0.725195 0.000000
O O24 0.733099 0.796833 0.500000
#
# Coordination Sequence:
#
# PCOD8202184 Si02
#       8
#     8   8   8   8   8   8   8   8
#     4  10  20  33  53  78 100 124 149 180 220 265
#     4  10  22  37  55  74  96 123 154 190 227 263
#     4   9  15  24  35  51  75 106 143 184 228 272
#     4  10  16  22  32  47  67  97 137 185 233 275
#     4  10  20  35  56  80 103 126 150 180 218 266
#     4  11  23  39  56  76  99 126 154 187 224 266
#     4   9  18  29  44  64  90 122 155 192 233 272
#     4  10  19  34  52  73  98 123 152 188 226 269
#
# _framework density 16.079861999999999
#
# number of rings (size 3 to 8) (size 9 to 14) (size 15 to 20)
#    0.000    2.125    1.250    4.125    0.000    4.000 
#    0.000    2.500    0.000    0.000    0.000    0.000 
#    0.000    0.000    0.000    0.000    0.000    0.625 
#
# Total GULP energy -793431.837363 kJ/mol
# GULP energy per Si atom -12397.372459 kJ/mol
# Density = 1.604326 g / cm^3
# Si number density = 16.079862 Si / 1000 Ang^3
#
#
#
# Elastic Constant Matrix: (Units=GPa)
#
#
# Indices 1 2 3 4 5 6 
#
# 1 83.2610 49.1114 27.8184 0.0000 0.0000 0.0000
# 2 49.1114 140.3583 45.8603 0.0000 0.0000 0.0000
# 3 27.8184 45.8603 73.3830 0.0000 0.0000 0.0000
# 4 0.0000 0.0000 0.0000 24.2411 0.0000 0.0000
# 5 0.0000 0.0000 0.0000 0.0000 24.1092 0.0000
# 6 0.0000 0.0000 0.0000 0.0000 0.0000 7.4953
#
#
#
# Elastic Compliance Matrix: (Units=1/GPa)
#
#
# Indices 1 2 3 4 5 6 
#
# 1 0.015698 -0.004459 -0.003164 0.000000 0.000000 0.000000
# 2 -0.004459 0.010219 -0.004696 0.000000 0.000000 0.000000
# 3 -0.003164 -0.004696 0.017762 0.000000 0.000000 0.000000
# 4 0.000000 0.000000 0.000000 0.041252 0.000000 0.000000
# 5 0.000000 0.000000 0.000000 0.000000 0.041478 0.000000
# 6 0.000000 0.000000 0.000000 0.000000 0.000000 0.133417
#
#
# Mechanical properties :
#
#
# Convention : Reuss Voigt Hill
#
# Bulk Modulus (GPa) = 52.52114 60.28694 56.40404
# Shear Modulus (GPa) = 17.19335 22.78326 19.98831
#
# Velocity S-wave (km/s) = 3.27348 3.76823 3.52954
# Velocity P-wave (km/s) = 6.85720 7.51707 7.19470
#
# Compressibility (1/GPa) = 0.01903995
#
# Stress axis : x y z
#
# Youngs Moduli (GPa) = 63.70399 97.85553 56.30150
#
# Poissons Ratio (x) = 0.43631 0.17815
# Poissons Ratio (y) = 0.28404 0.26440
# Poissons Ratio (z) = 0.20158 0.45955
#
# Static dielectric constant tensor:
#      x y z
#    x 2.759590 0.000000 0.000000 
#    y 0.000000 3.931300 0.000000 
#    z 0.000000 0.000000 3.146300 
# 
# 
# High freq. dielectric constant tensor:
#      x y z
#    x 1.571350 0.000000 0.000000 
#    y 0.000000 1.624060 0.000000 
#    z 0.000000 0.000000 1.629610 
# 
# From -- ./inp_files/4523.got.cif
#   From: 2010.03.12/outbox.cif.g09.slc.cpg/sg49_3_cif.got.tgz:4523.got - 2010.04.14 03:58:27.
