data_PCOD8202931
_publ_section_title
;
Structure prediction by ZEFSAII (Michael W. Deem and Ramdas Pophale) SiO2 
 PCOD8202931
Probable space group: P C C M
;
_chemical_formula_sum "Si O2"
_cell_formula_units_Z 56
_cell_length_a 19.076677
_cell_length_b 18.856158
_cell_length_c 8.849900
_cell_angle_alpha 90.000000
_cell_angle_beta 90.000000
_cell_angle_gamma 90.000000
_cell_volume 3183.422624
_symmetry_space_group_name_H-M "P C C M"
_symmetry_group_IT_number 49
_symmetry_cell_setting 'orthorhombic'
loop_
_space_group_symop_operation_xyz
x,y,z
-x,-y,z
x,-y,1/2-z
-x,y,1/2-z
-x,-y,-z
x,y,-z
-x,y,1/2+z
x,-y,1/2+z
loop_
_atom_site_type_symbol
_atom_site_label
_atom_site_fract_x
_atom_site_fract_y
_atom_site_fract_z
Si Si1 0.707075 0.156455 0.322366
Si Si2 0.842274 0.073878 0.322978
Si Si3 0.074377 0.789860 0.678868
Si Si4 0.206981 0.708735 0.679197
Si Si5 0.712269 0.425506 0.677387
Si Si6 0.428281 0.804595 0.820695
Si Si7 0.570989 0.651372 0.178973
O O1 0.690438 0.158368 0.500000
O O2 0.761984 0.094022 0.282786
O O3 0.740160 0.230410 0.264835
O O4 0.635367 0.144016 0.229715
O O5 0.851079 0.066488 0.500000
O O6 0.895140 0.134772 0.263453
O O7 0.863994 0.000000 0.250000
O O8 0.067201 0.790896 0.500000
O O9 0.127826 0.727379 0.731179
O O10 0.000000 0.773060 0.750000
O O11 0.210808 0.708997 0.500000
O O12 0.232628 0.632751 0.742094
O O13 0.731168 0.500000 0.750000
O O14 0.721001 0.433104 0.500000
O O15 0.633455 0.402256 0.719301
O O16 0.500000 0.835341 0.750000
O O17 0.413231 0.726884 0.753896
O O18 0.434802 0.801386 0.000000
O O19 0.500000 0.618701 0.250000
O O20 0.562842 0.662222 0.000000
#
# Coordination Sequence:
#
# PCOD8202931 Si02
#       7
#     8   8   8   8   8   8   8
#     4   9  16  32  53  70  93 129 170 205 245 293
#     4   9  19  33  52  76 106 140 166 196 238 289
#     4   9  18  33  54  78 102 133 166 198 239 287
#     4   8  15  32  53  69  93 129 165 198 245 298
#     4  10  20  33  50  69  94 130 166 207 252 299
#     4  11  20  29  46  72  98 126 163 211 256 294
#     4  10  19  32  48  66  94 131 166 204 252 299
#
# _framework density 17.59113
#
# number of rings (size 3 to 8) (size 9 to 14) (size 15 to 20)
#    0.000    2.571    1.429    4.286    0.000    2.857 
#    0.000    5.714    0.000    0.857    0.000    6.000 
#    0.000    0.000    0.000    0.000    0.000    0.000 
#
# Total GULP energy -694171.857771 kJ/mol
# GULP energy per Si atom -12395.926032 kJ/mol
# Density = 1.755109 g / cm^3
# Si number density = 17.591130 Si / 1000 Ang^3
#
#
#
# Elastic Constant Matrix: (Units=GPa)
#
#
# Indices 1 2 3 4 5 6 
#
# 1 138.3674 49.6498 39.7757 0.0000 0.0000 0.0000
# 2 49.6498 81.0022 21.1645 0.0000 0.0000 0.0000
# 3 39.7757 21.1645 57.6033 0.0000 0.0000 0.0000
# 4 0.0000 0.0000 0.0000 12.5273 0.0000 0.0000
# 5 0.0000 0.0000 0.0000 0.0000 30.1392 0.0000
# 6 0.0000 0.0000 0.0000 0.0000 0.0000 20.6499
#
#
#
# Elastic Compliance Matrix: (Units=1/GPa)
#
#
# Indices 1 2 3 4 5 6 
#
# 1 0.010623 -0.005082 -0.005468 0.000000 0.000000 0.000000
# 2 -0.005082 0.016088 -0.002402 0.000000 0.000000 0.000000
# 3 -0.005468 -0.002402 0.022018 0.000000 0.000000 0.000000
# 4 0.000000 0.000000 0.000000 0.079825 0.000000 0.000000
# 5 0.000000 0.000000 0.000000 0.000000 0.033179 0.000000
# 6 0.000000 0.000000 0.000000 0.000000 0.000000 0.048426
#
#
# Mechanical properties :
#
#
# Convention : Reuss Voigt Hill
#
# Bulk Modulus (GPa) = 43.81097 55.35032 49.58064
# Shear Modulus (GPa) = 20.51941 23.75548 22.13744
#
# Velocity S-wave (km/s) = 3.41906 3.67880 3.55130
# Velocity P-wave (km/s) = 6.36756 7.04116 6.71282
#
# Compressibility (1/GPa) = 0.02282534
#
# Stress axis : x y z
#
# Youngs Moduli (GPa) = 94.13891 62.15784 45.41745
#
# Poissons Ratio (x) = 0.31591 0.24833
# Poissons Ratio (y) = 0.47846 0.10907
# Poissons Ratio (z) = 0.51472 0.14928
#
# Static dielectric constant tensor:
#      x y z
#    x 3.538180 0.000000 0.000000 
#    y 0.000000 3.305840 0.000000 
#    z 0.000000 0.000000 3.041250 
# 
# 
# High freq. dielectric constant tensor:
#      x y z
#    x 1.684180 0.000000 0.000000 
#    y 0.000000 1.653090 0.000000 
#    z 0.000000 0.000000 1.664540 
# 
# From -- ./inp_files/5161.got.cif
#   From: 2010.03.12/outbox.cif.g09.slc.cpg/sg49_3_cif.got.tgz:5161.got - 2010.04.14 03:58:27.
