data_PCOD8202195
_publ_section_title
;
Structure prediction by ZEFSAII (Michael W. Deem and Ramdas Pophale) SiO2 
 PCOD8202195
Probable space group: P C C M
;
_chemical_formula_sum "Si O2"
_cell_formula_units_Z 64
_cell_length_a 31.291946
_cell_length_b 14.430051
_cell_length_c 8.732304
_cell_angle_alpha 90.000000
_cell_angle_beta 90.000000
_cell_angle_gamma 90.000000
_cell_volume 3943.022767
_symmetry_space_group_name_H-M "P C C M"
_symmetry_group_IT_number 49
_symmetry_cell_setting 'orthorhombic'
loop_
_space_group_symop_operation_xyz
x,y,z
-x,-y,z
x,-y,1/2-z
-x,y,1/2-z
-x,-y,-z
x,y,-z
-x,y,1/2+z
x,-y,1/2+z
loop_
_atom_site_type_symbol
_atom_site_label
_atom_site_fract_x
_atom_site_fract_y
_atom_site_fract_z
Si Si1 0.042402 0.896823 0.818710
Si Si2 0.295159 0.211597 0.319064
Si Si3 0.427261 0.596136 0.181449
Si Si4 0.780119 0.899233 0.177228
Si Si5 0.620976 0.101443 0.181811
Si Si6 0.125472 0.899944 0.677515
Si Si7 0.543824 0.782607 0.181857
Si Si8 0.328545 0.594332 0.820608
O O1 0.086352 0.845797 0.763099
O O2 0.000000 0.846710 0.750000
O O3 0.044187 0.000000 0.750000
O O4 0.039502 0.898390 0.000000
O O5 0.290666 0.209664 0.500000
O O6 0.251787 0.175084 0.246754
O O7 0.334701 0.148180 0.266874
O O8 0.302480 0.316631 0.259785
O O9 0.444759 0.500000 0.250000
O O10 0.453299 0.676639 0.264070
O O11 0.377707 0.608191 0.226421
O O12 0.434591 0.600613 0.000000
O O13 0.827678 0.855231 0.202343
O O14 0.773957 0.000000 0.250000
O O15 0.770141 0.912668 0.000000
O O16 0.582627 0.159677 0.250718
O O17 0.619804 0.000000 0.250000
O O18 0.616161 0.099063 0.000000
O O19 0.113481 0.907925 0.500000
O O20 0.129730 0.000000 0.750000
O O21 0.500000 0.824733 0.250000
O O22 0.543660 0.789547 0.000000
O O23 0.309457 0.500000 0.750000
O O24 0.324070 0.585445 0.000000
#
# Coordination Sequence:
#
# PCOD8202195 Si02
#       8
#     8   8   8   8   8   8   8   8
#     4  10  16  22  33  49  70 100 141 188 237 283
#     4  10  20  35  54  75 101 127 155 192 232 274
#     4  10  19  36  58  83 110 133 159 190 228 275
#     4  10  20  31  45  66  92 124 161 200 241 283
#     4  11  23  41  59  79 103 128 160 199 235 277
#     4   9  16  26  37  52  77 108 146 192 237 279
#     4  12  25  41  60  81 103 132 161 193 234 278
#     4   9  18  33  53  78 103 128 152 185 225 269
#
# _framework density 16.231203000000001
#
# number of rings (size 3 to 8) (size 9 to 14) (size 15 to 20)
#    0.000    1.875    1.250    5.250    0.000    5.000 
#    0.000    2.500    0.000    0.000    0.000    0.000 
#    0.000    0.000    0.000    0.000    0.000    0.625 
#
# Total GULP energy -793396.903430 kJ/mol
# GULP energy per Si atom -12396.826616 kJ/mol
# Density = 1.619426 g / cm^3
# Si number density = 16.231203 Si / 1000 Ang^3
#
#
#
# Elastic Constant Matrix: (Units=GPa)
#
#
# Indices 1 2 3 4 5 6 
#
# 1 114.7271 32.5402 44.5573 0.0000 0.0000 0.0000
# 2 32.5402 67.8775 24.3886 0.0000 0.0000 0.0000
# 3 44.5573 24.3886 85.7351 0.0000 0.0000 0.0000
# 4 0.0000 0.0000 0.0000 24.4373 0.0000 0.0000
# 5 0.0000 0.0000 0.0000 0.0000 29.3182 0.0000
# 6 0.0000 0.0000 0.0000 0.0000 0.0000 1.3507
#
#
#
# Elastic Compliance Matrix: (Units=1/GPa)
#
#
# Indices 1 2 3 4 5 6 
#
# 1 0.011752 -0.003831 -0.005018 0.000000 0.000000 0.000000
# 2 -0.003831 0.017658 -0.003032 0.000000 0.000000 0.000000
# 3 -0.005018 -0.003032 0.015134 0.000000 0.000000 0.000000
# 4 0.000000 0.000000 0.000000 0.040921 0.000000 0.000000
# 5 0.000000 0.000000 0.000000 0.000000 0.034109 0.000000
# 6 0.000000 0.000000 0.000000 0.000000 0.000000 0.740379
#
#
# Mechanical properties :
#
#
# Convention : Reuss Voigt Hill
#
# Bulk Modulus (GPa) = 48.11717 52.36799 50.24258
# Shear Modulus (GPa) = 5.61393 22.14481 13.87937
#
# Velocity S-wave (km/s) = 1.86178 3.69770 2.92739
# Velocity P-wave (km/s) = 5.85925 7.11087 6.51519
#
# Compressibility (1/GPa) = 0.02078260
#
# Stress axis : x y z
#
# Youngs Moduli (GPa) = 85.09458 56.63024 66.07570
#
# Poissons Ratio (x) = 0.21694 0.33155
# Poissons Ratio (y) = 0.32598 0.20036
# Poissons Ratio (z) = 0.42698 0.17172
#
# Static dielectric constant tensor:
#      x y z
#    x 3.860740 0.000000 0.000000 
#    y 0.000000 2.899900 0.000000 
#    z 0.000000 0.000000 3.170450 
# 
# 
# High freq. dielectric constant tensor:
#      x y z
#    x 1.629330 0.000000 0.000000 
#    y 0.000000 1.579920 0.000000 
#    z 0.000000 0.000000 1.640570 
# 
# From -- ./inp_files/7060.got.cif
#   From: 2010.03.12/outbox.cif.g09.slc.cpg/sg49_4_cif.got.tgz:7060.got - 2010.04.14 03:58:27.
