data_PCOD8202615
_publ_section_title
;
Structure prediction by ZEFSAII (Michael W. Deem and Ramdas Pophale) SiO2 
 PCOD8202615
Probable space group: P C C M
;
_chemical_formula_sum "Si O2"
_cell_formula_units_Z 48
_cell_length_a 16.132848
_cell_length_b 8.875229
_cell_length_c 15.848546
_cell_angle_alpha 90.000000
_cell_angle_beta 90.000000
_cell_angle_gamma 90.000000
_cell_volume 2269.237931
_symmetry_space_group_name_H-M "P C C M"
_symmetry_group_IT_number 49
_symmetry_cell_setting 'orthorhombic'
loop_
_space_group_symop_operation_xyz
x,y,z
-x,-y,z
x,-y,1/2-z
-x,y,1/2-z
-x,-y,-z
x,y,-z
-x,y,1/2+z
x,-y,1/2+z
loop_
_atom_site_type_symbol
_atom_site_label
_atom_site_fract_x
_atom_site_fract_y
_atom_site_fract_z
Si Si1 0.807371 0.599052 0.100878
Si Si2 0.980592 0.332630 0.347636
Si Si3 0.351631 0.338966 0.785765
Si Si4 0.146507 0.270289 0.405171
Si Si5 0.423892 0.895531 0.403098
Si Si6 0.287400 0.095888 0.670178
O O1 0.728247 0.653682 0.153058
O O2 0.828733 0.431673 0.136217
O O3 0.886033 0.706417 0.126159
O O4 0.790731 0.609213 0.000000
O O5 0.049166 0.228988 0.394320
O O6 0.000000 0.500000 0.380643
O O7 0.000000 0.313712 0.250000
O O8 0.382797 0.500000 0.750000
O O9 0.421043 0.252008 0.842216
O O10 0.334948 0.245954 0.700324
O O11 0.172464 0.290206 0.500000
O O12 0.199730 0.133717 0.370184
O O13 0.433496 0.842629 0.500000
O O14 0.500000 0.000000 0.374001
O O15 0.341944 0.998147 0.394396
O O16 0.263641 0.000000 0.750000
#
# Coordination Sequence:
#
# PCOD8202615 Si02
#       6
#     8   8   8   8   8   8
#     4  10  19  31  53  86 125 161 205 262 320 367
#     4   9  17  27  47  78 118 163 205 255 309 366
#     4  11  21  37  64  95 125 156 206 263 317 365
#     4  10  18  31  52  81 119 160 208 257 308 364
#     4  10  23  45  68  91 125 168 209 247 309 391
#     4  10  21  36  60  88 120 169 208 253 309 384
#
# _framework density 21.152476
#
# number of rings (size 3 to 8) (size 9 to 14) (size 15 to 20)
#    0.000    2.000    1.667    2.500    2.333    5.000 
#    0.000    1.667    0.000   13.500    0.000   16.333 
#    0.000    0.000    0.000    0.000    0.000    0.000 
#
# Total GULP energy -594893.587177 kJ/mol
# GULP energy per Si atom -12393.616400 kJ/mol
# Density = 2.110433 g / cm^3
# Si number density = 21.152476 Si / 1000 Ang^3
#
#
#
# Elastic Constant Matrix: (Units=GPa)
#
#
# Indices 1 2 3 4 5 6 
#
# 1 104.3957 39.4034 30.0658 0.0000 0.0000 0.0000
# 2 39.4034 97.4445 31.1543 0.0000 0.0000 0.0000
# 3 30.0658 31.1543 72.1054 0.0000 0.0000 0.0000
# 4 0.0000 0.0000 0.0000 23.7518 0.0000 0.0000
# 5 0.0000 0.0000 0.0000 0.0000 30.4902 0.0000
# 6 0.0000 0.0000 0.0000 0.0000 0.0000 101.5786
#
#
#
# Elastic Compliance Matrix: (Units=1/GPa)
#
#
# Indices 1 2 3 4 5 6 
#
# 1 0.011969 -0.003764 -0.003364 0.000000 0.000000 0.000000
# 2 -0.003764 0.013091 -0.004087 0.000000 0.000000 0.000000
# 3 -0.003364 -0.004087 0.017037 0.000000 0.000000 0.000000
# 4 0.000000 0.000000 0.000000 0.042102 0.000000 0.000000
# 5 0.000000 0.000000 0.000000 0.000000 0.032797 0.000000
# 6 0.000000 0.000000 0.000000 0.000000 0.000000 0.009845
#
#
# Mechanical properties :
#
#
# Convention : Reuss Voigt Hill
#
# Bulk Modulus (GPa) = 50.84747 52.79918 51.82332
# Shear Modulus (GPa) = 32.08707 42.71892 37.40300
#
# Velocity S-wave (km/s) = 3.89902 4.49884 4.20963
# Velocity P-wave (km/s) = 6.66037 7.21121 6.94125
#
# Compressibility (1/GPa) = 0.01966666
#
# Stress axis : x y z
#
# Youngs Moduli (GPa) = 83.55225 76.38905 58.69568
#
# Poissons Ratio (x) = 0.28754 0.19746
# Poissons Ratio (y) = 0.31450 0.23987
# Poissons Ratio (z) = 0.28108 0.31217
#
# Static dielectric constant tensor:
#      x y z
#    x 3.880350 0.000000 0.000000 
#    y 0.000000 10.532810 0.000000 
#    z 0.000000 0.000000 3.839850 
# 
# 
# High freq. dielectric constant tensor:
#      x y z
#    x 1.824430 0.000000 0.000000 
#    y 0.000000 1.800580 0.000000 
#    z 0.000000 0.000000 1.834310 
# 
# From -- ./inp_files/14046.got.cif
#   From: 2010.03.12/outbox.cif.g09.slc.cpg/sg49_8_cif.got.tgz:14046.got - 2010.04.14 03:58:27.
