data_PCOD8202531
_publ_section_title
;
Structure prediction by ZEFSAII (Michael W. Deem and Ramdas Pophale) SiO2 
 PCOD8202531
Probable space group: P C C M
;
_chemical_formula_sum "Si O2"
_cell_formula_units_Z 64
_cell_length_a 23.661867
_cell_length_b 19.080537
_cell_length_c 8.613859
_cell_angle_alpha 90.000000
_cell_angle_beta 90.000000
_cell_angle_gamma 90.000000
_cell_volume 3888.994784
_symmetry_space_group_name_H-M "P C C M"
_symmetry_group_IT_number 49
_symmetry_cell_setting 'orthorhombic'
loop_
_space_group_symop_operation_xyz
x,y,z
-x,-y,z
x,-y,1/2-z
-x,y,1/2-z
-x,-y,-z
x,y,-z
-x,y,1/2+z
x,-y,1/2+z
loop_
_atom_site_type_symbol
_atom_site_label
_atom_site_fract_x
_atom_site_fract_y
_atom_site_fract_z
Si Si1 0.247270 0.927108 0.319006
Si Si2 0.838669 0.295065 0.316570
Si Si3 0.734694 0.214869 0.182643
Si Si4 0.938671 0.210205 0.816324
Si Si5 0.115381 0.926661 0.682300
Si Si6 0.441026 0.423081 0.315142
Si Si7 0.780113 0.424382 0.816007
Si Si8 0.669343 0.651978 0.682584
O O1 0.259838 0.926055 0.500000
O O2 0.281069 0.863227 0.238259
O O3 0.181429 0.917974 0.279626
O O4 0.270314 0.000000 0.250000
O O5 0.839980 0.300810 0.500000
O O6 0.791280 0.239006 0.268603
O O7 0.898573 0.269209 0.255275
O O8 0.827629 0.371044 0.243350
O O9 0.683091 0.267311 0.227217
O O10 0.746604 0.216965 0.000000
O O11 0.919104 0.133063 0.768125
O O12 0.000000 0.225735 0.750000
O O13 0.938604 0.216184 0.000000
O O14 0.103506 0.922663 0.500000
O O15 0.093204 0.000000 0.750000
O O16 0.428973 0.500000 0.250000
O O17 0.500000 0.393110 0.250000
O O18 0.443802 0.426417 0.500000
O O19 0.391356 0.372098 0.251453
O O20 0.794280 0.500000 0.750000
O O21 0.719079 0.398228 0.752461
O O22 0.781325 0.425975 0.000000
O O23 0.667786 0.642867 0.500000
#
# Coordination Sequence:
#
# PCOD8202531 Si02
#       8
#     8   8   8   8   8   8   8   8
#     4  10  19  30  47  70  98 129 161 195 235 286
#     4  11  21  35  52  73  98 125 156 193 237 290
#     4  10  18  31  50  71  96 127 160 199 245 288
#     4  12  24  38  55  73  95 124 158 198 239 285
#     4  10  20  34  51  72  98 126 160 196 235 281
#     4  10  18  30  45  65  95 133 174 209 242 281
#     4  10  19  33  52  76 100 127 158 196 243 288
#     4   8  17  30  46  69  99 131 165 203 242 284
#
# _framework density 16.456695
#
# number of rings (size 3 to 8) (size 9 to 14) (size 15 to 20)
#    0.000    1.875    1.250    5.625    0.000    1.250 
#    0.000    8.125    0.000    0.375    0.000    2.625 
#    0.000    0.500    0.000    5.750    0.000    1.750 
#
# Total GULP energy -793656.111012 kJ/mol
# GULP energy per Si atom -12400.876735 kJ/mol
# Density = 1.641924 g / cm^3
# Si number density = 16.456695 Si / 1000 Ang^3
#
#
#
# Elastic Constant Matrix: (Units=GPa)
#
#
# Indices 1 2 3 4 5 6 
#
# 1 90.9833 61.7425 30.9906 0.0000 0.0000 0.0000
# 2 61.7425 142.8966 41.2899 0.0000 0.0000 0.0000
# 3 30.9906 41.2899 89.4527 0.0000 0.0000 0.0000
# 4 0.0000 0.0000 0.0000 30.2280 0.0000 0.0000
# 5 0.0000 0.0000 0.0000 0.0000 16.5323 0.0000
# 6 0.0000 0.0000 0.0000 0.0000 0.0000 26.1032
#
#
#
# Elastic Compliance Matrix: (Units=1/GPa)
#
#
# Indices 1 2 3 4 5 6 
#
# 1 0.016110 -0.006171 -0.002733 0.000000 0.000000 0.000000
# 2 -0.006171 0.010439 -0.002681 0.000000 0.000000 0.000000
# 3 -0.002733 -0.002681 0.013363 0.000000 0.000000 0.000000
# 4 0.000000 0.000000 0.000000 0.033082 0.000000 0.000000
# 5 0.000000 0.000000 0.000000 0.000000 0.060488 0.000000
# 6 0.000000 0.000000 0.000000 0.000000 0.000000 0.038310
#
#
# Mechanical properties :
#
#
# Convention : Reuss Voigt Hill
#
# Bulk Modulus (GPa) = 59.72562 65.70873 62.71718
# Shear Modulus (GPa) = 24.93267 27.19333 26.06300
#
# Velocity S-wave (km/s) = 3.89658 4.06940 3.98393
# Velocity P-wave (km/s) = 7.52435 7.88004 7.70425
#
# Compressibility (1/GPa) = 0.01674323
#
# Stress axis : x y z
#
# Youngs Moduli (GPa) = 62.07503 95.79509 74.83286
#
# Poissons Ratio (x) = 0.59115 0.20449
# Poissons Ratio (y) = 0.38306 0.20059
# Poissons Ratio (z) = 0.16963 0.25678
#
# Static dielectric constant tensor:
#      x y z
#    x 3.103630 0.000000 0.000000 
#    y 0.000000 2.848400 0.000000 
#    z 0.000000 0.000000 3.144660 
# 
# 
# High freq. dielectric constant tensor:
#      x y z
#    x 1.599640 0.000000 0.000000 
#    y 0.000000 1.635440 0.000000 
#    z 0.000000 0.000000 1.645620 
# 
# From -- ./inp_files/6611.got.cif
#   From: 2010.03.12/outbox.cif.g09.slc.cpg/sg49_4_cif.got.tgz:6611.got - 2010.04.14 03:58:27.
