data_PCOD8202808
_publ_section_title
;
Structure prediction by ZEFSAII (Michael W. Deem and Ramdas Pophale) SiO2 
 PCOD8202808
Probable space group: P C C M
;
_chemical_formula_sum "Si O2"
_cell_formula_units_Z 64
_cell_length_a 22.673704
_cell_length_b 15.731917
_cell_length_c 8.911108
_cell_angle_alpha 90.000000
_cell_angle_beta 90.000000
_cell_angle_gamma 90.000000
_cell_volume 3178.599615
_symmetry_space_group_name_H-M "P C C M"
_symmetry_group_IT_number 49
_symmetry_cell_setting 'orthorhombic'
loop_
_space_group_symop_operation_xyz
x,y,z
-x,-y,z
x,-y,1/2-z
-x,y,1/2-z
-x,-y,-z
x,y,-z
-x,y,1/2+z
x,-y,1/2+z
loop_
_atom_site_type_symbol
_atom_site_label
_atom_site_fract_x
_atom_site_fract_y
_atom_site_fract_z
Si Si1 0.852278 0.582981 0.175011
Si Si2 0.344214 0.267697 0.173029
Si Si3 0.941404 0.883496 0.332374
Si Si4 0.437000 0.413387 0.176589
Si Si5 0.772473 0.306237 0.175514
Si Si6 0.691703 0.083354 0.672269
Si Si7 0.055846 0.684057 0.167189
Si Si8 0.179180 0.142447 0.821448
O O1 0.880478 0.500000 0.250000
O O2 0.788912 0.602663 0.250652
O O3 0.890795 0.663420 0.222936
O O4 0.846551 0.571855 0.000000
O O5 0.400603 0.326499 0.207744
O O6 0.295855 0.296734 0.291142
O O7 0.350637 0.165812 0.202883
O O8 0.323335 0.280286 0.000000
O O9 0.936771 0.922963 0.500000
O O10 0.950862 0.783974 0.345152
O O11 0.879786 0.903757 0.244235
O O12 0.000000 0.921915 0.250000
O O13 0.409230 0.500000 0.250000
O O14 0.500000 0.396336 0.250000
O O15 0.443323 0.429588 0.000000
O O16 0.814127 0.235515 0.251135
O O17 0.785456 0.305421 0.000000
O O18 0.692290 0.061361 0.500000
O O19 0.759810 0.095590 0.725853
O O20 0.664242 0.000000 0.750000
O O21 0.000000 0.642895 0.250000
O O22 0.063336 0.644797 0.000000
O O23 0.172797 0.149899 0.000000
#
# Coordination Sequence:
#
# PCOD8202808 Si02
#       8
#     8   8   8   8   8   8   8   8
#     4  12  24  37  51  66  92 128 166 215 273 332
#     4   9  20  38  58  83 118 160 196 236 288 339
#     4  10  19  30  49  74 100 128 168 218 274 339
#     4  10  20  36  60  89 125 163 204 247 288 334
#     4  11  21  34  52  76 102 132 175 222 270 330
#     4   9  19  35  56  84 115 150 192 238 291 346
#     4  10  20  34  50  69  91 119 162 212 266 329
#     4  10  19  33  53  75 104 138 173 218 276 337
#
# _framework density 20.134651999999999
#
# number of rings (size 3 to 8) (size 9 to 14) (size 15 to 20)
#    0.000    1.875    1.250    4.875    0.000    5.250 
#    0.000    2.500    0.000    0.750    0.000    5.250 
#    0.000    0.000    0.000    0.000    0.000    0.000 
#
# Total GULP energy -792959.801594 kJ/mol
# GULP energy per Si atom -12389.996900 kJ/mol
# Density = 2.008882 g / cm^3
# Si number density = 20.134652 Si / 1000 Ang^3
#
#
#
# Elastic Constant Matrix: (Units=GPa)
#
#
# Indices 1 2 3 4 5 6 
#
# 1 71.1461 49.4777 36.0965 0.0000 0.0000 0.0000
# 2 49.4777 102.6683 50.5756 0.0000 0.0000 0.0000
# 3 36.0965 50.5756 131.3176 0.0000 0.0000 0.0000
# 4 0.0000 0.0000 0.0000 20.0095 0.0000 0.0000
# 5 0.0000 0.0000 0.0000 0.0000 23.1953 0.0000
# 6 0.0000 0.0000 0.0000 0.0000 0.0000 -36.8575
#
#
#
# Elastic Compliance Matrix: (Units=1/GPa)
#
#
# Indices 1 2 3 4 5 6 
#
# 1 0.021734 -0.009295 -0.002395 0.000000 0.000000 0.000000
# 2 -0.009295 0.015995 -0.003606 0.000000 0.000000 0.000000
# 3 -0.002395 -0.003606 0.009662 0.000000 0.000000 0.000000
# 4 0.000000 0.000000 0.000000 0.049976 0.000000 0.000000
# 5 0.000000 0.000000 0.000000 0.000000 0.043112 0.000000
# 6 0.000000 0.000000 0.000000 0.000000 0.000000 -0.027132
#
#
# Mechanical properties :
#
#
# Convention : Reuss Voigt Hill
#
# Bulk Modulus (GPa) = 59.51580 64.15906 61.83743
# Shear Modulus (GPa) = 33.43610 12.53493 22.98551
#
# Velocity S-wave (km/s) = 4.07950 2.49781 3.38241
# Velocity P-wave (km/s) = 7.19811 6.34452 6.78475
#
# Compressibility (1/GPa) = 0.01680226
#
# Stress axis : x y z
#
# Youngs Moduli (GPa) = 46.01027 62.51778 103.49795
#
# Poissons Ratio (x) = 0.58107 0.24784
# Poissons Ratio (y) = 0.42764 0.37317
# Poissons Ratio (z) = 0.11018 0.22541
#
# Static dielectric constant tensor:
#      x y z
#    x 3.615160 0.000000 0.000000 
#    y 0.000000 3.725950 0.000000 
#    z 0.000000 0.000000 3.812920 
# 
# 
# High freq. dielectric constant tensor:
#      x y z
#    x 1.756550 0.000000 0.000000 
#    y 0.000000 1.782840 0.000000 
#    z 0.000000 0.000000 1.796910 
# 
# From -- ./inp_files/5937.got.cif
#   From: 2010.03.12/outbox.cif.g09.slc.cpg/sg49_3_cif.got.tgz:5937.got - 2010.04.14 03:58:27.
