data_PCOD8202949
_publ_section_title
;
Structure prediction by ZEFSAII (Michael W. Deem and Ramdas Pophale) SiO2 
 PCOD8202949
Probable space group: P C C M
;
_chemical_formula_sum "Si O2"
_cell_formula_units_Z 56
_cell_length_a 19.082858
_cell_length_b 18.389437
_cell_length_c 8.950880
_cell_angle_alpha 90.000000
_cell_angle_beta 90.000000
_cell_angle_gamma 90.000000
_cell_volume 3141.069796
_symmetry_space_group_name_H-M "P C C M"
_symmetry_group_IT_number 49
_symmetry_cell_setting 'orthorhombic'
loop_
_space_group_symop_operation_xyz
x,y,z
-x,-y,z
x,-y,1/2-z
-x,y,1/2-z
-x,-y,-z
x,y,-z
-x,y,1/2+z
x,-y,1/2+z
loop_
_atom_site_type_symbol
_atom_site_label
_atom_site_fract_x
_atom_site_fract_y
_atom_site_fract_z
Si Si1 0.928861 0.210121 0.175187
Si Si2 0.854363 0.076360 0.322031
Si Si3 0.789446 0.287030 0.170008
Si Si4 0.295547 0.574706 0.825370
Si Si5 0.718945 0.157494 0.675670
Si Si6 0.430893 0.816474 0.673691
Si Si7 0.428622 0.352420 0.823667
O O1 0.907072 0.135392 0.255441
O O2 0.871258 0.272792 0.205657
O O3 0.000000 0.238713 0.250000
O O4 0.939441 0.195194 0.000000
O O5 0.862778 0.073250 0.500000
O O6 0.774459 0.096354 0.272374
O O7 0.874414 0.000000 0.250000
O O8 0.769421 0.370371 0.201864
O O9 0.740540 0.236678 0.269275
O O10 0.773325 0.265319 0.000000
O O11 0.271761 0.500000 0.750000
O O12 0.365419 0.603542 0.748103
O O13 0.310555 0.563498 0.000000
O O14 0.719116 0.164006 0.500000
O O15 0.639223 0.140570 0.729432
O O16 0.500000 0.849827 0.750000
O O17 0.442803 0.826611 0.500000
O O18 0.420188 0.732346 0.716507
O O19 0.500000 0.382220 0.750000
O O20 0.430302 0.366255 0.000000
#
# Coordination Sequence:
#
# PCOD8202949 Si02
#       7
#     8   8   8   8   8   8   8
#     4  10  20  36  57  83 109 135 166 201 244 294
#     4  10  20  34  53  78 109 141 171 204 244 294
#     4   9  19  34  53  75 101 129 165 209 249 296
#     4  11  22  35  51  73 100 134 172 212 258 305
#     4   9  17  31  51  73  98 131 170 210 253 299
#     4   9  17  28  45  70  97 126 164 211 257 301
#     4  10  19  32  49  70  99 133 169 212 260 309
#
# _framework density 17.828320000000001
#
# number of rings (size 3 to 8) (size 9 to 14) (size 15 to 20)
#    0.000    2.286    1.429    1.714    0.000    3.429 
#    0.000    2.857    0.000    0.857    0.000    6.000 
#    0.000    0.000    0.000    0.000    0.000    0.000 
#
# Total GULP energy -694274.394894 kJ/mol
# GULP energy per Si atom -12397.757052 kJ/mol
# Density = 1.778774 g / cm^3
# Si number density = 17.828320 Si / 1000 Ang^3
#
#
#
# Elastic Constant Matrix: (Units=GPa)
#
#
# Indices 1 2 3 4 5 6 
#
# 1 125.7266 34.1909 34.1580 0.0000 0.0000 0.0000
# 2 34.1909 58.1182 27.8857 0.0000 0.0000 0.0000
# 3 34.1580 27.8857 56.8457 0.0000 0.0000 0.0000
# 4 0.0000 0.0000 0.0000 21.4881 0.0000 0.0000
# 5 0.0000 0.0000 0.0000 0.0000 28.4488 0.0000
# 6 0.0000 0.0000 0.0000 0.0000 0.0000 17.0687
#
#
#
# Elastic Compliance Matrix: (Units=1/GPa)
#
#
# Indices 1 2 3 4 5 6 
#
# 1 0.010167 -0.003989 -0.004152 0.000000 0.000000 0.000000
# 2 -0.003989 0.024068 -0.009410 0.000000 0.000000 0.000000
# 3 -0.004152 -0.009410 0.024703 0.000000 0.000000 0.000000
# 4 0.000000 0.000000 0.000000 0.046537 0.000000 0.000000
# 5 0.000000 0.000000 0.000000 0.000000 0.035151 0.000000
# 6 0.000000 0.000000 0.000000 0.000000 0.000000 0.058587
#
#
# Mechanical properties :
#
#
# Convention : Reuss Voigt Hill
#
# Bulk Modulus (GPa) = 41.95437 48.12884 45.04161
# Shear Modulus (GPa) = 20.63912 23.03151 21.83532
#
# Velocity S-wave (km/s) = 3.40613 3.59813 3.50345
# Velocity P-wave (km/s) = 6.24920 6.65706 6.45635
#
# Compressibility (1/GPa) = 0.02383542
#
# Stress axis : x y z
#
# Youngs Moduli (GPa) = 98.36123 41.54949 40.48169
#
# Poissons Ratio (x) = 0.16573 0.16810
# Poissons Ratio (y) = 0.39233 0.38092
# Poissons Ratio (z) = 0.40843 0.39097
#
# Static dielectric constant tensor:
#      x y z
#    x 3.617300 0.000000 0.000000 
#    y 0.000000 3.119560 0.000000 
#    z 0.000000 0.000000 3.373030 
# 
# 
# High freq. dielectric constant tensor:
#      x y z
#    x 1.696150 0.000000 0.000000 
#    y 0.000000 1.656720 0.000000 
#    z 0.000000 0.000000 1.699480 
# 
# From -- ./inp_files/5164.got.cif
#   From: 2010.03.12/outbox.cif.g09.slc.cpg/sg49_3_cif.got.tgz:5164.got - 2010.04.14 03:58:27.
