data_PCOD8202654
_publ_section_title
;
Structure prediction by ZEFSAII (Michael W. Deem and Ramdas Pophale) SiO2 
 PCOD8202654
Probable space group: P C C M
;
_chemical_formula_sum "Si O2"
_cell_formula_units_Z 64
_cell_length_a 18.741280
_cell_length_b 21.797389
_cell_length_c 8.628626
_cell_angle_alpha 90.000000
_cell_angle_beta 90.000000
_cell_angle_gamma 90.000000
_cell_volume 3524.888381
_symmetry_space_group_name_H-M "P C C M"
_symmetry_group_IT_number 49
_symmetry_cell_setting 'orthorhombic'
loop_
_space_group_symop_operation_xyz
x,y,z
-x,-y,z
x,-y,1/2-z
-x,y,1/2-z
-x,-y,-z
x,y,-z
-x,y,1/2+z
x,-y,1/2+z
loop_
_atom_site_type_symbol
_atom_site_label
_atom_site_fract_x
_atom_site_fract_y
_atom_site_fract_z
Si Si1 0.927928 0.395546 0.327009
Si Si2 0.639516 0.436343 0.316642
Si Si3 0.075696 0.934170 0.681908
Si Si4 0.929513 0.250744 0.673879
Si Si5 0.281575 0.259326 0.316965
Si Si6 0.174167 0.166012 0.321129
Si Si7 0.574143 0.315816 0.816587
Si Si8 0.220315 0.386552 0.683357
O O1 0.921037 0.422658 0.500000
O O2 0.934221 0.322957 0.333349
O O3 0.857591 0.412253 0.229472
O O4 0.000000 0.423062 0.250000
O O5 0.609073 0.500000 0.250000
O O6 0.635032 0.435874 0.500000
O O7 0.589768 0.382750 0.250568
O O8 0.721226 0.429788 0.262182
O O9 0.066949 0.940144 0.500000
O O10 0.141422 0.888839 0.720180
O O11 0.000000 0.910549 0.750000
O O12 0.096101 0.000000 0.750000
O O13 0.919130 0.223361 0.500000
O O14 0.869167 0.228602 0.791905
O O15 0.000000 0.222417 0.750000
O O16 0.275419 0.262406 0.500000
O O17 0.252727 0.191140 0.266316
O O18 0.363529 0.268343 0.263617
O O19 0.234209 0.316925 0.253645
O O20 0.172588 0.145836 0.500000
O O21 0.500000 0.290120 0.750000
O O22 0.570292 0.320709 0.000000
O O23 0.229693 0.390714 0.500000
#
# Coordination Sequence:
#
# PCOD8202654 Si02
#       8
#     8   8   8   8   8   8   8   8
#     4  10  19  29  43  65  93 126 163 205 252 303
#     4  11  22  37  56  80 104 134 171 212 251 300
#     4  11  22  37  52  70  96 136 182 229 269 313
#     4  10  19  28  39  61  91 124 161 204 247 296
#     4   8  17  31  50  73 101 132 166 201 248 303
#     4  11  19  31  49  70  96 132 170 214 258 303
#     4  10  20  37  57  82 110 142 171 204 248 302
#     4  10  18  33  52  72  99 132 165 209 259 310
#
# _framework density 18.156603
#
# number of rings (size 3 to 8) (size 9 to 14) (size 15 to 20)
#    0.000    1.875    1.250    5.625    0.000    1.250 
#    0.000    3.125    0.000    0.375    0.000    2.625 
#    0.000    0.500    0.000    5.750    0.000    1.750 
#
# Total GULP energy -793151.408255 kJ/mol
# GULP energy per Si atom -12392.990754 kJ/mol
# Density = 1.811528 g / cm^3
# Si number density = 18.156603 Si / 1000 Ang^3
#
#
#
# Elastic Constant Matrix: (Units=GPa)
#
#
# Indices 1 2 3 4 5 6 
#
# 1 116.6425 29.1179 29.9561 0.0000 0.0000 0.0000
# 2 29.1179 64.7514 24.8570 0.0000 0.0000 0.0000
# 3 29.9561 24.8570 101.3442 0.0000 0.0000 0.0000
# 4 0.0000 0.0000 0.0000 19.4477 0.0000 0.0000
# 5 0.0000 0.0000 0.0000 0.0000 28.3703 0.0000
# 6 0.0000 0.0000 0.0000 0.0000 0.0000 21.4965
#
#
#
# Elastic Compliance Matrix: (Units=1/GPa)
#
#
# Indices 1 2 3 4 5 6 
#
# 1 0.010029 -0.003723 -0.002052 0.000000 0.000000 0.000000
# 2 -0.003723 0.018431 -0.003420 0.000000 0.000000 0.000000
# 3 -0.002052 -0.003420 0.011313 0.000000 0.000000 0.000000
# 4 0.000000 0.000000 0.000000 0.051420 0.000000 0.000000
# 5 0.000000 0.000000 0.000000 0.000000 0.035248 0.000000
# 6 0.000000 0.000000 0.000000 0.000000 0.000000 0.046519
#
#
# Mechanical properties :
#
#
# Convention : Reuss Voigt Hill
#
# Bulk Modulus (GPa) = 46.76368 50.06669 48.41518
# Shear Modulus (GPa) = 25.19191 27.11671 26.15431
#
# Velocity S-wave (km/s) = 3.72893 3.86876 3.79949
# Velocity P-wave (km/s) = 6.65970 6.89864 6.78022
#
# Compressibility (1/GPa) = 0.02138412
#
# Stress axis : x y z
#
# Youngs Moduli (GPa) = 99.70744 54.25759 88.39669
#
# Poissons Ratio (x) = 0.20198 0.18135
# Poissons Ratio (y) = 0.37116 0.30233
# Poissons Ratio (z) = 0.20455 0.18557
#
# Static dielectric constant tensor:
#      x y z
#    x 3.607930 0.000000 0.000000 
#    y 0.000000 3.165690 0.000000 
#    z 0.000000 0.000000 3.426480 
# 
# 
# High freq. dielectric constant tensor:
#      x y z
#    x 1.692400 0.000000 0.000000 
#    y 0.000000 1.668280 0.000000 
#    z 0.000000 0.000000 1.710770 
# 
# From -- ./inp_files/5424.got.cif
#   From: 2010.03.12/outbox.cif.g09.slc.cpg/sg49_3_cif.got.tgz:5424.got - 2010.04.14 03:58:27.
