data_PCOD8202637
_publ_section_title
;
Structure prediction by ZEFSAII (Michael W. Deem and Ramdas Pophale) SiO2 
 PCOD8202637
Probable space group: P C C M
;
_chemical_formula_sum "Si O2"
_cell_formula_units_Z 64
_cell_length_a 11.652346
_cell_length_b 17.298428
_cell_length_c 17.204972
_cell_angle_alpha 90.000000
_cell_angle_beta 90.000000
_cell_angle_gamma 90.000000
_cell_volume 3467.959207
_symmetry_space_group_name_H-M "P C C M"
_symmetry_group_IT_number 49
_symmetry_cell_setting 'orthorhombic'
loop_
_space_group_symop_operation_xyz
x,y,z
-x,-y,z
x,-y,1/2-z
-x,y,1/2-z
-x,-y,-z
x,y,-z
-x,y,1/2+z
x,-y,1/2+z
loop_
_atom_site_type_symbol
_atom_site_label
_atom_site_fract_x
_atom_site_fract_y
_atom_site_fract_z
Si Si1 0.113789 0.545452 0.410209
Si Si2 0.466896 0.677216 0.839352
Si Si3 0.867956 0.709874 0.836894
Si Si4 0.495361 0.911617 0.841780
Si Si5 0.682981 0.810949 0.408366
Si Si6 0.349645 0.777780 0.590727
Si Si7 0.128247 0.726521 0.156551
Si Si8 0.724424 0.592181 0.589023
O O1 0.096628 0.569883 0.500000
O O2 0.139797 0.619797 0.358376
O O3 0.227286 0.493620 0.399306
O O4 0.000000 0.500000 0.380942
O O5 0.500000 0.670996 0.750000
O O6 0.376425 0.744366 0.857142
O O7 0.581866 0.699230 0.886395
O O8 0.398218 0.599940 0.865828
O O9 0.780846 0.765101 0.883061
O O10 0.840437 0.719435 0.746706
O O11 0.994406 0.738566 0.858200
O O12 0.500000 0.902759 0.750000
O O13 0.371925 0.889877 0.878264
O O14 0.596351 0.856128 0.873515
O O15 0.500000 0.000000 0.868457
O O16 0.662843 0.799950 0.500000
O O17 0.815788 0.803022 0.383611
O O18 0.354763 0.789316 0.500000
O O19 0.174159 0.649622 0.115057
O O20 0.697310 0.610963 0.500000
#
# Coordination Sequence:
#
# PCOD8202637 Si02
#       8
#     8   8   8   8   8   8   8   8
#     4  10  20  35  54  77 105 138 180 234 287 335
#     4  10  18  32  53  74 104 140 182 227 270 326
#     4  11  22  35  52  78 110 145 184 231 284 328
#     4  10  20  36  60  88 117 147 178 217 268 325
#     4  10  19  33  57  84 110 142 182 228 270 323
#     4  11  21  33  53  80 112 145 180 224 272 326
#     4  10  20  34  53  78 106 142 186 231 274 328
#     4  10  19  34  55  76 102 138 183 232 280 332
#
# _framework density 18.454658999999999
#
# number of rings (size 3 to 8) (size 9 to 14) (size 15 to 20)
#    0.000    1.750    1.250    7.500    0.000    3.000 
#    0.000    0.625    0.000    7.500    0.000    5.250 
#    0.000    0.000    0.000    0.000    0.000    0.000 
#
# Total GULP energy -793238.083021 kJ/mol
# GULP energy per Si atom -12394.345047 kJ/mol
# Density = 1.841266 g / cm^3
# Si number density = 18.454659 Si / 1000 Ang^3
#
#
#
# Elastic Constant Matrix: (Units=GPa)
#
#
# Indices 1 2 3 4 5 6 
#
# 1 104.1702 51.7702 61.8265 0.0000 0.0000 0.0000
# 2 51.7702 87.6690 46.5518 0.0000 0.0000 0.0000
# 3 61.8265 46.5518 114.4419 0.0000 0.0000 0.0000
# 4 0.0000 0.0000 0.0000 0.1920 0.0000 0.0000
# 5 0.0000 0.0000 0.0000 0.0000 32.2276 0.0000
# 6 0.0000 0.0000 0.0000 0.0000 0.0000 30.5678
#
#
#
# Elastic Compliance Matrix: (Units=1/GPa)
#
#
# Indices 1 2 3 4 5 6 
#
# 1 0.016540 -0.006406 -0.006330 0.000000 0.000000 0.000000
# 2 -0.006406 0.017030 -0.003467 0.000000 0.000000 0.000000
# 3 -0.006330 -0.003467 0.013568 0.000000 0.000000 0.000000
# 4 0.000000 0.000000 0.000000 5.209381 0.000000 0.000000
# 5 0.000000 0.000000 0.000000 0.000000 0.031029 0.000000
# 6 0.000000 0.000000 0.000000 0.000000 0.000000 0.032714
#
#
# Mechanical properties :
#
#
# Convention : Reuss Voigt Hill
#
# Bulk Modulus (GPa) = 67.87447 69.61982 68.74714
# Shear Modulus (GPa) = 0.93326 22.33963 11.63644
#
# Velocity S-wave (km/s) = 0.71190 3.48302 2.51378
# Velocity P-wave (km/s) = 6.12655 7.34724 6.76449
#
# Compressibility (1/GPa) = 0.01473308
#
# Stress axis : x y z
#
# Youngs Moduli (GPa) = 60.45832 58.71909 73.70360
#
# Poissons Ratio (x) = 0.37617 0.46654
# Poissons Ratio (y) = 0.38731 0.25550
# Poissons Ratio (z) = 0.38270 0.20355
#
# Static dielectric constant tensor:
#      x y z
#    x 3.991920 0.000000 0.000000 
#    y 0.000000 3.342820 0.000000 
#    z 0.000000 0.000000 3.621470 
# 
# 
# High freq. dielectric constant tensor:
#      x y z
#    x 1.721540 0.000000 0.000000 
#    y 0.000000 1.681340 0.000000 
#    z 0.000000 0.000000 1.731330 
# 
# From -- ./inp_files/13080.got.cif
#   From: 2010.03.12/outbox.cif.g09.slc.cpg/sg49_7_cif.got.tgz:13080.got - 2010.04.14 03:58:27.
