data_PCOD8202084
_publ_section_title
;
Structure prediction by ZEFSAII (Michael W. Deem and Ramdas Pophale) SiO2 
 PCOD8202084
Probable space group: P N N N
;
_chemical_formula_sum "Si O2"
_cell_formula_units_Z 52
_cell_length_a 8.019004
_cell_length_b 23.119852
_cell_length_c 13.601723
_cell_angle_alpha 90.000000
_cell_angle_beta 90.000000
_cell_angle_gamma 90.000000
_cell_volume 2521.734766
_symmetry_space_group_name_H-M "P N N N"
_symmetry_group_IT_number 48
_space_group.IT_coordinate_system_code '2'
_symmetry_cell_setting 'orthorhombic'
loop_
_space_group_symop_operation_xyz
x,y,z
1/2-x,1/2-y,z
x,1/2-y,1/2-z
1/2-x,y,1/2-z
-x,-y,-z
1/2+x,1/2+y,-z
-x,1/2+y,1/2+z
1/2+x,-y,1/2+z
loop_
_atom_site_type_symbol
_atom_site_label
_atom_site_fract_x
_atom_site_fract_y
_atom_site_fract_z
Si Si1 0.882705 0.026139 0.832172
Si Si2 0.191777 0.997320 0.527741
Si Si3 0.750000 0.172762 0.250000
Si Si4 0.070409 0.580940 0.635036
Si Si5 0.043494 0.225336 0.352735
Si Si6 0.332754 0.166946 0.456313
Si Si7 0.179196 0.104470 0.856427
O O1 0.750000 0.040624 0.750000
O O2 0.005485 0.973561 0.800430
O O3 0.985694 0.084943 0.848676
O O4 0.802104 0.000658 0.930325
O O5 0.257674 0.938513 0.581049
O O6 0.216127 0.051742 0.598225
O O7 0.000000 0.000000 0.500000
O O8 0.604372 0.134430 0.294442
O O9 0.650991 0.209614 0.166634
O O10 0.924314 0.605803 0.565392
O O11 0.116828 0.250000 0.250000
O O12 0.158384 0.172997 0.394762
O O13 0.052354 0.277160 0.433288
O O14 0.300175 0.161167 0.573706
O O15 0.250000 0.121306 0.750000
#
# Coordination Sequence:
#
# PCOD8202084 Si02
#       7
#     8   8   4   8   8   8   8
#     4  11  23  39  61  94 135 176 215 273 327 412
#     4  11  23  40  60  96 134 170 220 269 326 407
#     4  12  27  38  64 102 136 170 210 277 342 418
#     4  11  24  36  62  93 132 177 214 258 342 404
#     4  11  25  42  65  98 129 165 216 280 350 412
#     4  11  22  43  66  89 126 176 222 273 342 396
#     4  11  23  43  63  91 130 176 230 277 323 393
#
# _framework density 20.620726000000001
#
# number of rings (size 3 to 8) (size 9 to 14) (size 15 to 20)
#    0.000    0.923    4.615    3.000   10.769    0.000 
#    0.000    1.538    0.000    0.000    0.000    0.000 
#    0.000    0.000    0.000    0.000    0.000    0.000 
#
# Total GULP energy -644254.075548 kJ/mol
# GULP energy per Si atom -12389.501453 kJ/mol
# Density = 2.057379 g / cm^3
# Si number density = 20.620726 Si / 1000 Ang^3
#
#
#
# Elastic Constant Matrix: (Units=GPa)
#
#
# Indices 1 2 3 4 5 6 
#
# 1 133.8243 48.7740 45.2658 0.0000 0.0000 0.0000
# 2 48.7740 89.3327 51.8892 0.0000 0.0000 0.0000
# 3 45.2658 51.8892 135.4157 0.0000 0.0000 0.0000
# 4 0.0000 0.0000 0.0000 34.7211 0.0000 0.0000
# 5 0.0000 0.0000 0.0000 0.0000 38.1133 0.0000
# 6 0.0000 0.0000 0.0000 0.0000 0.0000 36.6438
#
#
#
# Elastic Compliance Matrix: (Units=1/GPa)
#
#
# Indices 1 2 3 4 5 6 
#
# 1 0.009572 -0.004332 -0.001540 0.000000 0.000000 0.000000
# 2 -0.004332 0.016359 -0.004821 0.000000 0.000000 0.000000
# 3 -0.001540 -0.004821 0.009747 0.000000 0.000000 0.000000
# 4 0.000000 0.000000 0.000000 0.028801 0.000000 0.000000
# 5 0.000000 0.000000 0.000000 0.000000 0.026238 0.000000
# 6 0.000000 0.000000 0.000000 0.000000 0.000000 0.027290
#
#
# Mechanical properties :
#
#
# Convention : Reuss Voigt Hill
#
# Bulk Modulus (GPa) = 69.96191 72.27007 71.11599
# Shear Modulus (GPa) = 34.68486 36.07189 35.37838
#
# Velocity S-wave (km/s) = 4.10572 4.18700 4.14656
# Velocity P-wave (km/s) = 7.51515 7.64840 7.58207
#
# Compressibility (1/GPa) = 0.01429349
#
# Stress axis : x y z
#
# Youngs Moduli (GPa) = 104.47029 61.12748 102.60016
#
# Poissons Ratio (x) = 0.26479 0.15799
# Poissons Ratio (y) = 0.45254 0.49460
# Poissons Ratio (z) = 0.16087 0.29467
#
# Static dielectric constant tensor:
#      x y z
#    x 3.760110 0.000000 0.000000 
#    y 0.000000 3.714030 0.000000 
#    z 0.000000 0.000000 3.806300 
# 
# 
# High freq. dielectric constant tensor:
#      x y z
#    x 1.815720 0.000000 0.000000 
#    y 0.000000 1.793590 0.000000 
#    z 0.000000 0.000000 1.793020 
# 
# From -- ./inp_files/18929.got.cif
#   From: 2010.06.25/outbox.cif.g09.slc.cpg/sg48_10_cif.got.tgz:18929.got - 2010.06.26 18:06:46.
