data_PCOD8202677
_publ_section_title
;
Structure prediction by ZEFSAII (Michael W. Deem and Ramdas Pophale) SiO2 
 PCOD8202677
Probable space group: P C C M
;
_chemical_formula_sum "Si O2"
_cell_formula_units_Z 64
_cell_length_a 14.111115
_cell_length_b 13.309804
_cell_length_c 17.416886
_cell_angle_alpha 90.000000
_cell_angle_beta 90.000000
_cell_angle_gamma 90.000000
_cell_volume 3271.172907
_symmetry_space_group_name_H-M "P C C M"
_symmetry_group_IT_number 49
_symmetry_cell_setting 'orthorhombic'
loop_
_space_group_symop_operation_xyz
x,y,z
-x,-y,z
x,-y,1/2-z
-x,y,1/2-z
-x,-y,-z
x,y,-z
-x,y,1/2+z
x,-y,1/2+z
loop_
_atom_site_type_symbol
_atom_site_label
_atom_site_fract_x
_atom_site_fract_y
_atom_site_fract_z
Si Si1 0.703443 0.617587 0.411481
Si Si2 0.750650 0.394847 0.590687
Si Si3 0.698895 0.115500 0.272518
Si Si4 0.562149 0.741884 0.320065
Si Si5 0.039491 0.395016 0.908757
Si Si6 0.616512 0.214135 0.409817
Si Si7 0.117107 0.239295 0.587369
Si Si8 0.100664 0.115781 0.271856
O O1 0.669925 0.616068 0.500000
O O2 0.726995 0.506715 0.381415
O O3 0.619286 0.651131 0.356603
O O4 0.791022 0.692213 0.401335
O O5 0.754491 0.392209 0.500000
O O6 0.855435 0.369646 0.623354
O O7 0.670784 0.315897 0.617906
O O8 0.630589 0.171006 0.211838
O O9 0.662882 0.124737 0.360104
O O10 0.806262 0.160326 0.270701
O O11 0.699917 0.000000 0.250000
O O12 0.500000 0.698848 0.250000
O O13 0.494110 0.782437 0.387975
O O14 0.000000 0.500000 0.874203
O O15 0.971940 0.304396 0.884074
O O16 0.041489 0.405586 0.000000
O O17 0.628673 0.191824 0.500000
O O18 0.106656 0.203521 0.500000
O O19 0.119758 0.137681 0.637806
O O20 0.000000 0.167690 0.250000
O O21 0.093098 0.000000 0.250000
#
# Coordination Sequence:
#
# PCOD8202677 Si02
#       8
#     8   8   8   8   8   8   8   8
#     4  10  18  33  58  88 119 155 196 244 292 348
#     4   9  18  32  53  84 125 158 190 238 295 346
#     4  10  22  43  64  83 115 156 189 240 311 361
#     4  10  21  38  59  81 115 155 198 249 299 356
#     4   9  15  27  50  85 121 152 186 234 288 339
#     4  10  22  39  59  88 115 149 201 247 290 351
#     4  10  19  33  61  93 118 151 201 245 286 349
#     4  10  22  41  61  85 120 160 191 233 299 363
#
# _framework density 19.564847
#
# number of rings (size 3 to 8) (size 9 to 14) (size 15 to 20)
#    0.000    2.250    2.500    0.375    1.750    2.750 
#    0.000   11.875    0.000    1.875    0.000    0.000 
#    0.000    0.000    0.000    0.000    0.000    0.000 
#
# Total GULP energy -793127.152865 kJ/mol
# GULP energy per Si atom -12392.611764 kJ/mol
# Density = 1.952032 g / cm^3
# Si number density = 19.564847 Si / 1000 Ang^3
#
#
#
# Elastic Constant Matrix: (Units=GPa)
#
#
# Indices 1 2 3 4 5 6 
#
# 1 149.6975 34.2508 46.6143 0.0000 0.0000 0.0000
# 2 34.2508 79.4224 45.5176 0.0000 0.0000 0.0000
# 3 46.6143 45.5176 91.1750 0.0000 0.0000 0.0000
# 4 0.0000 0.0000 0.0000 30.6716 0.0000 0.0000
# 5 0.0000 0.0000 0.0000 0.0000 28.1788 0.0000
# 6 0.0000 0.0000 0.0000 0.0000 0.0000 24.2427
#
#
#
# Elastic Compliance Matrix: (Units=1/GPa)
#
#
# Indices 1 2 3 4 5 6 
#
# 1 0.008082 -0.001565 -0.003350 0.000000 0.000000 0.000000
# 2 -0.001565 0.017940 -0.008156 0.000000 0.000000 0.000000
# 3 -0.003350 -0.008156 0.016753 0.000000 0.000000 0.000000
# 4 0.000000 0.000000 0.000000 0.032603 0.000000 0.000000
# 5 0.000000 0.000000 0.000000 0.000000 0.035488 0.000000
# 6 0.000000 0.000000 0.000000 0.000000 0.000000 0.041250
#
#
# Mechanical properties :
#
#
# Convention : Reuss Voigt Hill
#
# Bulk Modulus (GPa) = 60.12833 63.67338 61.90085
# Shear Modulus (GPa) = 27.20314 29.54609 28.37462
#
# Velocity S-wave (km/s) = 3.73286 3.89030 3.81239
# Velocity P-wave (km/s) = 7.02699 7.26599 7.14749
#
# Compressibility (1/GPa) = 0.01663110
#
# Stress axis : x y z
#
# Youngs Moduli (GPa) = 123.73927 55.74070 59.69155
#
# Poissons Ratio (x) = 0.08723 0.20000
# Poissons Ratio (y) = 0.19365 0.48686
# Poissons Ratio (z) = 0.41459 0.45464
#
# Static dielectric constant tensor:
#      x y z
#    x 4.189520 0.000000 0.000000 
#    y 0.000000 3.360240 0.000000 
#    z 0.000000 0.000000 3.388400 
# 
# 
# High freq. dielectric constant tensor:
#      x y z
#    x 1.786360 0.000000 0.000000 
#    y 0.000000 1.740940 0.000000 
#    z 0.000000 0.000000 1.742890 
# 
# From -- ./inp_files/17956.got.cif
#   From: 2010.03.12/outbox.cif.g09.slc.cpg/sg49_9_cif.got.tgz:17956.got - 2010.04.14 03:58:27.
