data_PCOD8202232
_publ_section_title
;
Structure prediction by ZEFSAII (Michael W. Deem and Ramdas Pophale) SiO2 
 PCOD8202232
Probable space group: P C C M
;
_chemical_formula_sum "Si O2"
_cell_formula_units_Z 64
_cell_length_a 36.566758
_cell_length_b 5.265206
_cell_length_c 16.063186
_cell_angle_alpha 90.000000
_cell_angle_beta 90.000000
_cell_angle_gamma 90.000000
_cell_volume 3092.669514
_symmetry_space_group_name_H-M "P C C M"
_symmetry_group_IT_number 49
_symmetry_cell_setting 'orthorhombic'
loop_
_space_group_symop_operation_xyz
x,y,z
-x,-y,z
x,-y,1/2-z
-x,y,1/2-z
-x,-y,-z
x,y,-z
-x,y,1/2+z
x,-y,1/2+z
loop_
_atom_site_type_symbol
_atom_site_label
_atom_site_fract_x
_atom_site_fract_y
_atom_site_fract_z
Si Si1 0.484340 0.250000 0.343605
Si Si2 0.784646 0.250001 0.304630
Si Si3 0.329215 0.250008 0.401539
Si Si4 0.984370 0.250000 0.843453
Si Si5 0.711425 0.750008 0.901203
Si Si6 0.401553 0.750000 0.195689
Si Si7 0.904887 0.250011 0.902993
Si Si8 0.140572 0.750012 0.596707
O O1 0.500000 0.500000 0.389849
O O2 0.500000 0.250000 0.250000
O O3 0.440793 0.249999 0.348129
O O4 0.500000 0.000000 0.389849
O O5 0.780869 0.500000 0.250000
O O6 0.753169 0.249994 0.373318
O O7 0.822947 0.250011 0.350846
O O8 0.780871 0.000000 0.250000
O O9 0.327535 0.250010 0.500000
O O10 0.309027 0.500195 0.365721
O O11 0.371353 0.250003 0.375822
O O12 0.309026 0.999823 0.365721
O O13 0.940641 0.249998 0.845361
O O14 0.000000 0.500000 0.890006
O O15 0.000000 0.250000 0.750000
O O16 0.000000 0.000000 0.890006
O O17 0.710797 0.750008 0.000000
O O18 0.396813 0.500000 0.250000
O O19 0.396812 0.000000 0.250000
O O20 0.882071 0.499472 0.879667
O O21 0.882066 0.000573 0.879665
O O22 0.916184 0.250000 0.000000
O O23 0.151077 0.750011 0.500000
#
# Coordination Sequence:
#
# PCOD8202232 Si02
#       8
#     8   8   8   8   8   8   8   8
#     4  10  16  30  48  74 107 142 184 243 276 350
#     4  12  25  41  62  98 127 152 193 250 298 336
#     4  10  23  40  58  85 119 155 197 238 294 355
#     4  10  21  38  54  85 118 154 194 242 299 354
#     4  10  22  43  65  82 115 168 199 229 287 357
#     4  12  21  32  56  86 110 148 195 243 297 337
#     4  10  21  39  64  87 116 159 206 247 284 341
#     4  10  22  43  64  89 122 162 204 239 288 360
#
# _framework density 20.694095999999998
#
# number of rings (size 3 to 8) (size 9 to 14) (size 15 to 20)
#    0.000    1.500    2.500    3.375    0.000    3.500 
#   13.500    5.000    0.000    0.750    0.000    0.000 
#    0.000    0.000    0.000    0.000    0.000    0.000 
#
# Total GULP energy -793638.782049 kJ/mol
# GULP energy per Si atom -12400.605970 kJ/mol
# Density = 2.064700 g / cm^3
# Si number density = 20.694096 Si / 1000 Ang^3
#
#
#
# Elastic Constant Matrix: (Units=GPa)
#
#
# Indices 1 2 3 4 5 6 
#
# 1 169.8048 69.9885 34.2772 0.0000 0.0000 0.0000
# 2 69.9885 226.5628 23.5537 0.0000 0.0000 0.0000
# 3 34.2772 23.5537 25.2985 0.0000 0.0000 0.0000
# 4 0.0000 0.0000 0.0000 10.3634 0.0000 0.0000
# 5 0.0000 0.0000 0.0000 0.0000 28.7635 0.0000
# 6 0.0000 0.0000 0.0000 0.0000 0.0000 38.9009
#
#
#
# Elastic Compliance Matrix: (Units=1/GPa)
#
#
# Indices 1 2 3 4 5 6 
#
# 1 0.008600 -0.001600 -0.010162 0.000000 0.000000 0.000000
# 2 -0.001600 0.005185 -0.002659 0.000000 0.000000 0.000000
# 3 -0.010162 -0.002659 0.055773 0.000000 0.000000 0.000000
# 4 0.000000 0.000000 0.000000 0.096494 0.000000 0.000000
# 5 0.000000 0.000000 0.000000 0.000000 0.034766 0.000000
# 6 0.000000 0.000000 0.000000 0.000000 0.000000 0.025706
#
#
# Mechanical properties :
#
#
# Convention : Reuss Voigt Hill
#
# Bulk Modulus (GPa) = 24.56144 75.25610 49.90877
# Shear Modulus (GPa) = 18.59163 35.19533 26.89348
#
# Velocity S-wave (km/s) = 3.00059 4.12848 3.60887
# Velocity P-wave (km/s) = 4.88869 7.69225 6.44477
#
# Compressibility (1/GPa) = 0.04071422
#
# Stress axis : x y z
#
# Youngs Moduli (GPa) = 116.27787 192.88179 17.92993
#
# Poissons Ratio (x) = 0.30865 0.18221
# Poissons Ratio (y) = 0.18607 0.04767
# Poissons Ratio (z) = 1.18167 0.51284
#
# Static dielectric constant tensor:
#      x y z
#    x 3.812010 0.000000 0.000000 
#    y 0.000000 7.959100 0.000000 
#    z 0.000000 0.000000 3.329960 
# 
# 
# High freq. dielectric constant tensor:
#      x y z
#    x 1.822770 0.000000 0.000000 
#    y 0.000000 1.845990 0.000000 
#    z 0.000000 0.000000 1.775300 
# 
# From -- ./inp_files/18444.got.cif
#   From: 2010.03.12/outbox.cif.g09.slc.cpg/sg49_10_cif.got.tgz:18444.got - 2010.04.14 03:58:27.
