data_PCOD8202150
_publ_section_title
;
Structure prediction by ZEFSAII (Michael W. Deem and Ramdas Pophale) SiO2 
 PCOD8202150
Probable space group: P N N N
;
_chemical_formula_sum "Si O2"
_cell_formula_units_Z 40
_cell_length_a 23.836935
_cell_length_b 8.223768
_cell_length_c 8.607842
_cell_angle_alpha 90.000000
_cell_angle_beta 90.000000
_cell_angle_gamma 90.000000
_cell_volume 1687.390303
_symmetry_space_group_name_H-M "P N N N"
_symmetry_group_IT_number 48
_space_group.IT_coordinate_system_code '2'
_symmetry_cell_setting 'orthorhombic'
loop_
_space_group_symop_operation_xyz
x,y,z
1/2-x,1/2-y,z
x,1/2-y,1/2-z
1/2-x,y,1/2-z
-x,-y,-z
1/2+x,1/2+y,-z
-x,1/2+y,1/2+z
1/2+x,-y,1/2+z
loop_
_atom_site_type_symbol
_atom_site_label
_atom_site_fract_x
_atom_site_fract_y
_atom_site_fract_z
Si Si1 0.835332 0.130224 0.625482
Si Si2 0.359225 0.863751 0.621273
Si Si3 0.434478 0.423958 0.330627
Si Si4 0.756570 0.566398 0.433303
Si Si5 0.051147 0.071919 0.696522
O O1 0.805895 0.250000 0.750000
O O2 0.876523 0.238345 0.514998
O O3 0.875428 0.004765 0.717959
O O4 0.787697 0.042821 0.525039
O O5 0.327775 0.750000 0.750000
O O6 0.318791 0.996806 0.540659
O O7 0.412710 0.944718 0.702976
O O8 0.438322 0.250000 0.250000
O O9 0.434003 0.424212 0.516278
O O10 0.486660 0.529371 0.269355
O O11 0.750000 0.750000 0.496736
O O12 0.750000 0.561747 0.250000
O O13 0.066692 0.250000 0.750000
#
# Coordination Sequence:
#
# PCOD8202150 Si02
#       5
#     8   8   8   8   8
#     4  12  28  48  73 112 152 198 246 313 387 446
#     4  12  24  46  77 106 146 195 255 307 367 453
#     4  11  26  47  72 108 156 194 247 312 378 448
#     4  11  25  45  76 110 144 195 255 309 368 441
#     4  11  26  45  76 111 144 200 255 306 376 447
#
# _framework density 23.705245000000001
#
# number of rings (size 3 to 8) (size 9 to 14) (size 15 to 20)
#    0.000    0.600    4.000    1.800   11.200    2.400 
#    0.000    1.000    0.000    0.000    0.000    0.000 
#    0.000    0.000    0.000    0.000    0.000    0.000 
#
# Total GULP energy -495777.049068 kJ/mol
# GULP energy per Si atom -12394.426227 kJ/mol
# Density = 2.365129 g / cm^3
# Si number density = 23.705245 Si / 1000 Ang^3
#
#
#
# Elastic Constant Matrix: (Units=GPa)
#
#
# Indices 1 2 3 4 5 6 
#
# 1 122.0660 40.4269 39.4539 0.0000 0.0000 0.0000
# 2 40.4269 141.9211 60.6183 0.0000 0.0000 0.0000
# 3 39.4539 60.6183 88.1806 0.0000 0.0000 0.0000
# 4 0.0000 0.0000 0.0000 37.2883 0.0000 0.0000
# 5 0.0000 0.0000 0.0000 0.0000 35.0172 0.0000
# 6 0.0000 0.0000 0.0000 0.0000 0.0000 32.5182
#
#
#
# Elastic Compliance Matrix: (Units=1/GPa)
#
#
# Indices 1 2 3 4 5 6 
#
# 1 0.009742 -0.001293 -0.003470 0.000000 0.000000 0.000000
# 2 -0.001293 0.010147 -0.006397 0.000000 0.000000 0.000000
# 3 -0.003470 -0.006397 0.017290 0.000000 0.000000 0.000000
# 4 0.000000 0.000000 0.000000 0.026818 0.000000 0.000000
# 5 0.000000 0.000000 0.000000 0.000000 0.028557 0.000000
# 6 0.000000 0.000000 0.000000 0.000000 0.000000 0.030752
#
#
# Mechanical properties :
#
#
# Convention : Reuss Voigt Hill
#
# Bulk Modulus (GPa) = 67.29607 70.35177 68.82392
# Shear Modulus (GPa) = 33.20520 35.07596 34.14058
#
# Velocity S-wave (km/s) = 3.74672 3.85082 3.79913
# Velocity P-wave (km/s) = 6.86786 7.03661 6.95275
#
# Compressibility (1/GPa) = 0.01485971
#
# Stress axis : x y z
#
# Youngs Moduli (GPa) = 102.64762 98.55469 57.83632
#
# Poissons Ratio (x) = 0.12743 0.20069
# Poissons Ratio (y) = 0.13272 0.36996
# Poissons Ratio (z) = 0.35619 0.63042
#
# Static dielectric constant tensor:
#      x y z
#    x 4.085260 0.000000 0.000000 
#    y 0.000000 4.650510 0.000000 
#    z 0.000000 0.000000 4.427940 
# 
# 
# High freq. dielectric constant tensor:
#      x y z
#    x 1.928600 0.000000 0.000000 
#    y 0.000000 1.960290 0.000000 
#    z 0.000000 0.000000 1.947650 
# 
# From -- ./inp_files/15720.got.cif
#   From: 2010.06.25/outbox.cif.g09.slc.cpg/sg48_8_cif.got.tgz:15720.got - 2010.06.26 18:06:46.
