data_PCOD8202974
_publ_section_title
;
Structure prediction by ZEFSAII (Michael W. Deem and Ramdas Pophale) SiO2 
 PCOD8202974
Probable space group: P C C M
;
_chemical_formula_sum "Si O2"
_cell_formula_units_Z 64
_cell_length_a 12.751378
_cell_length_b 18.378166
_cell_length_c 15.583429
_cell_angle_alpha 90.000000
_cell_angle_beta 90.000000
_cell_angle_gamma 90.000000
_cell_volume 3651.928926
_symmetry_space_group_name_H-M "P C C M"
_symmetry_group_IT_number 49
_symmetry_cell_setting 'orthorhombic'
loop_
_space_group_symop_operation_xyz
x,y,z
-x,-y,z
x,-y,1/2-z
-x,y,1/2-z
-x,-y,-z
x,y,-z
-x,y,1/2+z
x,-y,1/2+z
loop_
_atom_site_type_symbol
_atom_site_label
_atom_site_fract_x
_atom_site_fract_y
_atom_site_fract_z
Si Si1 0.122965 0.776372 0.248702
Si Si2 0.270088 0.721970 0.101903
Si Si3 0.573171 0.161127 0.831880
Si Si4 0.744429 0.718433 0.900196
Si Si5 0.617330 0.577986 0.399013
Si Si6 0.631475 0.134970 0.407240
Si Si7 0.384749 0.417728 0.101694
Si Si8 0.753866 0.081465 0.256505
O O1 0.170998 0.743092 0.160928
O O2 0.161585 0.737011 0.335473
O O3 0.150288 0.862171 0.250882
O O4 0.000000 0.765840 0.250000
O O5 0.372434 0.768151 0.127787
O O6 0.297342 0.638537 0.125671
O O7 0.244495 0.732074 0.000000
O O8 0.500000 0.181788 0.750000
O O9 0.494003 0.124939 0.899715
O O10 0.663531 0.102203 0.811920
O O11 0.656105 0.780136 0.889220
O O12 0.694867 0.643536 0.864510
O O13 0.783285 0.713738 0.000000
O O14 0.602601 0.575497 0.500000
O O15 0.501798 0.595564 0.360678
O O16 0.655222 0.497792 0.368050
O O17 0.668582 0.110649 0.500000
O O18 0.698190 0.082747 0.347981
O O19 0.386628 0.410766 0.000000
O O20 0.798684 0.000000 0.250000
#
# Coordination Sequence:
#
# PCOD8202974 Si02
#       8
#     8   8   8   8   8   8   8   8
#     4  10  22  38  55  73  89 115 163 215 260 303
#     4  10  19  32  50  73 103 137 168 206 248 287
#     4   9  17  28  46  72 103 136 164 188 222 278
#     4   9  17  31  53  74  96 126 163 206 246 283
#     4   8  14  24  43  73 108 138 163 189 225 278
#     4   9  16  27  46  73 100 129 160 187 219 274
#     4   8  13  24  45  75 105 135 165 191 225 277
#     4   9  19  35  50  68  95 122 151 193 243 292
#
# _framework density 17.524984
#
# number of rings (size 3 to 8) (size 9 to 14) (size 15 to 20)
#    0.000    3.000    0.000    2.625    0.000    5.000 
#    0.000    4.375    0.000    3.000    0.000   10.500 
#    0.000    0.000    0.000    0.000    0.000    0.000 
#
# Total GULP energy -792959.153722 kJ/mol
# GULP energy per Si atom -12389.986777 kJ/mol
# Density = 1.748510 g / cm^3
# Si number density = 17.524984 Si / 1000 Ang^3
#
#
#
# Elastic Constant Matrix: (Units=GPa)
#
#
# Indices 1 2 3 4 5 6 
#
# 1 99.8843 44.0046 39.0429 0.0000 0.0000 0.0000
# 2 44.0046 121.9271 38.9361 0.0000 0.0000 0.0000
# 3 39.0429 38.9361 66.6870 0.0000 0.0000 0.0000
# 4 0.0000 0.0000 0.0000 15.5027 0.0000 0.0000
# 5 0.0000 0.0000 0.0000 0.0000 15.1422 0.0000
# 6 0.0000 0.0000 0.0000 0.0000 0.0000 13.3105
#
#
#
# Elastic Compliance Matrix: (Units=1/GPa)
#
#
# Indices 1 2 3 4 5 6 
#
# 1 0.013795 -0.002949 -0.006354 0.000000 0.000000 0.000000
# 2 -0.002949 0.010712 -0.004527 0.000000 0.000000 0.000000
# 3 -0.006354 -0.004527 0.021359 0.000000 0.000000 0.000000
# 4 0.000000 0.000000 0.000000 0.064505 0.000000 0.000000
# 5 0.000000 0.000000 0.000000 0.000000 0.066041 0.000000
# 6 0.000000 0.000000 0.000000 0.000000 0.000000 0.075128
#
#
# Mechanical properties :
#
#
# Convention : Reuss Voigt Hill
#
# Bulk Modulus (GPa) = 54.93513 59.16287 57.04900
# Shear Modulus (GPa) = 17.52727 19.89208 18.70967
#
# Velocity S-wave (km/s) = 3.16591 3.37273 3.27096
# Velocity P-wave (km/s) = 6.69170 6.99997 6.84757
#
# Compressibility (1/GPa) = 0.01820329
#
# Stress axis : x y z
#
# Youngs Moduli (GPa) = 72.49130 93.35395 46.81854
#
# Poissons Ratio (x) = 0.27535 0.29750
# Poissons Ratio (y) = 0.21381 0.21197
# Poissons Ratio (z) = 0.46063 0.42266
#
# Static dielectric constant tensor:
#      x y z
#    x 2.896400 0.000000 0.000000 
#    y 0.000000 3.334400 0.000000 
#    z 0.000000 0.000000 3.372760 
# 
# 
# High freq. dielectric constant tensor:
#      x y z
#    x 1.637010 0.000000 0.000000 
#    y 0.000000 1.674880 0.000000 
#    z 0.000000 0.000000 1.676150 
# 
# From -- ./inp_files/17380.got.cif
#   From: 2010.03.12/outbox.cif.g09.slc.cpg/sg49_9_cif.got.tgz:17380.got - 2010.04.14 03:58:27.
