data_PCOD8202061
_publ_section_title
;
Structure prediction by ZEFSAII (Michael W. Deem and Ramdas Pophale) SiO2 
 PCOD8202061
Probable space group: P N N N
;
_chemical_formula_sum "Si O2"
_cell_formula_units_Z 60
_cell_length_a 11.633827
_cell_length_b 11.718640
_cell_length_c 22.332026
_cell_angle_alpha 90.000000
_cell_angle_beta 90.000000
_cell_angle_gamma 90.000000
_cell_volume 3044.583848
_symmetry_space_group_name_H-M "P N N N"
_symmetry_group_IT_number 48
_space_group.IT_coordinate_system_code '2'
_symmetry_cell_setting 'orthorhombic'
loop_
_space_group_symop_operation_xyz
x,y,z
1/2-x,1/2-y,z
x,1/2-y,1/2-z
1/2-x,y,1/2-z
-x,-y,-z
1/2+x,1/2+y,-z
-x,1/2+y,1/2+z
1/2+x,-y,1/2+z
loop_
_atom_site_type_symbol
_atom_site_label
_atom_site_fract_x
_atom_site_fract_y
_atom_site_fract_z
Si Si1 0.535026 0.114419 0.189517
Si Si2 0.816881 0.863093 0.612202
Si Si3 0.589607 0.956640 0.583756
Si Si4 0.087379 0.102033 0.513862
Si Si5 0.573886 0.373179 0.176183
Si Si6 0.250000 0.750000 0.531036
Si Si7 0.790535 0.041822 0.395454
Si Si8 0.978495 0.170322 0.974274
O O1 0.403614 0.107900 0.166601
O O2 0.597084 0.237879 0.181250
O O3 0.547907 0.076034 0.258265
O O4 0.607697 0.022469 0.152052
O O5 0.750000 0.750000 0.631295
O O6 0.726149 0.964705 0.597754
O O7 0.880878 0.842766 0.549594
O O8 0.541770 0.885101 0.639102
O O9 0.561968 0.886873 0.523280
O O10 0.532481 0.082318 0.581134
O O11 0.025878 0.207568 0.548281
O O12 0.196104 0.060121 0.555006
O O13 0.000000 0.000000 0.500000
O O14 0.670461 0.446424 0.140292
O O15 0.181350 0.840620 0.570805
O O16 0.153694 0.681253 0.495159
#
# Coordination Sequence:
#
# PCOD8202061 Si02
#       8
#     8   8   8   8   8   4   8   8
#     4  11  22  38  60  87 123 161 211 255 315 375
#     4  12  22  39  58  92 128 161 204 257 320 388
#     4  11  23  40  57  85 130 160 203 254 312 382
#     4  12  23  37  60  91 128 167 207 255 316 377
#     4  11  22  38  59  89 119 166 205 254 313 372
#     4  12  18  34  59  86 124 167 202 250 306 376
#     4  12  21  35  60  88 126 161 203 263 306 374
#     4  11  23  37  58  88 123 169 204 251 316 381
#
# _framework density 19.707127
#
# number of rings (size 3 to 8) (size 9 to 14) (size 15 to 20)
#    0.000    0.533    8.000    1.200    1.867    1.600 
#    0.000    0.000    0.000    0.800    0.000    1.867 
#    0.000    0.000    0.000    0.000    0.000    0.000 
#
# Total GULP energy -743524.999067 kJ/mol
# GULP energy per Si atom -12392.083318 kJ/mol
# Density = 1.966227 g / cm^3
# Si number density = 19.707127 Si / 1000 Ang^3
#
#
#
# Elastic Constant Matrix: (Units=GPa)
#
#
# Indices 1 2 3 4 5 6 
#
# 1 100.1506 15.1358 24.4382 0.0000 0.0000 0.0000
# 2 15.1358 83.1891 14.8244 0.0000 0.0000 0.0000
# 3 24.4382 14.8244 87.0598 0.0000 0.0000 0.0000
# 4 0.0000 0.0000 0.0000 20.4685 0.0000 0.0000
# 5 0.0000 0.0000 0.0000 0.0000 15.8904 0.0000
# 6 0.0000 0.0000 0.0000 0.0000 0.0000 29.9490
#
#
#
# Elastic Compliance Matrix: (Units=1/GPa)
#
#
# Indices 1 2 3 4 5 6 
#
# 1 0.010894 -0.001482 -0.002806 0.000000 0.000000 0.000000
# 2 -0.001482 0.012599 -0.001729 0.000000 0.000000 0.000000
# 3 -0.002806 -0.001729 0.012568 0.000000 0.000000 0.000000
# 4 0.000000 0.000000 0.000000 0.048855 0.000000 0.000000
# 5 0.000000 0.000000 0.000000 0.000000 0.062931 0.000000
# 6 0.000000 0.000000 0.000000 0.000000 0.000000 0.033390
#
#
# Mechanical properties :
#
#
# Convention : Reuss Voigt Hill
#
# Bulk Modulus (GPa) = 41.62015 42.13291 41.87653
# Shear Modulus (GPa) = 24.84106 27.66166 26.25136
#
# Velocity S-wave (km/s) = 3.55422 3.75058 3.65372
# Velocity P-wave (km/s) = 6.16510 6.33891 6.25261
#
# Compressibility (1/GPa) = 0.02402682
#
# Stress axis : x y z
#
# Youngs Moduli (GPa) = 91.79752 79.37378 79.56500
#
# Poissons Ratio (x) = 0.11764 0.22322
# Poissons Ratio (y) = 0.13605 0.13759
# Poissons Ratio (z) = 0.25754 0.13726
#
# Static dielectric constant tensor:
#      x y z
#    x 3.758570 0.000000 0.000000 
#    y 0.000000 3.452770 0.000000 
#    z 0.000000 0.000000 3.563590 
# 
# 
# High freq. dielectric constant tensor:
#      x y z
#    x 1.783080 0.000000 0.000000 
#    y 0.000000 1.738070 0.000000 
#    z 0.000000 0.000000 1.746690 
# 
# From -- ./inp_files/34206.got.cif
#   From: 2010.06.25/outbox.cif.g09.slc.cpg/sg48_18_cif.got.tgz:34206.got - 2010.06.26 18:06:46.
