data_PCOD8202962
_publ_section_title
;
Structure prediction by ZEFSAII (Michael W. Deem and Ramdas Pophale) SiO2 
 PCOD8202962
Probable space group: P C C M
;
_chemical_formula_sum "Si O2"
_cell_formula_units_Z 64
_cell_length_a 19.546693
_cell_length_b 19.398982
_cell_length_c 8.819226
_cell_angle_alpha 90.000000
_cell_angle_beta 90.000000
_cell_angle_gamma 90.000000
_cell_volume 3344.126551
_symmetry_space_group_name_H-M "P C C M"
_symmetry_group_IT_number 49
_symmetry_cell_setting 'orthorhombic'
loop_
_space_group_symop_operation_xyz
x,y,z
-x,-y,z
x,-y,1/2-z
-x,y,1/2-z
-x,-y,-z
x,y,-z
-x,y,1/2+z
x,-y,1/2+z
loop_
_atom_site_type_symbol
_atom_site_label
_atom_site_fract_x
_atom_site_fract_y
_atom_site_fract_z
Si Si1 0.426740 0.699975 0.176585
Si Si2 0.858351 0.065338 0.166913
Si Si3 0.066607 0.176690 0.178708
Si Si4 0.305928 0.784934 0.319989
Si Si5 0.662312 0.572127 0.673495
Si Si6 0.067205 0.674533 0.822536
Si Si7 0.699715 0.932513 0.668178
Si Si8 0.780545 0.330220 0.179269
O O1 0.500000 0.710081 0.250000
O O2 0.374844 0.749418 0.262792
O O3 0.403396 0.620760 0.197588
O O4 0.428299 0.720175 0.000000
O O5 0.868160 0.131835 0.273938
O O6 0.778950 0.051949 0.147290
O O7 0.892945 0.000000 0.250000
O O8 0.891652 0.075642 0.000000
O O9 0.071407 0.249169 0.260339
O O10 0.000000 0.138541 0.250000
O O11 0.062261 0.186532 0.000000
O O12 0.302006 0.783597 0.500000
O O13 0.309635 0.863528 0.265414
O O14 0.239722 0.742858 0.256556
O O15 0.647231 0.500000 0.750000
O O16 0.676283 0.556040 0.500000
O O17 0.729854 0.610158 0.740109
O O18 0.142127 0.643486 0.781915
O O19 0.000000 0.636191 0.750000
O O20 0.054624 0.674894 0.000000
O O21 0.666688 0.923612 0.500000
O O22 0.666313 0.000000 0.750000
O O23 0.771285 0.318158 0.000000
#
# Coordination Sequence:
#
# PCOD8202962 Si02
#       8
#     8   8   8   8   8   8   8   8
#     4  10  21  38  58  83 116 150 184 220 260 307
#     4  10  20  33  47  64  87 117 155 200 253 309
#     4  11  21  32  45  62  86 116 154 199 251 311
#     4  11  21  33  54  82 109 141 182 224 268 320
#     4   9  19  35  55  81 113 147 182 219 260 308
#     4  10  19  32  50  71  97 128 166 214 268 319
#     4  10  20  34  52  74 102 134 170 217 269 318
#     4   9  19  35  53  75 106 143 179 221 272 322
#
# _framework density 19.138031999999999
#
# number of rings (size 3 to 8) (size 9 to 14) (size 15 to 20)
#    0.000    2.000    0.000    6.000    0.000    8.500 
#    0.000    2.500    0.000    0.750    0.000    5.250 
#    0.000    0.000    0.000    0.000    0.000    0.000 
#
# Total GULP energy -793216.110853 kJ/mol
# GULP energy per Si atom -12394.001732 kJ/mol
# Density = 1.909447 g / cm^3
# Si number density = 19.138032 Si / 1000 Ang^3
#
#
#
# Elastic Constant Matrix: (Units=GPa)
#
#
# Indices 1 2 3 4 5 6 
#
# 1 76.0847 2.1222 42.7785 0.0000 0.0000 0.0000
# 2 2.1222 67.0325 26.6764 0.0000 0.0000 0.0000
# 3 42.7785 26.6764 90.7638 0.0000 0.0000 0.0000
# 4 0.0000 0.0000 0.0000 27.2748 0.0000 0.0000
# 5 0.0000 0.0000 0.0000 0.0000 30.7390 0.0000
# 6 0.0000 0.0000 0.0000 0.0000 0.0000 15.5396
#
#
#
# Elastic Compliance Matrix: (Units=1/GPa)
#
#
# Indices 1 2 3 4 5 6 
#
# 1 0.018492 0.003265 -0.009675 0.000000 0.000000 0.000000
# 2 0.003265 0.017471 -0.006674 0.000000 0.000000 0.000000
# 3 -0.009675 -0.006674 0.017539 0.000000 0.000000 0.000000
# 4 0.000000 0.000000 0.000000 0.036664 0.000000 0.000000
# 5 0.000000 0.000000 0.000000 0.000000 0.032532 0.000000
# 6 0.000000 0.000000 0.000000 0.000000 0.000000 0.064352
#
#
# Mechanical properties :
#
#
# Convention : Reuss Voigt Hill
#
# Bulk Modulus (GPa) = 36.58441 41.89279 39.23860
# Shear Modulus (GPa) = 22.48924 25.53093 24.01008
#
# Velocity S-wave (km/s) = 3.43170 3.65642 3.54584
# Velocity P-wave (km/s) = 5.90421 6.30580 6.10831
#
# Compressibility (1/GPa) = 0.02733405
#
# Stress axis : x y z
#
# Youngs Moduli (GPa) = 54.07723 57.23892 57.01532
#
# Poissons Ratio (x) = -0.18688 0.55164
# Poissons Ratio (y) = -0.17656 0.38050
# Poissons Ratio (z) = 0.52321 0.38199
#
# Static dielectric constant tensor:
#      x y z
#    x 3.745900 0.000000 0.000000 
#    y 0.000000 3.353320 0.000000 
#    z 0.000000 0.000000 3.716030 
# 
# 
# High freq. dielectric constant tensor:
#      x y z
#    x 1.730620 0.000000 0.000000 
#    y 0.000000 1.722840 0.000000 
#    z 0.000000 0.000000 1.757190 
# 
# From -- ./inp_files/6003.got.cif
#   From: 2010.03.12/outbox.cif.g09.slc.cpg/sg49_4_cif.got.tgz:6003.got - 2010.04.14 03:58:27.
