data_PCOD8202433
_publ_section_title
;
Structure prediction by ZEFSAII (Michael W. Deem and Ramdas Pophale) SiO2 
 PCOD8202433
Probable space group: P C C M
;
_chemical_formula_sum "Si O2"
_cell_formula_units_Z 64
_cell_length_a 18.131827
_cell_length_b 26.946111
_cell_length_c 8.901973
_cell_angle_alpha 90.000000
_cell_angle_beta 90.000000
_cell_angle_gamma 90.000000
_cell_volume 4349.345757
_symmetry_space_group_name_H-M "P C C M"
_symmetry_group_IT_number 49
_symmetry_cell_setting 'orthorhombic'
loop_
_space_group_symop_operation_xyz
x,y,z
-x,-y,z
x,-y,1/2-z
-x,y,1/2-z
-x,-y,-z
x,y,-z
-x,y,1/2+z
x,-y,1/2+z
loop_
_atom_site_type_symbol
_atom_site_label
_atom_site_fract_x
_atom_site_fract_y
_atom_site_fract_z
Si Si1 0.797512 0.798167 0.668100
Si Si2 0.420408 0.453243 0.175210
Si Si3 0.578799 0.655720 0.175064
Si Si4 0.701157 0.103555 0.165653
Si Si5 0.670160 0.251236 0.677046
Si Si6 0.078234 0.145718 0.820728
Si Si7 0.844618 0.051887 0.179066
Si Si8 0.421628 0.155171 0.825094
O O1 0.822498 0.782691 0.500000
O O2 0.748075 0.846663 0.660853
O O3 0.748843 0.754364 0.741318
O O4 0.868061 0.809345 0.771747
O O5 0.375916 0.500000 0.250000
O O6 0.500000 0.451793 0.250000
O O7 0.385336 0.398866 0.207075
O O8 0.427507 0.463639 0.000000
O O9 0.500000 0.663172 0.250000
O O10 0.635751 0.696948 0.234101
O O11 0.564545 0.663321 0.000000
O O12 0.757967 0.060770 0.218821
O O13 0.632169 0.109820 0.277233
O O14 0.669814 0.091579 0.000000
O O15 0.684466 0.250232 0.500000
O O16 0.613815 0.207532 0.724047
O O17 0.104718 0.093404 0.754376
O O18 0.000000 0.158845 0.750000
O O19 0.074436 0.142529 0.000000
O O20 0.869331 0.000000 0.250000
O O21 0.857216 0.052885 0.000000
O O22 0.500000 0.148461 0.750000
O O23 0.433947 0.152068 0.000000
#
# Coordination Sequence:
#
# PCOD8202433 Si02
#       8
#     8   8   8   8   8   8   8   8
#     4   9  17  30  46  64  84 108 136 164 195 236
#     4   9  15  23  34  47  65  94 132 176 219 260
#     4   9  17  26  36  52  76 104 138 179 222 260
#     4   8  16  30  45  60  81 105 131 160 191 232
#     4   9  17  28  40  57  80 107 136 167 205 250
#     4  11  21  34  51  70  92 115 138 165 193 226
#     4  10  20  34  51  71  91 112 136 163 196 235
#     4  10  18  26  40  59  79 102 130 163 202 243
#
# _framework density 14.714855999999999
#
# number of rings (size 3 to 8) (size 9 to 14) (size 15 to 20)
#    0.000    2.625    0.000    4.125    0.000    5.250 
#    0.000    1.250    0.000    0.375    0.000    2.625 
#    0.000    0.000    0.000    0.000    0.000    0.625 
#
# Total GULP energy -793195.873172 kJ/mol
# GULP energy per Si atom -12393.685518 kJ/mol
# Density = 1.468136 g / cm^3
# Si number density = 14.714856 Si / 1000 Ang^3
#
#
#
# Elastic Constant Matrix: (Units=GPa)
#
#
# Indices 1 2 3 4 5 6 
#
# 1 85.6686 37.3179 43.7403 0.0000 0.0000 0.0000
# 2 37.3179 67.5160 28.9559 0.0000 0.0000 0.0000
# 3 43.7403 28.9559 82.3408 0.0000 0.0000 0.0000
# 4 0.0000 0.0000 0.0000 16.3589 0.0000 0.0000
# 5 0.0000 0.0000 0.0000 0.0000 24.0214 0.0000
# 6 0.0000 0.0000 0.0000 0.0000 0.0000 11.9244
#
#
#
# Elastic Compliance Matrix: (Units=1/GPa)
#
#
# Indices 1 2 3 4 5 6 
#
# 1 0.018505 -0.007080 -0.007340 0.000000 0.000000 0.000000
# 2 -0.007080 0.020151 -0.003325 0.000000 0.000000 0.000000
# 3 -0.007340 -0.003325 0.017213 0.000000 0.000000 0.000000
# 4 0.000000 0.000000 0.000000 0.061129 0.000000 0.000000
# 5 0.000000 0.000000 0.000000 0.000000 0.041630 0.000000
# 6 0.000000 0.000000 0.000000 0.000000 0.000000 0.083862
#
#
# Mechanical properties :
#
#
# Convention : Reuss Voigt Hill
#
# Bulk Modulus (GPa) = 49.07294 50.61706 49.84500
# Shear Modulus (GPa) = 17.55792 18.82836 18.19314
#
# Velocity S-wave (km/s) = 3.45804 3.58096 3.52003
# Velocity P-wave (km/s) = 7.02607 7.18129 7.10411
#
# Compressibility (1/GPa) = 0.02037783
#
# Stress axis : x y z
#
# Youngs Moduli (GPa) = 54.04034 49.62607 58.09516
#
# Poissons Ratio (x) = 0.35135 0.42643
# Poissons Ratio (y) = 0.38261 0.19318
# Poissons Ratio (z) = 0.39666 0.16502
#
# Static dielectric constant tensor:
#      x y z
#    x 2.738160 0.000000 0.000000 
#    y 0.000000 3.223900 0.000000 
#    z 0.000000 0.000000 3.012660 
# 
# 
# High freq. dielectric constant tensor:
#      x y z
#    x 1.531680 0.000000 0.000000 
#    y 0.000000 1.540100 0.000000 
#    z 0.000000 0.000000 1.578010 
# 
# From -- ./inp_files/5452.got.cif
#   From: 2010.03.12/outbox.cif.g09.slc.cpg/sg49_3_cif.got.tgz:5452.got - 2010.04.14 03:58:27.
