data_PCOD8202938
_publ_section_title
;
Structure prediction by ZEFSAII (Michael W. Deem and Ramdas Pophale) SiO2 
 PCOD8202938
Probable space group: P C C M
;
_chemical_formula_sum "Si O2"
_cell_formula_units_Z 64
_cell_length_a 24.783738
_cell_length_b 14.992929
_cell_length_c 8.642133
_cell_angle_alpha 90.000000
_cell_angle_beta 90.000000
_cell_angle_gamma 90.000000
_cell_volume 3211.250903
_symmetry_space_group_name_H-M "P C C M"
_symmetry_group_IT_number 49
_symmetry_cell_setting 'orthorhombic'
loop_
_space_group_symop_operation_xyz
x,y,z
-x,-y,z
x,-y,1/2-z
-x,y,1/2-z
-x,-y,-z
x,y,-z
-x,y,1/2+z
x,-y,1/2+z
loop_
_atom_site_type_symbol
_atom_site_label
_atom_site_fract_x
_atom_site_fract_y
_atom_site_fract_z
Si Si1 0.855046 0.725363 0.682755
Si Si2 0.058992 0.406408 0.816240
Si Si3 0.663259 0.669889 0.183522
Si Si4 0.763104 0.589248 0.318704
Si Si5 0.181574 0.092836 0.815729
Si Si6 0.702576 0.143014 0.677797
Si Si7 0.555898 0.277051 0.182216
Si Si8 0.585997 0.089662 0.678844
O O1 0.864673 0.727559 0.500000
O O2 0.904136 0.675221 0.763750
O O3 0.799747 0.674002 0.725935
O O4 0.853123 0.825246 0.749469
O O5 0.081847 0.500000 0.750000
O O6 0.000000 0.387785 0.750000
O O7 0.056919 0.412501 0.000000
O O8 0.703900 0.593987 0.240580
O O9 0.688231 0.761560 0.252135
O O10 0.603529 0.659403 0.254097
O O11 0.657491 0.670616 0.000000
O O12 0.790765 0.500000 0.250000
O O13 0.756453 0.579468 0.500000
O O14 0.243136 0.101481 0.749145
O O15 0.157905 0.000000 0.750000
O O16 0.177864 0.092166 0.000000
O O17 0.715883 0.160099 0.500000
O O18 0.650713 0.080181 0.700069
O O19 0.500000 0.314442 0.250000
O O20 0.563001 0.174492 0.232473
O O21 0.554719 0.282858 0.000000
O O22 0.570020 0.099700 0.500000
O O23 0.560012 0.000000 0.750000
#
# Coordination Sequence:
#
# PCOD8202938 Si02
#       8
#     8   8   8   8   8   8   8   8
#     4  11  23  39  59  89 126 165 208 253 300 353
#     4  11  22  39  64  94 128 167 208 254 303 359
#     4  10  19  36  58  81 111 145 183 232 286 346
#     4  11  23  37  58  89 123 159 195 236 291 355
#     4  11  21  35  54  81 116 161 207 253 302 352
#     4   8  16  30  50  74 104 143 186 231 283 340
#     4  11  22  37  55  76 100 135 181 229 283 346
#     4  10  19  32  48  72 101 136 177 228 286 344
#
# _framework density 19.929929000000001
#
# number of rings (size 3 to 8) (size 9 to 14) (size 15 to 20)
#    0.000    1.625    1.250    6.000    0.000    2.750 
#    0.000    2.500    0.000    0.750    0.000    5.250 
#    0.000    0.000    0.000    0.000    0.000    0.000 
#
# Total GULP energy -793593.116655 kJ/mol
# GULP energy per Si atom -12399.892448 kJ/mol
# Density = 1.988457 g / cm^3
# Si number density = 19.929929 Si / 1000 Ang^3
#
#
#
# Elastic Constant Matrix: (Units=GPa)
#
#
# Indices 1 2 3 4 5 6 
#
# 1 98.3255 44.1529 50.2006 0.0000 0.0000 0.0000
# 2 44.1529 105.5255 46.8427 0.0000 0.0000 0.0000
# 3 50.2006 46.8427 138.1175 0.0000 0.0000 0.0000
# 4 0.0000 0.0000 0.0000 32.6916 0.0000 0.0000
# 5 0.0000 0.0000 0.0000 0.0000 29.2884 0.0000
# 6 0.0000 0.0000 0.0000 0.0000 0.0000 16.5867
#
#
#
# Elastic Compliance Matrix: (Units=1/GPa)
#
#
# Indices 1 2 3 4 5 6 
#
# 1 0.013914 -0.004211 -0.003629 0.000000 0.000000 0.000000
# 2 -0.004211 0.012430 -0.002685 0.000000 0.000000 0.000000
# 3 -0.003629 -0.002685 0.009470 0.000000 0.000000 0.000000
# 4 0.000000 0.000000 0.000000 0.030589 0.000000 0.000000
# 5 0.000000 0.000000 0.000000 0.000000 0.034143 0.000000
# 6 0.000000 0.000000 0.000000 0.000000 0.000000 0.060289
#
#
# Mechanical properties :
#
#
# Convention : Reuss Voigt Hill
#
# Bulk Modulus (GPa) = 67.73306 69.37344 68.55325
# Shear Modulus (GPa) = 26.76558 29.09817 27.93188
#
# Velocity S-wave (km/s) = 3.66865 3.82517 3.74773
# Velocity P-wave (km/s) = 7.21143 7.37519 7.29377
#
# Compressibility (1/GPa) = 0.01476384
#
# Stress axis : x y z
#
# Youngs Moduli (GPa) = 71.86986 80.44924 105.59691
#
# Poissons Ratio (x) = 0.33876 0.38323
# Poissons Ratio (y) = 0.30263 0.28355
# Poissons Ratio (z) = 0.26083 0.21603
#
# Static dielectric constant tensor:
#      x y z
#    x 3.624450 0.000000 0.000000 
#    y 0.000000 3.687690 0.000000 
#    z 0.000000 0.000000 3.527850 
# 
# 
# High freq. dielectric constant tensor:
#      x y z
#    x 1.764900 0.000000 0.000000 
#    y 0.000000 1.764680 0.000000 
#    z 0.000000 0.000000 1.782130 
# 
# From -- ./inp_files/6494.got.cif
#   From: 2010.03.12/outbox.cif.g09.slc.cpg/sg49_4_cif.got.tgz:6494.got - 2010.04.14 03:58:27.
