data_PCOD8202088
_publ_section_title
;
Structure prediction by ZEFSAII (Michael W. Deem and Ramdas Pophale) SiO2 
 PCOD8202088
Probable space group: P N N N
;
_chemical_formula_sum "Si O2"
_cell_formula_units_Z 34
_cell_length_a 8.545235
_cell_length_b 12.332809
_cell_length_c 13.506095
_cell_angle_alpha 90.000000
_cell_angle_beta 90.000000
_cell_angle_gamma 90.000000
_cell_volume 1423.363472
_symmetry_space_group_name_H-M "P N N N"
_symmetry_group_IT_number 48
_space_group.IT_coordinate_system_code '2'
_symmetry_cell_setting 'orthorhombic'
loop_
_space_group_symop_operation_xyz
x,y,z
1/2-x,1/2-y,z
x,1/2-y,1/2-z
1/2-x,y,1/2-z
-x,-y,-z
1/2+x,1/2+y,-z
-x,1/2+y,1/2+z
1/2+x,-y,1/2+z
loop_
_atom_site_type_symbol
_atom_site_label
_atom_site_fract_x
_atom_site_fract_y
_atom_site_fract_z
Si Si1 0.787791 0.922094 0.855164
Si Si2 0.856139 0.423219 0.398946
Si Si3 0.314065 0.858286 0.096167
Si Si4 0.250000 0.750000 0.750000
Si Si5 0.320540 0.139453 0.937592
O O1 0.750000 0.861072 0.750000
O O2 0.960105 0.947796 0.898283
O O3 0.709673 0.038693 0.834756
O O4 0.701056 0.859948 0.943462
O O5 0.791689 0.368798 0.497659
O O6 0.852307 0.332201 0.314229
O O7 0.757695 0.535237 0.382455
O O8 0.250000 0.750000 0.149825
O O9 0.496092 0.854928 0.074724
O O10 0.250000 0.250000 0.892069
#
# Coordination Sequence:
#
# PCOD8202088 Si02
#       5
#     8   8   8   2   8
#     4  11  25  40  67 100 139 174 232 286 331 405
#     4  11  24  43  68 101 138 174 228 277 348 403
#     4  11  22  44  68  95 140 186 226 278 349 410
#     4  12  28  40  76 100 134 168 226 286 336 388
#     4  11  24  44  71  99 136 186 226 275 352 412
#
# _framework density 23.887083000000001
#
# number of rings (size 3 to 8) (size 9 to 14) (size 15 to 20)
#    0.000    0.941    1.176    8.471    6.588    0.941 
#    0.000    0.588    0.000    0.000    0.000    0.000 
#    0.000    0.000    0.000    0.000    0.000    0.000 
#
# Total GULP energy -421221.991139 kJ/mol
# GULP energy per Si atom -12388.882092 kJ/mol
# Density = 2.383271 g / cm^3
# Si number density = 23.887083 Si / 1000 Ang^3
#
#
#
# Elastic Constant Matrix: (Units=GPa)
#
#
# Indices 1 2 3 4 5 6 
#
# 1 194.0828 26.5517 31.7274 0.0000 0.0000 0.0000
# 2 26.5517 147.8895 7.1114 0.0000 0.0000 0.0000
# 3 31.7274 7.1114 73.7318 0.0000 0.0000 0.0000
# 4 0.0000 0.0000 0.0000 70.2481 0.0000 0.0000
# 5 0.0000 0.0000 0.0000 0.0000 16.8400 0.0000
# 6 0.0000 0.0000 0.0000 0.0000 0.0000 36.7470
#
#
#
# Elastic Compliance Matrix: (Units=1/GPa)
#
#
# Indices 1 2 3 4 5 6 
#
# 1 0.005660 -0.000903 -0.002348 0.000000 0.000000 0.000000
# 2 -0.000903 0.006937 -0.000280 0.000000 0.000000 0.000000
# 3 -0.002348 -0.000280 0.014600 0.000000 0.000000 0.000000
# 4 0.000000 0.000000 0.000000 0.014235 0.000000 0.000000
# 5 0.000000 0.000000 0.000000 0.000000 0.059382 0.000000
# 6 0.000000 0.000000 0.000000 0.000000 0.000000 0.027213
#
#
# Mechanical properties :
#
#
# Convention : Reuss Voigt Hill
#
# Bulk Modulus (GPa) = 49.66856 60.72057 55.19456
# Shear Modulus (GPa) = 35.26000 48.12126 41.69063
#
# Velocity S-wave (km/s) = 3.84619 4.49322 4.18224
# Velocity P-wave (km/s) = 6.36886 7.23835 6.81748
#
# Compressibility (1/GPa) = 0.02013346
#
# Stress axis : x y z
#
# Youngs Moduli (GPa) = 176.68125 144.14504 68.49202
#
# Poissons Ratio (x) = 0.13020 0.16085
# Poissons Ratio (y) = 0.15959 0.01921
# Poissons Ratio (z) = 0.41492 0.04042
#
# Static dielectric constant tensor:
#      x y z
#    x 4.172810 0.000000 0.000000 
#    y 0.000000 4.701640 0.000000 
#    z 0.000000 0.000000 4.125320 
# 
# 
# High freq. dielectric constant tensor:
#      x y z
#    x 1.954600 0.000000 0.000000 
#    y 0.000000 1.969730 0.000000 
#    z 0.000000 0.000000 1.931920 
# 
# From -- ./inp_files/24869.got.cif
#   From: 2010.06.25/outbox.cif.g09.slc.cpg/sg48_13_cif.got.tgz:24869.got - 2010.06.26 18:06:46.
