data_PCOD8202923
_publ_section_title
;
Structure prediction by ZEFSAII (Michael W. Deem and Ramdas Pophale) SiO2 
 PCOD8202923
Probable space group: P C C M
;
_chemical_formula_sum "Si O2"
_cell_formula_units_Z 64
_cell_length_a 19.835071
_cell_length_b 9.358882
_cell_length_c 18.262429
_cell_angle_alpha 90.000000
_cell_angle_beta 90.000000
_cell_angle_gamma 90.000000
_cell_volume 3390.129369
_symmetry_space_group_name_H-M "P C C M"
_symmetry_group_IT_number 49
_symmetry_cell_setting 'orthorhombic'
loop_
_space_group_symop_operation_xyz
x,y,z
-x,-y,z
x,-y,1/2-z
-x,y,1/2-z
-x,-y,-z
x,y,-z
-x,y,1/2+z
x,-y,1/2+z
loop_
_atom_site_type_symbol
_atom_site_label
_atom_site_fract_x
_atom_site_fract_y
_atom_site_fract_z
Si Si1 0.018203 0.155611 0.912486
Si Si2 0.247892 0.255479 0.414597
Si Si3 0.280669 0.570438 0.586798
Si Si4 0.394710 0.222562 0.913752
Si Si5 0.657350 0.946666 0.333044
Si Si6 0.137602 0.654786 0.412731
Si Si7 0.481648 0.834273 0.827669
Si Si8 0.100193 0.651835 0.085258
O O1 0.092355 0.210492 0.886040
O O2 0.962630 0.264292 0.879694
O O3 0.015289 0.150832 0.000000
O O4 0.000000 0.000000 0.880266
O O5 0.265443 0.227904 0.500000
O O6 0.278639 0.406518 0.386595
O O7 0.275932 0.127126 0.364702
O O8 0.167934 0.256942 0.401768
O O9 0.276691 0.569252 0.500000
O O10 0.349456 0.644359 0.614176
O O11 0.215304 0.661212 0.615552
O O12 0.472366 0.244635 0.888392
O O13 0.361522 0.080578 0.882443
O O14 0.394523 0.210253 0.000000
O O15 0.598476 0.825712 0.340941
O O16 0.667389 0.000000 0.250000
O O17 0.137285 0.648970 0.500000
O O18 0.105722 0.507300 0.381282
O O19 0.500000 0.763152 0.750000
O O20 0.500000 0.000000 0.826102
O O21 0.086465 0.634846 0.000000
#
# Coordination Sequence:
#
# PCOD8202923 Si02
#       8
#     8   8   8   8   8   8   8   8
#     4   9  15  20  31  57  92 129 166 205 247 289
#     4   9  18  32  50  71 100 136 172 213 261 310
#     4   8  16  31  47  70 103 133 166 214 261 302
#     4  10  19  31  54  80  99 127 169 210 250 301
#     4  11  20  33  52  73 100 134 166 210 254 303
#     4   8  13  23  39  56  86 133 168 195 245 304
#     4   9  16  33  51  69  99 134 157 197 250 299
#     4   8  14  25  39  57  86 128 173 205 237 295
#
# _framework density 18.878336999999998
#
# number of rings (size 3 to 8) (size 9 to 14) (size 15 to 20)
#    0.000    3.000    2.500    2.250    0.000    5.250 
#    0.000    5.000    0.000    3.000    0.000    0.000 
#    0.000    4.500    0.000   11.250    0.000   14.000 
#
# Total GULP energy -792933.960967 kJ/mol
# GULP energy per Si atom -12389.593140 kJ/mol
# Density = 1.883537 g / cm^3
# Si number density = 18.878337 Si / 1000 Ang^3
#
#
#
# Elastic Constant Matrix: (Units=GPa)
#
#
# Indices 1 2 3 4 5 6 
#
# 1 74.9046 31.8449 29.6937 0.0000 0.0000 0.0000
# 2 31.8449 61.8564 21.3755 0.0000 0.0000 0.0000
# 3 29.6937 21.3755 48.0989 0.0000 0.0000 0.0000
# 4 0.0000 0.0000 0.0000 6.4208 0.0000 0.0000
# 5 0.0000 0.0000 0.0000 0.0000 8.1320 0.0000
# 6 0.0000 0.0000 0.0000 0.0000 0.0000 35.0224
#
#
#
# Elastic Compliance Matrix: (Units=1/GPa)
#
#
# Indices 1 2 3 4 5 6 
#
# 1 0.020028 -0.007134 -0.009194 0.000000 0.000000 0.000000
# 2 -0.007134 0.021641 -0.005213 0.000000 0.000000 0.000000
# 3 -0.009194 -0.005213 0.028783 0.000000 0.000000 0.000000
# 4 0.000000 0.000000 0.000000 0.155743 0.000000 0.000000
# 5 0.000000 0.000000 0.000000 0.000000 0.122971 0.000000
# 6 0.000000 0.000000 0.000000 0.000000 0.000000 0.028553
#
#
# Mechanical properties :
#
#
# Convention : Reuss Voigt Hill
#
# Bulk Modulus (GPa) = 36.53649 38.96533 37.75091
# Shear Modulus (GPa) = 11.62999 16.71143 14.17071
#
# Velocity S-wave (km/s) = 2.48473 2.97849 2.74274
# Velocity P-wave (km/s) = 5.25619 5.70207 5.48366
#
# Compressibility (1/GPa) = 0.02736990
#
# Stress axis : x y z
#
# Youngs Moduli (GPa) = 49.93091 46.20958 34.74262
#
# Poissons Ratio (x) = 0.32964 0.31942
# Poissons Ratio (y) = 0.35619 0.18113
# Poissons Ratio (z) = 0.45905 0.24091
#
# Static dielectric constant tensor:
#      x y z
#    x 3.888540 0.000000 0.000000 
#    y 0.000000 3.503530 0.000000 
#    z 0.000000 0.000000 2.948440 
# 
# 
# High freq. dielectric constant tensor:
#      x y z
#    x 1.744880 0.000000 0.000000 
#    y 0.000000 1.717350 0.000000 
#    z 0.000000 0.000000 1.672190 
# 
# From -- ./inp_files/21103.got.cif
#   From: 2010.03.12/outbox.cif.g09.slc.cpg/sg49_11_cif.got.tgz:21103.got - 2010.04.14 03:58:27.
