data_PCOD8202048
_publ_section_title
;
Structure prediction by ZEFSAII (Michael W. Deem and Ramdas Pophale) SiO2 
 PCOD8202048
Probable space group: P N N N
;
_chemical_formula_sum "Si O2"
_cell_formula_units_Z 64
_cell_length_a 17.079897
_cell_length_b 9.018540
_cell_length_c 20.066994
_cell_angle_alpha 90.000000
_cell_angle_beta 90.000000
_cell_angle_gamma 90.000000
_cell_volume 3091.034156
_symmetry_space_group_name_H-M "P N N N"
_symmetry_group_IT_number 48
_space_group.IT_coordinate_system_code '2'
_symmetry_cell_setting 'orthorhombic'
loop_
_space_group_symop_operation_xyz
x,y,z
1/2-x,1/2-y,z
x,1/2-y,1/2-z
1/2-x,y,1/2-z
-x,-y,-z
1/2+x,1/2+y,-z
-x,1/2+y,1/2+z
1/2+x,-y,1/2+z
loop_
_atom_site_type_symbol
_atom_site_label
_atom_site_fract_x
_atom_site_fract_y
_atom_site_fract_z
Si Si1 0.542700 0.090087 0.440710
Si Si2 0.199533 0.875220 0.991855
Si Si3 0.691598 0.630213 0.485305
Si Si4 0.451983 0.551868 0.562389
Si Si5 0.835136 0.698828 0.871306
Si Si6 0.065546 0.540822 0.175857
Si Si7 0.566634 0.949807 0.676998
Si Si8 0.335214 0.797021 0.365013
O O1 0.634467 0.048347 0.444816
O O2 0.548247 0.269937 0.443860
O O3 0.507385 0.028262 0.372091
O O4 0.500000 0.000000 0.500000
O O5 0.250000 0.750000 0.951977
O O6 0.253657 0.006246 0.019697
O O7 0.161623 0.786891 0.054639
O O8 0.750000 0.750000 0.448007
O O9 0.630922 0.540128 0.438324
O O10 0.651321 0.713984 0.548500
O O11 0.500000 0.500000 0.500000
O O12 0.492228 0.501587 0.630432
O O13 0.750000 0.750000 0.847920
O O14 0.852187 0.531640 0.848563
O O15 0.904745 0.781385 0.831392
O O16 0.039405 0.494622 0.249701
O O17 0.090776 0.711842 0.168611
O O18 0.645504 0.035136 0.655010
O O19 0.250000 0.750000 0.336886
#
# Coordination Sequence:
#
# PCOD8202048 Si02
#       8
#     8   8   8   8   8   8   8   8
#     4  12  25  40  65  93 126 169 211 270 318 380
#     4  11  21  39  64  93 127 164 216 270 324 373
#     4  11  23  39  65  99 128 161 213 275 327 382
#     4  12  24  42  64  94 126 165 215 267 324 375
#     4  11  22  37  59  88 129 170 208 248 305 380
#     4  12  25  40  63  89 129 175 211 260 316 379
#     4  12  25  41  59  92 129 172 217 254 314 385
#     4  11  23  39  61  89 132 173 213 254 309 382
#
# _framework density 20.705044999999998
#
# number of rings (size 3 to 8) (size 9 to 14) (size 15 to 20)
#    0.000    0.500    5.000    5.250    1.750    3.000 
#    0.000    0.000    0.000    0.750    0.000    0.875 
#    0.000    0.000    0.000    0.000    0.000    0.000 
#
# Total GULP energy -792888.446550 kJ/mol
# GULP energy per Si atom -12388.881977 kJ/mol
# Density = 2.065792 g / cm^3
# Si number density = 20.705045 Si / 1000 Ang^3
#
#
#
# Elastic Constant Matrix: (Units=GPa)
#
#
# Indices 1 2 3 4 5 6 
#
# 1 110.5380 42.0888 66.7899 0.0000 0.0000 0.0000
# 2 42.0888 84.1918 24.5332 0.0000 0.0000 0.0000
# 3 66.7899 24.5332 121.0737 0.0000 0.0000 0.0000
# 4 0.0000 0.0000 0.0000 19.7509 0.0000 0.0000
# 5 0.0000 0.0000 0.0000 0.0000 23.7911 0.0000
# 6 0.0000 0.0000 0.0000 0.0000 0.0000 41.2773
#
#
#
# Elastic Compliance Matrix: (Units=1/GPa)
#
#
# Indices 1 2 3 4 5 6 
#
# 1 0.015773 -0.005685 -0.007549 0.000000 0.000000 0.000000
# 2 -0.005685 0.014672 0.000163 0.000000 0.000000 0.000000
# 3 -0.007549 0.000163 0.012391 0.000000 0.000000 0.000000
# 4 0.000000 0.000000 0.000000 0.050631 0.000000 0.000000
# 5 0.000000 0.000000 0.000000 0.000000 0.042033 0.000000
# 6 0.000000 0.000000 0.000000 0.000000 0.000000 0.024226
#
#
# Mechanical properties :
#
#
# Convention : Reuss Voigt Hill
#
# Bulk Modulus (GPa) = 59.90302 64.73634 62.31968
# Shear Modulus (GPa) = 26.11899 29.12329 27.62114
#
# Velocity S-wave (km/s) = 3.55558 3.75451 3.65640
# Velocity P-wave (km/s) = 6.77131 7.08018 6.92747
#
# Compressibility (1/GPa) = 0.01669365
#
# Stress axis : x y z
#
# Youngs Moduli (GPa) = 63.40086 68.15595 80.70566
#
# Poissons Ratio (x) = 0.38748 0.60924
# Poissons Ratio (y) = 0.36045 -0.01317
# Poissons Ratio (z) = 0.47861 -0.01112
#
# Static dielectric constant tensor:
#      x y z
#    x 3.892010 0.000000 0.000000 
#    y 0.000000 4.112890 0.000000 
#    z 0.000000 0.000000 3.475820 
# 
# 
# High freq. dielectric constant tensor:
#      x y z
#    x 1.803040 0.000000 0.000000 
#    y 0.000000 1.841260 0.000000 
#    z 0.000000 0.000000 1.762800 
# 
# From -- ./inp_files/34708.got.cif
#   From: 2010.06.25/outbox.cif.g09.slc.cpg/sg48_18_cif.got.tgz:34708.got - 2010.06.26 18:06:46.
