data_PCOD8202698
_publ_section_title
;
Structure prediction by ZEFSAII (Michael W. Deem and Ramdas Pophale) SiO2 
 PCOD8202698
Probable space group: P C C M
;
_chemical_formula_sum "Si O2"
_cell_formula_units_Z 64
_cell_length_a 19.334827
_cell_length_b 9.341534
_cell_length_c 18.596726
_cell_angle_alpha 90.000000
_cell_angle_beta 90.000000
_cell_angle_gamma 90.000000
_cell_volume 3358.883815
_symmetry_space_group_name_H-M "P C C M"
_symmetry_group_IT_number 49
_symmetry_cell_setting 'orthorhombic'
loop_
_space_group_symop_operation_xyz
x,y,z
-x,-y,z
x,-y,1/2-z
-x,y,1/2-z
-x,-y,-z
x,y,-z
-x,y,1/2+z
x,-y,1/2+z
loop_
_atom_site_type_symbol
_atom_site_label
_atom_site_fract_x
_atom_site_fract_y
_atom_site_fract_z
Si Si1 0.586504 0.852946 0.414767
Si Si2 0.732626 0.762186 0.418395
Si Si3 0.209671 0.519676 0.835036
Si Si4 0.699610 0.686731 0.914991
Si Si5 0.800817 0.066198 0.580191
Si Si6 0.564034 0.170123 0.414723
Si Si7 0.934491 0.920322 0.174754
Si Si8 0.064148 0.419651 0.825815
O O1 0.593704 0.861284 0.500000
O O2 0.653330 0.763515 0.387789
O O3 0.513371 0.779218 0.391517
O O4 0.583886 0.014199 0.383071
O O5 0.737250 0.697995 0.500000
O O6 0.783900 0.683198 0.361897
O O7 0.756652 0.924095 0.419929
O O8 0.216709 0.500000 0.750000
O O9 0.276056 0.454240 0.874623
O O10 0.137790 0.449736 0.864548
O O11 0.750563 0.812318 0.889045
O O12 0.621394 0.716975 0.888396
O O13 0.702624 0.664085 0.000000
O O14 0.825637 0.105571 0.500000
O O15 0.868072 0.051612 0.627886
O O16 0.566726 0.156689 0.500000
O O17 0.948998 0.749925 0.183414
O O18 0.922300 0.000000 0.250000
O O19 0.000000 0.000000 0.137534
O O20 0.070090 0.500000 0.750000
O O21 0.000000 0.500000 0.867034
#
# Coordination Sequence:
#
# PCOD8202698 Si02
#       8
#     8   8   8   8   8   8   8   8
#     4   8  13  25  48  82 110 135 175 227 271 316
#     4  10  20  35  56  82 112 145 178 223 276 327
#     4  11  24  37  56  79 107 146 186 223 266 319
#     4  10  18  35  56  81 111 145 177 220 275 327
#     4  10  21  35  56  83 116 142 172 222 282 327
#     4   8  13  24  50  81 109 136 175 225 275 318
#     4  11  23  37  62  87 106 141 188 231 269 315
#     4  10  21  38  56  79 110 141 177 225 272 313
#
# _framework density 19.053948999999999
#
# number of rings (size 3 to 8) (size 9 to 14) (size 15 to 20)
#    0.000    2.250    2.500    2.625    5.250    0.250 
#    0.000    0.625    0.000    6.375    0.000    1.750 
#    0.000    0.000    0.000    0.000    0.000    0.000 
#
# Total GULP energy -792941.071304 kJ/mol
# GULP energy per Si atom -12389.704239 kJ/mol
# Density = 1.901058 g / cm^3
# Si number density = 19.053949 Si / 1000 Ang^3
#
#
#
# Elastic Constant Matrix: (Units=GPa)
#
#
# Indices 1 2 3 4 5 6 
#
# 1 143.3363 33.4671 28.3534 0.0000 0.0000 0.0000
# 2 33.4671 70.0577 7.1502 0.0000 0.0000 0.0000
# 3 28.3534 7.1502 35.1176 0.0000 0.0000 0.0000
# 4 0.0000 0.0000 0.0000 23.3168 0.0000 0.0000
# 5 0.0000 0.0000 0.0000 0.0000 27.0312 0.0000
# 6 0.0000 0.0000 0.0000 0.0000 0.0000 27.5748
#
#
#
# Elastic Compliance Matrix: (Units=1/GPa)
#
#
# Indices 1 2 3 4 5 6 
#
# 1 0.009152 -0.003695 -0.006637 0.000000 0.000000 0.000000
# 2 -0.003695 0.016068 -0.000289 0.000000 0.000000 0.000000
# 3 -0.006637 -0.000289 0.033893 0.000000 0.000000 0.000000
# 4 0.000000 0.000000 0.000000 0.042888 0.000000 0.000000
# 5 0.000000 0.000000 0.000000 0.000000 0.036994 0.000000
# 6 0.000000 0.000000 0.000000 0.000000 0.000000 0.036265
#
#
# Mechanical properties :
#
#
# Convention : Reuss Voigt Hill
#
# Bulk Modulus (GPa) = 26.40402 42.93922 34.67162
# Shear Modulus (GPa) = 23.90911 27.55396 25.73154
#
# Velocity S-wave (km/s) = 3.54617 3.80689 3.67884
# Velocity P-wave (km/s) = 5.53667 6.47362 6.02339
#
# Compressibility (1/GPa) = 0.03787303
#
# Stress axis : x y z
#
# Youngs Moduli (GPa) = 109.26434 62.23410 29.50450
#
# Poissons Ratio (x) = 0.22993 0.19582
# Poissons Ratio (y) = 0.40369 0.00852
# Poissons Ratio (z) = 0.72519 0.01796
#
# Static dielectric constant tensor:
#      x y z
#    x 4.262970 0.000000 0.000000 
#    y 0.000000 3.468760 0.000000 
#    z 0.000000 0.000000 3.033820 
# 
# 
# High freq. dielectric constant tensor:
#      x y z
#    x 1.764560 0.000000 0.000000 
#    y 0.000000 1.737940 0.000000 
#    z 0.000000 0.000000 1.683010 
# 
# From -- ./inp_files/21099.got.cif
#   From: 2010.03.12/outbox.cif.g09.slc.cpg/sg49_11_cif.got.tgz:21099.got - 2010.04.14 03:58:27.
