data_PCOD8202627
_publ_section_title
;
Structure prediction by ZEFSAII (Michael W. Deem and Ramdas Pophale) SiO2 
 PCOD8202627
Probable space group: P C C M
;
_chemical_formula_sum "Si O2"
_cell_formula_units_Z 64
_cell_length_a 20.545781
_cell_length_b 19.609539
_cell_length_c 9.068189
_cell_angle_alpha 90.000000
_cell_angle_beta 90.000000
_cell_angle_gamma 90.000000
_cell_volume 3653.512535
_symmetry_space_group_name_H-M "P C C M"
_symmetry_group_IT_number 49
_symmetry_cell_setting 'orthorhombic'
loop_
_space_group_symop_operation_xyz
x,y,z
-x,-y,z
x,-y,1/2-z
-x,y,1/2-z
-x,-y,-z
x,y,-z
-x,y,1/2+z
x,-y,1/2+z
loop_
_atom_site_type_symbol
_atom_site_label
_atom_site_fract_x
_atom_site_fract_y
_atom_site_fract_z
Si Si1 0.811011 0.661782 0.671056
Si Si2 0.230350 0.936449 0.662160
Si Si3 0.688536 0.427471 0.825627
Si Si4 0.564886 0.342896 0.169402
Si Si5 0.760932 0.787832 0.175853
Si Si6 0.933859 0.429909 0.826490
Si Si7 0.374805 0.200700 0.671510
Si Si8 0.385445 0.065776 0.833947
O O1 0.802017 0.681071 0.500000
O O2 0.753429 0.612099 0.723759
O O3 0.810467 0.730403 0.768165
O O4 0.879639 0.626628 0.702129
O O5 0.201786 0.945180 0.500000
O O6 0.210298 0.861966 0.724507
O O7 0.308047 0.939519 0.662370
O O8 0.200044 0.000000 0.750000
O O9 0.688138 0.500000 0.750000
O O10 0.626549 0.384626 0.768564
O O11 0.687533 0.437475 0.000000
O O12 0.500000 0.367515 0.250000
O O13 0.574810 0.262224 0.192481
O O14 0.555506 0.361007 0.000000
O O15 0.691808 0.775719 0.252559
O O16 0.751355 0.785455 0.000000
O O17 0.911161 0.500000 0.750000
O O18 0.000000 0.403719 0.750000
O O19 0.944901 0.442648 0.000000
O O20 0.360989 0.185238 0.500000
O O21 0.406157 0.134093 0.747373
O O22 0.414894 0.000000 0.750000
O O23 0.413570 0.068472 0.000000
#
# Coordination Sequence:
#
# PCOD8202627 Si02
#       8
#     8   8   8   8   8   8   8   8
#     4  10  20  35  53  75 106 138 171 208 253 302
#     4   8  15  25  37  60  93 127 162 198 239 287
#     4  10  21  38  55  76 100 126 162 204 252 306
#     4  10  22  38  55  72  96 126 163 208 257 311
#     4  10  19  29  46  73 101 130 169 212 251 299
#     4  10  20  34  54  77 106 142 177 214 251 300
#     4  10  18  32  50  68  96 130 161 205 256 304
#     4   9  16  26  42  68  96 125 162 201 244 300
#
# _framework density 17.517389000000001
#
# number of rings (size 3 to 8) (size 9 to 14) (size 15 to 20)
#    0.000    2.375    1.250    3.000    0.000    6.750 
#    0.000    1.250    0.000    0.375    0.000    2.625 
#    0.000    0.500    0.000    5.500    0.000    4.125 
#
# Total GULP energy -793511.109727 kJ/mol
# GULP energy per Si atom -12398.611089 kJ/mol
# Density = 1.747752 g / cm^3
# Si number density = 17.517389 Si / 1000 Ang^3
#
#
#
# Elastic Constant Matrix: (Units=GPa)
#
#
# Indices 1 2 3 4 5 6 
#
# 1 68.9762 42.5089 34.8001 0.0000 0.0000 0.0000
# 2 42.5089 127.9599 56.5453 0.0000 0.0000 0.0000
# 3 34.8001 56.5453 91.1605 0.0000 0.0000 0.0000
# 4 0.0000 0.0000 0.0000 36.2568 0.0000 0.0000
# 5 0.0000 0.0000 0.0000 0.0000 17.0916 0.0000
# 6 0.0000 0.0000 0.0000 0.0000 0.0000 12.4479
#
#
#
# Elastic Compliance Matrix: (Units=1/GPa)
#
#
# Indices 1 2 3 4 5 6 
#
# 1 0.019616 -0.004419 -0.004748 0.000000 0.000000 0.000000
# 2 -0.004419 0.011761 -0.005608 0.000000 0.000000 0.000000
# 3 -0.004748 -0.005608 0.016261 0.000000 0.000000 0.000000
# 4 0.000000 0.000000 0.000000 0.027581 0.000000 0.000000
# 5 0.000000 0.000000 0.000000 0.000000 0.058508 0.000000
# 6 0.000000 0.000000 0.000000 0.000000 0.000000 0.080335
#
#
# Mechanical properties :
#
#
# Convention : Reuss Voigt Hill
#
# Bulk Modulus (GPa) = 55.28267 61.75614 58.51941
# Shear Modulus (GPa) = 20.02876 23.44209 21.73543
#
# Velocity S-wave (km/s) = 3.38504 3.66214 3.52631
# Velocity P-wave (km/s) = 6.84874 7.29468 7.07522
#
# Compressibility (1/GPa) = 0.01808885
#
# Stress axis : x y z
#
# Youngs Moduli (GPa) = 50.97847 85.02519 61.49726
#
# Poissons Ratio (x) = 0.37569 0.29196
# Poissons Ratio (y) = 0.22525 0.34491
# Poissons Ratio (z) = 0.24202 0.47686
#
# Static dielectric constant tensor:
#      x y z
#    x 2.882700 0.000000 0.000000 
#    y 0.000000 3.433820 0.000000 
#    z 0.000000 0.000000 3.355200 
# 
# 
# High freq. dielectric constant tensor:
#      x y z
#    x 1.629280 0.000000 0.000000 
#    y 0.000000 1.688090 0.000000 
#    z 0.000000 0.000000 1.684240 
# 
# From -- ./inp_files/5330.got.cif
#   From: 2010.03.12/outbox.cif.g09.slc.cpg/sg49_3_cif.got.tgz:5330.got - 2010.04.14 03:58:27.
