data_PCOD8202341
_publ_section_title
;
Structure prediction by ZEFSAII (Michael W. Deem and Ramdas Pophale) SiO2 
 PCOD8202341
Probable space group: P C C M
;
_chemical_formula_sum "Si O2"
_cell_formula_units_Z 32
_cell_length_a 20.576368
_cell_length_b 9.364653
_cell_length_c 8.600371
_cell_angle_alpha 90.000000
_cell_angle_beta 90.000000
_cell_angle_gamma 90.000000
_cell_volume 1657.210187
_symmetry_space_group_name_H-M "P C C M"
_symmetry_group_IT_number 49
_symmetry_cell_setting 'orthorhombic'
loop_
_space_group_symop_operation_xyz
x,y,z
-x,-y,z
x,-y,1/2-z
-x,y,1/2-z
-x,-y,-z
x,y,-z
-x,y,1/2+z
x,-y,1/2+z
loop_
_atom_site_type_symbol
_atom_site_label
_atom_site_fract_x
_atom_site_fract_y
_atom_site_fract_z
Si Si1 0.320041 0.344373 0.182985
Si Si2 0.429399 0.150644 0.683832
Si Si3 0.196264 0.843973 0.317631
Si Si4 0.064920 0.159179 0.316267
O O1 0.308719 0.500000 0.250000
O O2 0.382004 0.276600 0.266261
O O3 0.256652 0.254193 0.226281
O O4 0.332705 0.349260 0.000000
O O5 0.500000 0.187143 0.750000
O O6 0.433285 0.139324 0.500000
O O7 0.403431 0.000000 0.750000
O O8 0.185258 0.858006 0.500000
O O9 0.131944 0.769441 0.242851
O O10 0.210161 0.000000 0.250000
O O11 0.062061 0.159068 0.500000
O O12 0.000000 0.237769 0.250000
O O13 0.066172 0.000000 0.250000
#
# Coordination Sequence:
#
# PCOD8202341 Si02
#       4
#     8   8   8   8
#     4  11  24  40  58  82 113 149 188 230 277 329
#     4  11  22  39  63  89 117 147 184 227 274 327
#     4  10  20  34  54  80 109 142 182 226 273 326
#     4  10  17  27  46  73 106 139 175 221 273 324
#
# _framework density 19.309562
#
# number of rings (size 3 to 8) (size 9 to 14) (size 15 to 20)
#    0.000    1.500    0.000    9.750    0.000    6.500 
#    0.000    2.500    0.000    0.750    0.000    5.250 
#    0.000    0.000    0.000    0.000    0.000    0.000 
#
# Total GULP energy -396828.283420 kJ/mol
# GULP energy per Si atom -12400.883857 kJ/mol
# Density = 1.926561 g / cm^3
# Si number density = 19.309562 Si / 1000 Ang^3
#
#
#
# Elastic Constant Matrix: (Units=GPa)
#
#
# Indices 1 2 3 4 5 6 
#
# 1 145.6526 67.1106 78.8335 0.0000 0.0000 0.0000
# 2 67.1106 92.9644 50.8131 0.0000 0.0000 0.0000
# 3 78.8335 50.8131 163.6758 0.0000 0.0000 0.0000
# 4 0.0000 0.0000 0.0000 24.9424 0.0000 0.0000
# 5 0.0000 0.0000 0.0000 0.0000 72.2750 0.0000
# 6 0.0000 0.0000 0.0000 0.0000 0.0000 -4.5734
#
#
#
# Elastic Compliance Matrix: (Units=1/GPa)
#
#
# Indices 1 2 3 4 5 6 
#
# 1 0.011886 -0.006565 -0.003687 0.000000 0.000000 0.000000
# 2 -0.006565 0.016582 -0.001986 0.000000 0.000000 0.000000
# 3 -0.003687 -0.001986 0.008502 0.000000 0.000000 0.000000
# 4 0.000000 0.000000 0.000000 0.040092 0.000000 0.000000
# 5 0.000000 0.000000 0.000000 0.000000 0.013836 0.000000
# 6 0.000000 0.000000 0.000000 0.000000 0.000000 -0.218655
#
#
# Mechanical properties :
#
#
# Convention : Reuss Voigt Hill
#
# Bulk Modulus (GPa) = 80.03733 88.42302 84.23017
# Shear Modulus (GPa) = -50.44524 32.23117 -9.10703
#
# Velocity S-wave (km/s) = -5.11676 4.08999 -2.17407
# Velocity P-wave (km/s) = 2.57513 8.25808 6.11666
#
# Compressibility (1/GPa) = 0.01249417
#
# Stress axis : x y z
#
# Youngs Moduli (GPa) = 84.13185 60.30756 117.62354
#
# Poissons Ratio (x) = 0.39595 0.43363
# Poissons Ratio (y) = 0.55236 0.23355
# Poissons Ratio (z) = 0.31016 0.11974
#
# Static dielectric constant tensor:
#      x y z
#    x 4.330380 0.000000 0.000000 
#    y 0.000000 3.224260 0.000000 
#    z 0.000000 0.000000 3.691990 
# 
# 
# High freq. dielectric constant tensor:
#      x y z
#    x 1.778920 0.000000 0.000000 
#    y 0.000000 1.708230 0.000000 
#    z 0.000000 0.000000 1.774920 
# 
# From -- ./inp_files/1385.got.cif
#   From: 2010.03.12/outbox.cif.g09.slc.cpg/sg49_1_cif.got.tgz:1385.got - 2010.04.14 03:58:27.
