data_PCOD8202371
_publ_section_title
;
Structure prediction by ZEFSAII (Michael W. Deem and Ramdas Pophale) SiO2 
 PCOD8202371
Probable space group: P C C M
;
_chemical_formula_sum "Si O2"
_cell_formula_units_Z 48
_cell_length_a 20.933692
_cell_length_b 15.192819
_cell_length_c 8.664793
_cell_angle_alpha 90.000000
_cell_angle_beta 90.000000
_cell_angle_gamma 90.000000
_cell_volume 2755.766307
_symmetry_space_group_name_H-M "P C C M"
_symmetry_group_IT_number 49
_symmetry_cell_setting 'orthorhombic'
loop_
_space_group_symop_operation_xyz
x,y,z
-x,-y,z
x,-y,1/2-z
-x,y,1/2-z
-x,-y,-z
x,y,-z
-x,y,1/2+z
x,-y,1/2+z
loop_
_atom_site_type_symbol
_atom_site_label
_atom_site_fract_x
_atom_site_fract_y
_atom_site_fract_z
Si Si1 0.563727 0.691306 0.670911
Si Si2 0.302215 0.714921 0.316738
Si Si3 0.561667 0.103642 0.169947
Si Si4 0.308150 0.913098 0.322341
Si Si5 0.936296 0.402069 0.316617
Si Si6 0.192922 0.596590 0.182380
O O1 0.500000 0.649104 0.750000
O O2 0.573069 0.648826 0.500000
O O3 0.627401 0.678562 0.773587
O O4 0.551562 0.793534 0.650434
O O5 0.293739 0.706373 0.500000
O O6 0.288530 0.815864 0.259786
O O7 0.252295 0.656460 0.225427
O O8 0.500000 0.061397 0.250000
O O9 0.617145 0.078059 0.288199
O O10 0.574874 0.062953 0.000000
O O11 0.292619 0.916853 0.500000
O O12 0.272879 0.000000 0.250000
O O13 0.935651 0.500000 0.250000
O O14 0.938117 0.401904 0.500000
O O15 0.870897 0.358003 0.255139
O O16 0.000000 0.353593 0.250000
O O17 0.204772 0.500000 0.250000
O O18 0.184942 0.589643 0.000000
#
# Coordination Sequence:
#
# PCOD8202371 Si02
#       6
#     8   8   8   8   8   8
#     4   9  16  27  44  65  87 116 152 195 244 294
#     4  10  20  34  50  70  95 125 160 202 246 291
#     4   9  16  26  40  58  82 109 142 181 228 284
#     4  10  20  32  46  63  87 117 152 192 237 285
#     4  10  17  28  46  71 103 136 166 194 227 273
#     4  11  21  34  52  75 102 133 166 200 237 281
#
# _framework density 17.418022000000001
#
# number of rings (size 3 to 8) (size 9 to 14) (size 15 to 20)
#    0.000    2.167    0.000    6.500    0.000    6.333 
#    0.000    1.667    0.000    0.500    0.000    3.500 
#    0.000    0.667    0.000    7.000    0.000    3.833 
#
# Total GULP energy -594684.274450 kJ/mol
# GULP energy per Si atom -12389.255718 kJ/mol
# Density = 1.737838 g / cm^3
# Si number density = 17.418022 Si / 1000 Ang^3
#
#
#
# Elastic Constant Matrix: (Units=GPa)
#
#
# Indices 1 2 3 4 5 6 
#
# 1 104.6128 38.3013 41.4482 0.0000 0.0000 0.0000
# 2 38.3013 53.8571 25.2094 0.0000 0.0000 0.0000
# 3 41.4482 25.2094 121.2862 0.0000 0.0000 0.0000
# 4 0.0000 0.0000 0.0000 20.7667 0.0000 0.0000
# 5 0.0000 0.0000 0.0000 0.0000 28.7032 0.0000
# 6 0.0000 0.0000 0.0000 0.0000 0.0000 -7.0345
#
#
#
# Elastic Compliance Matrix: (Units=1/GPa)
#
#
# Indices 1 2 3 4 5 6 
#
# 1 0.013827 -0.008443 -0.002970 0.000000 0.000000 0.000000
# 2 -0.008443 0.025724 -0.002461 0.000000 0.000000 0.000000
# 3 -0.002970 -0.002461 0.009772 0.000000 0.000000 0.000000
# 4 0.000000 0.000000 0.000000 0.048154 0.000000 0.000000
# 5 0.000000 0.000000 0.000000 0.000000 0.034839 0.000000
# 6 0.000000 0.000000 0.000000 0.000000 0.000000 -0.142157
#
#
# Mechanical properties :
#
#
# Convention : Reuss Voigt Hill
#
# Bulk Modulus (GPa) = 46.35366 54.40820 50.38093
# Shear Modulus (GPa) = 199.20367 20.14025 109.67196
#
# Velocity S-wave (km/s) = 10.70583 3.40411 7.94364
# Velocity P-wave (km/s) = 13.39738 6.83778 10.63591
#
# Compressibility (1/GPa) = 0.02157327
#
# Stress axis : x y z
#
# Youngs Moduli (GPa) = 72.32158 38.87386 102.33661
#
# Poissons Ratio (x) = 0.32821 0.30398
# Poissons Ratio (y) = 0.61061 0.25190
# Poissons Ratio (z) = 0.21482 0.09569
#
# Static dielectric constant tensor:
#      x y z
#    x 3.600640 0.000000 0.000000 
#    y 0.000000 3.128090 0.000000 
#    z 0.000000 0.000000 3.503290 
# 
# 
# High freq. dielectric constant tensor:
#      x y z
#    x 1.650700 0.000000 0.000000 
#    y 0.000000 1.635060 0.000000 
#    z 0.000000 0.000000 1.695080 
# 
# From -- ./inp_files/3862.got.cif
#   From: 2010.03.12/outbox.cif.g09.slc.cpg/sg49_2_cif.got.tgz:3862.got - 2010.04.14 03:58:27.
