data_PCOD8202838
_publ_section_title
;
Structure prediction by ZEFSAII (Michael W. Deem and Ramdas Pophale) SiO2 
 PCOD8202838
Probable space group: P C C M
;
_chemical_formula_sum "Si O2"
_cell_formula_units_Z 56
_cell_length_a 18.408515
_cell_length_b 18.998831
_cell_length_c 9.699976
_cell_angle_alpha 90.000000
_cell_angle_beta 90.000000
_cell_angle_gamma 90.000000
_cell_volume 3392.472181
_symmetry_space_group_name_H-M "P C C M"
_symmetry_group_IT_number 49
_symmetry_cell_setting 'orthorhombic'
loop_
_space_group_symop_operation_xyz
x,y,z
-x,-y,z
x,-y,1/2-z
-x,y,1/2-z
-x,-y,-z
x,y,-z
-x,y,1/2+z
x,-y,1/2+z
loop_
_atom_site_type_symbol
_atom_site_label
_atom_site_fract_x
_atom_site_fract_y
_atom_site_fract_z
Si Si1 0.713393 0.931975 0.840743
Si Si2 0.654701 0.283713 0.336710
Si Si3 0.207405 0.794889 0.662596
Si Si4 0.071138 0.289822 0.837843
Si Si5 0.316460 0.435631 0.158864
Si Si6 0.146488 0.435968 0.157399
Si Si7 0.567443 0.847346 0.159718
O O1 0.776427 0.876162 0.799805
O O2 0.634714 0.898700 0.811002
O O3 0.726240 0.000000 0.750000
O O4 0.719802 0.953487 0.000000
O O5 0.663682 0.281101 0.500000
O O6 0.729592 0.254086 0.271050
O O7 0.641957 0.364629 0.291032
O O8 0.588417 0.232507 0.294121
O O9 0.211236 0.784307 0.500000
O O10 0.128559 0.769424 0.713256
O O11 0.102953 0.366292 0.801864
O O12 0.000000 0.275698 0.750000
O O13 0.053842 0.283228 0.000000
O O14 0.345965 0.500000 0.250000
O O15 0.231362 0.422215 0.183483
O O16 0.333019 0.453207 0.000000
O O17 0.117290 0.500000 0.250000
O O18 0.132107 0.457106 0.000000
O O19 0.500000 0.873681 0.250000
O O20 0.544955 0.849908 0.000000
#
# Coordination Sequence:
#
# PCOD8202838 Si02
#       7
#     8   8   8   8   8   8   8
#     4   9  18  32  52  75  96 121 151 182 218 263
#     4   8  13  26  48  66  83 116 159 191 219 263
#     4   8  14  29  50  67  86 117 156 188 219 267
#     4  10  19  31  47  66  89 120 156 192 231 272
#     4   9  15  25  43  65  86 111 148 193 234 269
#     4   9  17  28  43  62  87 119 151 188 231 274
#     4   9  18  31  48  71  97 125 153 181 216 262
#
# _framework density 16.507137
#
# number of rings (size 3 to 8) (size 9 to 14) (size 15 to 20)
#    0.000    3.143    1.429    1.714    0.000    1.714 
#    0.000    4.286    0.000    2.571    0.000    6.000 
#    0.000    0.000    0.000    0.000    0.000    0.000 
#
# Total GULP energy -694055.814610 kJ/mol
# GULP energy per Si atom -12393.853832 kJ/mol
# Density = 1.646957 g / cm^3
# Si number density = 16.507137 Si / 1000 Ang^3
#
#
#
# Elastic Constant Matrix: (Units=GPa)
#
#
# Indices 1 2 3 4 5 6 
#
# 1 61.4829 45.7282 32.7261 0.0000 0.0000 0.0000
# 2 45.7282 113.4334 48.7841 0.0000 0.0000 0.0000
# 3 32.7261 48.7841 49.1313 0.0000 0.0000 0.0000
# 4 0.0000 0.0000 0.0000 27.8096 0.0000 0.0000
# 5 0.0000 0.0000 0.0000 0.0000 1.0929 0.0000
# 6 0.0000 0.0000 0.0000 0.0000 0.0000 16.7522
#
#
#
# Elastic Compliance Matrix: (Units=1/GPa)
#
#
# Indices 1 2 3 4 5 6 
#
# 1 0.027034 -0.005504 -0.012542 0.000000 0.000000 0.000000
# 2 -0.005504 0.016507 -0.012724 0.000000 0.000000 0.000000
# 3 -0.012542 -0.012724 0.041341 0.000000 0.000000 0.000000
# 4 0.000000 0.000000 0.000000 0.035959 0.000000 0.000000
# 5 0.000000 0.000000 0.000000 0.000000 0.914961 0.000000
# 6 0.000000 0.000000 0.000000 0.000000 0.000000 0.059694
#
#
# Mechanical properties :
#
#
# Convention : Reuss Voigt Hill
#
# Bulk Modulus (GPa) = 42.84012 53.16937 48.00474
# Shear Modulus (GPa) = 4.29252 15.58491 9.93872
#
# Velocity S-wave (km/s) = 1.61433 3.07601 2.45641
# Velocity P-wave (km/s) = 5.42988 6.70042 6.09833
#
# Compressibility (1/GPa) = 0.02334261
#
# Stress axis : x y z
#
# Youngs Moduli (GPa) = 36.98983 60.58131 24.18881
#
# Poissons Ratio (x) = 0.33347 0.30338
# Poissons Ratio (y) = 0.20361 0.30777
# Poissons Ratio (z) = 0.46393 0.77081
#
# Static dielectric constant tensor:
#      x y z
#    x 2.990580 0.000000 0.000000 
#    y 0.000000 3.274230 0.000000 
#    z 0.000000 0.000000 2.820520 
# 
# 
# High freq. dielectric constant tensor:
#      x y z
#    x 1.612730 0.000000 0.000000 
#    y 0.000000 1.638790 0.000000 
#    z 0.000000 0.000000 1.605610 
# 
# From -- ./inp_files/5162.got.cif
#   From: 2010.03.12/outbox.cif.g09.slc.cpg/sg49_3_cif.got.tgz:5162.got - 2010.04.14 03:58:27.
