data_PCOD8202106
_publ_section_title
;
Structure prediction by ZEFSAII (Michael W. Deem and Ramdas Pophale) SiO2 
 PCOD8202106
Probable space group: P N N N
;
_chemical_formula_sum "Si O2"
_cell_formula_units_Z 40
_cell_length_a 8.875370
_cell_length_b 13.284691
_cell_length_c 15.133150
_cell_angle_alpha 90.000000
_cell_angle_beta 90.000000
_cell_angle_gamma 90.000000
_cell_volume 1784.297476
_symmetry_space_group_name_H-M "P N N N"
_symmetry_group_IT_number 48
_space_group.IT_coordinate_system_code '2'
_symmetry_cell_setting 'orthorhombic'
loop_
_space_group_symop_operation_xyz
x,y,z
1/2-x,1/2-y,z
x,1/2-y,1/2-z
1/2-x,y,1/2-z
-x,-y,-z
1/2+x,1/2+y,-z
-x,1/2+y,1/2+z
1/2+x,-y,1/2+z
loop_
_atom_site_type_symbol
_atom_site_label
_atom_site_fract_x
_atom_site_fract_y
_atom_site_fract_z
Si Si1 0.822899 0.144989 0.528392
Si Si2 0.925236 0.637155 0.740028
Si Si3 0.869450 0.535650 0.564013
Si Si4 0.330146 0.554201 0.659700
Si Si5 0.823178 0.852095 0.431567
O O1 0.750000 0.250000 0.554827
O O2 0.788818 0.120232 0.425758
O O3 0.999909 0.152162 0.547823
O O4 0.740727 0.058684 0.587059
O O5 0.992185 0.750000 0.750000
O O6 0.750000 0.639310 0.750000
O O7 0.959441 0.583264 0.646539
O O8 0.993004 0.569654 0.819127
O O9 0.766929 0.623024 0.521223
O O10 0.000000 0.500000 0.500000
O O11 0.250000 0.592689 0.750000
O O12 0.293832 0.437742 0.641508
O O13 0.750000 0.750000 0.393145
#
# Coordination Sequence:
#
# PCOD8202106 Si02
#       5
#     8   8   8   8   8
#     4  11  24  42  68  96 132 175 229 272 327 407
#     4  11  24  38  66 100 140 172 216 286 350 398
#     4  11  23  42  65 100 137 178 224 274 342 410
#     4  11  25  42  63  96 134 169 215 284 335 396
#     4  11  24  43  68  91 130 179 230 267 328 408
#
# _framework density 22.417788000000002
#
# number of rings (size 3 to 8) (size 9 to 14) (size 15 to 20)
#    0.000    1.000    0.000    8.400   11.200    0.400 
#    0.000    0.000    0.000    4.200    0.000    0.000 
#    0.000    0.000    0.000    0.000    0.000    0.000 
#
# Total GULP energy -495914.285891 kJ/mol
# GULP energy per Si atom -12397.857147 kJ/mol
# Density = 2.236676 g / cm^3
# Si number density = 22.417788 Si / 1000 Ang^3
#
#
#
# Elastic Constant Matrix: (Units=GPa)
#
#
# Indices 1 2 3 4 5 6 
#
# 1 87.4493 36.7528 -0.8910 0.0000 0.0000 0.0000
# 2 36.7528 140.0911 29.4196 0.0000 0.0000 0.0000
# 3 -0.8910 29.4196 74.9177 0.0000 0.0000 0.0000
# 4 0.0000 0.0000 0.0000 25.7557 0.0000 0.0000
# 5 0.0000 0.0000 0.0000 0.0000 38.6896 0.0000
# 6 0.0000 0.0000 0.0000 0.0000 0.0000 44.7339
#
#
#
# Elastic Compliance Matrix: (Units=1/GPa)
#
#
# Indices 1 2 3 4 5 6 
#
# 1 0.013033 -0.003762 0.001632 0.000000 0.000000 0.000000
# 2 -0.003762 0.008866 -0.003526 0.000000 0.000000 0.000000
# 3 0.001632 -0.003526 0.014752 0.000000 0.000000 0.000000
# 4 0.000000 0.000000 0.000000 0.038826 0.000000 0.000000
# 5 0.000000 0.000000 0.000000 0.000000 0.025847 0.000000
# 6 0.000000 0.000000 0.000000 0.000000 0.000000 0.022354
#
#
# Mechanical properties :
#
#
# Convention : Reuss Voigt Hill
#
# Bulk Modulus (GPa) = 39.46500 48.11343 43.78921
# Shear Modulus (GPa) = 34.85870 37.64762 36.25316
#
# Velocity S-wave (km/s) = 3.94757 4.10245 4.02576
# Velocity P-wave (km/s) = 6.19841 6.62940 6.41752
#
# Compressibility (1/GPa) = 0.02533891
#
# Stress axis : x y z
#
# Youngs Moduli (GPa) = 76.72899 112.79449 67.78686
#
# Poissons Ratio (x) = 0.42433 -0.11065
# Poissons Ratio (y) = 0.28865 0.23903
# Poissons Ratio (z) = -0.12524 0.39774
#
# Static dielectric constant tensor:
#      x y z
#    x 4.409360 0.000000 0.000000 
#    y 0.000000 4.369020 0.000000 
#    z 0.000000 0.000000 3.447900 
# 
# 
# High freq. dielectric constant tensor:
#      x y z
#    x 1.911090 0.000000 0.000000 
#    y 0.000000 1.887520 0.000000 
#    z 0.000000 0.000000 1.860670 
# 
# From -- ./inp_files/25095.got.cif
#   From: 2010.06.25/outbox.cif.g09.slc.cpg/sg48_13_cif.got.tgz:25095.got - 2010.06.26 18:06:46.
