data_PCOD8202122
_publ_section_title
;
Structure prediction by ZEFSAII (Michael W. Deem and Ramdas Pophale) SiO2 
 PCOD8202122
Probable space group: P N N N
;
_chemical_formula_sum "Si O2"
_cell_formula_units_Z 58
_cell_length_a 8.326724
_cell_length_b 16.295399
_cell_length_c 18.301979
_cell_angle_alpha 90.000000
_cell_angle_beta 90.000000
_cell_angle_gamma 90.000000
_cell_volume 2483.345931
_symmetry_space_group_name_H-M "P N N N"
_symmetry_group_IT_number 48
_space_group.IT_coordinate_system_code '2'
_symmetry_cell_setting 'orthorhombic'
loop_
_space_group_symop_operation_xyz
x,y,z
1/2-x,1/2-y,z
x,1/2-y,1/2-z
1/2-x,y,1/2-z
-x,-y,-z
1/2+x,1/2+y,-z
-x,1/2+y,1/2+z
1/2+x,-y,1/2+z
loop_
_atom_site_type_symbol
_atom_site_label
_atom_site_fract_x
_atom_site_fract_y
_atom_site_fract_z
Si Si1 0.643674 0.128956 0.821979
Si Si2 0.564931 0.098727 0.586343
Si Si3 0.073458 0.784082 0.949548
Si Si4 0.081388 0.267747 0.666058
Si Si5 0.904502 0.644525 0.869777
Si Si6 0.562909 0.572943 0.872845
Si Si7 0.750000 0.750000 0.750000
Si Si8 0.566272 0.481527 0.276664
O O1 0.750000 0.149724 0.750000
O O2 0.750259 0.091869 0.887574
O O3 0.567190 0.210436 0.859112
O O4 0.495056 0.069576 0.803623
O O5 0.528773 0.161367 0.520331
O O6 0.464040 0.137328 0.653520
O O7 0.508264 0.004287 0.575462
O O8 0.250000 0.750000 0.953781
O O9 0.959058 0.705074 0.935884
O O10 0.054357 0.849280 0.883595
O O11 0.250000 0.250000 0.624847
O O12 0.105595 0.250000 0.750000
O O13 0.744313 0.597234 0.894948
O O14 0.868826 0.696991 0.798376
O O15 0.045155 0.581319 0.845151
O O16 0.552779 0.546212 0.788569
O O17 0.750000 0.485384 0.250000
#
# Coordination Sequence:
#
# PCOD8202122 Si02
#       8
#     8   8   8   8   8   8   2   8
#     4  12  22  41  70 100 144 189 241 307 379 442
#     4  12  26  47  71 102 146 201 250 297 377 452
#     4  12  27  47  69 103 152 196 248 299 361 457
#     4  11  24  39  63 100 138 181 243 309 361 420
#     4  12  22  44  74 108 144 192 245 305 377 453
#     4  12  23  46  75 106 142 193 249 306 379 447
#     4  12  20  40  78 104 136 182 256 300 364 452
#     4  12  24  40  74 117 145 176 245 329 386 426
#
# _framework density 23.355585999999999
#
# number of rings (size 3 to 8) (size 9 to 14) (size 15 to 20)
#    0.000    0.138    6.897    2.483    3.862    1.103 
#    0.000    2.069    0.000    0.000    0.000    0.000 
#    0.000    0.000    0.000    0.000    0.000    0.000 
#
# Total GULP energy -718849.667485 kJ/mol
# GULP energy per Si atom -12393.959784 kJ/mol
# Density = 2.330243 g / cm^3
# Si number density = 23.355586 Si / 1000 Ang^3
#
#
#
# Elastic Constant Matrix: (Units=GPa)
#
#
# Indices 1 2 3 4 5 6 
#
# 1 106.4313 49.1749 11.0011 0.0000 0.0000 0.0000
# 2 49.1749 146.2762 23.9788 0.0000 0.0000 0.0000
# 3 11.0011 23.9788 59.9188 0.0000 0.0000 0.0000
# 4 0.0000 0.0000 0.0000 41.6673 0.0000 0.0000
# 5 0.0000 0.0000 0.0000 0.0000 22.1559 0.0000
# 6 0.0000 0.0000 0.0000 0.0000 0.0000 44.2149
#
#
#
# Elastic Compliance Matrix: (Units=1/GPa)
#
#
# Indices 1 2 3 4 5 6 
#
# 1 0.011143 -0.003650 -0.000585 0.000000 0.000000 0.000000
# 2 -0.003650 0.008512 -0.002736 0.000000 0.000000 0.000000
# 3 -0.000585 -0.002736 0.017892 0.000000 0.000000 0.000000
# 4 0.000000 0.000000 0.000000 0.024000 0.000000 0.000000
# 5 0.000000 0.000000 0.000000 0.000000 0.045135 0.000000
# 6 0.000000 0.000000 0.000000 0.000000 0.000000 0.022617
#
#
# Mechanical properties :
#
#
# Convention : Reuss Voigt Hill
#
# Bulk Modulus (GPa) = 42.36643 53.43733 47.90188
# Shear Modulus (GPa) = 33.08889 36.83903 34.96396
#
# Velocity S-wave (km/s) = 3.76805 3.97585 3.87334
# Velocity P-wave (km/s) = 6.09180 6.63370 6.36852
#
# Compressibility (1/GPa) = 0.02360359
#
# Stress axis : x y z
#
# Youngs Moduli (GPa) = 89.74539 117.48142 55.89185
#
# Poissons Ratio (x) = 0.42881 0.03270
# Poissons Ratio (y) = 0.32757 0.15293
# Poissons Ratio (z) = 0.05251 0.32146
#
# Static dielectric constant tensor:
#      x y z
#    x 4.425910 0.000000 0.000000 
#    y 0.000000 4.796660 0.000000 
#    z 0.000000 0.000000 3.985480 
# 
# 
# High freq. dielectric constant tensor:
#      x y z
#    x 1.919500 0.000000 0.000000 
#    y 0.000000 1.951180 0.000000 
#    z 0.000000 0.000000 1.894450 
# 
# From -- ./inp_files/30488.got.cif
#   From: 2010.06.25/outbox.cif.g09.slc.cpg/sg48_16_cif.got.tgz:30488.got - 2010.06.26 18:06:46.
