data_PCOD8202052
_publ_section_title
;
Structure prediction by ZEFSAII (Michael W. Deem and Ramdas Pophale) SiO2 
 PCOD8202052
Probable space group: P N N N
;
_chemical_formula_sum "Si O2"
_cell_formula_units_Z 48
_cell_length_a 14.681305
_cell_length_b 9.384002
_cell_length_c 17.400550
_cell_angle_alpha 90.000000
_cell_angle_beta 90.000000
_cell_angle_gamma 90.000000
_cell_volume 2397.263255
_symmetry_space_group_name_H-M "P N N N"
_symmetry_group_IT_number 48
_space_group.IT_coordinate_system_code '2'
_symmetry_cell_setting 'orthorhombic'
loop_
_space_group_symop_operation_xyz
x,y,z
1/2-x,1/2-y,z
x,1/2-y,1/2-z
1/2-x,y,1/2-z
-x,-y,-z
1/2+x,1/2+y,-z
-x,1/2+y,1/2+z
1/2+x,-y,1/2+z
loop_
_atom_site_type_symbol
_atom_site_label
_atom_site_fract_x
_atom_site_fract_y
_atom_site_fract_z
Si Si1 0.241163 0.910689 0.977512
Si Si2 0.433181 0.991200 0.929639
Si Si3 0.008762 0.778492 0.829078
Si Si4 0.329332 0.521585 0.813688
Si Si5 0.036733 0.224879 0.835223
Si Si6 0.429660 0.991606 0.431380
O O1 0.250000 0.750000 0.007201
O O2 0.204083 0.909489 0.891893
O O3 0.337237 0.989459 0.974033
O O4 0.173051 0.987663 0.037121
O O5 0.437671 0.127069 0.874760
O O6 0.451508 0.853518 0.877192
O O7 0.500000 0.000000 0.000000
O O8 0.952707 0.750000 0.750000
O O9 0.088869 0.874634 0.790639
O O10 0.940014 0.864749 0.882880
O O11 0.250000 0.517394 0.750000
O O12 0.369155 0.364182 0.829479
O O13 0.997829 0.250000 0.750000
O O14 0.956031 0.147007 0.881579
O O15 0.500000 0.000000 0.500000
#
# Coordination Sequence:
#
# PCOD8202052 Si02
#       6
#     8   8   8   8   8   8
#     4  12  22  39  65  92 125 173 219 266 318 397
#     4  12  25  40  64  97 129 167 225 273 327 391
#     4  11  22  41  65  95 134 173 215 274 331 400
#     4  11  23  37  63  96 135 167 208 257 347 415
#     4  11  23  41  61  95 138 169 207 277 336 387
#     4  11  21  43  65  90 130 178 218 259 327 399
#
# _framework density 20.022834
#
# number of rings (size 3 to 8) (size 9 to 14) (size 15 to 20)
#    0.000    0.667    5.000    6.000    0.000    2.333 
#    0.000    0.833    0.000   10.500    0.000    0.000 
#    0.000    0.000    0.000    0.000    0.000    0.000 
#
# Total GULP energy -595037.230837 kJ/mol
# GULP energy per Si atom -12396.608976 kJ/mol
# Density = 1.997726 g / cm^3
# Si number density = 20.022834 Si / 1000 Ang^3
#
#
#
# Elastic Constant Matrix: (Units=GPa)
#
#
# Indices 1 2 3 4 5 6 
#
# 1 100.2650 53.8598 77.0444 0.0000 0.0000 0.0000
# 2 53.8598 146.6290 62.6101 0.0000 0.0000 0.0000
# 3 77.0444 62.6101 150.0954 0.0000 0.0000 0.0000
# 4 0.0000 0.0000 0.0000 46.7600 0.0000 0.0000
# 5 0.0000 0.0000 0.0000 0.0000 42.0104 0.0000
# 6 0.0000 0.0000 0.0000 0.0000 0.0000 23.1670
#
#
#
# Elastic Compliance Matrix: (Units=1/GPa)
#
#
# Indices 1 2 3 4 5 6 
#
# 1 0.017605 -0.003173 -0.007713 0.000000 0.000000 0.000000
# 2 -0.003173 0.008870 -0.002071 0.000000 0.000000 0.000000
# 3 -0.007713 -0.002071 0.011485 0.000000 0.000000 0.000000
# 4 0.000000 0.000000 0.000000 0.021386 0.000000 0.000000
# 5 0.000000 0.000000 0.000000 0.000000 0.023804 0.000000
# 6 0.000000 0.000000 0.000000 0.000000 0.000000 0.043165
#
#
# Mechanical properties :
#
#
# Convention : Reuss Voigt Hill
#
# Bulk Modulus (GPa) = 83.01792 87.11311 85.06552
# Shear Modulus (GPa) = 32.00118 35.95249 33.97684
#
# Velocity S-wave (km/s) = 4.00213 4.24202 4.12382
# Velocity P-wave (km/s) = 7.93144 8.22158 8.07781
#
# Compressibility (1/GPa) = 0.01204559
#
# Stress axis : x y z
#
# Youngs Moduli (GPa) = 56.80256 112.74106 87.06665
#
# Poissons Ratio (x) = 0.35775 0.67154
# Poissons Ratio (y) = 0.18025 0.18033
# Poissons Ratio (z) = 0.43812 0.23350
#
# Static dielectric constant tensor:
#      x y z
#    x 2.854370 0.000000 0.000000 
#    y 0.000000 3.791300 0.000000 
#    z 0.000000 0.000000 4.591780 
# 
# 
# High freq. dielectric constant tensor:
#      x y z
#    x 1.755730 0.000000 0.000000 
#    y 0.000000 1.797190 0.000000 
#    z 0.000000 0.000000 1.799180 
# 
# From -- ./inp_files/12746.got.cif
#   From: 2010.06.25/outbox.cif.g09.slc.cpg/sg48_7_cif.got.tgz:12746.got - 2010.06.26 18:06:46.
