data_PCOD8202548
_publ_section_title
;
Structure prediction by ZEFSAII (Michael W. Deem and Ramdas Pophale) SiO2 
 PCOD8202548
Probable space group: P C C M
;
_chemical_formula_sum "Si O2"
_cell_formula_units_Z 64
_cell_length_a 23.403482
_cell_length_b 18.974979
_cell_length_c 8.695293
_cell_angle_alpha 90.000000
_cell_angle_beta 90.000000
_cell_angle_gamma 90.000000
_cell_volume 3861.410754
_symmetry_space_group_name_H-M "P C C M"
_symmetry_group_IT_number 49
_symmetry_cell_setting 'orthorhombic'
loop_
_space_group_symop_operation_xyz
x,y,z
-x,-y,z
x,-y,1/2-z
-x,y,1/2-z
-x,-y,-z
x,y,-z
-x,y,1/2+z
x,-y,1/2+z
loop_
_atom_site_type_symbol
_atom_site_label
_atom_site_fract_x
_atom_site_fract_y
_atom_site_fract_z
Si Si1 0.115739 0.928153 0.681101
Si Si2 0.246790 0.927145 0.317847
Si Si3 0.339398 0.340599 0.179581
Si Si4 0.060878 0.215046 0.818094
Si Si5 0.225276 0.576705 0.680472
Si Si6 0.723698 0.215465 0.180833
Si Si7 0.561063 0.574493 0.318261
Si Si8 0.162596 0.702332 0.819697
O O1 0.111899 0.933248 0.500000
O O2 0.181078 0.918846 0.734976
O O3 0.079882 0.861901 0.744486
O O4 0.089519 0.000000 0.750000
O O5 0.253784 0.925875 0.500000
O O6 0.282560 0.863640 0.243525
O O7 0.271590 0.000000 0.250000
O O8 0.287750 0.393270 0.219182
O O9 0.324068 0.262129 0.234807
O O10 0.394414 0.365231 0.273652
O O11 0.353672 0.339896 0.000000
O O12 0.105601 0.273577 0.765333
O O13 0.000000 0.235408 0.750000
O O14 0.057772 0.214905 0.000000
O O15 0.220010 0.500000 0.750000
O O16 0.213683 0.575282 0.500000
O O17 0.177351 0.624468 0.760738
O O18 0.786325 0.244529 0.224472
O O19 0.712674 0.218101 0.000000
O O20 0.582045 0.500000 0.250000
O O21 0.500000 0.596030 0.250000
O O22 0.556264 0.567344 0.500000
O O23 0.151328 0.700542 0.000000
#
# Coordination Sequence:
#
# PCOD8202548 Si02
#       8
#     8   8   8   8   8   8   8   8
#     4   9  19  32  48  67  92 123 157 196 237 285
#     4  10  18  30  47  69  96 129 164 200 245 297
#     4  10  20  33  50  74 104 137 171 210 250 289
#     4  11  22  36  51  70  93 122 158 198 241 289
#     4  10  20  33  52  76 102 129 158 197 242 290
#     4  10  19  31  49  73  99 129 164 204 249 297
#     4  11  21  34  51  72 102 141 182 218 252 293
#     4  10  20  34  52  72  95 123 156 195 241 293
#
# _framework density 16.574252999999999
#
# number of rings (size 3 to 8) (size 9 to 14) (size 15 to 20)
#    0.000    1.875    1.250    4.125    0.000    5.250 
#    0.000    1.250    0.000    0.375    0.000    2.625 
#    0.000    0.500    0.000    5.000    0.000    3.000 
#
# Total GULP energy -793884.748524 kJ/mol
# GULP energy per Si atom -12404.449196 kJ/mol
# Density = 1.653653 g / cm^3
# Si number density = 16.574253 Si / 1000 Ang^3
#
#
#
# Elastic Constant Matrix: (Units=GPa)
#
#
# Indices 1 2 3 4 5 6 
#
# 1 79.7343 48.5285 35.8755 0.0000 0.0000 0.0000
# 2 48.5285 122.9697 39.3493 0.0000 0.0000 0.0000
# 3 35.8755 39.3493 80.6711 0.0000 0.0000 0.0000
# 4 0.0000 0.0000 0.0000 33.1344 0.0000 0.0000
# 5 0.0000 0.0000 0.0000 0.0000 24.1028 0.0000
# 6 0.0000 0.0000 0.0000 0.0000 0.0000 23.0088
#
#
#
# Elastic Compliance Matrix: (Units=1/GPa)
#
#
# Indices 1 2 3 4 5 6 
#
# 1 0.018348 -0.005486 -0.005484 0.000000 0.000000 0.000000
# 2 -0.005486 0.011276 -0.003061 0.000000 0.000000 0.000000
# 3 -0.005484 -0.003061 0.016328 0.000000 0.000000 0.000000
# 4 0.000000 0.000000 0.000000 0.030180 0.000000 0.000000
# 5 0.000000 0.000000 0.000000 0.000000 0.041489 0.000000
# 6 0.000000 0.000000 0.000000 0.000000 0.000000 0.043462
#
#
# Mechanical properties :
#
#
# Convention : Reuss Voigt Hill
#
# Bulk Modulus (GPa) = 55.89307 58.98686 57.43996
# Shear Modulus (GPa) = 25.62698 26.69066 26.15882
#
# Velocity S-wave (km/s) = 3.93643 4.01729 3.97707
# Velocity P-wave (km/s) = 7.37948 7.56207 7.47133
#
# Compressibility (1/GPa) = 0.01789131
#
# Stress axis : x y z
#
# Youngs Moduli (GPa) = 54.50211 88.68008 61.24627
#
# Poissons Ratio (x) = 0.48651 0.33585
# Poissons Ratio (y) = 0.29900 0.18745
# Poissons Ratio (z) = 0.29887 0.27142
#
# Static dielectric constant tensor:
#      x y z
#    x 2.916120 0.000000 0.000000 
#    y 0.000000 3.167910 0.000000 
#    z 0.000000 0.000000 3.172420 
# 
# 
# High freq. dielectric constant tensor:
#      x y z
#    x 1.604090 0.000000 0.000000 
#    y 0.000000 1.637570 0.000000 
#    z 0.000000 0.000000 1.655730 
# 
# From -- ./inp_files/5241.got.cif
#   From: 2010.03.12/outbox.cif.g09.slc.cpg/sg49_3_cif.got.tgz:5241.got - 2010.04.14 03:58:27.
