data_PCOD8202175
_publ_section_title
;
Structure prediction by ZEFSAII (Michael W. Deem and Ramdas Pophale) SiO2 
 PCOD8202175
Probable space group: P C C M
;
_chemical_formula_sum "Si O2"
_cell_formula_units_Z 32
_cell_length_a 7.279724
_cell_length_b 36.144300
_cell_length_c 5.338813
_cell_angle_alpha 90.000000
_cell_angle_beta 90.000000
_cell_angle_gamma 90.000000
_cell_volume 1404.751296
_symmetry_space_group_name_H-M "P C C M"
_symmetry_group_IT_number 49
_symmetry_cell_setting 'orthorhombic'
loop_
_space_group_symop_operation_xyz
x,y,z
-x,-y,z
x,-y,1/2-z
-x,y,1/2-z
-x,-y,-z
x,y,-z
-x,y,1/2+z
x,-y,1/2+z
loop_
_atom_site_type_symbol
_atom_site_label
_atom_site_fract_x
_atom_site_fract_y
_atom_site_fract_z
Si Si1 0.202961 0.278413 0.500000
Si Si2 0.381304 0.909956 0.500000
Si Si3 0.202145 0.365886 0.500000
Si Si4 0.793891 0.984498 0.000000
Si Si5 0.792556 0.396931 0.500000
Si Si6 0.793615 0.247396 0.500000
Si Si7 0.793665 0.515492 0.000000
Si Si8 0.382130 0.172482 0.000000
O O1 0.184495 0.322138 0.500000
O O2 0.305678 0.264528 0.247821
O O3 0.004329 0.259253 0.500000
O O4 0.500000 0.915867 0.750000
O O5 0.294554 0.868706 0.500000
O O6 0.215792 0.939793 0.500000
O O7 0.306114 0.380456 0.249542
O O8 0.001483 0.383613 0.500000
O O9 0.693407 0.000000 0.250000
O O10 0.000000 0.000000 0.000000
O O11 0.786828 0.440714 0.500000
O O12 0.779336 0.202879 0.500000
O O13 0.693227 0.500000 0.750000
O O14 0.000000 0.500000 0.000000
O O15 0.500000 0.178285 0.250000
#
# Coordination Sequence:
#
# PCOD8202175 Si02
#       8
#     4   4   4   4   4   4   4   4
#     4  10  19  30  47  71  94 121 152 198 255 293
#     4  10  21  37  58  81 105 139 182 218 252 302
#     4  10  16  25  36  53  77 100 136 178 232 284
#     4  10  21  37  55  82 116 145 174 217 267 308
#     4  10  16  22  33  46  65 100 134 178 237 273
#     4  10  18  32  49  70  96 122 157 195 246 297
#     4  10  16  22  28  39  59  87 130 181 231 265
#     4  10  21  37  55  76 102 134 171 208 243 286
#
# _framework density 22.779834000000001
#
# number of rings (size 3 to 8) (size 9 to 14) (size 15 to 20)
#    0.000    2.000    0.000    9.000    0.000    1.500 
#    0.000    5.000    0.000    0.000    0.000    0.000 
#    0.000    0.000    0.000    0.000    0.000    0.000 
#
# Total GULP energy -396475.443183 kJ/mol
# GULP energy per Si atom -12389.857599 kJ/mol
# Density = 2.272799 g / cm^3
# Si number density = 22.779834 Si / 1000 Ang^3
#
#
#
# Elastic Constant Matrix: (Units=GPa)
#
#
# Indices 1 2 3 4 5 6 
#
# 1 27.9622 43.8032 7.5619 0.0000 0.0000 0.0000
# 2 43.8032 275.5926 90.4970 0.0000 0.0000 0.0000
# 3 7.5619 90.4970 283.7343 0.0000 0.0000 0.0000
# 4 0.0000 0.0000 0.0000 244.2764 0.0000 0.0000
# 5 0.0000 0.0000 0.0000 0.0000 -5.6539 0.0000
# 6 0.0000 0.0000 0.0000 0.0000 0.0000 18.6197
#
#
#
# Elastic Compliance Matrix: (Units=1/GPa)
#
#
# Indices 1 2 3 4 5 6 
#
# 1 0.048038 -0.008059 0.001290 0.000000 0.000000 0.000000
# 2 -0.008059 0.005405 -0.001509 0.000000 0.000000 0.000000
# 3 0.001290 -0.001509 0.003971 0.000000 0.000000 0.000000
# 4 0.000000 0.000000 0.000000 0.004094 0.000000 0.000000
# 5 0.000000 0.000000 0.000000 0.000000 -0.176869 0.000000
# 6 0.000000 0.000000 0.000000 0.000000 0.000000 0.053707
#
#
# Mechanical properties :
#
#
# Convention : Reuss Voigt Hill
#
# Bulk Modulus (GPa) = 24.47468 96.77927 60.62697
# Shear Modulus (GPa) = -158.83830 81.14357 -38.84736
#
# Velocity S-wave (km/s) = -8.35936 5.97479 -4.13406
# Velocity P-wave (km/s) = 9.07770 9.49602 1.97101
#
# Compressibility (1/GPa) = 0.04085856
#
# Stress axis : x y z
#
# Youngs Moduli (GPa) = 20.81683 185.01374 251.80147
#
# Poissons Ratio (x) = 1.49101 -0.32485
# Poissons Ratio (y) = 0.16776 0.38000
# Poissons Ratio (z) = -0.02686 0.27921
#
# Static dielectric constant tensor:
#      x y z
#    x 3.647590 0.000000 0.000000 
#    y 0.000000 4.440740 0.000000 
#    z 0.000000 0.000000 4.890830 
# 
# 
# High freq. dielectric constant tensor:
#      x y z
#    x 1.824820 0.000000 0.000000 
#    y 0.000000 1.912080 0.000000 
#    z 0.000000 0.000000 1.952340 
# 
# From -- ./inp_files/192.got.cif
#   From: 2010.03.12/outbox.cif.g09.slc.cpg/sg49_1_cif.got.tgz:192.got - 2010.04.14 03:58:27.
