data_PCOD8202068
_publ_section_title
;
Structure prediction by ZEFSAII (Michael W. Deem and Ramdas Pophale) SiO2 
 PCOD8202068
Probable space group: P N N N
;
_chemical_formula_sum "Si O2"
_cell_formula_units_Z 38
_cell_length_a 7.684523
_cell_length_b 8.232911
_cell_length_c 25.061479
_cell_angle_alpha 90.000000
_cell_angle_beta 90.000000
_cell_angle_gamma 90.000000
_cell_volume 1585.539378
_symmetry_space_group_name_H-M "P N N N"
_symmetry_group_IT_number 48
_space_group.IT_coordinate_system_code '2'
_symmetry_cell_setting 'orthorhombic'
loop_
_space_group_symop_operation_xyz
x,y,z
1/2-x,1/2-y,z
x,1/2-y,1/2-z
1/2-x,y,1/2-z
-x,-y,-z
1/2+x,1/2+y,-z
-x,1/2+y,1/2+z
1/2+x,-y,1/2+z
loop_
_atom_site_type_symbol
_atom_site_label
_atom_site_fract_x
_atom_site_fract_y
_atom_site_fract_z
Si Si1 0.528530 0.698667 0.583766
Si Si2 0.250000 0.250000 0.514000
Si Si3 0.480880 0.300001 0.810071
Si Si4 0.818691 0.994798 0.669001
Si Si5 0.750000 0.750000 0.750000
Si Si6 0.816257 0.997535 0.102727
O O1 0.587588 0.689738 0.522244
O O2 0.690465 0.613234 0.614998
O O3 0.362702 0.591678 0.598458
O O4 0.482106 0.881675 0.602130
O O5 0.166643 0.388733 0.550249
O O6 0.425648 0.250000 0.750000
O O7 0.639005 0.427508 0.810912
O O8 0.538826 0.135444 0.839891
O O9 0.324151 0.386022 0.843162
O O10 0.875812 0.864262 0.714174
#
# Coordination Sequence:
#
# PCOD8202068 Si02
#       6
#     8   4   8   8   2   8
#     4  11  25  44  70 105 138 182 238 298 360 421
#     4  12  23  46  71  99 138 189 234 298 356 438
#     4  11  22  44  68 101 139 191 234 287 352 423
#     4  11  22  39  69 101 135 181 238 281 344 427
#     4  12  18  34  64  98 128 172 224 290 310 406
#     4  11  25  44  70 103 143 182 234 297 366 427
#
# _framework density 23.966608000000001
#
# number of rings (size 3 to 8) (size 9 to 14) (size 15 to 20)
#    0.000    0.842    2.105    6.316    0.000    0.000 
#    0.000   10.000    0.000    0.000    0.000    0.000 
#    0.000    0.000    0.000    0.000    0.000    0.000 
#
# Total GULP energy -470917.887584 kJ/mol
# GULP energy per Si atom -12392.575989 kJ/mol
# Density = 2.391206 g / cm^3
# Si number density = 23.966608 Si / 1000 Ang^3
#
#
#
# Elastic Constant Matrix: (Units=GPa)
#
#
# Indices 1 2 3 4 5 6 
#
# 1 106.7910 52.6433 32.2423 0.0000 0.0000 0.0000
# 2 52.6433 169.0219 90.4602 0.0000 0.0000 0.0000
# 3 32.2423 90.4602 180.9530 0.0000 0.0000 0.0000
# 4 0.0000 0.0000 0.0000 50.0898 0.0000 0.0000
# 5 0.0000 0.0000 0.0000 0.0000 23.1231 0.0000
# 6 0.0000 0.0000 0.0000 0.0000 0.0000 39.1900
#
#
#
# Elastic Compliance Matrix: (Units=1/GPa)
#
#
# Indices 1 2 3 4 5 6 
#
# 1 0.011078 -0.003268 -0.000340 0.000000 0.000000 0.000000
# 2 -0.003268 0.009042 -0.003938 0.000000 0.000000 0.000000
# 3 -0.000340 -0.003938 0.007555 0.000000 0.000000 0.000000
# 4 0.000000 0.000000 0.000000 0.019964 0.000000 0.000000
# 5 0.000000 0.000000 0.000000 0.000000 0.043247 0.000000
# 6 0.000000 0.000000 0.000000 0.000000 0.000000 0.025517
#
#
# Mechanical properties :
#
#
# Convention : Reuss Voigt Hill
#
# Bulk Modulus (GPa) = 79.47257 89.71751 84.59504
# Shear Modulus (GPa) = 36.84893 41.24192 39.04543
#
# Velocity S-wave (km/s) = 3.92537 4.15276 4.04066
# Velocity P-wave (km/s) = 7.33324 7.77879 7.55930
#
# Compressibility (1/GPa) = 0.01258296
#
# Stress axis : x y z
#
# Youngs Moduli (GPa) = 90.26989 110.59720 132.35579
#
# Poissons Ratio (x) = 0.36147 0.04500
# Poissons Ratio (y) = 0.29503 0.52118
# Poissons Ratio (z) = 0.03069 0.43550
#
# Static dielectric constant tensor:
#      x y z
#    x 4.225320 0.000000 0.000000 
#    y 0.000000 4.884580 0.000000 
#    z 0.000000 0.000000 4.261310 
# 
# 
# High freq. dielectric constant tensor:
#      x y z
#    x 1.943070 0.000000 0.000000 
#    y 0.000000 1.985420 0.000000 
#    z 0.000000 0.000000 1.946400 
# 
# From -- ./inp_files/9073.got.cif
#   From: 2010.06.25/outbox.cif.g09.slc.cpg/sg48_5_cif.got.tgz:9073.got - 2010.06.26 18:06:46.
