data_PCOD8202831
_publ_section_title
;
Structure prediction by ZEFSAII (Michael W. Deem and Ramdas Pophale) SiO2 
 PCOD8202831
Probable space group: P C C M
;
_chemical_formula_sum "Si O2"
_cell_formula_units_Z 64
_cell_length_a 23.571780
_cell_length_b 19.089393
_cell_length_c 8.734589
_cell_angle_alpha 90.000000
_cell_angle_beta 90.000000
_cell_angle_gamma 90.000000
_cell_volume 3930.311503
_symmetry_space_group_name_H-M "P C C M"
_symmetry_group_IT_number 49
_symmetry_cell_setting 'orthorhombic'
loop_
_space_group_symop_operation_xyz
x,y,z
-x,-y,z
x,-y,1/2-z
-x,y,1/2-z
-x,-y,-z
x,y,-z
-x,y,1/2+z
x,-y,1/2+z
loop_
_atom_site_type_symbol
_atom_site_label
_atom_site_fract_x
_atom_site_fract_y
_atom_site_fract_z
Si Si1 0.273579 0.280814 0.321618
Si Si2 0.158983 0.799239 0.819747
Si Si3 0.331569 0.157518 0.179952
Si Si4 0.220494 0.923641 0.682137
Si Si5 0.940429 0.288570 0.318258
Si Si6 0.238651 0.570885 0.819803
Si Si7 0.108595 0.572382 0.818201
Si Si8 0.558832 0.075976 0.682363
O O1 0.285490 0.275976 0.500000
O O2 0.212005 0.250419 0.280953
O O3 0.322950 0.236516 0.240119
O O4 0.274825 0.361586 0.264552
O O5 0.170543 0.876322 0.752655
O O6 0.105032 0.768444 0.734303
O O7 0.147197 0.802965 0.000000
O O8 0.281057 0.107102 0.238227
O O9 0.391490 0.127744 0.238742
O O10 0.330994 0.160366 0.000000
O O11 0.215668 0.925235 0.500000
O O12 0.213203 0.000000 0.750000
O O13 0.942903 0.291875 0.500000
O O14 0.927039 0.365041 0.252848
O O15 0.000000 0.263307 0.250000
O O16 0.265225 0.500000 0.750000
O O17 0.173879 0.580948 0.765924
O O18 0.241009 0.564291 0.000000
O O19 0.084217 0.500000 0.750000
O O20 0.101968 0.573581 0.000000
O O21 0.500000 0.105573 0.750000
O O22 0.555045 0.070596 0.500000
O O23 0.572177 0.000000 0.750000
#
# Coordination Sequence:
#
# PCOD8202831 Si02
#       8
#     8   8   8   8   8   8   8   8
#     4   9  17  30  48  69  95 125 157 194 238 283
#     4  10  19  35  53  71  96 123 152 194 238 285
#     4   9  19  31  45  69  99 128 164 204 238 278
#     4  10  19  32  50  75 100 126 157 193 238 286
#     4  12  24  37  53  72  93 123 158 196 238 285
#     4   9  17  29  45  68  95 125 157 190 230 281
#     4  10  19  34  51  71  97 124 158 196 235 281
#     4  10  19  31  46  66  95 132 172 207 239 278
#
# _framework density 16.283697
#
# number of rings (size 3 to 8) (size 9 to 14) (size 15 to 20)
#    0.000    2.125    1.250    3.375    0.000    3.250 
#    0.000    1.250    0.000    0.375    0.000    2.625 
#    0.000    0.500    0.000    5.500    0.000    4.000 
#
# Total GULP energy -793636.698630 kJ/mol
# GULP energy per Si atom -12400.573416 kJ/mol
# Density = 1.624663 g / cm^3
# Si number density = 16.283697 Si / 1000 Ang^3
#
#
#
# Elastic Constant Matrix: (Units=GPa)
#
#
# Indices 1 2 3 4 5 6 
#
# 1 96.8861 60.4588 36.8759 0.0000 0.0000 0.0000
# 2 60.4588 126.9366 36.2461 0.0000 0.0000 0.0000
# 3 36.8759 36.2461 68.8947 0.0000 0.0000 0.0000
# 4 0.0000 0.0000 0.0000 32.0287 0.0000 0.0000
# 5 0.0000 0.0000 0.0000 0.0000 22.6879 0.0000
# 6 0.0000 0.0000 0.0000 0.0000 0.0000 29.2864
#
#
#
# Elastic Compliance Matrix: (Units=1/GPa)
#
#
# Indices 1 2 3 4 5 6 
#
# 1 0.016255 -0.006187 -0.005445 0.000000 0.000000 0.000000
# 2 -0.006187 0.011626 -0.002805 0.000000 0.000000 0.000000
# 3 -0.005445 -0.002805 0.018905 0.000000 0.000000 0.000000
# 4 0.000000 0.000000 0.000000 0.031222 0.000000 0.000000
# 5 0.000000 0.000000 0.000000 0.000000 0.044076 0.000000
# 6 0.000000 0.000000 0.000000 0.000000 0.000000 0.034146
#
#
# Mechanical properties :
#
#
# Convention : Reuss Voigt Hill
#
# Bulk Modulus (GPa) = 55.83062 62.20879 59.01970
# Shear Modulus (GPa) = 26.16783 27.40971 26.78877
#
# Velocity S-wave (km/s) = 4.01308 4.10721 4.06042
# Velocity P-wave (km/s) = 7.47220 7.79604 7.63584
#
# Compressibility (1/GPa) = 0.01791132
#
# Stress axis : x y z
#
# Youngs Moduli (GPa) = 61.52014 86.01621 52.89582
#
# Poissons Ratio (x) = 0.53220 0.28803
# Poissons Ratio (y) = 0.38064 0.14836
# Poissons Ratio (z) = 0.33499 0.24125
#
# Static dielectric constant tensor:
#      x y z
#    x 3.024270 0.000000 0.000000 
#    y 0.000000 3.239700 0.000000 
#    z 0.000000 0.000000 3.118750 
# 
# 
# High freq. dielectric constant tensor:
#      x y z
#    x 1.594450 0.000000 0.000000 
#    y 0.000000 1.626220 0.000000 
#    z 0.000000 0.000000 1.636920 
# 
# From -- ./inp_files/5979.got.cif
#   From: 2010.03.12/outbox.cif.g09.slc.cpg/sg49_3_cif.got.tgz:5979.got - 2010.04.14 03:58:27.
