data_PCOD8202467
_publ_section_title
;
Structure prediction by ZEFSAII (Michael W. Deem and Ramdas Pophale) SiO2 
 PCOD8202467
Probable space group: P C C M
;
_chemical_formula_sum "Si O2"
_cell_formula_units_Z 56
_cell_length_a 13.577923
_cell_length_b 29.787154
_cell_length_c 8.768032
_cell_angle_alpha 90.000000
_cell_angle_beta 90.000000
_cell_angle_gamma 90.000000
_cell_volume 3546.210230
_symmetry_space_group_name_H-M "P C C M"
_symmetry_group_IT_number 49
_symmetry_cell_setting 'orthorhombic'
loop_
_space_group_symop_operation_xyz
x,y,z
-x,-y,z
x,-y,1/2-z
-x,y,1/2-z
-x,-y,-z
x,y,-z
-x,y,1/2+z
x,-y,1/2+z
loop_
_atom_site_type_symbol
_atom_site_label
_atom_site_fract_x
_atom_site_fract_y
_atom_site_fract_z
Si Si1 0.200270 0.547725 0.681215
Si Si2 0.604860 0.139063 0.176399
Si Si3 0.397550 0.594276 0.322790
Si Si4 0.391492 0.956606 0.820654
Si Si5 0.896824 0.632938 0.681377
Si Si6 0.716529 0.318616 0.319714
Si Si7 0.391396 0.236676 0.319848
O O1 0.171595 0.500000 0.750000
O O2 0.187317 0.547992 0.500000
O O3 0.312073 0.560024 0.729424
O O4 0.126620 0.583885 0.752021
O O5 0.500000 0.140361 0.250000
O O6 0.660371 0.091943 0.221645
O O7 0.656222 0.186930 0.214264
O O8 0.582717 0.136670 0.000000
O O9 0.500000 0.579792 0.250000
O O10 0.414036 0.590975 0.500000
O O11 0.366701 0.644763 0.275762
O O12 0.500000 0.955440 0.750000
O O13 0.334054 0.000000 0.750000
O O14 0.397465 0.963823 0.000000
O O15 0.900987 0.630777 0.500000
O O16 0.817002 0.669394 0.734186
O O17 0.000000 0.649257 0.750000
O O18 0.736101 0.318650 0.500000
O O19 0.681929 0.270432 0.262740
O O20 0.500000 0.241504 0.250000
O O21 0.397118 0.246763 0.500000
#
# Coordination Sequence:
#
# PCOD8202467 Si02
#       7
#     8   8   8   8   8   8   8
#     4  10  21  37  53  74  99 123 151 183 215 253
#     4   8  15  24  33  47  71 101 137 178 220 261
#     4   9  19  32  47  66  92 121 150 180 211 247
#     4   9  14  20  29  42  61  90 129 176 221 260
#     4  11  22  38  58  77  95 117 142 175 216 260
#     4  10  20  34  49  69  93 117 147 183 218 260
#     4  10  18  28  42  62  87 118 151 185 224 266
#
# _framework density 15.791506
#
# number of rings (size 3 to 8) (size 9 to 14) (size 15 to 20)
#    0.000    2.429    0.000    4.714    0.000    6.286 
#    0.000    2.857    0.000    0.000    0.000    0.000 
#    0.000    0.000    0.000    0.000    0.000    0.714 
#
# Total GULP energy -693802.241749 kJ/mol
# GULP energy per Si atom -12389.325746 kJ/mol
# Density = 1.575556 g / cm^3
# Si number density = 15.791506 Si / 1000 Ang^3
#
#
#
# Elastic Constant Matrix: (Units=GPa)
#
#
# Indices 1 2 3 4 5 6 
#
# 1 57.3890 22.7383 23.8037 0.0000 0.0000 0.0000
# 2 22.7383 129.3338 38.8301 0.0000 0.0000 0.0000
# 3 23.8037 38.8301 77.9706 0.0000 0.0000 0.0000
# 4 0.0000 0.0000 0.0000 23.8466 0.0000 0.0000
# 5 0.0000 0.0000 0.0000 0.0000 21.6808 0.0000
# 6 0.0000 0.0000 0.0000 0.0000 0.0000 -0.9750
#
#
#
# Elastic Compliance Matrix: (Units=1/GPa)
#
#
# Indices 1 2 3 4 5 6 
#
# 1 0.020389 -0.002017 -0.005220 0.000000 0.000000 0.000000
# 2 -0.002017 0.009291 -0.004011 0.000000 0.000000 0.000000
# 3 -0.005220 -0.004011 0.016416 0.000000 0.000000 0.000000
# 4 0.000000 0.000000 0.000000 0.041935 0.000000 0.000000
# 5 0.000000 0.000000 0.000000 0.000000 0.046124 0.000000
# 6 0.000000 0.000000 0.000000 0.000000 0.000000 -1.025680
#
#
# Mechanical properties :
#
#
# Convention : Reuss Voigt Hill
#
# Bulk Modulus (GPa) = 42.37322 48.38196 45.37759
# Shear Modulus (GPa) = -5.80612 20.86525 7.52957
#
# Velocity S-wave (km/s) = -1.91956 3.63891 2.18597
# Velocity P-wave (km/s) = 4.68809 6.95414 5.93035
#
# Compressibility (1/GPa) = 0.02359981
#
# Stress axis : x y z
#
# Youngs Moduli (GPa) = 49.04506 107.63267 60.91444
#
# Poissons Ratio (x) = 0.21715 0.31797
# Poissons Ratio (y) = 0.09895 0.24433
# Poissons Ratio (z) = 0.25601 0.43172
#
# Static dielectric constant tensor:
#      x y z
#    x 2.829410 0.000000 0.000000 
#    y 0.000000 3.753270 0.000000 
#    z 0.000000 0.000000 3.062810 
# 
# 
# High freq. dielectric constant tensor:
#      x y z
#    x 1.547960 0.000000 0.000000 
#    y 0.000000 1.620350 0.000000 
#    z 0.000000 0.000000 1.623580 
# 
# From -- ./inp_files/4486.got.cif
#   From: 2010.03.12/outbox.cif.g09.slc.cpg/sg49_3_cif.got.tgz:4486.got - 2010.04.14 03:58:27.
