data_PCOD8202775
_publ_section_title
;
Structure prediction by ZEFSAII (Michael W. Deem and Ramdas Pophale) SiO2 
 PCOD8202775
Probable space group: P C C M
;
_chemical_formula_sum "Si O2"
_cell_formula_units_Z 64
_cell_length_a 19.559000
_cell_length_b 19.350419
_cell_length_c 8.907664
_cell_angle_alpha 90.000000
_cell_angle_beta 90.000000
_cell_angle_gamma 90.000000
_cell_volume 3371.326754
_symmetry_space_group_name_H-M "P C C M"
_symmetry_group_IT_number 49
_symmetry_cell_setting 'orthorhombic'
loop_
_space_group_symop_operation_xyz
x,y,z
-x,-y,z
x,-y,1/2-z
-x,y,1/2-z
-x,-y,-z
x,y,-z
-x,y,1/2+z
x,-y,1/2+z
loop_
_atom_site_type_symbol
_atom_site_label
_atom_site_fract_x
_atom_site_fract_y
_atom_site_fract_z
Si Si1 0.333131 0.067771 0.331517
Si Si2 0.073658 0.668248 0.179983
Si Si3 0.171705 0.929781 0.827953
Si Si4 0.181947 0.427828 0.175513
Si Si5 0.285021 0.693177 0.673100
Si Si6 0.563259 0.144999 0.336950
Si Si7 0.435023 0.694726 0.664439
Si Si8 0.838328 0.785525 0.820074
O O1 0.359434 0.066392 0.500000
O O2 0.252567 0.071553 0.320898
O O3 0.365529 0.134046 0.250313
O O4 0.361665 0.000000 0.250000
O O5 0.118380 0.603533 0.234436
O O6 0.103073 0.739462 0.245525
O O7 0.000000 0.656415 0.250000
O O8 0.071150 0.671098 0.000000
O O9 0.147020 0.863122 0.735540
O O10 0.143614 0.000000 0.750000
O O11 0.145478 0.926979 0.000000
O O12 0.201649 0.500000 0.250000
O O13 0.247794 0.379494 0.196451
O O14 0.163041 0.435484 0.000000
O O15 0.298808 0.710549 0.500000
O O16 0.360713 0.687487 0.749004
O O17 0.235765 0.755213 0.734409
O O18 0.500000 0.109624 0.250000
O O19 0.569062 0.110168 0.500000
O O20 0.548944 0.225250 0.353876
O O21 0.500000 0.660226 0.750000
O O22 0.432006 0.659215 0.500000
O O23 0.844399 0.781253 0.000000
#
# Coordination Sequence:
#
# PCOD8202775 Si02
#       8
#     8   8   8   8   8   8   8   8
#     4  10  20  32  45  62  86 116 156 203 255 313
#     4  11  22  38  59  86 118 151 185 220 259 309
#     4  10  20  33  50  74 102 134 172 220 272 323
#     4  10  20  36  57  84 115 149 185 222 264 313
#     4   8  16  31  52  75 103 138 176 217 268 323
#     4  10  19  30  44  61  84 114 152 198 255 318
#     4   9  17  30  47  69  95 126 163 210 263 316
#     4  10  19  34  56  81 108 142 182 226 273 323
#
# _framework density 18.983625
#
# number of rings (size 3 to 8) (size 9 to 14) (size 15 to 20)
#    0.000    2.250    0.000    4.500    0.000    3.500 
#    0.000    6.250    0.000    0.750    0.000    5.250 
#    0.000    0.000    0.000    0.000    0.000    0.000 
#
# Total GULP energy -793238.376785 kJ/mol
# GULP energy per Si atom -12394.349637 kJ/mol
# Density = 1.894042 g / cm^3
# Si number density = 18.983625 Si / 1000 Ang^3
#
#
#
# Elastic Constant Matrix: (Units=GPa)
#
#
# Indices 1 2 3 4 5 6 
#
# 1 73.4003 2.2256 19.4840 0.0000 0.0000 0.0000
# 2 2.2256 77.5215 22.6413 0.0000 0.0000 0.0000
# 3 19.4840 22.6413 118.8045 0.0000 0.0000 0.0000
# 4 0.0000 0.0000 0.0000 28.6534 0.0000 0.0000
# 5 0.0000 0.0000 0.0000 0.0000 27.3665 0.0000
# 6 0.0000 0.0000 0.0000 0.0000 0.0000 13.2804
#
#
#
# Elastic Compliance Matrix: (Units=1/GPa)
#
#
# Indices 1 2 3 4 5 6 
#
# 1 0.014250 0.000290 -0.002392 0.000000 0.000000 0.000000
# 2 0.000290 0.013666 -0.002652 0.000000 0.000000 0.000000
# 3 -0.002392 -0.002652 0.009315 0.000000 0.000000 0.000000
# 4 0.000000 0.000000 0.000000 0.034900 0.000000 0.000000
# 5 0.000000 0.000000 0.000000 0.000000 0.036541 0.000000
# 6 0.000000 0.000000 0.000000 0.000000 0.000000 0.075299
#
#
# Mechanical properties :
#
#
# Convention : Reuss Voigt Hill
#
# Bulk Modulus (GPa) = 36.07263 39.82537 37.94900
# Shear Modulus (GPa) = 24.66450 28.88508 26.77479
#
# Velocity S-wave (km/s) = 3.60842 3.90497 3.75962
# Velocity P-wave (km/s) = 6.03359 6.43087 6.23539
#
# Compressibility (1/GPa) = 0.02772185
#
# Stress axis : x y z
#
# Youngs Moduli (GPa) = 70.17468 73.17505 107.35490
#
# Poissons Ratio (x) = -0.02119 0.25682
# Poissons Ratio (y) = -0.02032 0.28469
# Poissons Ratio (z) = 0.16787 0.19405
#
# Static dielectric constant tensor:
#      x y z
#    x 3.438420 0.000000 0.000000 
#    y 0.000000 3.320960 0.000000 
#    z 0.000000 0.000000 3.711490 
# 
# 
# High freq. dielectric constant tensor:
#      x y z
#    x 1.727660 0.000000 0.000000 
#    y 0.000000 1.716500 0.000000 
#    z 0.000000 0.000000 1.740320 
# 
# From -- ./inp_files/5991.got.cif
#   From: 2010.03.12/outbox.cif.g09.slc.cpg/sg49_3_cif.got.tgz:5991.got - 2010.04.14 03:58:27.
