data_PCOD8202648
_publ_section_title
;
Structure prediction by ZEFSAII (Michael W. Deem and Ramdas Pophale) SiO2 
 PCOD8202648
Probable space group: P C C M
;
_chemical_formula_sum "Si O2"
_cell_formula_units_Z 64
_cell_length_a 15.198231
_cell_length_b 24.563436
_cell_length_c 8.765052
_cell_angle_alpha 90.000000
_cell_angle_beta 90.000000
_cell_angle_gamma 90.000000
_cell_volume 3272.176001
_symmetry_space_group_name_H-M "P C C M"
_symmetry_group_IT_number 49
_symmetry_cell_setting 'orthorhombic'
loop_
_space_group_symop_operation_xyz
x,y,z
-x,-y,z
x,-y,1/2-z
-x,y,1/2-z
-x,-y,-z
x,y,-z
-x,y,1/2+z
x,-y,1/2+z
loop_
_atom_site_type_symbol
_atom_site_label
_atom_site_fract_x
_atom_site_fract_y
_atom_site_fract_z
Si Si1 0.591762 0.360970 0.178986
Si Si2 0.125564 0.713471 0.826152
Si Si3 0.086368 0.826732 0.320334
Si Si4 0.087374 0.399276 0.179230
Si Si5 0.679411 0.252346 0.828670
Si Si6 0.719094 0.143161 0.677234
Si Si7 0.591501 0.941399 0.319460
Si Si8 0.272643 0.443200 0.819354
O O1 0.500000 0.379648 0.250000
O O2 0.604676 0.296450 0.211995
O O3 0.667661 0.394760 0.259314
O O4 0.593375 0.373365 0.000000
O O5 0.085937 0.767498 0.753558
O O6 0.090673 0.663144 0.730524
O O7 0.230490 0.714415 0.816535
O O8 0.093029 0.708310 0.000000
O O9 0.076872 0.821834 0.500000
O O10 0.177187 0.857877 0.278561
O O11 0.000000 0.857483 0.250000
O O12 0.172980 0.431894 0.236526
O O13 0.000000 0.426986 0.250000
O O14 0.080273 0.401434 0.000000
O O15 0.676740 0.202147 0.711796
O O16 0.666985 0.228985 0.000000
O O17 0.704599 0.130248 0.500000
O O18 0.671567 0.098054 0.778342
O O19 0.500000 0.918657 0.250000
O O20 0.581746 0.946172 0.500000
O O21 0.613350 0.000000 0.250000
O O22 0.305439 0.500000 0.750000
O O23 0.279841 0.445459 0.000000
#
# Coordination Sequence:
#
# PCOD8202648 Si02
#       8
#     8   8   8   8   8   8   8   8
#     4  11  23  41  64  90 118 149 188 233 287 347
#     4  10  18  32  54  79 111 150 191 233 280 336
#     4  10  20  33  51  79 117 159 200 243 288 339
#     4  11  23  37  57  84 113 146 185 229 282 342
#     4   9  19  35  56  83 117 156 191 232 285 341
#     4  10  21  36  57  87 122 160 201 245 292 345
#     4  11  22  39  63  89 120 156 199 248 298 350
#     4  11  25  44  65  86 111 145 186 236 288 343
#
# _framework density 19.558852000000002
#
# number of rings (size 3 to 8) (size 9 to 14) (size 15 to 20)
#    0.000    1.625    1.250    4.125    0.000    5.500 
#    0.000    3.750    0.000    0.375    0.000    2.625 
#    0.000    0.000    0.000    0.000    0.000    0.000 
#
# Total GULP energy -793722.074490 kJ/mol
# GULP energy per Si atom -12401.907414 kJ/mol
# Density = 1.951433 g / cm^3
# Si number density = 19.558852 Si / 1000 Ang^3
#
#
#
# Elastic Constant Matrix: (Units=GPa)
#
#
# Indices 1 2 3 4 5 6 
#
# 1 113.2581 41.6378 58.3185 0.0000 0.0000 0.0000
# 2 41.6378 62.7601 29.0836 0.0000 0.0000 0.0000
# 3 58.3185 29.0836 94.1962 0.0000 0.0000 0.0000
# 4 0.0000 0.0000 0.0000 28.3628 0.0000 0.0000
# 5 0.0000 0.0000 0.0000 0.0000 31.9017 0.0000
# 6 0.0000 0.0000 0.0000 0.0000 0.0000 13.3354
#
#
#
# Elastic Compliance Matrix: (Units=1/GPa)
#
#
# Indices 1 2 3 4 5 6 
#
# 1 0.014977 -0.006581 -0.007241 0.000000 0.000000 0.000000
# 2 -0.006581 0.021486 -0.002559 0.000000 0.000000 0.000000
# 3 -0.007241 -0.002559 0.015889 0.000000 0.000000 0.000000
# 4 0.000000 0.000000 0.000000 0.035257 0.000000 0.000000
# 5 0.000000 0.000000 0.000000 0.000000 0.031346 0.000000
# 6 0.000000 0.000000 0.000000 0.000000 0.000000 0.074988
#
#
# Mechanical properties :
#
#
# Convention : Reuss Voigt Hill
#
# Bulk Modulus (GPa) = 51.04673 58.69937 54.87305
# Shear Modulus (GPa) = 21.43744 24.13161 22.78452
#
# Velocity S-wave (km/s) = 3.31425 3.51635 3.41680
# Velocity P-wave (km/s) = 6.38760 6.82372 6.60926
#
# Compressibility (1/GPa) = 0.01958989
#
# Stress axis : x y z
#
# Youngs Moduli (GPa) = 66.76811 46.54202 62.93579
#
# Poissons Ratio (x) = 0.30630 0.45570
# Poissons Ratio (y) = 0.43941 0.16108
# Poissons Ratio (z) = 0.48345 0.11912
#
# Static dielectric constant tensor:
#      x y z
#    x 3.822360 0.000000 0.000000 
#    y 0.000000 3.294630 0.000000 
#    z 0.000000 0.000000 3.626210 
# 
# 
# High freq. dielectric constant tensor:
#      x y z
#    x 1.773350 0.000000 0.000000 
#    y 0.000000 1.735590 0.000000 
#    z 0.000000 0.000000 1.774890 
# 
# From -- ./inp_files/4358.got.cif
#   From: 2010.03.12/outbox.cif.g09.slc.cpg/sg49_3_cif.got.tgz:4358.got - 2010.04.14 03:58:27.
