data_PCOD8202789
_publ_section_title
;
Structure prediction by ZEFSAII (Michael W. Deem and Ramdas Pophale) SiO2 
 PCOD8202789
Probable space group: P C C M
;
_chemical_formula_sum "Si O2"
_cell_formula_units_Z 56
_cell_length_a 21.146914
_cell_length_b 18.364386
_cell_length_c 8.703720
_cell_angle_alpha 90.000000
_cell_angle_beta 90.000000
_cell_angle_gamma 90.000000
_cell_volume 3380.090458
_symmetry_space_group_name_H-M "P C C M"
_symmetry_group_IT_number 49
_symmetry_cell_setting 'orthorhombic'
loop_
_space_group_symop_operation_xyz
x,y,z
-x,-y,z
x,-y,1/2-z
-x,y,1/2-z
-x,-y,-z
x,y,-z
-x,y,1/2+z
x,-y,1/2+z
loop_
_atom_site_type_symbol
_atom_site_label
_atom_site_fract_x
_atom_site_fract_y
_atom_site_fract_z
Si Si1 0.567992 0.077303 0.182949
Si Si2 0.125681 0.787920 0.830792
Si Si3 0.257883 0.293674 0.327790
Si Si4 0.065262 0.660461 0.678515
Si Si5 0.190188 0.420876 0.817734
Si Si6 0.201082 0.922139 0.182497
Si Si7 0.318898 0.161154 0.818028
O O1 0.500000 0.098534 0.250000
O O2 0.616275 0.138958 0.236521
O O3 0.590867 0.000000 0.250000
O O4 0.564787 0.072562 0.000000
O O5 0.192493 0.748463 0.835291
O O6 0.078182 0.745523 0.717997
O O7 0.140726 0.870444 0.777320
O O8 0.094490 0.786913 0.000000
O O9 0.284183 0.306673 0.500000
O O10 0.247337 0.370752 0.243699
O O11 0.306451 0.244703 0.230553
O O12 0.058465 0.651955 0.500000
O O13 0.122594 0.610472 0.740764
O O14 0.000000 0.632359 0.750000
O O15 0.200276 0.500000 0.750000
O O16 0.192800 0.422699 0.000000
O O17 0.264181 0.893199 0.262720
O O18 0.183203 0.000000 0.250000
O O19 0.212826 0.924543 0.000000
O O20 0.325329 0.155683 0.000000
#
# Coordination Sequence:
#
# PCOD8202789 Si02
#       7
#     8   8   8   8   8   8   8
#     4  11  21  34  48  66  94 130 169 206 244 283
#     4   8  16  30  46  63  86 113 144 182 228 274
#     4   9  17  31  49  69  92 120 152 190 231 275
#     4  10  20  32  48  67  88 116 152 186 222 268
#     4  10  20  33  49  71  97 126 153 184 226 275
#     4  10  19  30  45  67  91 117 148 189 236 280
#     4  11  20  31  47  68  94 125 160 197 233 276
#
# _framework density 16.567603999999999
#
# number of rings (size 3 to 8) (size 9 to 14) (size 15 to 20)
#    0.000    2.143    0.000    6.000    0.000    6.000 
#    0.000    1.429    0.000    0.429    0.000    3.000 
#    0.000    0.571    0.000    5.714    0.000    3.429 
#
# Total GULP energy -694324.267676 kJ/mol
# GULP energy per Si atom -12398.647637 kJ/mol
# Density = 1.652990 g / cm^3
# Si number density = 16.567604 Si / 1000 Ang^3
#
#
#
# Elastic Constant Matrix: (Units=GPa)
#
#
# Indices 1 2 3 4 5 6 
#
# 1 50.9796 38.8834 26.6744 0.0000 0.0000 0.0000
# 2 38.8834 125.4944 40.3784 0.0000 0.0000 0.0000
# 3 26.6744 40.3784 105.2367 0.0000 0.0000 0.0000
# 4 0.0000 0.0000 0.0000 28.7151 0.0000 0.0000
# 5 0.0000 0.0000 0.0000 0.0000 25.2964 0.0000
# 6 0.0000 0.0000 0.0000 0.0000 0.0000 20.9058
#
#
#
# Elastic Compliance Matrix: (Units=1/GPa)
#
#
# Indices 1 2 3 4 5 6 
#
# 1 0.027206 -0.007085 -0.004177 0.000000 0.000000 0.000000
# 2 -0.007085 0.010936 -0.002400 0.000000 0.000000 0.000000
# 3 -0.004177 -0.002400 0.011482 0.000000 0.000000 0.000000
# 4 0.000000 0.000000 0.000000 0.034825 0.000000 0.000000
# 5 0.000000 0.000000 0.000000 0.000000 0.039531 0.000000
# 6 0.000000 0.000000 0.000000 0.000000 0.000000 0.047834
#
#
# Mechanical properties :
#
#
# Convention : Reuss Voigt Hill
#
# Bulk Modulus (GPa) = 44.84650 54.84255 49.84453
# Shear Modulus (GPa) = 24.20465 26.70175 25.45320
#
# Velocity S-wave (km/s) = 3.82640 4.01893 3.92385
# Velocity P-wave (km/s) = 6.83003 7.39662 7.11896
#
# Compressibility (1/GPa) = 0.02229829
#
# Stress axis : x y z
#
# Youngs Moduli (GPa) = 36.75716 91.44042 87.09203
#
# Poissons Ratio (x) = 0.64789 0.36380
# Poissons Ratio (y) = 0.26044 0.20903
# Poissons Ratio (z) = 0.15354 0.21947
#
# Static dielectric constant tensor:
#      x y z
#    x 2.966970 0.000000 0.000000 
#    y 0.000000 3.370070 0.000000 
#    z 0.000000 0.000000 3.276400 
# 
# 
# High freq. dielectric constant tensor:
#      x y z
#    x 1.602350 0.000000 0.000000 
#    y 0.000000 1.629310 0.000000 
#    z 0.000000 0.000000 1.656420 
# 
# From -- ./inp_files/5204.got.cif
#   From: 2010.03.12/outbox.cif.g09.slc.cpg/sg49_3_cif.got.tgz:5204.got - 2010.04.14 03:58:27.
