data_PCOD8202822
_publ_section_title
;
Structure prediction by ZEFSAII (Michael W. Deem and Ramdas Pophale) SiO2 
 PCOD8202822
Probable space group: P C C M
;
_chemical_formula_sum "Si O2"
_cell_formula_units_Z 40
_cell_length_a 15.515526
_cell_length_b 15.416823
_cell_length_c 8.894185
_cell_angle_alpha 90.000000
_cell_angle_beta 90.000000
_cell_angle_gamma 90.000000
_cell_volume 2127.490102
_symmetry_space_group_name_H-M "P C C M"
_symmetry_group_IT_number 49
_symmetry_cell_setting 'orthorhombic'
loop_
_space_group_symop_operation_xyz
x,y,z
-x,-y,z
x,-y,1/2-z
-x,y,1/2-z
-x,-y,-z
x,y,-z
-x,y,1/2+z
x,-y,1/2+z
loop_
_atom_site_type_symbol
_atom_site_label
_atom_site_fract_x
_atom_site_fract_y
_atom_site_fract_z
Si Si1 0.089774 0.409217 0.178134
Si Si2 0.239700 0.277852 0.823272
Si Si3 0.418029 0.101249 0.333087
Si Si4 0.584016 0.304006 0.834039
Si Si5 0.243257 0.084031 0.824656
O O1 0.119080 0.500000 0.250000
O O2 0.160264 0.338078 0.221515
O O3 0.000000 0.378154 0.250000
O O4 0.079167 0.420058 0.000000
O O5 0.325768 0.319210 0.751776
O O6 0.214750 0.180128 0.766110
O O7 0.257016 0.274427 0.000000
O O8 0.500000 0.060400 0.250000
O O9 0.402988 0.061219 0.500000
O O10 0.430709 0.202802 0.351229
O O11 0.342760 0.076302 0.218778
O O12 0.500000 0.344711 0.750000
O O13 0.590268 0.346774 0.000000
O O14 0.194534 0.000000 0.750000
O O15 0.227570 0.075943 0.000000
#
# Coordination Sequence:
#
# PCOD8202822 Si02
#       5
#     8   8   8   8   8
#     4  10  20  36  59  87 113 135 160 200 254 312
#     4   9  19  34  52  74 104 139 173 210 257 306
#     4   9  16  26  39  58  85 121 165 213 259 300
#     4   9  16  26  44  69  99 135 176 216 255 299
#     4  10  19  31  45  64  92 128 169 211 250 293
#
# _framework density 18.801497999999999
#
# number of rings (size 3 to 8) (size 9 to 14) (size 15 to 20)
#    0.000    2.600    0.000    3.000    0.000    7.600 
#    0.000    2.000    0.000    1.200    0.000    8.400 
#    0.000    0.000    0.000    0.000    0.000    0.000 
#
# Total GULP energy -495594.176885 kJ/mol
# GULP energy per Si atom -12389.854422 kJ/mol
# Density = 1.875870 g / cm^3
# Si number density = 18.801498 Si / 1000 Ang^3
#
#
#
# Elastic Constant Matrix: (Units=GPa)
#
#
# Indices 1 2 3 4 5 6 
#
# 1 108.8033 72.7728 48.2840 0.0000 0.0000 0.0000
# 2 72.7728 93.3705 36.2151 0.0000 0.0000 0.0000
# 3 48.2840 36.2151 86.0371 0.0000 0.0000 0.0000
# 4 0.0000 0.0000 0.0000 17.9274 0.0000 0.0000
# 5 0.0000 0.0000 0.0000 0.0000 23.2028 0.0000
# 6 0.0000 0.0000 0.0000 0.0000 0.0000 -101.0282
#
#
#
# Elastic Compliance Matrix: (Units=1/GPa)
#
#
# Indices 1 2 3 4 5 6 
#
# 1 0.021507 -0.014439 -0.005992 0.000000 0.000000 0.000000
# 2 -0.014439 0.022493 -0.001365 0.000000 0.000000 0.000000
# 3 -0.005992 -0.001365 0.015560 0.000000 0.000000 0.000000
# 4 0.000000 0.000000 0.000000 0.055781 0.000000 0.000000
# 5 0.000000 0.000000 0.000000 0.000000 0.043098 0.000000
# 6 0.000000 0.000000 0.000000 0.000000 0.000000 -0.009898
#
#
# Mechanical properties :
#
#
# Convention : Reuss Voigt Hill
#
# Bulk Modulus (GPa) = 62.62176 66.97273 64.79724
# Shear Modulus (GPa) = 25.32215 -3.25034 11.03590
#
# Velocity S-wave (km/s) = 3.67388 -1.31625 2.42537
# Velocity P-wave (km/s) = 7.16768 5.77826 6.51014
#
# Compressibility (1/GPa) = 0.01596889
#
# Stress axis : x y z
#
# Youngs Moduli (GPa) = 46.49573 44.45873 64.26602
#
# Poissons Ratio (x) = 0.64192 0.38511
# Poissons Ratio (y) = 0.67133 0.08771
# Poissons Ratio (z) = 0.27862 0.06068
#
# Static dielectric constant tensor:
#      x y z
#    x 3.191830 0.000000 0.000000 
#    y 0.000000 3.624620 0.000000 
#    z 0.000000 0.000000 3.661770 
# 
# 
# High freq. dielectric constant tensor:
#      x y z
#    x 1.694260 0.000000 0.000000 
#    y 0.000000 1.720230 0.000000 
#    z 0.000000 0.000000 1.742770 
# 
# From -- ./inp_files/2678.got.cif
#   From: 2010.03.12/outbox.cif.g09.slc.cpg/sg49_2_cif.got.tgz:2678.got - 2010.04.14 03:58:27.
