data_PCOD8202663
_publ_section_title
;
Structure prediction by ZEFSAII (Michael W. Deem and Ramdas Pophale) SiO2 
 PCOD8202663
Probable space group: P C C M
;
_chemical_formula_sum "Si O2"
_cell_formula_units_Z 64
_cell_length_a 15.632431
_cell_length_b 15.431799
_cell_length_c 15.382864
_cell_angle_alpha 90.000000
_cell_angle_beta 90.000000
_cell_angle_gamma 90.000000
_cell_volume 3710.908780
_symmetry_space_group_name_H-M "P C C M"
_symmetry_group_IT_number 49
_symmetry_cell_setting 'orthorhombic'
loop_
_space_group_symop_operation_xyz
x,y,z
-x,-y,z
x,-y,1/2-z
-x,y,1/2-z
-x,-y,-z
x,y,-z
-x,y,1/2+z
x,-y,1/2+z
loop_
_atom_site_type_symbol
_atom_site_label
_atom_site_fract_x
_atom_site_fract_y
_atom_site_fract_z
Si Si1 0.530101 0.354224 0.098298
Si Si2 0.333704 0.477746 0.348094
Si Si3 0.600393 0.099343 0.745008
Si Si4 0.799371 0.664198 0.403219
Si Si5 0.664334 0.202049 0.095862
Si Si6 0.099684 0.601117 0.747131
Si Si7 0.230432 0.635907 0.596196
Si Si8 0.624136 0.761612 0.898926
O O1 0.567536 0.443310 0.142609
O O2 0.599365 0.280090 0.107771
O O3 0.442849 0.311956 0.138754
O O4 0.511086 0.380883 0.000000
O O5 0.311521 0.500000 0.250000
O O6 0.275935 0.402389 0.385394
O O7 0.306018 0.563834 0.399302
O O8 0.500000 0.109819 0.750000
O O9 0.648681 0.134146 0.829228
O O10 0.625523 0.149932 0.656803
O O11 0.628862 0.000000 0.750000
O O12 0.836802 0.648372 0.500000
O O13 0.760542 0.760699 0.395929
O O14 0.872660 0.651283 0.333333
O O15 0.651871 0.159424 0.000000
O O16 0.119591 0.500000 0.750000
O O17 0.151317 0.633776 0.662874
O O18 0.000000 0.621253 0.750000
O O19 0.189541 0.631020 0.500000
O O20 0.279813 0.726125 0.610080
O O21 0.600554 0.782806 0.000000
#
# Coordination Sequence:
#
# PCOD8202663 Si02
#       8
#     8   8   8   8   8   8   8   8
#     4   9  18  33  49  69  97 136 178 216 253 292
#     4  11  19  30  48  71 100 135 175 221 255 287
#     4  11  22  33  51  75 102 136 175 215 256 307
#     4  10  18  33  55  73  95 132 173 215 255 294
#     4   9  18  33  54  73  96 131 172 216 254 291
#     4  11  22  35  50  73 103 134 173 216 257 308
#     4  11  21  35  53  72 101 139 174 216 260 302
#     4  10  22  37  53  72 103 139 174 217 259 301
#
# _framework density 17.246448999999998
#
# number of rings (size 3 to 8) (size 9 to 14) (size 15 to 20)
#    0.000    1.750    3.750    2.625    1.750    1.500 
#    0.000    5.625    0.000    0.000    0.000    0.000 
#    0.000    8.000    0.000   22.000    0.000    0.000 
#
# Total GULP energy -792890.493859 kJ/mol
# GULP energy per Si atom -12388.913967 kJ/mol
# Density = 1.720720 g / cm^3
# Si number density = 17.246449 Si / 1000 Ang^3
#
#
#
# Elastic Constant Matrix: (Units=GPa)
#
#
# Indices 1 2 3 4 5 6 
#
# 1 78.0420 38.7837 58.5159 0.0000 0.0000 0.0000
# 2 38.7837 70.5845 53.7326 0.0000 0.0000 0.0000
# 3 58.5159 53.7326 140.4546 0.0000 0.0000 0.0000
# 4 0.0000 0.0000 0.0000 21.3040 0.0000 0.0000
# 5 0.0000 0.0000 0.0000 0.0000 26.2205 0.0000
# 6 0.0000 0.0000 0.0000 0.0000 0.0000 17.5401
#
#
#
# Elastic Compliance Matrix: (Units=1/GPa)
#
#
# Indices 1 2 3 4 5 6 
#
# 1 0.020709 -0.006788 -0.006031 0.000000 0.000000 0.000000
# 2 -0.006788 0.022213 -0.005670 0.000000 0.000000 0.000000
# 3 -0.006031 -0.005670 0.011802 0.000000 0.000000 0.000000
# 4 0.000000 0.000000 0.000000 0.046940 0.000000 0.000000
# 5 0.000000 0.000000 0.000000 0.000000 0.038138 0.000000
# 6 0.000000 0.000000 0.000000 0.000000 0.000000 0.057012
#
#
# Mechanical properties :
#
#
# Convention : Reuss Voigt Hill
#
# Bulk Modulus (GPa) = 56.35013 65.68284 61.01649
# Shear Modulus (GPa) = 20.85883 22.21617 21.53750
#
# Velocity S-wave (km/s) = 3.48150 3.59299 3.53768
# Velocity P-wave (km/s) = 6.99325 7.44179 7.22100
#
# Compressibility (1/GPa) = 0.01774619
#
# Stress axis : x y z
#
# Youngs Moduli (GPa) = 48.28854 45.01783 84.73486
#
# Poissons Ratio (x) = 0.30557 0.51103
# Poissons Ratio (y) = 0.32777 0.48046
# Poissons Ratio (z) = 0.29123 0.25526
#
# Static dielectric constant tensor:
#      x y z
#    x 2.981980 0.000000 0.000000 
#    y 0.000000 3.057610 0.000000 
#    z 0.000000 0.000000 3.351450 
# 
# 
# High freq. dielectric constant tensor:
#      x y z
#    x 1.638830 0.000000 0.000000 
#    y 0.000000 1.633830 0.000000 
#    z 0.000000 0.000000 1.681530 
# 
# From -- ./inp_files/14260.got.cif
#   From: 2010.03.12/outbox.cif.g09.slc.cpg/sg49_8_cif.got.tgz:14260.got - 2010.04.14 03:58:27.
