data_PCOD8202512
_publ_section_title
;
Structure prediction by ZEFSAII (Michael W. Deem and Ramdas Pophale) SiO2 
 PCOD8202512
Probable space group: P C C M
;
_chemical_formula_sum "Si O2"
_cell_formula_units_Z 56
_cell_length_a 21.252570
_cell_length_b 18.492140
_cell_length_c 8.747616
_cell_angle_alpha 90.000000
_cell_angle_beta 90.000000
_cell_angle_gamma 90.000000
_cell_volume 3437.861198
_symmetry_space_group_name_H-M "P C C M"
_symmetry_group_IT_number 49
_symmetry_cell_setting 'orthorhombic'
loop_
_space_group_symop_operation_xyz
x,y,z
-x,-y,z
x,-y,1/2-z
-x,y,1/2-z
-x,-y,-z
x,y,-z
-x,y,1/2+z
x,-y,1/2+z
loop_
_atom_site_type_symbol
_atom_site_label
_atom_site_fract_x
_atom_site_fract_y
_atom_site_fract_z
Si Si1 0.932338 0.423906 0.181923
Si Si2 0.298451 0.424702 0.174000
Si Si3 0.643680 0.282674 0.325388
Si Si4 0.435286 0.845929 0.673979
Si Si5 0.307827 0.078397 0.181754
Si Si6 0.823057 0.335054 0.681357
Si Si7 0.756203 0.207735 0.178412
O O1 0.908256 0.500000 0.250000
O O2 0.884993 0.361562 0.232618
O O3 0.000000 0.404016 0.250000
O O4 0.936280 0.429564 0.000000
O O5 0.314864 0.500000 0.250000
O O6 0.357968 0.369587 0.198558
O O7 0.234994 0.386249 0.234901
O O8 0.287782 0.443947 0.000000
O O9 0.668652 0.266927 0.500000
O O10 0.577369 0.240907 0.303271
O O11 0.691275 0.250263 0.202758
O O12 0.500000 0.869649 0.750000
O O13 0.444393 0.866391 0.500000
O O14 0.375667 0.890801 0.738201
O O15 0.251561 0.128401 0.247035
O O16 0.297708 0.000000 0.250000
O O17 0.303785 0.076933 0.000000
O O18 0.832687 0.336674 0.500000
O O19 0.811193 0.252846 0.736958
O O20 0.771712 0.200662 0.000000
#
# Coordination Sequence:
#
# PCOD8202512 Si02
#       7
#     8   8   8   8   8   8   8
#     4  11  21  33  47  66  94 131 170 206 243 282
#     4   9  17  27  42  62  85 110 141 182 230 274
#     4   8  16  31  44  58  84 116 143 178 227 274
#     4   9  18  31  47  64  85 113 148 184 221 266
#     4  10  20  34  49  68  95 124 148 179 222 270
#     4  10  19  32  47  65  92 125 157 194 233 273
#     4  10  18  29  47  70  91 116 150 187 225 272
#
# _framework density 16.289197999999999
#
# number of rings (size 3 to 8) (size 9 to 14) (size 15 to 20)
#    0.000    2.429    0.000    6.000    0.000    7.143 
#    0.000    1.429    0.000    0.429    0.000    3.000 
#    0.000    0.571    0.000    5.714    0.000    3.429 
#
# Total GULP energy -693981.452069 kJ/mol
# GULP energy per Si atom -12392.525930 kJ/mol
# Density = 1.625212 g / cm^3
# Si number density = 16.289198 Si / 1000 Ang^3
#
#
#
# Elastic Constant Matrix: (Units=GPa)
#
#
# Indices 1 2 3 4 5 6 
#
# 1 53.0877 41.5001 26.1813 0.0000 0.0000 0.0000
# 2 41.5001 130.7180 41.4250 0.0000 0.0000 0.0000
# 3 26.1813 41.4250 85.3059 0.0000 0.0000 0.0000
# 4 0.0000 0.0000 0.0000 28.6845 0.0000 0.0000
# 5 0.0000 0.0000 0.0000 0.0000 21.2901 0.0000
# 6 0.0000 0.0000 0.0000 0.0000 0.0000 18.5208
#
#
#
# Elastic Compliance Matrix: (Units=1/GPa)
#
#
# Indices 1 2 3 4 5 6 
#
# 1 0.026624 -0.006929 -0.004806 0.000000 0.000000 0.000000
# 2 -0.006929 0.010845 -0.003140 0.000000 0.000000 0.000000
# 3 -0.004806 -0.003140 0.014722 0.000000 0.000000 0.000000
# 4 0.000000 0.000000 0.000000 0.034862 0.000000 0.000000
# 5 0.000000 0.000000 0.000000 0.000000 0.046970 0.000000
# 6 0.000000 0.000000 0.000000 0.000000 0.000000 0.053993
#
#
# Mechanical properties :
#
#
# Convention : Reuss Voigt Hill
#
# Bulk Modulus (GPa) = 44.56216 54.14714 49.35465
# Shear Modulus (GPa) = 22.19782 24.36611 23.28196
#
# Velocity S-wave (km/s) = 3.69553 3.87181 3.78469
# Velocity P-wave (km/s) = 6.75466 7.30077 7.03302
#
# Compressibility (1/GPa) = 0.02244057
#
# Stress axis : x y z
#
# Youngs Moduli (GPa) = 37.56016 92.20877 67.92453
#
# Poissons Ratio (x) = 0.63895 0.32646
# Poissons Ratio (y) = 0.26027 0.21326
# Poissons Ratio (z) = 0.18052 0.28950
#
# Static dielectric constant tensor:
#      x y z
#    x 2.885340 0.000000 0.000000 
#    y 0.000000 3.252200 0.000000 
#    z 0.000000 0.000000 3.072960 
# 
# 
# High freq. dielectric constant tensor:
#      x y z
#    x 1.585830 0.000000 0.000000 
#    y 0.000000 1.622530 0.000000 
#    z 0.000000 0.000000 1.635690 
# 
# From -- ./inp_files/5159.got.cif
#   From: 2010.03.12/outbox.cif.g09.slc.cpg/sg49_3_cif.got.tgz:5159.got - 2010.04.14 03:58:27.
