data_PCOD8202282
_publ_section_title
;
Structure prediction by ZEFSAII (Michael W. Deem and Ramdas Pophale) SiO2 
 PCOD8202282
Probable space group: P C C M
;
_chemical_formula_sum "Si O2"
_cell_formula_units_Z 64
_cell_length_a 26.485268
_cell_length_b 18.348812
_cell_length_c 8.656229
_cell_angle_alpha 90.000000
_cell_angle_beta 90.000000
_cell_angle_gamma 90.000000
_cell_volume 4206.695336
_symmetry_space_group_name_H-M "P C C M"
_symmetry_group_IT_number 49
_symmetry_cell_setting 'orthorhombic'
loop_
_space_group_symop_operation_xyz
x,y,z
-x,-y,z
x,-y,1/2-z
-x,y,1/2-z
-x,-y,-z
x,y,-z
-x,y,1/2+z
x,-y,1/2+z
loop_
_atom_site_type_symbol
_atom_site_label
_atom_site_fract_x
_atom_site_fract_y
_atom_site_fract_z
Si Si1 0.752061 0.156960 0.817773
Si Si2 0.343916 0.922222 0.316543
Si Si3 0.552124 0.343678 0.179180
Si Si4 0.847069 0.080148 0.317152
Si Si5 0.294824 0.708658 0.326953
Si Si6 0.346987 0.420917 0.316723
Si Si7 0.949621 0.081094 0.816351
Si Si8 0.401877 0.786097 0.670068
O O1 0.706601 0.104636 0.766768
O O2 0.801794 0.132679 0.728596
O O3 0.742880 0.241219 0.772303
O O4 0.759735 0.150023 0.000000
O O5 0.334179 0.924043 0.500000
O O6 0.391446 0.869176 0.276300
O O7 0.359498 0.000000 0.250000
O O8 0.500000 0.372516 0.250000
O O9 0.598586 0.391813 0.244287
O O10 0.561138 0.257962 0.216377
O O11 0.547561 0.354215 0.000000
O O12 0.852188 0.074125 0.500000
O O13 0.897960 0.116982 0.246413
O O14 0.836820 0.000000 0.250000
O O15 0.273337 0.697063 0.500000
O O16 0.302097 0.630889 0.243983
O O17 0.347720 0.748991 0.334719
O O18 0.336897 0.500000 0.250000
O O19 0.345671 0.422032 0.500000
O O20 0.000000 0.121307 0.750000
O O21 0.949347 0.000000 0.750000
O O22 0.950700 0.081311 0.000000
O O23 0.426833 0.783948 0.500000
#
# Coordination Sequence:
#
# PCOD8202282 Si02
#       8
#     8   8   8   8   8   8   8   8
#     4  11  20  30  43  61  85 112 141 175 213 257
#     4  10  19  30  44  63  84 108 135 169 210 252
#     4  10  20  32  48  67  87 110 137 165 200 240
#     4  11  20  30  41  57  81 110 145 187 230 267
#     4   9  17  31  48  65  85 111 139 169 202 244
#     4  10  20  33  49  70  92 116 141 168 198 235
#     4  10  17  27  40  55  74 102 140 182 226 269
#     4   8  16  30  46  62  82 106 134 164 199 242
#
# _framework density 15.213843000000001
#
# number of rings (size 3 to 8) (size 9 to 14) (size 15 to 20)
#    0.000    2.125    0.000    7.125    0.000    5.250 
#    0.000    1.250    0.000    0.375    0.000    2.625 
#    0.000    0.000    0.000    0.000    0.000    0.625 
#
# Total GULP energy -793380.285376 kJ/mol
# GULP energy per Si atom -12396.566959 kJ/mol
# Density = 1.517922 g / cm^3
# Si number density = 15.213843 Si / 1000 Ang^3
#
#
#
# Elastic Constant Matrix: (Units=GPa)
#
#
# Indices 1 2 3 4 5 6 
#
# 1 48.3248 24.8757 19.1577 0.0000 0.0000 0.0000
# 2 24.8757 92.5161 25.0469 0.0000 0.0000 0.0000
# 3 19.1577 25.0469 96.3508 0.0000 0.0000 0.0000
# 4 0.0000 0.0000 0.0000 22.4699 0.0000 0.0000
# 5 0.0000 0.0000 0.0000 0.0000 24.5415 0.0000
# 6 0.0000 0.0000 0.0000 0.0000 0.0000 8.2721
#
#
#
# Elastic Compliance Matrix: (Units=1/GPa)
#
#
# Indices 1 2 3 4 5 6 
#
# 1 0.025054 -0.005796 -0.003475 0.000000 0.000000 0.000000
# 2 -0.005796 0.012968 -0.002219 0.000000 0.000000 0.000000
# 3 -0.003475 -0.002219 0.011646 0.000000 0.000000 0.000000
# 4 0.000000 0.000000 0.000000 0.044504 0.000000 0.000000
# 5 0.000000 0.000000 0.000000 0.000000 0.040747 0.000000
# 6 0.000000 0.000000 0.000000 0.000000 0.000000 0.120888
#
#
# Mechanical properties :
#
#
# Convention : Reuss Voigt Hill
#
# Bulk Modulus (GPa) = 37.46750 41.70580 39.58665
# Shear Modulus (GPa) = 17.38023 22.26415 19.82219
#
# Velocity S-wave (km/s) = 3.38360 3.82961 3.61349
# Velocity P-wave (km/s) = 6.32026 6.85763 6.59442
#
# Compressibility (1/GPa) = 0.02668980
#
# Stress axis : x y z
#
# Youngs Moduli (GPa) = 39.91322 77.11307 85.86313
#
# Poissons Ratio (x) = 0.44693 0.29837
# Poissons Ratio (y) = 0.23133 0.19050
# Poissons Ratio (z) = 0.13870 0.17109
#
# Static dielectric constant tensor:
#      x y z
#    x 3.208860 0.000000 0.000000 
#    y 0.000000 2.976470 0.000000 
#    z 0.000000 0.000000 3.080090 
# 
# 
# High freq. dielectric constant tensor:
#      x y z
#    x 1.557930 0.000000 0.000000 
#    y 0.000000 1.552220 0.000000 
#    z 0.000000 0.000000 1.603510 
# 
# From -- ./inp_files/6786.got.cif
#   From: 2010.03.12/outbox.cif.g09.slc.cpg/sg49_4_cif.got.tgz:6786.got - 2010.04.14 03:58:27.
