data_PCOD8202471
_publ_section_title
;
Structure prediction by ZEFSAII (Michael W. Deem and Ramdas Pophale) SiO2 
 PCOD8202471
Probable space group: P C C M
;
_chemical_formula_sum "Si O2"
_cell_formula_units_Z 56
_cell_length_a 21.254541
_cell_length_b 18.433306
_cell_length_c 8.816978
_cell_angle_alpha 90.000000
_cell_angle_beta 90.000000
_cell_angle_gamma 90.000000
_cell_volume 3454.416667
_symmetry_space_group_name_H-M "P C C M"
_symmetry_group_IT_number 49
_symmetry_cell_setting 'orthorhombic'
loop_
_space_group_symop_operation_xyz
x,y,z
-x,-y,z
x,-y,1/2-z
-x,y,1/2-z
-x,-y,-z
x,y,-z
-x,y,1/2+z
x,-y,1/2+z
loop_
_atom_site_type_symbol
_atom_site_label
_atom_site_fract_x
_atom_site_fract_y
_atom_site_fract_z
Si Si1 0.564281 0.654795 0.672706
Si Si2 0.309054 0.422777 0.677956
Si Si3 0.296262 0.074467 0.674414
Si Si4 0.643803 0.782701 0.671291
Si Si5 0.248680 0.296205 0.827043
Si Si6 0.067050 0.923362 0.818944
Si Si7 0.179455 0.843897 0.321310
O O1 0.500000 0.630729 0.750000
O O2 0.555012 0.633796 0.500000
O O3 0.624240 0.609967 0.737194
O O4 0.576846 0.741914 0.694845
O O5 0.296284 0.500000 0.750000
O O6 0.309021 0.431397 0.500000
O O7 0.251877 0.368756 0.725085
O O8 0.278266 0.060838 0.500000
O O9 0.356074 0.129945 0.688330
O O10 0.235470 0.106589 0.757267
O O11 0.318257 0.000000 0.750000
O O12 0.667999 0.762211 0.500000
O O13 0.689888 0.752013 0.797997
O O14 0.190523 0.242212 0.790344
O O15 0.247285 0.321773 0.000000
O O16 0.116004 0.862294 0.767805
O O17 0.000000 0.901340 0.750000
O O18 0.089537 0.000000 0.750000
O O19 0.062799 0.928699 0.000000
O O20 0.172982 0.859688 0.500000
#
# Coordination Sequence:
#
# PCOD8202471 Si02
#       7
#     8   8   8   8   8   8   8
#     4   9  18  31  46  64  84 111 145 180 215 259
#     4  10  20  33  48  67  94 121 146 176 216 263
#     4  10  18  28  43  63  86 111 142 183 228 271
#     4   8  16  30  44  59  83 112 141 176 221 267
#     4   9  17  29  47  68  89 114 146 182 220 262
#     4  11  21  33  47  64  91 127 164 199 234 269
#     4  10  19  31  46  66  91 119 153 188 222 266
#
# _framework density 16.211131000000002
#
# number of rings (size 3 to 8) (size 9 to 14) (size 15 to 20)
#    0.000    2.429    0.000    4.714    0.000    5.429 
#    0.000    1.429    0.000    0.429    0.000    3.000 
#    0.000    0.571    0.000    6.000    0.000    2.571 
#
# Total GULP energy -693918.588178 kJ/mol
# GULP energy per Si atom -12391.403360 kJ/mol
# Density = 1.617423 g / cm^3
# Si number density = 16.211131 Si / 1000 Ang^3
#
#
#
# Elastic Constant Matrix: (Units=GPa)
#
#
# Indices 1 2 3 4 5 6 
#
# 1 47.6023 33.9362 28.8838 0.0000 0.0000 0.0000
# 2 33.9362 115.9707 44.5710 0.0000 0.0000 0.0000
# 3 28.8838 44.5710 88.7763 0.0000 0.0000 0.0000
# 4 0.0000 0.0000 0.0000 26.2189 0.0000 0.0000
# 5 0.0000 0.0000 0.0000 0.0000 22.0252 0.0000
# 6 0.0000 0.0000 0.0000 0.0000 0.0000 18.6897
#
#
#
# Elastic Compliance Matrix: (Units=1/GPa)
#
#
# Indices 1 2 3 4 5 6 
#
# 1 0.029266 -0.006077 -0.006471 0.000000 0.000000 0.000000
# 2 -0.006077 0.011946 -0.004021 0.000000 0.000000 0.000000
# 3 -0.006471 -0.004021 0.015388 0.000000 0.000000 0.000000
# 4 0.000000 0.000000 0.000000 0.038140 0.000000 0.000000
# 5 0.000000 0.000000 0.000000 0.000000 0.045403 0.000000
# 6 0.000000 0.000000 0.000000 0.000000 0.000000 0.053506
#
#
# Mechanical properties :
#
#
# Convention : Reuss Voigt Hill
#
# Bulk Modulus (GPa) = 42.61907 51.90346 47.26127
# Shear Modulus (GPa) = 21.31218 23.05063 22.18141
#
# Velocity S-wave (km/s) = 3.62976 3.77490 3.70304
# Velocity P-wave (km/s) = 6.62676 7.14748 6.89204
#
# Compressibility (1/GPa) = 0.02346367
#
# Stress axis : x y z
#
# Youngs Moduli (GPa) = 34.16918 83.70690 64.98511
#
# Poissons Ratio (x) = 0.50870 0.42050
# Poissons Ratio (y) = 0.20765 0.26128
# Poissons Ratio (z) = 0.22110 0.33655
#
# Static dielectric constant tensor:
#      x y z
#    x 2.859600 0.000000 0.000000 
#    y 0.000000 3.229180 0.000000 
#    z 0.000000 0.000000 3.170450 
# 
# 
# High freq. dielectric constant tensor:
#      x y z
#    x 1.579820 0.000000 0.000000 
#    y 0.000000 1.618920 0.000000 
#    z 0.000000 0.000000 1.639530 
# 
# From -- ./inp_files/5184.got.cif
#   From: 2010.03.12/outbox.cif.g09.slc.cpg/sg49_3_cif.got.tgz:5184.got - 2010.04.14 03:58:27.
