data_PCOD8202978
_publ_section_title
;
Structure prediction by ZEFSAII (Michael W. Deem and Ramdas Pophale) SiO2 
 PCOD8202978
Probable space group: P C C M
;
_chemical_formula_sum "Si O2"
_cell_formula_units_Z 64
_cell_length_a 24.659568
_cell_length_b 15.006430
_cell_length_c 8.896541
_cell_angle_alpha 90.000000
_cell_angle_beta 90.000000
_cell_angle_gamma 90.000000
_cell_volume 3292.183511
_symmetry_space_group_name_H-M "P C C M"
_symmetry_group_IT_number 49
_symmetry_cell_setting 'orthorhombic'
loop_
_space_group_symop_operation_xyz
x,y,z
-x,-y,z
x,-y,1/2-z
-x,y,1/2-z
-x,-y,-z
x,y,-z
-x,y,1/2+z
x,-y,1/2+z
loop_
_atom_site_type_symbol
_atom_site_label
_atom_site_fract_x
_atom_site_fract_y
_atom_site_fract_z
Si Si1 0.558684 0.091753 0.320304
Si Si2 0.641612 0.779169 0.675817
Si Si3 0.161288 0.181642 0.674876
Si Si4 0.793956 0.354434 0.672100
Si Si5 0.911575 0.585908 0.831829
Si Si6 0.944705 0.778793 0.178444
Si Si7 0.732841 0.911824 0.672048
Si Si8 0.315046 0.411402 0.322233
O O1 0.500000 0.108201 0.250000
O O2 0.555305 0.083397 0.500000
O O3 0.594485 0.176993 0.274921
O O4 0.583110 0.000000 0.250000
O O5 0.628241 0.791978 0.500000
O O6 0.698213 0.825868 0.722857
O O7 0.647693 0.674436 0.715388
O O8 0.147818 0.193502 0.500000
O O9 0.192281 0.267954 0.732530
O O10 0.105658 0.161543 0.764072
O O11 0.203263 0.101390 0.704757
O O12 0.780247 0.328147 0.500000
O O13 0.846414 0.418149 0.675863
O O14 0.744000 0.404131 0.747986
O O15 0.936389 0.500000 0.750000
O O16 0.934274 0.678061 0.761522
O O17 0.933085 0.580991 0.000000
O O18 0.000000 0.816012 0.250000
O O19 0.947003 0.784833 0.000000
O O20 0.721762 0.928697 0.500000
O O21 0.710821 0.000000 0.750000
O O22 0.342626 0.500000 0.250000
O O23 0.307950 0.422665 0.500000
#
# Coordination Sequence:
#
# PCOD8202978 Si02
#       8
#     8   8   8   8   8   8   8   8
#     4  11  22  38  62  92 124 162 203 245 294 349
#     4  10  21  39  58  84 123 161 199 245 289 340
#     4  10  19  35  55  77 107 143 178 222 279 336
#     4  10  19  32  50  74 104 142 188 231 276 333
#     4   9  19  31  44  66  95 127 168 216 268 325
#     4  10  21  36  52  73  96 129 176 224 276 338
#     4  10  21  36  56  85 118 152 186 222 282 344
#     4  11  22  36  54  79 115 156 200 246 291 340
#
# _framework density 19.439986000000001
#
# number of rings (size 3 to 8) (size 9 to 14) (size 15 to 20)
#    0.000    1.875    1.250    4.500    0.000    7.750 
#    0.000    1.250    0.000    0.750    0.000    5.250 
#    0.000    0.000    0.000    0.000    0.000    0.000 
#
# Total GULP energy -793480.290456 kJ/mol
# GULP energy per Si atom -12398.129538 kJ/mol
# Density = 1.939574 g / cm^3
# Si number density = 19.439986 Si / 1000 Ang^3
#
#
#
# Elastic Constant Matrix: (Units=GPa)
#
#
# Indices 1 2 3 4 5 6 
#
# 1 88.6349 40.8248 49.8605 0.0000 0.0000 0.0000
# 2 40.8248 93.1047 36.8212 0.0000 0.0000 0.0000
# 3 49.8605 36.8212 92.0991 0.0000 0.0000 0.0000
# 4 0.0000 0.0000 0.0000 28.0714 0.0000 0.0000
# 5 0.0000 0.0000 0.0000 0.0000 25.6514 0.0000
# 6 0.0000 0.0000 0.0000 0.0000 0.0000 9.6528
#
#
#
# Elastic Compliance Matrix: (Units=1/GPa)
#
#
# Indices 1 2 3 4 5 6 
#
# 1 0.017834 -0.004753 -0.007755 0.000000 0.000000 0.000000
# 2 -0.004753 0.014025 -0.003034 0.000000 0.000000 0.000000
# 3 -0.007755 -0.003034 0.016269 0.000000 0.000000 0.000000
# 4 0.000000 0.000000 0.000000 0.035623 0.000000 0.000000
# 5 0.000000 0.000000 0.000000 0.000000 0.038984 0.000000
# 6 0.000000 0.000000 0.000000 0.000000 0.000000 0.103597
#
#
# Mechanical properties :
#
#
# Convention : Reuss Voigt Hill
#
# Bulk Modulus (GPa) = 58.67019 58.76129 58.71574
# Shear Modulus (GPa) = 19.00450 22.43061 20.71755
#
# Velocity S-wave (km/s) = 3.13005 3.40051 3.26808
# Velocity P-wave (km/s) = 6.58093 6.76096 6.67155
#
# Compressibility (1/GPa) = 0.01704443
#
# Stress axis : x y z
#
# Youngs Moduli (GPa) = 56.07377 71.30366 61.46689
#
# Poissons Ratio (x) = 0.33891 0.47665
# Poissons Ratio (y) = 0.26652 0.18648
# Poissons Ratio (z) = 0.43482 0.21632
#
# Static dielectric constant tensor:
#      x y z
#    x 3.492570 0.000000 0.000000 
#    y 0.000000 3.709110 0.000000 
#    z 0.000000 0.000000 3.552200 
# 
# 
# High freq. dielectric constant tensor:
#      x y z
#    x 1.741700 0.000000 0.000000 
#    y 0.000000 1.739670 0.000000 
#    z 0.000000 0.000000 1.763550 
# 
# From -- ./inp_files/6506.got.cif
#   From: 2010.03.12/outbox.cif.g09.slc.cpg/sg49_4_cif.got.tgz:6506.got - 2010.04.14 03:58:27.
