data_PCOD8202809
_publ_section_title
;
Structure prediction by ZEFSAII (Michael W. Deem and Ramdas Pophale) SiO2 
 PCOD8202809
Probable space group: P C C M
;
_chemical_formula_sum "Si O2"
_cell_formula_units_Z 56
_cell_length_a 18.440169
_cell_length_b 18.905908
_cell_length_c 8.777518
_cell_angle_alpha 90.000000
_cell_angle_beta 90.000000
_cell_angle_gamma 90.000000
_cell_volume 3060.089762
_symmetry_space_group_name_H-M "P C C M"
_symmetry_group_IT_number 49
_symmetry_cell_setting 'orthorhombic'
loop_
_space_group_symop_operation_xyz
x,y,z
-x,-y,z
x,-y,1/2-z
-x,y,1/2-z
-x,-y,-z
x,y,-z
-x,y,1/2+z
x,-y,1/2+z
loop_
_atom_site_type_symbol
_atom_site_label
_atom_site_fract_x
_atom_site_fract_y
_atom_site_fract_z
Si Si1 0.209741 0.426809 0.822057
Si Si2 0.817812 0.072604 0.677117
Si Si3 0.422732 0.210327 0.679994
Si Si4 0.077208 0.349651 0.676613
Si Si5 0.165657 0.213409 0.322998
Si Si6 0.702531 0.709887 0.822551
Si Si7 0.647523 0.927095 0.177622
O O1 0.236376 0.500000 0.750000
O O2 0.134011 0.403373 0.749791
O O3 0.272522 0.369910 0.786807
O O4 0.197102 0.435899 0.000000
O O5 0.837180 0.073136 0.500000
O O6 0.859297 0.136950 0.761216
O O7 0.732631 0.081356 0.708542
O O8 0.846676 0.000000 0.750000
O O9 0.500000 0.228600 0.750000
O O10 0.428434 0.206143 0.500000
O O11 0.369769 0.274284 0.728016
O O12 0.394380 0.136085 0.742434
O O13 0.072757 0.367649 0.500000
O O14 0.100663 0.268522 0.705218
O O15 0.000000 0.363264 0.750000
O O16 0.187286 0.209701 0.500000
O O17 0.235325 0.235812 0.226369
O O18 0.687028 0.722540 0.000000
O O19 0.619025 0.000000 0.250000
O O20 0.629045 0.926741 0.000000
#
# Coordination Sequence:
#
# PCOD8202809 Si02
#       7
#     8   8   8   8   8   8   8
#     4  10  21  37  60  87 116 146 178 216 259 312
#     4  10  19  30  49  74 104 137 176 226 274 321
#     4  12  24  37  55  77 106 143 182 226 273 323
#     4  10  21  36  55  82 115 149 183 218 260 314
#     4  10  19  32  53  78 105 139 180 223 268 317
#     4  10  20  36  56  80 108 139 177 220 265 315
#     4  10  20  34  51  74 105 140 180 224 273 326
#
# _framework density 18.300118000000001
#
# number of rings (size 3 to 8) (size 9 to 14) (size 15 to 20)
#    0.000    1.714    1.429    3.857    0.000    5.143 
#    0.000    2.857    0.000    0.857    0.000    6.000 
#    0.000    0.000    0.000    0.000    0.000    0.000 
#
# Total GULP energy -694637.858620 kJ/mol
# GULP energy per Si atom -12404.247475 kJ/mol
# Density = 1.825847 g / cm^3
# Si number density = 18.300118 Si / 1000 Ang^3
#
#
#
# Elastic Constant Matrix: (Units=GPa)
#
#
# Indices 1 2 3 4 5 6 
#
# 1 65.8932 34.5530 42.5360 0.0000 0.0000 0.0000
# 2 34.5530 133.1906 59.4996 0.0000 0.0000 0.0000
# 3 42.5360 59.4996 120.1404 0.0000 0.0000 0.0000
# 4 0.0000 0.0000 0.0000 35.8471 0.0000 0.0000
# 5 0.0000 0.0000 0.0000 0.0000 26.4347 0.0000
# 6 0.0000 0.0000 0.0000 0.0000 0.0000 18.7408
#
#
#
# Elastic Compliance Matrix: (Units=1/GPa)
#
#
# Indices 1 2 3 4 5 6 
#
# 1 0.020375 -0.002649 -0.005902 0.000000 0.000000 0.000000
# 2 -0.002649 0.009986 -0.004007 0.000000 0.000000 0.000000
# 3 -0.005902 -0.004007 0.012398 0.000000 0.000000 0.000000
# 4 0.000000 0.000000 0.000000 0.027896 0.000000 0.000000
# 5 0.000000 0.000000 0.000000 0.000000 0.037829 0.000000
# 6 0.000000 0.000000 0.000000 0.000000 0.000000 0.053360
#
#
# Mechanical properties :
#
#
# Convention : Reuss Voigt Hill
#
# Bulk Modulus (GPa) = 56.68451 65.82237 61.25344
# Shear Modulus (GPa) = 25.92814 28.38023 27.15418
#
# Velocity S-wave (km/s) = 3.76816 3.94232 3.85622
# Velocity P-wave (km/s) = 7.06925 7.53451 7.30558
#
# Compressibility (1/GPa) = 0.01764150
#
# Stress axis : x y z
#
# Youngs Moduli (GPa) = 49.07950 100.14509 80.65972
#
# Poissons Ratio (x) = 0.26532 0.47604
# Poissons Ratio (y) = 0.13003 0.32323
# Poissons Ratio (z) = 0.28966 0.40131
#
# Static dielectric constant tensor:
#      x y z
#    x 3.122310 0.000000 0.000000 
#    y 0.000000 3.513800 0.000000 
#    z 0.000000 0.000000 3.517220 
# 
# 
# High freq. dielectric constant tensor:
#      x y z
#    x 1.677860 0.000000 0.000000 
#    y 0.000000 1.713880 0.000000 
#    z 0.000000 0.000000 1.730620 
# 
# From -- ./inp_files/4023.got.cif
#   From: 2010.03.12/outbox.cif.g09.slc.cpg/sg49_3_cif.got.tgz:4023.got - 2010.04.14 03:58:27.
