data_PCOD8202984
_publ_section_title
;
Structure prediction by ZEFSAII (Michael W. Deem and Ramdas Pophale) SiO2 
 PCOD8202984
Probable space group: P C C M
;
_chemical_formula_sum "Si O2"
_cell_formula_units_Z 48
_cell_length_a 13.033762
_cell_length_b 13.033720
_cell_length_c 16.118898
_cell_angle_alpha 90.000000
_cell_angle_beta 90.000000
_cell_angle_gamma 90.000000
_cell_volume 2738.252674
_symmetry_space_group_name_H-M "P C C M"
_symmetry_group_IT_number 49
_symmetry_cell_setting 'orthorhombic'
loop_
_space_group_symop_operation_xyz
x,y,z
-x,-y,z
x,-y,1/2-z
-x,y,1/2-z
-x,-y,-z
x,y,-z
-x,y,1/2+z
x,-y,1/2+z
loop_
_atom_site_type_symbol
_atom_site_label
_atom_site_fract_x
_atom_site_fract_y
_atom_site_fract_z
Si Si1 0.259717 0.569394 0.173603
Si Si2 0.631121 0.241799 0.094585
Si Si3 0.718424 0.118863 0.765652
Si Si4 0.241798 0.631122 0.594585
Si Si5 0.430606 0.740279 0.673603
Si Si6 0.118863 0.281574 0.234349
O O1 0.302478 0.500000 0.250000
O O2 0.341907 0.652303 0.142312
O O3 0.230559 0.492456 0.098691
O O4 0.158889 0.630670 0.203122
O O5 0.684032 0.144908 0.140021
O O6 0.507544 0.230563 0.098691
O O7 0.668777 0.244027 0.000000
O O8 0.630669 0.158892 0.703123
O O9 0.827210 0.172789 0.750001
O O10 0.733785 0.000000 0.750000
O O11 0.244024 0.668778 0.500000
O O12 0.347697 0.658091 0.642311
O O13 0.144909 0.684034 0.640022
O O14 0.500000 0.697518 0.750000
O O15 0.000000 0.266211 0.250000
#
# Coordination Sequence:
#
# PCOD8202984 Si02
#       6
#     8   8   8   8   8   8
#     4   9  18  32  50  73 105 139 170 203 248 305
#     4  10  19  32  50  77 106 135 170 211 250 294
#     4   9  19  36  54  72  97 130 168 210 260 319
#     4  10  19  32  50  77 106 135 170 211 250 294
#     4   9  18  32  50  73 105 139 170 203 248 305
#     4   9  19  36  54  72  97 130 168 210 260 319
#
# _framework density 17.529426999999998
#
# number of rings (size 3 to 8) (size 9 to 14) (size 15 to 20)
#    0.000    2.667    0.000    4.000    0.000    7.000 
#    0.000   20.000    0.000    0.000    0.000    9.333 
#    0.000    0.000    0.000    0.000    0.000    0.000 
#
# Total GULP energy -594844.647099 kJ/mol
# GULP energy per Si atom -12392.596815 kJ/mol
# Density = 1.748953 g / cm^3
# Si number density = 17.529427 Si / 1000 Ang^3
#
#
#
# Elastic Constant Matrix: (Units=GPa)
#
#
# Indices 1 2 3 4 5 6 
#
# 1 127.8096 56.8571 53.6000 0.0000 0.0000 0.0000
# 2 56.8571 127.8034 53.5981 0.0000 0.0000 0.0000
# 3 53.6000 53.5981 105.2859 0.0000 0.0000 0.0000
# 4 0.0000 0.0000 0.0000 14.7268 0.0000 0.0000
# 5 0.0000 0.0000 0.0000 0.0000 14.7270 0.0000
# 6 0.0000 0.0000 0.0000 0.0000 0.0000 11.0908
#
#
#
# Elastic Compliance Matrix: (Units=1/GPa)
#
#
# Indices 1 2 3 4 5 6 
#
# 1 0.010891 -0.003204 -0.003913 0.000000 0.000000 0.000000
# 2 -0.003204 0.010891 -0.003913 0.000000 0.000000 0.000000
# 3 -0.003913 -0.003913 0.013482 0.000000 0.000000 0.000000
# 4 0.000000 0.000000 0.000000 0.067903 0.000000 0.000000
# 5 0.000000 0.000000 0.000000 0.000000 0.067903 0.000000
# 6 0.000000 0.000000 0.000000 0.000000 0.000000 0.090165
#
#
# Mechanical properties :
#
#
# Convention : Reuss Voigt Hill
#
# Bulk Modulus (GPa) = 75.73999 76.55660 76.14830
# Shear Modulus (GPa) = 17.37945 21.23183 19.30564
#
# Velocity S-wave (km/s) = 3.15214 3.48402 3.32223
# Velocity P-wave (km/s) = 7.51991 7.74290 7.63222
#
# Compressibility (1/GPa) = 0.01320306
#
# Stress axis : x y z
#
# Youngs Moduli (GPa) = 91.82312 91.81922 74.17133
#
# Poissons Ratio (x) = 0.29417 0.29025
# Poissons Ratio (y) = 0.29418 0.29025
# Poissons Ratio (z) = 0.35933 0.35931
#
# Static dielectric constant tensor:
#      x y z
#    x 3.095650 0.000000 0.000000 
#    y 0.000000 3.095640 0.000000 
#    z 0.000000 0.000000 3.374340 
# 
# 
# High freq. dielectric constant tensor:
#      x y z
#    x 1.663660 0.000000 0.000000 
#    y 0.000000 1.663650 0.000000 
#    z 0.000000 0.000000 1.671000 
# 
# From -- ./inp_files/17058.got.cif
#   From: 2010.03.12/outbox.cif.g09.slc.cpg/sg49_9_cif.got.tgz:17058.got - 2010.04.14 03:58:27.
