data_PCOD8202308
_publ_section_title
;
Structure prediction by ZEFSAII (Michael W. Deem and Ramdas Pophale) SiO2 
 PCOD8202308
Probable space group: P C C M
;
_chemical_formula_sum "Si O2"
_cell_formula_units_Z 48
_cell_length_a 30.909290
_cell_length_b 10.031064
_cell_length_c 8.774221
_cell_angle_alpha 90.000000
_cell_angle_beta 90.000000
_cell_angle_gamma 90.000000
_cell_volume 2720.474124
_symmetry_space_group_name_H-M "P C C M"
_symmetry_group_IT_number 49
_symmetry_cell_setting 'orthorhombic'
loop_
_space_group_symop_operation_xyz
x,y,z
-x,-y,z
x,-y,1/2-z
-x,y,1/2-z
-x,-y,-z
x,y,-z
-x,y,1/2+z
x,-y,1/2+z
loop_
_atom_site_type_symbol
_atom_site_label
_atom_site_fract_x
_atom_site_fract_y
_atom_site_fract_z
Si Si1 0.297253 0.861692 0.680433
Si Si2 0.869845 0.354682 0.681268
Si Si3 0.042873 0.352247 0.317860
Si Si4 0.541282 0.355059 0.677673
Si Si5 0.199380 0.862508 0.678850
Si Si6 0.636390 0.643947 0.178611
O O1 0.300783 0.871457 0.500000
O O2 0.248205 0.831581 0.734126
O O3 0.327924 0.744977 0.745177
O O4 0.313762 0.000000 0.750000
O O5 0.860425 0.500000 0.750000
O O6 0.875445 0.366180 0.500000
O O7 0.912915 0.286905 0.754914
O O8 0.830357 0.260333 0.730491
O O9 0.043242 0.500000 0.250000
O O10 0.041640 0.352548 0.500000
O O11 0.000000 0.278512 0.250000
O O12 0.541824 0.500000 0.750000
O O13 0.500000 0.274681 0.750000
O O14 0.533118 0.365603 0.500000
O O15 0.588623 0.293418 0.714288
O O16 0.197547 0.881486 0.500000
O O17 0.182058 0.000000 0.750000
O O18 0.643736 0.500000 0.250000
O O19 0.642438 0.624989 0.000000
#
# Coordination Sequence:
#
# PCOD8202308 Si02
#       6
#     8   8   8   8   8   8
#     4   9  18  34  51  69  92 122 157 194 232 278
#     4  10  19  31  47  72 100 126 156 194 234 275
#     4  10  17  27  44  67  95 127 158 192 231 275
#     4   9  15  24  39  61  88 119 149 184 225 271
#     4   9  19  34  52  70  93 124 159 194 233 279
#     4   9  18  30  46  69  97 122 152 192 235 276
#
# _framework density 17.643982000000001
#
# number of rings (size 3 to 8) (size 9 to 14) (size 15 to 20)
#    0.000    2.667    0.000    4.500    0.000    3.333 
#    0.000    0.000    0.000    1.000    0.000    7.000 
#    0.000    0.000    0.000    0.000    0.000    0.000 
#
# Total GULP energy -594810.285211 kJ/mol
# GULP energy per Si atom -12391.880942 kJ/mol
# Density = 1.760382 g / cm^3
# Si number density = 17.643982 Si / 1000 Ang^3
#
#
#
# Elastic Constant Matrix: (Units=GPa)
#
#
# Indices 1 2 3 4 5 6 
#
# 1 153.9105 78.6273 51.1031 0.0000 0.0000 0.0000
# 2 78.6273 86.6433 32.6312 0.0000 0.0000 0.0000
# 3 51.1031 32.6312 75.3499 0.0000 0.0000 0.0000
# 4 0.0000 0.0000 0.0000 21.1011 0.0000 0.0000
# 5 0.0000 0.0000 0.0000 0.0000 26.3792 0.0000
# 6 0.0000 0.0000 0.0000 0.0000 0.0000 5.5006
#
#
#
# Elastic Compliance Matrix: (Units=1/GPa)
#
#
# Indices 1 2 3 4 5 6 
#
# 1 0.013292 -0.010356 -0.004530 0.000000 0.000000 0.000000
# 2 -0.010356 0.021860 -0.002443 0.000000 0.000000 0.000000
# 3 -0.004530 -0.002443 0.017402 0.000000 0.000000 0.000000
# 4 0.000000 0.000000 0.000000 0.047391 0.000000 0.000000
# 5 0.000000 0.000000 0.000000 0.000000 0.037909 0.000000
# 6 0.000000 0.000000 0.000000 0.000000 0.000000 0.181799
#
#
# Mechanical properties :
#
#
# Convention : Reuss Voigt Hill
#
# Bulk Modulus (GPa) = 55.88082 71.18076 63.53079
# Shear Modulus (GPa) = 13.87831 20.83232 17.35531
#
# Velocity S-wave (km/s) = 2.80764 3.43986 3.13970
# Velocity P-wave (km/s) = 6.50004 7.49715 7.01633
#
# Compressibility (1/GPa) = 0.01789523
#
# Stress axis : x y z
#
# Youngs Moduli (GPa) = 75.23355 45.74633 57.46615
#
# Poissons Ratio (x) = 0.47376 0.26031
# Poissons Ratio (y) = 0.77913 0.14038
# Poissons Ratio (z) = 0.34080 0.11175
#
# Static dielectric constant tensor:
#      x y z
#    x 4.599120 0.000000 0.000000 
#    y 0.000000 2.952220 0.000000 
#    z 0.000000 0.000000 3.303650 
# 
# 
# High freq. dielectric constant tensor:
#      x y z
#    x 1.706290 0.000000 0.000000 
#    y 0.000000 1.630430 0.000000 
#    z 0.000000 0.000000 1.687760 
# 
# From -- ./inp_files/6704.got.cif
#   From: 2010.03.12/outbox.cif.g09.slc.cpg/sg49_4_cif.got.tgz:6704.got - 2010.04.14 03:58:27.
