data_PCOD8202197
_publ_section_title
;
Structure prediction by ZEFSAII (Michael W. Deem and Ramdas Pophale) SiO2 
 PCOD8202197
Probable space group: P C C M
;
_chemical_formula_sum "Si O2"
_cell_formula_units_Z 40
_cell_length_a 15.353698
_cell_length_b 20.577298
_cell_length_c 8.627449
_cell_angle_alpha 90.000000
_cell_angle_beta 90.000000
_cell_angle_gamma 90.000000
_cell_volume 2725.735696
_symmetry_space_group_name_H-M "P C C M"
_symmetry_group_IT_number 49
_symmetry_cell_setting 'orthorhombic'
loop_
_space_group_symop_operation_xyz
x,y,z
-x,-y,z
x,-y,1/2-z
-x,y,1/2-z
-x,-y,-z
x,y,-z
-x,y,1/2+z
x,-y,1/2+z
loop_
_atom_site_type_symbol
_atom_site_label
_atom_site_fract_x
_atom_site_fract_y
_atom_site_fract_z
Si Si1 0.905610 0.308185 0.821433
Si Si2 0.096127 0.164633 0.319269
Si Si3 0.097237 0.564768 0.317641
Si Si4 0.586962 0.927628 0.316311
Si Si5 0.763400 0.071324 0.682648
O O1 0.862145 0.237215 0.799019
O O2 0.854872 0.368033 0.736105
O O3 0.000000 0.301072 0.750000
O O4 0.913653 0.327211 0.000000
O O5 0.093356 0.145457 0.500000
O O6 0.154960 0.115454 0.223937
O O7 0.000000 0.160087 0.250000
O O8 0.144411 0.500000 0.250000
O O9 0.095884 0.559772 0.500000
O O10 0.000000 0.567661 0.250000
O O11 0.500000 0.891838 0.250000
O O12 0.584139 0.927523 0.500000
O O13 0.676479 0.895186 0.255992
O O14 0.588012 0.000000 0.250000
O O15 0.751578 0.066008 0.500000
O O16 0.780270 0.000000 0.750000
#
# Coordination Sequence:
#
# PCOD8202197 Si02
#       5
#     8   8   8   8   8
#     4   9  16  26  39  53  71  94 124 159 196 235
#     4  10  20  33  46  60  78 104 137 173 209 245
#     4  10  16  22  33  49  70  92 119 153 192 231
#     4  10  17  28  45  65  86 105 126 154 194 242
#     4  11  21  33  47  63  82 104 133 169 207 246
#
# _framework density 14.674937
#
# number of rings (size 3 to 8) (size 9 to 14) (size 15 to 20)
#    0.000    2.000    0.000   10.200    0.000    2.800 
#    0.000    2.000    0.000    0.000    0.000    0.000 
#    0.000    0.000    0.000    0.000    0.000    1.000 
#
# Total GULP energy -495601.589920 kJ/mol
# GULP energy per Si atom -12390.039748 kJ/mol
# Density = 1.464154 g / cm^3
# Si number density = 14.674937 Si / 1000 Ang^3
#
#
#
# Elastic Constant Matrix: (Units=GPa)
#
#
# Indices 1 2 3 4 5 6 
#
# 1 61.6840 32.3122 29.6313 0.0000 0.0000 0.0000
# 2 32.3122 82.2475 42.7162 0.0000 0.0000 0.0000
# 3 29.6313 42.7162 146.5555 0.0000 0.0000 0.0000
# 4 0.0000 0.0000 0.0000 22.9406 0.0000 0.0000
# 5 0.0000 0.0000 0.0000 0.0000 18.6669 0.0000
# 6 0.0000 0.0000 0.0000 0.0000 0.0000 -0.8970
#
#
#
# Elastic Compliance Matrix: (Units=1/GPa)
#
#
# Indices 1 2 3 4 5 6 
#
# 1 0.020981 -0.007117 -0.002168 0.000000 0.000000 0.000000
# 2 -0.007117 0.016741 -0.003441 0.000000 0.000000 0.000000
# 3 -0.002168 -0.003441 0.008264 0.000000 0.000000 0.000000
# 4 0.000000 0.000000 0.000000 0.043591 0.000000 0.000000
# 5 0.000000 0.000000 0.000000 0.000000 0.053571 0.000000
# 6 0.000000 0.000000 0.000000 0.000000 0.000000 -1.114774
#
#
# Mechanical properties :
#
#
# Convention : Reuss Voigt Hill
#
# Bulk Modulus (GPa) = 48.69406 55.53403 52.11405
# Shear Modulus (GPa) = -5.32294 20.53057 7.60382
#
# Velocity S-wave (km/s) = -1.90660 3.74441 2.27876
# Velocity P-wave (km/s) = 5.32982 7.52456 6.52020
#
# Compressibility (1/GPa) = 0.02053638
#
# Stress axis : x y z
#
# Youngs Moduli (GPa) = 47.66208 59.73233 120.99994
#
# Poissons Ratio (x) = 0.42511 0.26229
# Poissons Ratio (y) = 0.33921 0.41632
# Poissons Ratio (z) = 0.10332 0.20552
#
# Static dielectric constant tensor:
#      x y z
#    x 2.947610 0.000000 0.000000 
#    y 0.000000 3.543650 0.000000 
#    z 0.000000 0.000000 3.038360 
# 
# 
# High freq. dielectric constant tensor:
#      x y z
#    x 1.504810 0.000000 0.000000 
#    y 0.000000 1.551250 0.000000 
#    z 0.000000 0.000000 1.589890 
# 
# From -- ./inp_files/3811.got.cif
#   From: 2010.03.12/outbox.cif.g09.slc.cpg/sg49_2_cif.got.tgz:3811.got - 2010.04.14 03:58:27.
