data_PCOD8202318
_publ_section_title
;
Structure prediction by ZEFSAII (Michael W. Deem and Ramdas Pophale) SiO2 
 PCOD8202318
Probable space group: P C C M
;
_chemical_formula_sum "Si O2"
_cell_formula_units_Z 64
_cell_length_a 26.436623
_cell_length_b 15.004589
_cell_length_c 8.863762
_cell_angle_alpha 90.000000
_cell_angle_beta 90.000000
_cell_angle_gamma 90.000000
_cell_volume 3515.994346
_symmetry_space_group_name_H-M "P C C M"
_symmetry_group_IT_number 49
_symmetry_cell_setting 'orthorhombic'
loop_
_space_group_symop_operation_xyz
x,y,z
-x,-y,z
x,-y,1/2-z
-x,y,1/2-z
-x,-y,-z
x,y,-z
-x,y,1/2+z
x,-y,1/2+z
loop_
_atom_site_type_symbol
_atom_site_label
_atom_site_fract_x
_atom_site_fract_y
_atom_site_fract_z
Si Si1 0.549893 0.901443 0.180798
Si Si2 0.349545 0.095907 0.678356
Si Si3 0.247538 0.586531 0.825135
Si Si4 0.950293 0.615406 0.669324
Si Si5 0.253429 0.785343 0.823240
Si Si6 0.051104 0.172146 0.330687
Si Si7 0.147058 0.390442 0.833139
Si Si8 0.151554 0.180917 0.832694
O O1 0.500000 0.852469 0.250000
O O2 0.601601 0.856993 0.242510
O O3 0.550964 0.000000 0.250000
O O4 0.547841 0.902163 0.000000
O O5 0.358939 0.085993 0.500000
O O6 0.302434 0.157941 0.716821
O O7 0.338470 0.000000 0.750000
O O8 0.275477 0.500000 0.750000
O O9 0.264108 0.684246 0.761734
O O10 0.188285 0.578199 0.788089
O O11 0.258924 0.579952 0.000000
O O12 0.947246 0.578409 0.500000
O O13 0.949010 0.721792 0.668078
O O14 0.905397 0.573560 0.768236
O O15 0.000000 0.579218 0.750000
O O16 0.204955 0.834929 0.751628
O O17 0.242406 0.779462 0.000000
O O18 0.051135 0.134072 0.500000
O O19 0.102836 0.137392 0.250444
O O20 0.000000 0.136326 0.250000
O O21 0.143107 0.285177 0.843493
O O22 0.158839 0.429442 0.000000
O O23 0.155221 0.138783 0.000000
#
# Coordination Sequence:
#
# PCOD8202318 Si02
#       8
#     8   8   8   8   8   8   8   8
#     4  10  17  27  44  68  99 136 174 209 240 274
#     4  10  19  32  49  72 102 137 172 205 239 279
#     4  10  19  32  48  66  86 113 149 191 236 281
#     4   9  15  22  33  50  71  97 128 166 210 261
#     4   9  19  33  48  66  94 128 160 195 240 288
#     4   9  15  22  33  50  75 104 137 177 225 277
#     4   9  16  26  39  56  76 101 134 175 220 269
#     4   9  16  25  39  58  81 109 145 186 230 278
#
# _framework density 18.202531
#
# number of rings (size 3 to 8) (size 9 to 14) (size 15 to 20)
#    0.000    2.625    0.000    4.500    0.000    7.500 
#    0.000    0.000    0.000    0.375    0.000    2.625 
#    0.000    1.000    0.000   11.000    0.000    9.625 
#
# Total GULP energy -793066.314719 kJ/mol
# GULP energy per Si atom -12391.661167 kJ/mol
# Density = 1.816110 g / cm^3
# Si number density = 18.202531 Si / 1000 Ang^3
#
#
#
# Elastic Constant Matrix: (Units=GPa)
#
#
# Indices 1 2 3 4 5 6 
#
# 1 144.8268 37.1969 63.6372 0.0000 0.0000 0.0000
# 2 37.1969 36.3246 18.4019 0.0000 0.0000 0.0000
# 3 63.6372 18.4019 120.6349 0.0000 0.0000 0.0000
# 4 0.0000 0.0000 0.0000 12.2573 0.0000 0.0000
# 5 0.0000 0.0000 0.0000 0.0000 28.5636 0.0000
# 6 0.0000 0.0000 0.0000 0.0000 0.0000 -27.6583
#
#
#
# Elastic Compliance Matrix: (Units=1/GPa)
#
#
# Indices 1 2 3 4 5 6 
#
# 1 0.011273 -0.009245 -0.004536 0.000000 0.000000 0.000000
# 2 -0.009245 0.037418 -0.000831 0.000000 0.000000 0.000000
# 3 -0.004536 -0.000831 0.010809 0.000000 0.000000 0.000000
# 4 0.000000 0.000000 0.000000 0.081584 0.000000 0.000000
# 5 0.000000 0.000000 0.000000 0.000000 0.035010 0.000000
# 6 0.000000 0.000000 0.000000 0.000000 0.000000 -0.036156
#
#
# Mechanical properties :
#
#
# Convention : Reuss Voigt Hill
#
# Bulk Modulus (GPa) = 33.03053 60.02872 46.52962
# Shear Modulus (GPa) = 27.89343 14.80253 21.34798
#
# Velocity S-wave (km/s) = 3.91883 2.85478 3.42834
# Velocity P-wave (km/s) = 6.21786 6.62693 6.42565
#
# Compressibility (1/GPa) = 0.03027502
#
# Stress axis : x y z
#
# Youngs Moduli (GPa) = 88.71121 26.72533 92.51439
#
# Poissons Ratio (x) = 0.24708 0.41966
# Poissons Ratio (y) = 0.82016 0.07686
# Poissons Ratio (z) = 0.40241 0.02220
#
# Static dielectric constant tensor:
#      x y z
#    x 3.706220 0.000000 0.000000 
#    y 0.000000 3.058660 0.000000 
#    z 0.000000 0.000000 3.565850 
# 
# 
# High freq. dielectric constant tensor:
#      x y z
#    x 1.687840 0.000000 0.000000 
#    y 0.000000 1.659870 0.000000 
#    z 0.000000 0.000000 1.721380 
# 
# From -- ./inp_files/7046.got.cif
#   From: 2010.03.12/outbox.cif.g09.slc.cpg/sg49_4_cif.got.tgz:7046.got - 2010.04.14 03:58:27.
