data_PCOD8202676
_publ_section_title
;
Structure prediction by ZEFSAII (Michael W. Deem and Ramdas Pophale) SiO2 
 PCOD8202676
Probable space group: P C C M
;
_chemical_formula_sum "Si O2"
_cell_formula_units_Z 64
_cell_length_a 9.834736
_cell_length_b 17.355168
_cell_length_c 19.153224
_cell_angle_alpha 90.000000
_cell_angle_beta 90.000000
_cell_angle_gamma 90.000000
_cell_volume 3269.139223
_symmetry_space_group_name_H-M "P C C M"
_symmetry_group_IT_number 49
_symmetry_cell_setting 'orthorhombic'
loop_
_space_group_symop_operation_xyz
x,y,z
-x,-y,z
x,-y,1/2-z
-x,y,1/2-z
-x,-y,-z
x,y,-z
-x,y,1/2+z
x,-y,1/2+z
loop_
_atom_site_type_symbol
_atom_site_label
_atom_site_fract_x
_atom_site_fract_y
_atom_site_fract_z
Si Si1 0.273609 0.202236 0.419032
Si Si2 0.003818 0.197449 0.672932
Si Si3 0.504776 0.913766 0.082618
Si Si4 0.233926 0.174927 0.079811
Si Si5 0.268871 0.643612 0.576543
Si Si6 0.646721 0.582690 0.279150
Si Si7 0.585732 0.634613 0.577699
Si Si8 0.113155 0.636289 0.295753
O O1 0.223612 0.196419 0.500000
O O2 0.148873 0.200154 0.365392
O O3 0.367020 0.130286 0.396977
O O4 0.366442 0.278026 0.409984
O O5 0.000000 0.157739 0.750000
O O6 0.898680 0.151145 0.624170
O O7 0.956279 0.284472 0.683625
O O8 0.637115 0.869863 0.112305
O O9 0.500000 0.000000 0.113814
O O10 0.518841 0.915134 0.000000
O O11 0.260019 0.265228 0.086466
O O12 0.207112 0.150730 0.000000
O O13 0.218273 0.618586 0.500000
O O14 0.425409 0.623032 0.587402
O O15 0.170216 0.599194 0.631839
O O16 0.693004 0.500000 0.250000
O O17 0.500000 0.606786 0.250000
O O18 0.651871 0.580150 0.363466
O O19 0.753795 0.646703 0.253027
O O20 0.629706 0.606953 0.500000
O O21 0.000000 0.588310 0.250000
#
# Coordination Sequence:
#
# PCOD8202676 Si02
#       8
#     8   8   8   8   8   8   8   8
#     4  10  19  34  58  86 113 142 184 240 288 334
#     4  10  20  33  50  80 110 141 187 232 279 334
#     4   9  17  31  54  84 112 141 186 237 283 335
#     4   9  16  30  51  76 107 142 176 221 280 332
#     4   9  16  29  52  82 109 137 178 229 283 333
#     4  11  23  39  57  82 115 148 189 234 288 352
#     4  10  18  33  58  86 111 141 185 237 290 336
#     4  10  20  36  53  78 109 143 184 227 281 338
#
# _framework density 19.577017999999999
#
# number of rings (size 3 to 8) (size 9 to 14) (size 15 to 20)
#    0.000    2.250    2.500    1.875    0.000    0.750 
#    0.000    3.750    0.000    5.250    0.000    3.500 
#    0.000    0.000    0.000    0.000    0.000    0.000 
#
# Total GULP energy -792906.345379 kJ/mol
# GULP energy per Si atom -12389.161647 kJ/mol
# Density = 1.953246 g / cm^3
# Si number density = 19.577018 Si / 1000 Ang^3
#
#
#
# Elastic Constant Matrix: (Units=GPa)
#
#
# Indices 1 2 3 4 5 6 
#
# 1 119.0191 25.4495 66.6376 0.0000 0.0000 0.0000
# 2 25.4495 49.3488 31.2912 0.0000 0.0000 0.0000
# 3 66.6376 31.2912 160.6233 0.0000 0.0000 0.0000
# 4 0.0000 0.0000 0.0000 11.5546 0.0000 0.0000
# 5 0.0000 0.0000 0.0000 0.0000 40.1998 0.0000
# 6 0.0000 0.0000 0.0000 0.0000 0.0000 11.3900
#
#
#
# Elastic Compliance Matrix: (Units=1/GPa)
#
#
# Indices 1 2 3 4 5 6 
#
# 1 0.011392 -0.003284 -0.004087 0.000000 0.000000 0.000000
# 2 -0.003284 0.024066 -0.003326 0.000000 0.000000 0.000000
# 3 -0.004087 -0.003326 0.008569 0.000000 0.000000 0.000000
# 4 0.000000 0.000000 0.000000 0.086546 0.000000 0.000000
# 5 0.000000 0.000000 0.000000 0.000000 0.024876 0.000000
# 6 0.000000 0.000000 0.000000 0.000000 0.000000 0.087797
#
#
# Mechanical properties :
#
#
# Convention : Reuss Voigt Hill
#
# Bulk Modulus (GPa) = 44.17967 63.97197 54.07582
# Shear Modulus (GPa) = 18.36997 26.33641 22.35319
#
# Velocity S-wave (km/s) = 3.06656 3.67177 3.38273
# Velocity P-wave (km/s) = 5.92912 7.12207 6.55280
#
# Compressibility (1/GPa) = 0.02263485
#
# Stress axis : x y z
#
# Youngs Moduli (GPa) = 87.77937 41.55174 116.69876
#
# Poissons Ratio (x) = 0.13645 0.47689
# Poissons Ratio (y) = 0.28825 0.38814
# Poissons Ratio (z) = 0.35871 0.13820
#
# Static dielectric constant tensor:
#      x y z
#    x 3.909530 0.000000 0.000000 
#    y 0.000000 3.214780 0.000000 
#    z 0.000000 0.000000 4.217370 
# 
# 
# High freq. dielectric constant tensor:
#      x y z
#    x 1.769720 0.000000 0.000000 
#    y 0.000000 1.713640 0.000000 
#    z 0.000000 0.000000 1.768380 
# 
# From -- ./inp_files/20016.got.cif
#   From: 2010.03.12/outbox.cif.g09.slc.cpg/sg49_11_cif.got.tgz:20016.got - 2010.04.14 03:58:27.
