data_PCOD8202426
_publ_section_title
;
Structure prediction by ZEFSAII (Michael W. Deem and Ramdas Pophale) SiO2 
 PCOD8202426
Probable space group: P C C M
;
_chemical_formula_sum "Si O2"
_cell_formula_units_Z 64
_cell_length_a 19.383153
_cell_length_b 19.411311
_cell_length_c 9.260305
_cell_angle_alpha 90.000000
_cell_angle_beta 90.000000
_cell_angle_gamma 90.000000
_cell_volume 3484.212083
_symmetry_space_group_name_H-M "P C C M"
_symmetry_group_IT_number 49
_symmetry_cell_setting 'orthorhombic'
loop_
_space_group_symop_operation_xyz
x,y,z
-x,-y,z
x,-y,1/2-z
-x,y,1/2-z
-x,-y,-z
x,y,-z
-x,y,1/2+z
x,-y,1/2+z
loop_
_atom_site_type_symbol
_atom_site_label
_atom_site_fract_x
_atom_site_fract_y
_atom_site_fract_z
Si Si1 0.719583 0.569463 0.673113
Si Si2 0.708854 0.177570 0.840991
Si Si3 0.912945 0.064165 0.338059
Si Si4 0.754551 0.940583 0.155191
Si Si5 0.437026 0.225498 0.666030
Si Si6 0.567857 0.382557 0.829990
Si Si7 0.195827 0.302280 0.339222
Si Si8 0.069185 0.790503 0.176025
O O1 0.744319 0.500000 0.750000
O O2 0.724042 0.564662 0.500000
O O3 0.639969 0.582986 0.719746
O O4 0.774632 0.627274 0.732162
O O5 0.749455 0.133667 0.725849
O O6 0.628930 0.179069 0.799916
O O7 0.736983 0.254527 0.839520
O O8 0.720224 0.145012 0.000000
O O9 0.946258 0.073847 0.500000
O O10 0.834377 0.043789 0.363514
O O11 0.920911 0.132910 0.241392
O O12 0.947162 0.000000 0.250000
O O13 0.718209 0.000000 0.250000
O O14 0.717490 0.939904 0.000000
O O15 0.500000 0.190599 0.750000
O O16 0.456075 0.225269 0.500000
O O17 0.424790 0.303364 0.718346
O O18 0.500000 0.414741 0.750000
O O19 0.556414 0.391663 0.000000
O O20 0.171735 0.320501 0.500000
O O21 0.130641 0.261197 0.269434
O O22 0.000000 0.759939 0.250000
O O23 0.065923 0.794620 0.000000
#
# Coordination Sequence:
#
# PCOD8202426 Si02
#       8
#     8   8   8   8   8   8   8   8
#     4  10  20  36  55  78 106 140 179 218 262 311
#     4  10  17  31  55  77  98 135 180 219 262 313
#     4  10  20  34  52  78 112 147 181 215 254 307
#     4  10  20  32  49  76 108 139 173 218 263 309
#     4   9  17  29  48  73 102 136 173 216 261 312
#     4   9  17  30  48  71 105 142 177 212 250 304
#     4   9  18  35  58  78 102 137 176 213 259 316
#     4  11  22  37  58  81 107 141 176 217 266 316
#
# _framework density 18.368570999999999
#
# number of rings (size 3 to 8) (size 9 to 14) (size 15 to 20)
#    0.000    2.250    2.500    1.125    0.000    2.500 
#    0.000    4.375    0.000    0.750    0.000    5.250 
#    0.000    0.000    0.000    0.000    0.000    0.000 
#
# Total GULP energy -792906.991576 kJ/mol
# GULP energy per Si atom -12389.171743 kJ/mol
# Density = 1.832676 g / cm^3
# Si number density = 18.368571 Si / 1000 Ang^3
#
#
#
# Elastic Constant Matrix: (Units=GPa)
#
#
# Indices 1 2 3 4 5 6 
#
# 1 93.1101 44.5424 43.2271 0.0000 0.0000 0.0000
# 2 44.5424 92.7967 38.3917 0.0000 0.0000 0.0000
# 3 43.2271 38.3917 75.3384 0.0000 0.0000 0.0000
# 4 0.0000 0.0000 0.0000 19.7586 0.0000 0.0000
# 5 0.0000 0.0000 0.0000 0.0000 22.5890 0.0000
# 6 0.0000 0.0000 0.0000 0.0000 0.0000 4.4291
#
#
#
# Elastic Compliance Matrix: (Units=1/GPa)
#
#
# Indices 1 2 3 4 5 6 
#
# 1 0.016290 -0.005008 -0.006795 0.000000 0.000000 0.000000
# 2 -0.005008 0.015195 -0.004870 0.000000 0.000000 0.000000
# 3 -0.006795 -0.004870 0.019654 0.000000 0.000000 0.000000
# 4 0.000000 0.000000 0.000000 0.050611 0.000000 0.000000
# 5 0.000000 0.000000 0.000000 0.000000 0.044269 0.000000
# 6 0.000000 0.000000 0.000000 0.000000 0.000000 0.225781
#
#
# Mechanical properties :
#
#
# Convention : Reuss Voigt Hill
#
# Bulk Modulus (GPa) = 56.20001 57.06308 56.63154
# Shear Modulus (GPa) = 12.16318 18.36093 15.26205
#
# Velocity S-wave (km/s) = 2.57606 3.16505 2.88562
# Velocity P-wave (km/s) = 6.28572 6.67006 6.48074
#
# Compressibility (1/GPa) = 0.01779359
#
# Stress axis : x y z
#
# Youngs Moduli (GPa) = 61.38586 65.81194 50.88128
#
# Poissons Ratio (x) = 0.32960 0.34573
# Poissons Ratio (y) = 0.30744 0.24777
# Poissons Ratio (z) = 0.41711 0.32047
#
# Static dielectric constant tensor:
#      x y z
#    x 3.494220 0.000000 0.000000 
#    y 0.000000 3.227170 0.000000 
#    z 0.000000 0.000000 3.491390 
# 
# 
# High freq. dielectric constant tensor:
#      x y z
#    x 1.706330 0.000000 0.000000 
#    y 0.000000 1.690720 0.000000 
#    z 0.000000 0.000000 1.704100 
# 
# From -- ./inp_files/5976.got.cif
#   From: 2010.03.12/outbox.cif.g09.slc.cpg/sg49_3_cif.got.tgz:5976.got - 2010.04.14 03:58:27.
