data_PCOD8202950
_publ_section_title
;
Structure prediction by ZEFSAII (Michael W. Deem and Ramdas Pophale) SiO2 
 PCOD8202950
Probable space group: P C C M
;
_chemical_formula_sum "Si O2"
_cell_formula_units_Z 64
_cell_length_a 27.732307
_cell_length_b 14.444740
_cell_length_c 8.797125
_cell_angle_alpha 90.000000
_cell_angle_beta 90.000000
_cell_angle_gamma 90.000000
_cell_volume 3524.004800
_symmetry_space_group_name_H-M "P C C M"
_symmetry_group_IT_number 49
_symmetry_cell_setting 'orthorhombic'
loop_
_space_group_symop_operation_xyz
x,y,z
-x,-y,z
x,-y,1/2-z
-x,y,1/2-z
-x,-y,-z
x,y,-z
-x,y,1/2+z
x,-y,1/2+z
loop_
_atom_site_type_symbol
_atom_site_label
_atom_site_fract_x
_atom_site_fract_y
_atom_site_fract_z
Si Si1 0.051810 0.097410 0.181546
Si Si2 0.676517 0.909118 0.320840
Si Si3 0.864454 0.208939 0.180215
Si Si4 0.171810 0.590790 0.822318
Si Si5 0.734724 0.645355 0.831626
Si Si6 0.450009 0.401977 0.678985
Si Si7 0.770916 0.852707 0.170126
Si Si8 0.356682 0.290556 0.677590
O O1 0.087497 0.178418 0.233351
O O2 0.000000 0.122534 0.250000
O O3 0.070122 0.000000 0.250000
O O4 0.049008 0.090980 0.000000
O O5 0.676890 0.917882 0.500000
O O6 0.731328 0.911310 0.260298
O O7 0.648416 0.816248 0.268079
O O8 0.650348 0.000000 0.250000
O O9 0.855334 0.315624 0.228759
O O10 0.820764 0.143892 0.236551
O O11 0.870096 0.198026 0.000000
O O12 0.146145 0.500000 0.750000
O O13 0.227563 0.589540 0.770498
O O14 0.169984 0.580314 0.000000
O O15 0.752038 0.749598 0.840256
O O16 0.681543 0.642136 0.759252
O O17 0.732760 0.601291 0.000000
O O18 0.434764 0.500000 0.750000
O O19 0.500000 0.366096 0.750000
O O20 0.456297 0.414999 0.500000
O O21 0.409935 0.325485 0.719114
O O22 0.778801 0.892957 0.000000
O O23 0.345601 0.297483 0.500000
#
# Coordination Sequence:
#
# PCOD8202950 Si02
#       8
#     8   8   8   8   8   8   8   8
#     4  11  22  38  59  82 107 134 166 209 258 311
#     4  10  19  32  49  71 100 135 171 208 247 292
#     4  10  20  35  54  78 106 138 174 214 258 304
#     4  10  20  33  51  74 106 143 178 214 253 298
#     4   9  17  29  47  70  98 130 168 208 246 289
#     4  10  20  35  54  76  99 125 157 199 249 302
#     4   9  17  30  47  70  98 131 169 207 245 290
#     4   9  19  34  51  71 100 134 167 203 249 300
#
# _framework density 18.161155999999998
#
# number of rings (size 3 to 8) (size 9 to 14) (size 15 to 20)
#    0.000    2.250    0.000    4.125    0.000    7.000 
#    0.000    3.750    0.000    0.750    0.000    5.250 
#    0.000    0.000    0.000    0.000    0.000    0.000 
#
# Total GULP energy -793504.206198 kJ/mol
# GULP energy per Si atom -12398.503222 kJ/mol
# Density = 1.811982 g / cm^3
# Si number density = 18.161156 Si / 1000 Ang^3
#
#
#
# Elastic Constant Matrix: (Units=GPa)
#
#
# Indices 1 2 3 4 5 6 
#
# 1 108.3574 59.7623 50.1877 0.0000 0.0000 0.0000
# 2 59.7623 100.4700 45.9134 0.0000 0.0000 0.0000
# 3 50.1877 45.9134 104.8907 0.0000 0.0000 0.0000
# 4 0.0000 0.0000 0.0000 28.6776 0.0000 0.0000
# 5 0.0000 0.0000 0.0000 0.0000 27.3364 0.0000
# 6 0.0000 0.0000 0.0000 0.0000 0.0000 22.7028
#
#
#
# Elastic Compliance Matrix: (Units=1/GPa)
#
#
# Indices 1 2 3 4 5 6 
#
# 1 0.015021 -0.007064 -0.004095 0.000000 0.000000 0.000000
# 2 -0.007064 0.015764 -0.003520 0.000000 0.000000 0.000000
# 3 -0.004095 -0.003520 0.013034 0.000000 0.000000 0.000000
# 4 0.000000 0.000000 0.000000 0.034870 0.000000 0.000000
# 5 0.000000 0.000000 0.000000 0.000000 0.036581 0.000000
# 6 0.000000 0.000000 0.000000 0.000000 0.000000 0.044047
#
#
# Mechanical properties :
#
#
# Convention : Reuss Voigt Hill
#
# Bulk Modulus (GPa) = 69.15429 69.49388 69.32409
# Shear Modulus (GPa) = 25.84017 26.26701 26.05359
#
# Velocity S-wave (km/s) = 3.77613 3.80719 3.79169
# Velocity P-wave (km/s) = 7.56128 7.59437 7.57784
#
# Compressibility (1/GPa) = 0.01446042
#
# Stress axis : x y z
#
# Youngs Moduli (GPa) = 66.57189 63.43744 76.72074
#
# Poissons Ratio (x) = 0.44809 0.31421
# Poissons Ratio (y) = 0.47023 0.27009
# Poissons Ratio (z) = 0.27264 0.22332
#
# Static dielectric constant tensor:
#      x y z
#    x 3.234420 0.000000 0.000000 
#    y 0.000000 3.477200 0.000000 
#    z 0.000000 0.000000 3.526510 
# 
# 
# High freq. dielectric constant tensor:
#      x y z
#    x 1.678020 0.000000 0.000000 
#    y 0.000000 1.700240 0.000000 
#    z 0.000000 0.000000 1.719820 
# 
# From -- ./inp_files/6565.got.cif
#   From: 2010.03.12/outbox.cif.g09.slc.cpg/sg49_4_cif.got.tgz:6565.got - 2010.04.14 03:58:27.
