data_PCOD8202054
_publ_section_title
;
Structure prediction by ZEFSAII (Michael W. Deem and Ramdas Pophale) SiO2 
 PCOD8202054
Probable space group: P N N N
;
_chemical_formula_sum "Si O2"
_cell_formula_units_Z 48
_cell_length_a 16.520824
_cell_length_b 9.391776
_cell_length_c 13.515964
_cell_angle_alpha 90.000000
_cell_angle_beta 90.000000
_cell_angle_gamma 90.000000
_cell_volume 2097.135330
_symmetry_space_group_name_H-M "P N N N"
_symmetry_group_IT_number 48
_space_group.IT_coordinate_system_code '2'
_symmetry_cell_setting 'orthorhombic'
loop_
_space_group_symop_operation_xyz
x,y,z
1/2-x,1/2-y,z
x,1/2-y,1/2-z
1/2-x,y,1/2-z
-x,-y,-z
1/2+x,1/2+y,-z
-x,1/2+y,1/2+z
1/2+x,-y,1/2+z
loop_
_atom_site_type_symbol
_atom_site_label
_atom_site_fract_x
_atom_site_fract_y
_atom_site_fract_z
Si Si1 0.665684 0.826486 0.039154
Si Si2 0.086058 0.052430 0.024881
Si Si3 0.987302 0.914092 0.770297
Si Si4 0.160133 0.730294 0.523120
Si Si5 0.160993 0.556703 0.797362
Si Si6 0.428264 0.961232 0.073569
O O1 0.750000 0.750000 0.019659
O O2 0.660549 0.906093 0.144561
O O3 0.598651 0.703521 0.028777
O O4 0.649900 0.941450 0.952715
O O5 0.149397 0.939960 0.978742
O O6 0.077882 0.058683 0.143318
O O7 0.000000 0.000000 0.000000
O O8 0.976272 0.750000 0.750000
O O9 0.085441 0.945851 0.781546
O O10 0.957090 0.017021 0.683941
O O11 0.250000 0.750000 0.484782
O O12 0.146820 0.806613 0.630356
O O13 0.097594 0.797747 0.444077
O O14 0.250000 0.575152 0.750000
O O15 0.500000 0.000000 0.000000
#
# Coordination Sequence:
#
# PCOD8202054 Si02
#       6
#     8   8   8   8   8   8
#     4  11  24  47  69 101 152 187 231 299 383 424
#     4  12  26  44  71 108 144 191 247 303 359 440
#     4  12  25  44  76 108 138 191 259 292 361 451
#     4  11  25  46  72 103 149 188 234 302 380 428
#     4  11  27  46  73 109 145 189 237 303 379 451
#     4  11  21  47  72  99 145 197 233 299 364 438
#
# _framework density 22.888365
#
# number of rings (size 3 to 8) (size 9 to 14) (size 15 to 20)
#    0.000    0.667    5.000    4.000    7.000    1.000 
#    0.000    5.833    0.000    0.000    0.000    0.000 
#    0.000    0.000    0.000    0.000    0.000    0.000 
#
# Total GULP energy -594713.213267 kJ/mol
# GULP energy per Si atom -12389.858610 kJ/mol
# Density = 2.283627 g / cm^3
# Si number density = 22.888365 Si / 1000 Ang^3
#
#
#
# Elastic Constant Matrix: (Units=GPa)
#
#
# Indices 1 2 3 4 5 6 
#
# 1 86.8013 16.0010 18.2146 0.0000 0.0000 0.0000
# 2 16.0010 105.2611 39.6182 0.0000 0.0000 0.0000
# 3 18.2146 39.6182 94.0751 0.0000 0.0000 0.0000
# 4 0.0000 0.0000 0.0000 23.6050 0.0000 0.0000
# 5 0.0000 0.0000 0.0000 0.0000 36.8240 0.0000
# 6 0.0000 0.0000 0.0000 0.0000 0.0000 47.8714
#
#
#
# Elastic Compliance Matrix: (Units=1/GPa)
#
#
# Indices 1 2 3 4 5 6 
#
# 1 0.012123 -0.001140 -0.001867 0.000000 0.000000 0.000000
# 2 -0.001140 0.011397 -0.004579 0.000000 0.000000 0.000000
# 3 -0.001867 -0.004579 0.012920 0.000000 0.000000 0.000000
# 4 0.000000 0.000000 0.000000 0.042364 0.000000 0.000000
# 5 0.000000 0.000000 0.000000 0.000000 0.027156 0.000000
# 6 0.000000 0.000000 0.000000 0.000000 0.000000 0.020889
#
#
# Mechanical properties :
#
#
# Convention : Reuss Voigt Hill
#
# Bulk Modulus (GPa) = 47.02100 48.20057 47.61079
# Shear Modulus (GPa) = 33.53243 35.81366 34.67304
#
# Velocity S-wave (km/s) = 3.83174 3.95993 3.89636
# Velocity P-wave (km/s) = 6.33755 6.48173 6.41004
#
# Compressibility (1/GPa) = 0.02126709
#
# Stress axis : x y z
#
# Youngs Moduli (GPa) = 82.49123 87.74322 77.40171
#
# Poissons Ratio (x) = 0.10003 0.14451
# Poissons Ratio (y) = 0.09405 0.35441
# Poissons Ratio (z) = 0.15401 0.40177
#
# Static dielectric constant tensor:
#      x y z
#    x 4.173880 0.000000 0.000000 
#    y 0.000000 4.277690 0.000000 
#    z 0.000000 0.000000 3.936270 
# 
# 
# High freq. dielectric constant tensor:
#      x y z
#    x 1.915530 0.000000 0.000000 
#    y 0.000000 1.923010 0.000000 
#    z 0.000000 0.000000 1.881200 
# 
# From -- ./inp_files/27880.got.cif
#   From: 2010.06.25/outbox.cif.g09.slc.cpg/sg48_14_cif.got.tgz:27880.got - 2010.06.26 18:06:46.
