data_PCOD8202710
_publ_section_title
;
Structure prediction by ZEFSAII (Michael W. Deem and Ramdas Pophale) SiO2 
 PCOD8202710
Probable space group: P C C M
;
_chemical_formula_sum "Si O2"
_cell_formula_units_Z 56
_cell_length_a 15.611940
_cell_length_b 8.328866
_cell_length_c 20.181323
_cell_angle_alpha 90.000000
_cell_angle_beta 90.000000
_cell_angle_gamma 90.000000
_cell_volume 2624.172511
_symmetry_space_group_name_H-M "P C C M"
_symmetry_group_IT_number 49
_symmetry_cell_setting 'orthorhombic'
loop_
_space_group_symop_operation_xyz
x,y,z
-x,-y,z
x,-y,1/2-z
-x,y,1/2-z
-x,-y,-z
x,y,-z
-x,y,1/2+z
x,-y,1/2+z
loop_
_atom_site_type_symbol
_atom_site_label
_atom_site_fract_x
_atom_site_fract_y
_atom_site_fract_z
Si Si1 0.745864 0.066852 0.924011
Si Si2 0.086003 0.429714 0.074039
Si Si3 0.645547 0.106521 0.685317
Si Si4 0.238998 0.606915 0.134951
Si Si5 0.412487 0.439507 0.175489
Si Si6 0.809704 0.189612 0.261157
Si Si7 0.085141 0.102694 0.125582
O O1 0.747008 0.259552 0.921526
O O2 0.666937 0.004038 0.878585
O O3 0.836492 0.011035 0.893903
O O4 0.733944 0.009683 0.000000
O O5 0.170209 0.473649 0.114895
O O6 0.074207 0.237359 0.069837
O O7 0.000000 0.500000 0.107513
O O8 0.095639 0.498452 0.000000
O O9 0.576099 0.244126 0.669503
O O10 0.724814 0.230844 0.697473
O O11 0.619403 0.000000 0.750000
O O12 0.328870 0.517642 0.142172
O O13 0.194204 0.695529 0.197972
O O14 0.500000 0.500000 0.140186
O O15 0.411551 0.500000 0.250000
O O16 0.896129 0.200553 0.305185
O O17 0.794693 0.000000 0.250000
O O18 0.000000 0.000000 0.134922
#
# Coordination Sequence:
#
# PCOD8202710 Si02
#       7
#     8   8   8   8   8   8   8
#     4  11  22  38  65  93 119 171 228 263 329 395
#     4  11  26  43  60  91 127 171 229 275 324 390
#     4  10  18  40  65  91 127 165 212 267 319 386
#     4  12  21  41  67  90 135 171 206 276 340 391
#     4  11  23  38  65 103 132 166 218 272 334 398
#     4  10  19  37  61  91 121 163 212 261 320 399
#     4  11  23  39  60  88 126 170 217 274 325 386
#
# _framework density 21.340060000000001
#
# number of rings (size 3 to 8) (size 9 to 14) (size 15 to 20)
#    0.000    1.143    5.714    3.429    0.000    2.571 
#    0.000    7.143    0.000    4.714    0.000    0.000 
#    0.000    0.000    0.000    0.000    0.000    0.000 
#
# Total GULP energy -693735.243860 kJ/mol
# GULP energy per Si atom -12388.129355 kJ/mol
# Density = 2.129149 g / cm^3
# Si number density = 21.340060 Si / 1000 Ang^3
#
#
#
# Elastic Constant Matrix: (Units=GPa)
#
#
# Indices 1 2 3 4 5 6 
#
# 1 137.1840 63.1457 39.2746 0.0000 0.0000 0.0000
# 2 63.1457 124.6452 21.4372 0.0000 0.0000 0.0000
# 3 39.2746 21.4372 95.8970 0.0000 0.0000 0.0000
# 4 0.0000 0.0000 0.0000 24.0157 0.0000 0.0000
# 5 0.0000 0.0000 0.0000 0.0000 9.3312 0.0000
# 6 0.0000 0.0000 0.0000 0.0000 0.0000 31.1461
#
#
#
# Elastic Compliance Matrix: (Units=1/GPa)
#
#
# Indices 1 2 3 4 5 6 
#
# 1 0.010369 -0.004704 -0.003195 0.000000 0.000000 0.000000
# 2 -0.004704 0.010477 -0.000416 0.000000 0.000000 0.000000
# 3 -0.003195 -0.000416 0.011829 0.000000 0.000000 0.000000
# 4 0.000000 0.000000 0.000000 0.041639 0.000000 0.000000
# 5 0.000000 0.000000 0.000000 0.000000 0.107167 0.000000
# 6 0.000000 0.000000 0.000000 0.000000 0.000000 0.032107
#
#
# Mechanical properties :
#
#
# Convention : Reuss Voigt Hill
#
# Bulk Modulus (GPa) = 62.31843 67.27125 64.79484
# Shear Modulus (GPa) = 21.22537 28.48985 24.85761
#
# Velocity S-wave (km/s) = 3.15719 3.65778 3.41667
# Velocity P-wave (km/s) = 6.52353 7.03072 6.78187
#
# Compressibility (1/GPa) = 0.01604662
#
# Stress axis : x y z
#
# Youngs Moduli (GPa) = 96.43829 95.44597 84.53496
#
# Poissons Ratio (x) = 0.44894 0.27011
# Poissons Ratio (y) = 0.45361 0.03515
# Poissons Ratio (z) = 0.30815 0.03968
#
# Static dielectric constant tensor:
#      x y z
#    x 4.151750 0.000000 0.000000 
#    y 0.000000 3.986300 0.000000 
#    z 0.000000 0.000000 3.798690 
# 
# 
# High freq. dielectric constant tensor:
#      x y z
#    x 1.823810 0.000000 0.000000 
#    y 0.000000 1.854280 0.000000 
#    z 0.000000 0.000000 1.813360 
# 
# From -- ./inp_files/20857.got.cif
#   From: 2010.03.12/outbox.cif.g09.slc.cpg/sg49_11_cif.got.tgz:20857.got - 2010.04.14 03:58:27.
