data_PCOD8202321
_publ_section_title
;
Structure prediction by ZEFSAII (Michael W. Deem and Ramdas Pophale) SiO2 
 PCOD8202321
Probable space group: P C C M
;
_chemical_formula_sum "Si O2"
_cell_formula_units_Z 64
_cell_length_a 28.677426
_cell_length_b 14.150230
_cell_length_c 8.733624
_cell_angle_alpha 90.000000
_cell_angle_beta 90.000000
_cell_angle_gamma 90.000000
_cell_volume 3544.036267
_symmetry_space_group_name_H-M "P C C M"
_symmetry_group_IT_number 49
_symmetry_cell_setting 'orthorhombic'
loop_
_space_group_symop_operation_xyz
x,y,z
-x,-y,z
x,-y,1/2-z
-x,y,1/2-z
-x,-y,-z
x,y,-z
-x,y,1/2+z
x,-y,1/2+z
loop_
_atom_site_type_symbol
_atom_site_label
_atom_site_fract_x
_atom_site_fract_y
_atom_site_fract_z
Si Si1 0.187612 0.721998 0.679782
Si Si2 0.448497 0.090417 0.679653
Si Si3 0.451125 0.726185 0.675013
Si Si4 0.862113 0.104408 0.181019
Si Si5 0.363456 0.598166 0.675358
Si Si6 0.951888 0.776406 0.319843
Si Si7 0.269779 0.395352 0.681286
Si Si8 0.903358 0.396465 0.679194
O O1 0.195465 0.734185 0.500000
O O2 0.176779 0.825190 0.749938
O O3 0.233405 0.680852 0.757790
O O4 0.147026 0.647079 0.716748
O O5 0.500000 0.093669 0.750000
O O6 0.449669 0.081470 0.500000
O O7 0.425780 0.187390 0.735998
O O8 0.421377 0.000000 0.750000
O O9 0.500000 0.693590 0.750000
O O10 0.461603 0.754359 0.500000
O O11 0.413003 0.646761 0.690076
O O12 0.912539 0.147182 0.225699
O O13 0.856645 0.000000 0.250000
O O14 0.855254 0.098817 0.000000
O O15 0.374561 0.500000 0.750000
O O16 0.347389 0.588467 0.500000
O O17 0.320441 0.644920 0.767703
O O18 0.956223 0.765858 0.500000
O O19 0.941753 0.672872 0.251163
O O20 0.000000 0.815100 0.250000
O O21 0.261142 0.500000 0.750000
O O22 0.265962 0.402392 0.500000
O O23 0.907410 0.500000 0.750000
O O24 0.912726 0.403872 0.500000
#
# Coordination Sequence:
#
# PCOD8202321 Si02
#       8
#     8   8   8   8   8   8   8   8
#     4  10  20  35  56  81 108 136 169 212 260 312
#     4  10  17  27  45  68  95 124 158 201 247 295
#     4  10  20  33  50  73 101 135 175 217 260 306
#     4  10  21  37  57  81 108 139 176 219 265 313
#     4  10  21  36  53  74 103 138 176 216 257 304
#     4  10  21  36  53  74 103 138 179 223 264 310
#     4  11  21  34  55  81 109 139 172 210 256 310
#     4  10  20  33  51  75 104 137 172 212 259 311
#
# _framework density 18.058506000000001
#
# number of rings (size 3 to 8) (size 9 to 14) (size 15 to 20)
#    0.000    1.875    0.000    6.750    0.000    6.750 
#    0.000    3.750    0.000    0.750    0.000    1.750 
#    0.000    0.000    0.000    0.000    0.000    0.000 
#
# Total GULP energy -793412.851132 kJ/mol
# GULP energy per Si atom -12397.075799 kJ/mol
# Density = 1.801740 g / cm^3
# Si number density = 18.058506 Si / 1000 Ang^3
#
#
#
# Elastic Constant Matrix: (Units=GPa)
#
#
# Indices 1 2 3 4 5 6 
#
# 1 87.5787 53.0777 53.8752 0.0000 0.0000 0.0000
# 2 53.0777 114.1589 59.7656 0.0000 0.0000 0.0000
# 3 53.8752 59.7656 137.7719 0.0000 0.0000 0.0000
# 4 0.0000 0.0000 0.0000 33.5314 0.0000 0.0000
# 5 0.0000 0.0000 0.0000 0.0000 40.5816 0.0000
# 6 0.0000 0.0000 0.0000 0.0000 0.0000 20.2600
#
#
#
# Elastic Compliance Matrix: (Units=1/GPa)
#
#
# Indices 1 2 3 4 5 6 
#
# 1 0.017696 -0.005958 -0.004335 0.000000 0.000000 0.000000
# 2 -0.005958 0.013340 -0.003457 0.000000 0.000000 0.000000
# 3 -0.004335 -0.003457 0.010453 0.000000 0.000000 0.000000
# 4 0.000000 0.000000 0.000000 0.029823 0.000000 0.000000
# 5 0.000000 0.000000 0.000000 0.000000 0.024642 0.000000
# 6 0.000000 0.000000 0.000000 0.000000 0.000000 0.049358
#
#
# Mechanical properties :
#
#
# Convention : Reuss Voigt Hill
#
# Bulk Modulus (GPa) = 71.48742 74.77183 73.12963
# Shear Modulus (GPa) = 28.17287 30.39400 29.28343
#
# Velocity S-wave (km/s) = 3.95408 4.10699 4.03126
# Velocity P-wave (km/s) = 7.77939 7.99907 7.88999
#
# Compressibility (1/GPa) = 0.01398847
#
# Stress axis : x y z
#
# Youngs Moduli (GPa) = 56.50928 74.96435 95.66321
#
# Poissons Ratio (x) = 0.44664 0.41474
# Poissons Ratio (y) = 0.33668 0.33070
# Poissons Ratio (z) = 0.24499 0.25914
#
# Static dielectric constant tensor:
#      x y z
#    x 3.254440 0.000000 0.000000 
#    y 0.000000 3.833020 0.000000 
#    z 0.000000 0.000000 3.567780 
# 
# 
# High freq. dielectric constant tensor:
#      x y z
#    x 1.679800 0.000000 0.000000 
#    y 0.000000 1.698240 0.000000 
#    z 0.000000 0.000000 1.722980 
# 
# From -- ./inp_files/6995.got.cif
#   From: 2010.03.12/outbox.cif.g09.slc.cpg/sg49_4_cif.got.tgz:6995.got - 2010.04.14 03:58:27.
