data_PCOD8202696
_publ_section_title
;
Structure prediction by ZEFSAII (Michael W. Deem and Ramdas Pophale) SiO2 
 PCOD8202696
Probable space group: P C C M
;
_chemical_formula_sum "Si O2"
_cell_formula_units_Z 58
_cell_length_a 13.288499
_cell_length_b 10.012055
_cell_length_c 24.655548
_cell_angle_alpha 90.000000
_cell_angle_beta 90.000000
_cell_angle_gamma 90.000000
_cell_volume 3280.301892
_symmetry_space_group_name_H-M "P C C M"
_symmetry_group_IT_number 49
_symmetry_cell_setting 'orthorhombic'
loop_
_space_group_symop_operation_xyz
x,y,z
-x,-y,z
x,-y,1/2-z
-x,y,1/2-z
-x,-y,-z
x,y,-z
-x,y,1/2+z
x,-y,1/2+z
loop_
_atom_site_type_symbol
_atom_site_label
_atom_site_fract_x
_atom_site_fract_y
_atom_site_fract_z
Si Si1 0.190204 0.656344 0.309024
Si Si2 0.006084 0.650417 0.876697
Si Si3 0.283010 0.871154 0.382012
Si Si4 0.208185 0.352038 0.684778
Si Si5 0.500000 0.000000 0.750000
Si Si6 0.623711 0.856757 0.341917
Si Si7 0.929243 0.886573 0.937342
Si Si8 0.482312 0.154952 0.940150
O O1 0.077130 0.673316 0.330508
O O2 0.267181 0.762995 0.334488
O O3 0.233370 0.508912 0.321701
O O4 0.179232 0.683584 0.245796
O O5 0.981988 0.744341 0.927532
O O6 0.000000 0.500000 0.898666
O O7 0.114938 0.687412 0.853242
O O8 0.180754 0.894709 0.413240
O O9 0.367337 0.814774 0.423072
O O10 0.314593 0.012253 0.357575
O O11 0.304964 0.267499 0.669113
O O12 0.561815 0.898388 0.711643
O O13 0.554884 0.799797 0.391128
O O14 0.917464 0.913968 0.000000
O O15 0.000000 0.000000 0.910546
O O16 0.500000 0.000000 0.947388
O O17 0.503275 0.222211 0.000000
#
# Coordination Sequence:
#
# PCOD8202696 Si02
#       8
#     8   8   8   8   2   8   8   8
#     4   9  19  33  53  77 108 135 174 208 265 321
#     4   9  18  34  53  74 104 139 178 212 254 320
#     4  10  18  35  54  76 100 140 171 221 264 320
#     4  10  19  33  53  78 104 141 171 215 259 321
#     4  12  20  36  50  82 110 140 168 228 284 316
#     4  11  21  33  56  76 107 134 178 220 267 320
#     4  10  20  32  50  78 109 135 172 224 271 314
#     4   9  18  34  54  75  96 133 182 218 255 310
#
# _framework density 17.6813
#
# number of rings (size 3 to 8) (size 9 to 14) (size 15 to 20)
#    0.000    2.207    2.069    2.483    0.000    2.483 
#    0.000    1.379    0.000    7.448    0.000    0.000 
#    0.000    0.000    0.000    0.000    0.000    0.000 
#
# Total GULP energy -718956.630789 kJ/mol
# GULP energy per Si atom -12395.803979 kJ/mol
# Density = 1.764106 g / cm^3
# Si number density = 17.681300 Si / 1000 Ang^3
#
#
#
# Elastic Constant Matrix: (Units=GPa)
#
#
# Indices 1 2 3 4 5 6 
#
# 1 110.8203 49.3803 31.6100 0.0000 0.0000 0.0000
# 2 49.3803 72.4357 25.3255 0.0000 0.0000 0.0000
# 3 31.6100 25.3255 63.0300 0.0000 0.0000 0.0000
# 4 0.0000 0.0000 0.0000 -22.4885 0.0000 0.0000
# 5 0.0000 0.0000 0.0000 0.0000 41.0591 0.0000
# 6 0.0000 0.0000 0.0000 0.0000 0.0000 31.4088
#
#
#
# Elastic Compliance Matrix: (Units=1/GPa)
#
#
# Indices 1 2 3 4 5 6 
#
# 1 0.013632 -0.008031 -0.003610 0.000000 0.000000 0.000000
# 2 -0.008031 0.020793 -0.004327 0.000000 0.000000 0.000000
# 3 -0.003610 -0.004327 0.019414 0.000000 0.000000 0.000000
# 4 0.000000 0.000000 0.000000 -0.044467 0.000000 0.000000
# 5 0.000000 0.000000 0.000000 0.000000 0.024355 0.000000
# 6 0.000000 0.000000 0.000000 0.000000 0.000000 0.031838
#
#
# Mechanical properties :
#
#
# Convention : Reuss Voigt Hill
#
# Bulk Modulus (GPa) = 45.65402 50.99087 48.32244
# Shear Modulus (GPa) = 47.70925 19.32723 33.51824
#
# Velocity S-wave (km/s) = 5.20014 3.30978 4.35867
# Velocity P-wave (km/s) = 7.86968 6.59603 7.26084
#
# Compressibility (1/GPa) = 0.02190388
#
# Stress axis : x y z
#
# Youngs Moduli (GPa) = 73.35858 48.09319 51.50837
#
# Poissons Ratio (x) = 0.38623 0.18592
# Poissons Ratio (y) = 0.58913 0.22288
# Poissons Ratio (z) = 0.26479 0.20810
#
# Static dielectric constant tensor:
#      x y z
#    x 3.441170 0.000000 0.000000 
#    y 0.000000 3.273620 0.000000 
#    z 0.000000 0.000000 3.510560 
# 
# 
# High freq. dielectric constant tensor:
#      x y z
#    x 1.691800 0.000000 0.000000 
#    y 0.000000 1.669160 0.000000 
#    z 0.000000 0.000000 1.687740 
# 
# From -- ./inp_files/25090.got.cif
#   From: 2010.03.12/outbox.cif.g09.slc.cpg/sg49_13_cif.got.tgz:25090.got - 2010.04.14 03:58:27.
