data_PCOD8202853
_publ_section_title
;
Structure prediction by ZEFSAII (Michael W. Deem and Ramdas Pophale) SiO2 
 PCOD8202853
Probable space group: P C C M
;
_chemical_formula_sum "Si O2"
_cell_formula_units_Z 64
_cell_length_a 20.372564
_cell_length_b 19.927948
_cell_length_c 8.846441
_cell_angle_alpha 90.000000
_cell_angle_beta 90.000000
_cell_angle_gamma 90.000000
_cell_volume 3591.508160
_symmetry_space_group_name_H-M "P C C M"
_symmetry_group_IT_number 49
_symmetry_cell_setting 'orthorhombic'
loop_
_space_group_symop_operation_xyz
x,y,z
-x,-y,z
x,-y,1/2-z
-x,y,1/2-z
-x,-y,-z
x,y,-z
-x,y,1/2+z
x,-y,1/2+z
loop_
_atom_site_type_symbol
_atom_site_label
_atom_site_fract_x
_atom_site_fract_y
_atom_site_fract_z
Si Si1 0.685033 0.834833 0.322937
Si Si2 0.761649 0.288806 0.176885
Si Si3 0.202593 0.931604 0.179070
Si Si4 0.797479 0.565807 0.676855
Si Si5 0.429928 0.071317 0.681664
Si Si6 0.935418 0.120596 0.177400
Si Si7 0.105313 0.250737 0.828236
Si Si8 0.066467 0.399998 0.173046
O O1 0.680815 0.844658 0.500000
O O2 0.695957 0.755286 0.283098
O O3 0.749080 0.873616 0.261897
O O4 0.618824 0.869321 0.259437
O O5 0.753719 0.367966 0.216472
O O6 0.820510 0.258591 0.272480
O O7 0.779146 0.280130 0.000000
O O8 0.129383 0.916485 0.239223
O O9 0.228591 0.000000 0.250000
O O10 0.203541 0.937015 0.000000
O O11 0.763242 0.500000 0.750000
O O12 0.801873 0.555068 0.500000
O O13 0.870990 0.571026 0.739937
O O14 0.500000 0.090883 0.750000
O O15 0.433641 0.065642 0.500000
O O16 0.406173 0.000000 0.750000
O O17 0.932778 0.198402 0.223769
O O18 0.000000 0.086575 0.250000
O O19 0.941206 0.114975 0.000000
O O20 0.066354 0.319929 0.815401
O O21 0.106678 0.224434 0.000000
O O22 0.000000 0.427567 0.250000
O O23 0.069437 0.424340 0.000000
#
# Coordination Sequence:
#
# PCOD8202853 Si02
#       8
#     8   8   8   8   8   8   8   8
#     4   9  17  33  55  77 100 132 171 208 244 288
#     4   9  17  33  54  73  96 127 164 201 245 292
#     4  10  21  36  52  69  92 122 159 205 250 297
#     4  10  20  33  51  70  94 126 155 195 246 301
#     4  10  19  32  52  77 112 148 179 210 243 290
#     4  11  22  35  50  65  88 119 156 205 256 310
#     4  10  19  31  48  71  94 118 152 199 252 303
#     4  10  20  32  46  66  91 117 154 197 243 302
#
# _framework density 17.819813
#
# number of rings (size 3 to 8) (size 9 to 14) (size 15 to 20)
#    0.000    2.125    1.250    3.000    0.000    4.500 
#    0.000    4.375    0.000    0.000    0.000    0.000 
#    0.000    0.500    0.000    6.250    0.000    0.000 
#
# Total GULP energy -793283.266367 kJ/mol
# GULP energy per Si atom -12395.051037 kJ/mol
# Density = 1.777925 g / cm^3
# Si number density = 17.819813 Si / 1000 Ang^3
#
#
#
# Elastic Constant Matrix: (Units=GPa)
#
#
# Indices 1 2 3 4 5 6 
#
# 1 94.2403 53.2749 27.9214 0.0000 0.0000 0.0000
# 2 53.2749 115.9439 30.1729 0.0000 0.0000 0.0000
# 3 27.9214 30.1729 58.7968 0.0000 0.0000 0.0000
# 4 0.0000 0.0000 0.0000 20.7037 0.0000 0.0000
# 5 0.0000 0.0000 0.0000 0.0000 17.3460 0.0000
# 6 0.0000 0.0000 0.0000 0.0000 0.0000 14.8566
#
#
#
# Elastic Compliance Matrix: (Units=1/GPa)
#
#
# Indices 1 2 3 4 5 6 
#
# 1 0.015179 -0.005884 -0.004188 0.000000 0.000000 0.000000
# 2 -0.005884 0.012235 -0.003485 0.000000 0.000000 0.000000
# 3 -0.004188 -0.003485 0.020785 0.000000 0.000000 0.000000
# 4 0.000000 0.000000 0.000000 0.048301 0.000000 0.000000
# 5 0.000000 0.000000 0.000000 0.000000 0.057650 0.000000
# 6 0.000000 0.000000 0.000000 0.000000 0.000000 0.067310
#
#
# Mechanical properties :
#
#
# Convention : Reuss Voigt Hill
#
# Bulk Modulus (GPa) = 47.42836 54.63549 51.03192
# Shear Modulus (GPa) = 19.56164 21.08872 20.32518
#
# Velocity S-wave (km/s) = 3.31682 3.44385 3.38093
# Velocity P-wave (km/s) = 6.42975 6.82202 6.62879
#
# Compressibility (1/GPa) = 0.02108443
#
# Stress axis : x y z
#
# Youngs Moduli (GPa) = 65.88230 81.72941 48.11212
#
# Poissons Ratio (x) = 0.48093 0.20151
# Poissons Ratio (y) = 0.38768 0.16765
# Poissons Ratio (z) = 0.27593 0.28479
#
# Static dielectric constant tensor:
#      x y z
#    x 3.198750 0.000000 0.000000 
#    y 0.000000 3.544780 0.000000 
#    z 0.000000 0.000000 3.256380 
# 
# 
# High freq. dielectric constant tensor:
#      x y z
#    x 1.649420 0.000000 0.000000 
#    y 0.000000 1.692300 0.000000 
#    z 0.000000 0.000000 1.687610 
# 
# From -- ./inp_files/6071.got.cif
#   From: 2010.03.12/outbox.cif.g09.slc.cpg/sg49_4_cif.got.tgz:6071.got - 2010.04.14 03:58:27.
