data_PCOD8202148
_publ_section_title
;
Structure prediction by ZEFSAII (Michael W. Deem and Ramdas Pophale) SiO2 
 PCOD8202148
Probable space group: P N N N
;
_chemical_formula_sum "Si O2"
_cell_formula_units_Z 56
_cell_length_a 13.654108
_cell_length_b 21.066075
_cell_length_c 9.248917
_cell_angle_alpha 90.000000
_cell_angle_beta 90.000000
_cell_angle_gamma 90.000000
_cell_volume 2660.344272
_symmetry_space_group_name_H-M "P N N N"
_symmetry_group_IT_number 48
_space_group.IT_coordinate_system_code '2'
_symmetry_cell_setting 'orthorhombic'
loop_
_space_group_symop_operation_xyz
x,y,z
1/2-x,1/2-y,z
x,1/2-y,1/2-z
1/2-x,y,1/2-z
-x,-y,-z
1/2+x,1/2+y,-z
-x,1/2+y,1/2+z
1/2+x,-y,1/2+z
loop_
_atom_site_type_symbol
_atom_site_label
_atom_site_fract_x
_atom_site_fract_y
_atom_site_fract_z
Si Si1 0.839713 0.572776 0.514100
Si Si2 0.499611 0.444681 0.247704
Si Si3 0.159972 0.927061 0.984930
Si Si4 0.500048 0.088699 0.716352
Si Si5 0.210695 0.185644 0.412245
Si Si6 0.289294 0.685622 0.587756
Si Si7 0.000073 0.151598 0.484201
O O1 0.907121 0.580872 0.655828
O O2 0.803418 0.499510 0.508566
O O3 0.899873 0.593130 0.372950
O O4 0.747505 0.620036 0.515401
O O5 0.491675 0.518521 0.278797
O O6 0.499318 0.415946 0.405991
O O7 0.599266 0.425516 0.164480
O O8 0.092532 0.900567 0.113114
O O9 0.252309 0.879914 0.984629
O O10 0.500206 0.140833 0.843200
O O11 0.250000 0.250000 0.489118
O O12 0.250000 0.185717 0.250000
O O13 0.094098 0.190679 0.430296
O O14 0.250000 0.750000 0.510968
O O15 0.250000 0.685769 0.750000
O O16 0.405965 0.690393 0.570508
#
# Coordination Sequence:
#
# PCOD8202148 Si02
#       7
#     8   8   8   8   8   8   8
#     4   9  19  41  64  90 131 175 204 250 324 372
#     4   9  17  36  65  93 129 165 217 256 300 370
#     4   9  19  41  64  90 131 175 204 250 324 372
#     4   9  21  36  64  99 130 166 201 264 316 373
#     4  11  25  43  66  94 123 169 217 262 309 369
#     4  11  25  43  66  94 123 169 217 262 309 369
#     4  12  23  39  62  98 122 159 219 264 303 377
#
# _framework density 21.049906
#
# number of rings (size 3 to 8) (size 9 to 14) (size 15 to 20)
#    0.000    2.000    2.857    2.143    0.000    8.000 
#    0.000    4.286    0.000    0.000    0.000    0.000 
#    0.000    0.000    0.000    0.000    0.000    0.000 
#
# Total GULP energy -694201.040650 kJ/mol
# GULP energy per Si atom -12396.447154 kJ/mol
# Density = 2.100200 g / cm^3
# Si number density = 21.049906 Si / 1000 Ang^3
#
#
#
# Elastic Constant Matrix: (Units=GPa)
#
#
# Indices 1 2 3 4 5 6 
#
# 1 152.3994 66.2241 23.8047 0.0000 0.0000 0.0000
# 2 66.2241 117.8192 21.4759 0.0000 0.0000 0.0000
# 3 23.8047 21.4759 85.2548 0.0000 0.0000 0.0000
# 4 0.0000 0.0000 0.0000 18.3678 0.0000 0.0000
# 5 0.0000 0.0000 0.0000 0.0000 15.5992 0.0000
# 6 0.0000 0.0000 0.0000 0.0000 0.0000 3.6121
#
#
#
# Elastic Compliance Matrix: (Units=1/GPa)
#
#
# Indices 1 2 3 4 5 6 
#
# 1 0.008812 -0.004721 -0.001271 0.000000 0.000000 0.000000
# 2 -0.004721 0.011426 -0.001560 0.000000 0.000000 0.000000
# 3 -0.001271 -0.001560 0.012477 0.000000 0.000000 0.000000
# 4 0.000000 0.000000 0.000000 0.054443 0.000000 0.000000
# 5 0.000000 0.000000 0.000000 0.000000 0.064106 0.000000
# 6 0.000000 0.000000 0.000000 0.000000 0.000000 0.276851
#
#
# Mechanical properties :
#
#
# Convention : Reuss Voigt Hill
#
# Bulk Modulus (GPa) = 56.78487 64.27587 60.53037
# Shear Modulus (GPa) = 11.13364 23.78041 17.45703
#
# Velocity S-wave (km/s) = 2.30231 3.36477 2.88291
# Velocity P-wave (km/s) = 5.83973 6.75994 6.31662
#
# Compressibility (1/GPa) = 0.01761032
#
# Stress axis : x y z
#
# Youngs Moduli (GPa) = 113.48341 87.52220 80.14490
#
# Poissons Ratio (x) = 0.41322 0.10187
# Poissons Ratio (y) = 0.53579 0.12502
# Poissons Ratio (z) = 0.14425 0.13652
#
# Static dielectric constant tensor:
#      x y z
#    x 3.732790 0.000000 0.000000 
#    y 0.000000 3.987980 0.000000 
#    z 0.000000 0.000000 3.592210 
# 
# 
# High freq. dielectric constant tensor:
#      x y z
#    x 1.823550 0.000000 0.000000 
#    y 0.000000 1.820970 0.000000 
#    z 0.000000 0.000000 1.809520 
# 
# From -- ./inp_files/13087.got.cif
#   From: 2010.06.25/outbox.cif.g09.slc.cpg/sg48_7_cif.got.tgz:13087.got - 2010.06.26 18:06:46.
