data_PCOD8202729
_publ_section_title
;
Structure prediction by ZEFSAII (Michael W. Deem and Ramdas Pophale) SiO2 
 PCOD8202729
Probable space group: P C C M
;
_chemical_formula_sum "Si O2"
_cell_formula_units_Z 64
_cell_length_a 18.390438
_cell_length_b 26.382402
_cell_length_c 8.826800
_cell_angle_alpha 90.000000
_cell_angle_beta 90.000000
_cell_angle_gamma 90.000000
_cell_volume 4282.621498
_symmetry_space_group_name_H-M "P C C M"
_symmetry_group_IT_number 49
_symmetry_cell_setting 'orthorhombic'
loop_
_space_group_symop_operation_xyz
x,y,z
-x,-y,z
x,-y,1/2-z
-x,y,1/2-z
-x,-y,-z
x,y,-z
-x,y,1/2+z
x,-y,1/2+z
loop_
_atom_site_type_symbol
_atom_site_label
_atom_site_fract_x
_atom_site_fract_y
_atom_site_fract_z
Si Si1 0.786732 0.794688 0.833639
Si Si2 0.421687 0.452284 0.174951
Si Si3 0.579147 0.659857 0.177155
Si Si4 0.713711 0.096625 0.333424
Si Si5 0.656165 0.248479 0.822059
Si Si6 0.076699 0.147658 0.820243
Si Si7 0.844255 0.052687 0.178360
Si Si8 0.423289 0.153870 0.820479
O O1 0.750175 0.849052 0.847183
O O2 0.741417 0.760457 0.716505
O O3 0.869430 0.805307 0.779494
O O4 0.785452 0.768617 0.000000
O O5 0.377519 0.500000 0.250000
O O6 0.500000 0.450296 0.250000
O O7 0.387025 0.396677 0.201571
O O8 0.429930 0.464340 0.000000
O O9 0.500000 0.665955 0.250000
O O10 0.635299 0.696890 0.258314
O O11 0.572342 0.672866 0.000000
O O12 0.715004 0.070484 0.500000
O O13 0.758852 0.062063 0.217024
O O14 0.631043 0.107215 0.278608
O O15 0.604195 0.206743 0.747520
O O16 0.644870 0.246532 0.000000
O O17 0.104486 0.095658 0.747268
O O18 0.000000 0.162876 0.750000
O O19 0.071718 0.139809 0.000000
O O20 0.870176 0.000000 0.250000
O O21 0.854628 0.051240 0.000000
O O22 0.500000 0.138846 0.750000
O O23 0.429105 0.160847 0.000000
#
# Coordination Sequence:
#
# PCOD8202729 Si02
#       8
#     8   8   8   8   8   8   8   8
#     4   8  16  31  47  62  84 111 135 162 196 237
#     4   9  16  25  38  52  69  97 133 175 218 260
#     4  10  19  29  39  54  78 107 140 179 223 261
#     4   8  16  31  47  63  83 107 134 164 199 239
#     4  11  20  28  41  60  82 108 139 173 208 247
#     4  10  20  34  51  71  93 114 137 164 194 229
#     4  11  21  33  50  69  89 112 137 164 196 235
#     4  10  19  30  44  61  83 107 132 166 206 248
#
# _framework density 14.944118
#
# number of rings (size 3 to 8) (size 9 to 14) (size 15 to 20)
#    0.000    2.375    0.000    6.000    0.000    7.250 
#    0.000    1.250    0.000    0.375    0.000    2.625 
#    0.000    0.000    0.000    0.000    0.000    0.625 
#
# Total GULP energy -793168.023728 kJ/mol
# GULP energy per Si atom -12393.250371 kJ/mol
# Density = 1.491010 g / cm^3
# Si number density = 14.944118 Si / 1000 Ang^3
#
#
#
# Elastic Constant Matrix: (Units=GPa)
#
#
# Indices 1 2 3 4 5 6 
#
# 1 93.8908 25.6357 38.0669 0.0000 0.0000 0.0000
# 2 25.6357 48.6586 30.3866 0.0000 0.0000 0.0000
# 3 38.0669 30.3866 103.6489 0.0000 0.0000 0.0000
# 4 0.0000 0.0000 0.0000 22.8795 0.0000 0.0000
# 5 0.0000 0.0000 0.0000 0.0000 17.9215 0.0000
# 6 0.0000 0.0000 0.0000 0.0000 0.0000 12.3366
#
#
#
# Elastic Compliance Matrix: (Units=1/GPa)
#
#
# Indices 1 2 3 4 5 6 
#
# 1 0.013398 -0.004879 -0.003490 0.000000 0.000000 0.000000
# 2 -0.004879 0.026934 -0.006104 0.000000 0.000000 0.000000
# 3 -0.003490 -0.006104 0.012719 0.000000 0.000000 0.000000
# 4 0.000000 0.000000 0.000000 0.043707 0.000000 0.000000
# 5 0.000000 0.000000 0.000000 0.000000 0.055799 0.000000
# 6 0.000000 0.000000 0.000000 0.000000 0.000000 0.081059
#
#
# Mechanical properties :
#
#
# Convention : Reuss Voigt Hill
#
# Bulk Modulus (GPa) = 41.48674 48.26408 44.87541
# Shear Modulus (GPa) = 18.47757 20.76814 19.62285
#
# Velocity S-wave (km/s) = 3.52013 3.73194 3.62758
# Velocity P-wave (km/s) = 6.65907 7.13697 6.90216
#
# Compressibility (1/GPa) = 0.02410409
#
# Stress axis : x y z
#
# Youngs Moduli (GPa) = 74.63855 37.12797 78.62013
#
# Poissons Ratio (x) = 0.18115 0.27440
# Poissons Ratio (y) = 0.36416 0.47992
# Poissons Ratio (z) = 0.26051 0.22664
#
# Static dielectric constant tensor:
#      x y z
#    x 3.056990 0.000000 0.000000 
#    y 0.000000 3.118450 0.000000 
#    z 0.000000 0.000000 3.014580 
# 
# 
# High freq. dielectric constant tensor:
#      x y z
#    x 1.544450 0.000000 0.000000 
#    y 0.000000 1.545470 0.000000 
#    z 0.000000 0.000000 1.589320 
# 
# From -- ./inp_files/5451.got.cif
#   From: 2010.03.12/outbox.cif.g09.slc.cpg/sg49_3_cif.got.tgz:5451.got - 2010.04.14 03:58:27.
