data_PCOD8202964
_publ_section_title
;
Structure prediction by ZEFSAII (Michael W. Deem and Ramdas Pophale) SiO2 
 PCOD8202964
Probable space group: P C C M
;
_chemical_formula_sum "Si O2"
_cell_formula_units_Z 64
_cell_length_a 9.158094
_cell_length_b 22.287725
_cell_length_c 15.940865
_cell_angle_alpha 90.000000
_cell_angle_beta 90.000000
_cell_angle_gamma 90.000000
_cell_volume 3253.739063
_symmetry_space_group_name_H-M "P C C M"
_symmetry_group_IT_number 49
_symmetry_cell_setting 'orthorhombic'
loop_
_space_group_symop_operation_xyz
x,y,z
-x,-y,z
x,-y,1/2-z
-x,y,1/2-z
-x,-y,-z
x,y,-z
-x,y,1/2+z
x,-y,1/2+z
loop_
_atom_site_type_symbol
_atom_site_label
_atom_site_fract_x
_atom_site_fract_y
_atom_site_fract_z
Si Si1 0.173464 0.357480 0.907436
Si Si2 0.826536 0.642520 0.592564
Si Si3 0.835037 1.000000 0.400127
Si Si4 0.331912 0.116757 0.901301
Si Si5 0.836550 0.231143 0.846329
Si Si6 0.174418 0.432071 0.250000
Si Si7 0.668088 0.883243 0.401301
Si Si8 0.836550 0.768857 0.153671
O O1 0.237371 0.399969 0.834009
O O2 0.225607 0.288696 0.896063
O O3 1.000000 0.358672 0.900897
O O4 0.225055 0.379800 0.000000
O O5 0.774945 0.620200 0.500000
O O6 0.774393 0.711304 0.603937
O O7 0.762629 0.600031 0.665991
O O8 0.830900 0.000000 0.500000
O O9 0.753643 0.058988 0.365804
O O10 0.753643 0.941012 0.365804
O O11 0.000000 0.000000 0.365783
O O12 0.500000 0.108917 0.876760
O O13 0.270712 0.175750 0.857797
O O14 0.309520 0.123185 0.000000
O O15 0.729288 0.175750 0.857797
O O16 0.841913 0.250447 0.750000
O O17 1.000000 0.213750 0.877696
O O18 0.232385 0.500000 0.250000
O O19 0.000000 0.430216 0.250000
O O20 0.690480 0.876815 0.500000
#
# Coordination Sequence:
#
# PCOD8202964 Si02
#       8
#     8   8   8   8   8   8   8   8
#     4   9  16  27  44  66  95 133 175 218 264 313
#     4   9  16  27  44  66  95 133 175 218 264 313
#     4   9  17  31  52  75 100 133 174 216 260 316
#     4  10  20  33  50  74 103 133 168 214 268 322
#     4  10  19  32  50  71  97 131 174 222 267 315
#     4   9  16  26  40  64 101 138 173 214 259 313
#     4  10  20  33  50  74 103 133 168 214 268 322
#     4  10  19  32  50  71  97 131 174 222 267 315
#
# _framework density 19.669678000000001
#
# number of rings (size 3 to 8) (size 9 to 14) (size 15 to 20)
#    0.000    2.500    1.250    1.875    0.000    5.000 
#    0.000    3.125    0.000    3.750    0.000    0.000 
#    0.000    2.000    0.000    5.250    0.000    5.000 
#
# Total GULP energy -793490.486559 kJ/mol
# GULP energy per Si atom -12398.288852 kJ/mol
# Density = 1.962491 g / cm^3
# Si number density = 19.669678 Si / 1000 Ang^3
#
#
#
# Elastic Constant Matrix: (Units=GPa)
#
#
# Indices 1 2 3 4 5 6 
#
# 1 66.1173 35.7642 23.0907 0.0000 0.0000 0.0000
# 2 35.7642 149.7916 64.5561 0.0000 0.0000 0.0000
# 3 23.0907 64.5561 106.4094 0.0000 0.0000 0.0000
# 4 0.0000 0.0000 0.0000 30.0165 0.0000 0.0000
# 5 0.0000 0.0000 0.0000 0.0000 12.8576 0.0000
# 6 0.0000 0.0000 0.0000 0.0000 0.0000 2.8937
#
#
#
# Elastic Compliance Matrix: (Units=1/GPa)
#
#
# Indices 1 2 3 4 5 6 
#
# 1 0.017597 -0.003461 -0.001719 0.000000 0.000000 0.000000
# 2 -0.003461 0.009720 -0.005146 0.000000 0.000000 0.000000
# 3 -0.001719 -0.005146 0.012893 0.000000 0.000000 0.000000
# 4 0.000000 0.000000 0.000000 0.033315 0.000000 0.000000
# 5 0.000000 0.000000 0.000000 0.000000 0.077775 0.000000
# 6 0.000000 0.000000 0.000000 0.000000 0.000000 0.345574
#
#
# Mechanical properties :
#
#
# Convention : Reuss Voigt Hill
#
# Bulk Modulus (GPa) = 51.12905 63.23781 57.18343
# Shear Modulus (GPa) = 9.54118 22.41404 15.97761
#
# Velocity S-wave (km/s) = 2.20482 3.37934 2.85317
# Velocity P-wave (km/s) = 5.70368 6.88813 6.32369
#
# Compressibility (1/GPa) = 0.01955835
#
# Stress axis : x y z
#
# Youngs Moduli (GPa) = 56.82823 102.88132 77.56383
#
# Poissons Ratio (x) = 0.35603 0.13334
# Poissons Ratio (y) = 0.19666 0.39914
# Poissons Ratio (z) = 0.09769 0.52942
#
# Static dielectric constant tensor:
#      x y z
#    x 3.148460 0.000000 0.000000 
#    y 0.000000 3.619870 0.000000 
#    z 0.000000 0.000000 3.594250 
# 
# 
# High freq. dielectric constant tensor:
#      x y z
#    x 1.714590 0.000000 0.000000 
#    y 0.000000 1.770740 0.000000 
#    z 0.000000 0.000000 1.764910 
# 
# From -- ./inp_files/16529.got.cif
#   From: 2010.03.12/outbox.cif.g09.slc.cpg/sg49_9_cif.got.tgz:16529.got - 2010.04.14 03:58:27.
