data_PCOD8202977
_publ_section_title
;
Structure prediction by ZEFSAII (Michael W. Deem and Ramdas Pophale) SiO2 
 PCOD8202977
Probable space group: P C C M
;
_chemical_formula_sum "Si O2"
_cell_formula_units_Z 64
_cell_length_a 15.722436
_cell_length_b 22.489315
_cell_length_c 8.950536
_cell_angle_alpha 90.000000
_cell_angle_beta 90.000000
_cell_angle_gamma 90.000000
_cell_volume 3164.791524
_symmetry_space_group_name_H-M "P C C M"
_symmetry_group_IT_number 49
_symmetry_cell_setting 'orthorhombic'
loop_
_space_group_symop_operation_xyz
x,y,z
-x,-y,z
x,-y,1/2-z
-x,y,1/2-z
-x,-y,-z
x,y,-z
-x,y,1/2+z
x,-y,1/2+z
loop_
_atom_site_type_symbol
_atom_site_label
_atom_site_fract_x
_atom_site_fract_y
_atom_site_fract_z
Si Si1 0.917744 0.728178 0.163894
Si Si2 0.197522 0.813729 0.169788
Si Si3 0.358557 0.227076 0.833198
Si Si4 0.249531 0.942365 0.173082
Si Si5 0.266408 0.438935 0.319671
Si Si6 0.411280 0.641077 0.323789
Si Si7 0.906466 0.402451 0.672475
Si Si8 0.582367 0.098628 0.668938
O O1 0.874435 0.784902 0.232960
O O2 0.869125 0.665234 0.168286
O O3 0.000000 0.710333 0.250000
O O4 0.942411 0.748623 0.000000
O O5 0.286326 0.783883 0.211669
O O6 0.191956 0.884265 0.199604
O O7 0.179943 0.797910 0.000000
O O8 0.407375 0.287832 0.797037
O O9 0.420885 0.170561 0.824652
O O10 0.317405 0.230654 0.000000
O O11 0.339575 0.930398 0.246753
O O12 0.206197 0.000000 0.250000
O O13 0.262794 0.955285 0.000000
O O14 0.302733 0.500000 0.250000
O O15 0.268785 0.438759 0.500000
O O16 0.329292 0.387892 0.256712
O O17 0.167964 0.434807 0.264998
O O18 0.500000 0.618592 0.250000
O O19 0.410946 0.625337 0.500000
O O20 0.913009 0.425524 0.500000
O O21 0.000000 0.411391 0.750000
O O22 0.500000 0.073211 0.750000
O O23 0.584676 0.075782 0.500000
#
# Coordination Sequence:
#
# PCOD8202977 Si02
#       8
#     8   8   8   8   8   8   8   8
#     4  10  20  34  56  85 118 149 178 214 263 321
#     4  10  20  33  53  80 110 142 180 224 273 327
#     4   9  19  34  54  80 111 144 179 221 274 332
#     4  10  21  36  52  72  98 134 179 225 268 317
#     4  12  26  44  64  87 116 154 198 244 290 340
#     4  11  23  40  61  87 117 152 195 243 293 346
#     4  10  21  39  63  94 127 158 191 231 280 340
#     4  10  19  32  50  74 104 137 172 215 266 321
#
# _framework density 20.222501999999999
#
# number of rings (size 3 to 8) (size 9 to 14) (size 15 to 20)
#    0.000    1.750    0.000    4.500    0.000    8.250 
#    0.000    3.750    0.000    0.375    0.000    2.625 
#    0.000    0.000    0.000    0.000    0.000    0.000 
#
# Total GULP energy -793187.274086 kJ/mol
# GULP energy per Si atom -12393.551158 kJ/mol
# Density = 2.017647 g / cm^3
# Si number density = 20.222502 Si / 1000 Ang^3
#
#
#
# Elastic Constant Matrix: (Units=GPa)
#
#
# Indices 1 2 3 4 5 6 
#
# 1 60.6327 15.7781 33.1094 0.0000 0.0000 0.0000
# 2 15.7781 72.1029 51.2754 0.0000 0.0000 0.0000
# 3 33.1094 51.2754 146.0707 0.0000 0.0000 0.0000
# 4 0.0000 0.0000 0.0000 32.8248 0.0000 0.0000
# 5 0.0000 0.0000 0.0000 0.0000 34.3518 0.0000
# 6 0.0000 0.0000 0.0000 0.0000 0.0000 17.6017
#
#
#
# Elastic Compliance Matrix: (Units=1/GPa)
#
#
# Indices 1 2 3 4 5 6 
#
# 1 0.018936 -0.001454 -0.003782 0.000000 0.000000 0.000000
# 2 -0.001454 0.018595 -0.006198 0.000000 0.000000 0.000000
# 3 -0.003782 -0.006198 0.009879 0.000000 0.000000 0.000000
# 4 0.000000 0.000000 0.000000 0.030465 0.000000 0.000000
# 5 0.000000 0.000000 0.000000 0.000000 0.029111 0.000000
# 6 0.000000 0.000000 0.000000 0.000000 0.000000 0.056813
#
#
# Mechanical properties :
#
#
# Convention : Reuss Voigt Hill
#
# Bulk Modulus (GPa) = 40.74618 53.23692 46.99155
# Shear Modulus (GPa) = 25.66126 28.86521 27.26324
#
# Velocity S-wave (km/s) = 3.56609 3.78217 3.67572
# Velocity P-wave (km/s) = 6.09497 6.74209 6.42668
#
# Compressibility (1/GPa) = 0.02454218
#
# Stress axis : x y z
#
# Youngs Moduli (GPa) = 52.80864 53.77858 101.22739
#
# Poissons Ratio (x) = 0.07822 0.38281
# Poissons Ratio (y) = 0.07681 0.62737
# Poissons Ratio (z) = 0.19970 0.33330
#
# Static dielectric constant tensor:
#      x y z
#    x 3.318610 0.000000 0.000000 
#    y 0.000000 3.925520 0.000000 
#    z 0.000000 0.000000 3.883360 
# 
# 
# High freq. dielectric constant tensor:
#      x y z
#    x 1.764620 0.000000 0.000000 
#    y 0.000000 1.796230 0.000000 
#    z 0.000000 0.000000 1.808750 
# 
# From -- ./inp_files/4298.got.cif
#   From: 2010.03.12/outbox.cif.g09.slc.cpg/sg49_3_cif.got.tgz:4298.got - 2010.04.14 03:58:27.
