data_PCOD8202167
_publ_section_title
;
Structure prediction by ZEFSAII (Michael W. Deem and Ramdas Pophale) SiO2 
 PCOD8202167
Probable space group: P N N N
;
_chemical_formula_sum "Si O2"
_cell_formula_units_Z 32
_cell_length_a 15.749126
_cell_length_b 5.333725
_cell_length_c 15.986194
_cell_angle_alpha 90.000000
_cell_angle_beta 90.000000
_cell_angle_gamma 90.000000
_cell_volume 1342.864388
_symmetry_space_group_name_H-M "P N N N"
_symmetry_group_IT_number 48
_space_group.IT_coordinate_system_code '2'
_symmetry_cell_setting 'orthorhombic'
loop_
_space_group_symop_operation_xyz
x,y,z
1/2-x,1/2-y,z
x,1/2-y,1/2-z
1/2-x,y,1/2-z
-x,-y,-z
1/2+x,1/2+y,-z
-x,1/2+y,1/2+z
1/2+x,-y,1/2+z
loop_
_atom_site_type_symbol
_atom_site_label
_atom_site_fract_x
_atom_site_fract_y
_atom_site_fract_z
Si Si1 0.455406 0.511456 0.912266
Si Si2 0.626245 0.406930 0.833783
Si Si3 0.750000 0.250000 0.972220
Si Si4 0.846325 0.983172 0.395754
Si Si5 0.750000 0.750000 0.250000
Si Si6 0.250000 0.250000 0.250000
O O1 0.529187 0.492270 0.842646
O O2 0.404647 0.767421 0.895334
O O3 0.397683 0.267644 0.912950
O O4 0.500000 0.500000 0.000000
O O5 0.634872 0.250000 0.750000
O O6 0.663902 0.276602 0.917353
O O7 0.690151 0.629773 0.818907
O O8 0.772147 0.483294 0.034274
O O9 0.805098 0.942897 0.305074
#
# Coordination Sequence:
#
# PCOD8202167 Si02
#       6
#     8   8   4   8   2   2
#     4  12  29  51  82 118 162 215 270 332 412 486
#     4  12  28  48  75 119 160 211 269 335 405 486
#     4  12  25  53  80 112 160 212 276 329 409 482
#     4  12  30  54  82 116 162 215 271 343 400 499
#     4  12  32  56  84 126 158 220 284 338 422 474
#     4  12  26  42  80 110 160 216 262 344 396 480
#
# _framework density 23.829657999999998
#
# number of rings (size 3 to 8) (size 9 to 14) (size 15 to 20)
#    0.000    0.000    5.000    2.250    8.750    4.500 
#    0.000    0.000    0.000    0.000    0.000    0.000 
#    0.000    0.000    0.000    0.000    0.000    0.000 
#
# Total GULP energy -396525.652189 kJ/mol
# GULP energy per Si atom -12391.426631 kJ/mol
# Density = 2.377542 g / cm^3
# Si number density = 23.829658 Si / 1000 Ang^3
#
#
#
# Elastic Constant Matrix: (Units=GPa)
#
#
# Indices 1 2 3 4 5 6 
#
# 1 145.9367 74.2171 68.9077 0.0000 0.0000 0.0000
# 2 74.2171 161.7388 62.0511 0.0000 0.0000 0.0000
# 3 68.9077 62.0511 174.3294 0.0000 0.0000 0.0000
# 4 0.0000 0.0000 0.0000 54.7480 0.0000 0.0000
# 5 0.0000 0.0000 0.0000 0.0000 173.2644 0.0000
# 6 0.0000 0.0000 0.0000 0.0000 0.0000 52.1752
#
#
#
# Elastic Compliance Matrix: (Units=1/GPa)
#
#
# Indices 1 2 3 4 5 6 
#
# 1 0.009899 -0.003522 -0.002659 0.000000 0.000000 0.000000
# 2 -0.003522 0.008414 -0.001603 0.000000 0.000000 0.000000
# 3 -0.002659 -0.001603 0.007358 0.000000 0.000000 0.000000
# 4 0.000000 0.000000 0.000000 0.018266 0.000000 0.000000
# 5 0.000000 0.000000 0.000000 0.000000 0.005772 0.000000
# 6 0.000000 0.000000 0.000000 0.000000 0.000000 0.019166
#
#
# Mechanical properties :
#
#
# Convention : Reuss Voigt Hill
#
# Bulk Modulus (GPa) = 98.98217 99.15075 99.06646
# Shear Modulus (GPa) = 56.94135 74.49279 65.71707
#
# Velocity S-wave (km/s) = 4.89357 5.59718 5.25716
# Velocity P-wave (km/s) = 8.57653 9.13617 8.86077
#
# Compressibility (1/GPa) = 0.01010283
#
# Stress axis : x y z
#
# Youngs Moduli (GPa) = 101.01903 118.85094 135.91031
#
# Poissons Ratio (x) = 0.41862 0.36141
# Poissons Ratio (y) = 0.35581 0.21781
# Poissons Ratio (z) = 0.26862 0.19047
#
# Static dielectric constant tensor:
#      x y z
#    x 4.605030 0.000000 0.000000 
#    y 0.000000 4.365470 0.000000 
#    z 0.000000 0.000000 4.186410 
# 
# 
# High freq. dielectric constant tensor:
#      x y z
#    x 1.970020 0.000000 0.000000 
#    y 0.000000 1.945660 0.000000 
#    z 0.000000 0.000000 1.966080 
# 
# From -- ./inp_files/27635.got.cif
#   From: 2010.06.25/outbox.cif.g09.slc.cpg/sg48_14_cif.got.tgz:27635.got - 2010.06.26 18:06:46.
