data_PCOD8202658
_publ_section_title
;
Structure prediction by ZEFSAII (Michael W. Deem and Ramdas Pophale) SiO2 
 PCOD8202658
Probable space group: P C C M
;
_chemical_formula_sum "Si O2"
_cell_formula_units_Z 64
_cell_length_a 19.641232
_cell_length_b 20.273933
_cell_length_c 8.818931
_cell_angle_alpha 90.000000
_cell_angle_beta 90.000000
_cell_angle_gamma 90.000000
_cell_volume 3511.742609
_symmetry_space_group_name_H-M "P C C M"
_symmetry_group_IT_number 49
_symmetry_cell_setting 'orthorhombic'
loop_
_space_group_symop_operation_xyz
x,y,z
-x,-y,z
x,-y,1/2-z
-x,y,1/2-z
-x,-y,-z
x,y,-z
-x,y,1/2+z
x,-y,1/2+z
loop_
_atom_site_type_symbol
_atom_site_label
_atom_site_fract_x
_atom_site_fract_y
_atom_site_fract_z
Si Si1 0.426485 0.685421 0.821673
Si Si2 0.933245 0.229639 0.330694
Si Si3 0.793340 0.614725 0.679284
Si Si4 0.931893 0.386799 0.672438
Si Si5 0.571578 0.069236 0.321007
Si Si6 0.201501 0.234514 0.675365
Si Si7 0.346457 0.818677 0.174776
Si Si8 0.657984 0.567498 0.180225
O O1 0.500000 0.694123 0.750000
O O2 0.385211 0.751551 0.787241
O O3 0.388147 0.625989 0.741872
O O4 0.431546 0.671173 0.000000
O O5 0.935275 0.203120 0.500000
O O6 0.934088 0.308196 0.320931
O O7 0.863658 0.202710 0.257335
O O8 0.000000 0.200186 0.250000
O O9 0.785118 0.604648 0.500000
O O10 0.866635 0.587618 0.733736
O O11 0.784225 0.690814 0.728633
O O12 0.735722 0.574251 0.765865
O O13 0.927479 0.412112 0.500000
O O14 0.000000 0.415865 0.750000
O O15 0.500000 0.092200 0.250000
O O16 0.563283 0.061495 0.500000
O O17 0.627791 0.123635 0.283392
O O18 0.595032 0.000000 0.250000
O O19 0.183398 0.235963 0.500000
O O20 0.266898 0.190195 0.711668
O O21 0.357991 0.838557 0.000000
O O22 0.628290 0.500000 0.250000
O O23 0.654346 0.565511 0.000000
#
# Coordination Sequence:
#
# PCOD8202658 Si02
#       8
#     8   8   8   8   8   8   8   8
#     4  11  23  41  61  85 111 139 174 217 270 324
#     4   9  16  25  39  63  97 136 176 217 260 312
#     4  10  18  33  53  75 102 135 172 217 268 321
#     4   9  16  26  42  69  99 133 171 213 260 313
#     4  11  22  37  57  81 111 149 189 228 268 317
#     4   9  17  30  49  73 104 140 173 215 266 315
#     4  10  20  36  57  83 115 147 180 221 268 319
#     4  12  25  41  60  80 103 135 175 222 272 329
#
# _framework density 18.224571000000001
#
# number of rings (size 3 to 8) (size 9 to 14) (size 15 to 20)
#    0.000    1.875    1.250    4.500    0.000    6.250 
#    0.000    1.250    0.000    0.375    0.000    2.625 
#    0.000    0.500    0.000    5.250    0.000    2.500 
#
# Total GULP energy -793752.067978 kJ/mol
# GULP energy per Si atom -12402.376062 kJ/mol
# Density = 1.818309 g / cm^3
# Si number density = 18.224571 Si / 1000 Ang^3
#
#
#
# Elastic Constant Matrix: (Units=GPa)
#
#
# Indices 1 2 3 4 5 6 
#
# 1 113.4002 33.0250 57.4308 0.0000 0.0000 0.0000
# 2 33.0250 61.5175 42.9788 0.0000 0.0000 0.0000
# 3 57.4308 42.9788 130.8404 0.0000 0.0000 0.0000
# 4 0.0000 0.0000 0.0000 22.4918 0.0000 0.0000
# 5 0.0000 0.0000 0.0000 0.0000 38.1511 0.0000
# 6 0.0000 0.0000 0.0000 0.0000 0.0000 16.9447
#
#
#
# Elastic Compliance Matrix: (Units=1/GPa)
#
#
# Indices 1 2 3 4 5 6 
#
# 1 0.011910 -0.003558 -0.004059 0.000000 0.000000 0.000000
# 2 -0.003558 0.022160 -0.005717 0.000000 0.000000 0.000000
# 3 -0.004059 -0.005717 0.011303 0.000000 0.000000 0.000000
# 4 0.000000 0.000000 0.000000 0.044461 0.000000 0.000000
# 5 0.000000 0.000000 0.000000 0.000000 0.026212 0.000000
# 6 0.000000 0.000000 0.000000 0.000000 0.000000 0.059015
#
#
# Mechanical properties :
#
#
# Convention : Reuss Voigt Hill
#
# Bulk Modulus (GPa) = 53.46497 63.62526 58.54512
# Shear Modulus (GPa) = 24.04259 27.00575 25.52417
#
# Velocity S-wave (km/s) = 3.63608 3.85363 3.74643
# Velocity P-wave (km/s) = 6.85773 7.40191 7.13501
#
# Compressibility (1/GPa) = 0.01870383
#
# Stress axis : x y z
#
# Youngs Moduli (GPa) = 83.96157 45.12623 88.47463
#
# Poissons Ratio (x) = 0.16056 0.35913
# Poissons Ratio (y) = 0.29874 0.50585
# Poissons Ratio (z) = 0.34081 0.25801
#
# Static dielectric constant tensor:
#      x y z
#    x 3.513970 0.000000 0.000000 
#    y 0.000000 3.017370 0.000000 
#    z 0.000000 0.000000 3.466540 
# 
# 
# High freq. dielectric constant tensor:
#      x y z
#    x 1.717730 0.000000 0.000000 
#    y 0.000000 1.660060 0.000000 
#    z 0.000000 0.000000 1.719300 
# 
# From -- ./inp_files/5985.got.cif
#   From: 2010.03.12/outbox.cif.g09.slc.cpg/sg49_3_cif.got.tgz:5985.got - 2010.04.14 03:58:27.
