data_PCOD8202599
_publ_section_title
;
Structure prediction by ZEFSAII (Michael W. Deem and Ramdas Pophale) SiO2 
 PCOD8202599
Probable space group: P C C M
;
_chemical_formula_sum "Si O2"
_cell_formula_units_Z 56
_cell_length_a 13.430253
_cell_length_b 13.029362
_cell_length_c 15.332824
_cell_angle_alpha 90.000000
_cell_angle_beta 90.000000
_cell_angle_gamma 90.000000
_cell_volume 2683.054504
_symmetry_space_group_name_H-M "P C C M"
_symmetry_group_IT_number 49
_symmetry_cell_setting 'orthorhombic'
loop_
_space_group_symop_operation_xyz
x,y,z
-x,-y,z
x,-y,1/2-z
-x,y,1/2-z
-x,-y,-z
x,y,-z
-x,y,1/2+z
x,-y,1/2+z
loop_
_atom_site_type_symbol
_atom_site_label
_atom_site_fract_x
_atom_site_fract_y
_atom_site_fract_z
Si Si1 0.700481 0.902243 0.398812
Si Si2 0.710236 0.139318 0.399345
Si Si3 0.386765 0.753207 0.758915
Si Si4 0.108700 0.533544 0.595522
Si Si5 0.206989 0.369601 0.308665
Si Si6 0.893940 0.790965 0.597519
Si Si7 0.102922 0.251738 0.155202
O O1 0.678415 0.871997 0.500000
O O2 0.628261 0.839810 0.333473
O O3 0.816318 0.880658 0.375053
O O4 0.681571 0.021686 0.383084
O O5 0.690977 0.169755 0.500000
O O6 0.641869 0.207692 0.337029
O O7 0.824658 0.159228 0.372481
O O8 0.500000 0.717690 0.750000
O O9 0.321612 0.652252 0.784085
O O10 0.132790 0.488309 0.500000
O O11 0.186877 0.490954 0.670187
O O12 0.112566 0.656048 0.585621
O O13 0.000000 0.500000 0.628210
O O14 0.170744 0.314645 0.398365
O O15 0.132681 0.308611 0.244390
O O16 0.933469 0.807088 0.500000
O O17 0.991268 0.793761 0.659461
#
# Coordination Sequence:
#
# PCOD8202599 Si02
#       7
#     8   8   8   8   8   8   8
#     4   9  20  36  56  83 116 151 190 241 295 348
#     4  10  21  37  55  81 116 152 192 240 295 354
#     4  10  22  40  61  84 109 146 196 250 302 350
#     4  11  21  33  55  85 115 151 192 234 286 349
#     4  10  21  35  53  79 113 146 185 239 294 341
#     4  10  18  31  50  77 112 149 188 228 277 344
#     4  11  21  33  53  80 114 154 192 229 280 350
#
# _framework density 20.871734
#
# number of rings (size 3 to 8) (size 9 to 14) (size 15 to 20)
#    0.000    1.857    1.429    3.000    0.000    3.429 
#    0.000    3.571    0.000   12.000    0.000    5.000 
#    0.000    0.000    0.000    0.000    0.000    0.000 
#
# Total GULP energy -693944.136910 kJ/mol
# GULP energy per Si atom -12391.859588 kJ/mol
# Density = 2.082423 g / cm^3
# Si number density = 20.871734 Si / 1000 Ang^3
#
#
#
# Elastic Constant Matrix: (Units=GPa)
#
#
# Indices 1 2 3 4 5 6 
#
# 1 138.0998 10.3977 36.1713 0.0000 0.0000 0.0000
# 2 10.3977 27.6314 14.1726 0.0000 0.0000 0.0000
# 3 36.1713 14.1726 91.8475 0.0000 0.0000 0.0000
# 4 0.0000 0.0000 0.0000 16.8077 0.0000 0.0000
# 5 0.0000 0.0000 0.0000 0.0000 16.8467 0.0000
# 6 0.0000 0.0000 0.0000 0.0000 0.0000 19.3666
#
#
#
# Elastic Compliance Matrix: (Units=1/GPa)
#
#
# Indices 1 2 3 4 5 6 
#
# 1 0.008134 -0.001540 -0.002966 0.000000 0.000000 0.000000
# 2 -0.001540 0.039593 -0.005503 0.000000 0.000000 0.000000
# 3 -0.002966 -0.005503 0.012905 0.000000 0.000000 0.000000
# 4 0.000000 0.000000 0.000000 0.059497 0.000000 0.000000
# 5 0.000000 0.000000 0.000000 0.000000 0.059359 0.000000
# 6 0.000000 0.000000 0.000000 0.000000 0.000000 0.051635
#
#
# Mechanical properties :
#
#
# Convention : Reuss Voigt Hill
#
# Bulk Modulus (GPa) = 24.62174 42.11797 33.36986
# Shear Modulus (GPa) = 18.89098 23.72668 21.30883
#
# Velocity S-wave (km/s) = 3.01175 3.37528 3.19868
# Velocity P-wave (km/s) = 4.89045 5.95091 5.44655
#
# Compressibility (1/GPa) = 0.04061451
#
# Stress axis : x y z
#
# Youngs Moduli (GPa) = 122.94317 25.25724 77.49109
#
# Poissons Ratio (x) = 0.03889 0.22981
# Poissons Ratio (y) = 0.18928 0.42644
# Poissons Ratio (z) = 0.36461 0.13899
#
# Static dielectric constant tensor:
#      x y z
#    x 3.486100 0.000000 0.000000 
#    y 0.000000 3.779630 0.000000 
#    z 0.000000 0.000000 4.011670 
# 
# 
# High freq. dielectric constant tensor:
#      x y z
#    x 1.783320 0.000000 0.000000 
#    y 0.000000 1.799890 0.000000 
#    z 0.000000 0.000000 1.841840 
# 
# From -- ./inp_files/12873.got.cif
#   From: 2010.03.12/outbox.cif.g09.slc.cpg/sg49_7_cif.got.tgz:12873.got - 2010.04.14 03:58:27.
