data_PCOD8202011
_publ_section_title
;
Structure prediction by ZEFSAII (Michael W. Deem and Ramdas Pophale) SiO2 
 PCOD8202011
Probable space group: P N N N
;
_chemical_formula_sum "Si O2"
_cell_formula_units_Z 64
_cell_length_a 13.535315
_cell_length_b 19.301325
_cell_length_c 11.636018
_cell_angle_alpha 90.000000
_cell_angle_beta 90.000000
_cell_angle_gamma 90.000000
_cell_volume 3039.904045
_symmetry_space_group_name_H-M "P N N N"
_symmetry_group_IT_number 48
_space_group.IT_coordinate_system_code '2'
_symmetry_cell_setting 'orthorhombic'
loop_
_space_group_symop_operation_xyz
x,y,z
1/2-x,1/2-y,z
x,1/2-y,1/2-z
1/2-x,y,1/2-z
-x,-y,-z
1/2+x,1/2+y,-z
-x,1/2+y,1/2+z
1/2+x,-y,1/2+z
loop_
_atom_site_type_symbol
_atom_site_label
_atom_site_fract_x
_atom_site_fract_y
_atom_site_fract_z
Si Si1 0.676961 0.485661 0.851249
Si Si2 0.762971 0.670027 0.126018
Si Si3 0.539827 0.536285 0.150084
Si Si4 0.446497 0.085173 0.888640
Si Si5 0.033881 0.670815 0.713183
Si Si6 0.381496 0.113373 0.450056
Si Si7 0.907737 0.423468 0.084410
Si Si8 0.819852 0.415878 0.416313
O O1 0.750000 0.463251 0.750000
O O2 0.563082 0.501030 0.815533
O O3 0.704488 0.561420 0.901322
O O4 0.678082 0.425267 0.945816
O O5 0.750000 0.750000 0.146675
O O6 0.750000 0.632189 0.250000
O O7 0.864344 0.641000 0.069462
O O8 0.670827 0.658284 0.044598
O O9 0.546354 0.594582 0.250354
O O10 0.631133 0.481510 0.151738
O O11 0.534156 0.569618 0.021527
O O12 0.414217 0.006080 0.909241
O O13 0.548415 0.099470 0.959116
O O14 0.045876 0.750000 0.750000
O O15 0.029834 0.618321 0.820790
O O16 0.122851 0.652819 0.624780
O O17 0.930134 0.661568 0.646304
O O18 0.794858 0.403910 0.111387
#
# Coordination Sequence:
#
# PCOD8202011 Si02
#       8
#     8   8   8   8   8   8   8   8
#     4  11  21  37  66 103 139 172 228 291 355 413
#     4  11  25  42  68  99 131 180 231 274 345 431
#     4  11  19  38  68  97 131 177 224 285 347 407
#     4  11  22  41  65 101 133 168 226 295 337 405
#     4  12  26  43  67  94 135 183 230 275 342 427
#     4  11  22  43  66  92 130 180 220 272 346 411
#     4  11  25  39  65  99 135 170 226 291 346 388
#     4  11  21  40  65  96 132 177 229 277 346 411
#
# _framework density 21.053297000000001
#
# number of rings (size 3 to 8) (size 9 to 14) (size 15 to 20)
#    0.000    0.875    5.000    3.375    1.750    4.000 
#    0.000    0.000    0.000    0.000    0.000    0.875 
#    0.000    0.000    0.000    0.000    0.000    0.000 
#
# Total GULP energy -792941.955075 kJ/mol
# GULP energy per Si atom -12389.718048 kJ/mol
# Density = 2.100538 g / cm^3
# Si number density = 21.053297 Si / 1000 Ang^3
#
#
#
# Elastic Constant Matrix: (Units=GPa)
#
#
# Indices 1 2 3 4 5 6 
#
# 1 103.1487 30.9185 53.1324 0.0000 0.0000 0.0000
# 2 30.9185 99.3912 45.8399 0.0000 0.0000 0.0000
# 3 53.1324 45.8399 132.9235 0.0000 0.0000 0.0000
# 4 0.0000 0.0000 0.0000 26.2292 0.0000 0.0000
# 5 0.0000 0.0000 0.0000 0.0000 41.3334 0.0000
# 6 0.0000 0.0000 0.0000 0.0000 0.0000 18.2701
#
#
#
# Elastic Compliance Matrix: (Units=1/GPa)
#
#
# Indices 1 2 3 4 5 6 
#
# 1 0.012498 -0.001883 -0.004346 0.000000 0.000000 0.000000
# 2 -0.001883 0.012248 -0.003471 0.000000 0.000000 0.000000
# 3 -0.004346 -0.003471 0.010457 0.000000 0.000000 0.000000
# 4 0.000000 0.000000 0.000000 0.038125 0.000000 0.000000
# 5 0.000000 0.000000 0.000000 0.000000 0.024194 0.000000
# 6 0.000000 0.000000 0.000000 0.000000 0.000000 0.054734
#
#
# Mechanical properties :
#
#
# Convention : Reuss Voigt Hill
#
# Bulk Modulus (GPa) = 63.28228 66.13836 64.71032
# Shear Modulus (GPa) = 28.26050 30.87136 29.56593
#
# Velocity S-wave (km/s) = 3.66776 3.83344 3.75151
# Velocity P-wave (km/s) = 6.93253 7.14679 7.04048
#
# Compressibility (1/GPa) = 0.01580221
#
# Stress axis : x y z
#
# Youngs Moduli (GPa) = 80.01245 81.64610 95.62582
#
# Poissons Ratio (x) = 0.15377 0.41561
# Poissons Ratio (y) = 0.15069 0.33192
# Poissons Ratio (z) = 0.34775 0.28339
#
# Static dielectric constant tensor:
#      x y z
#    x 3.950920 0.000000 0.000000 
#    y 0.000000 3.573870 0.000000 
#    z 0.000000 0.000000 4.161000 
# 
# 
# High freq. dielectric constant tensor:
#      x y z
#    x 1.824720 0.000000 0.000000 
#    y 0.000000 1.785730 0.000000 
#    z 0.000000 0.000000 1.841890 
# 
# From -- ./inp_files/21580.got.cif
#   From: 2010.06.25/outbox.cif.g09.slc.cpg/sg48_11_cif.got.tgz:21580.got - 2010.06.26 18:06:46.
