data_PCOD8202828
_publ_section_title
;
Structure prediction by ZEFSAII (Michael W. Deem and Ramdas Pophale) SiO2 
 PCOD8202828
Probable space group: P C C M
;
_chemical_formula_sum "Si O2"
_cell_formula_units_Z 56
_cell_length_a 18.425611
_cell_length_b 21.163008
_cell_length_c 8.821943
_cell_angle_alpha 90.000000
_cell_angle_beta 90.000000
_cell_angle_gamma 90.000000
_cell_volume 3440.040389
_symmetry_space_group_name_H-M "P C C M"
_symmetry_group_IT_number 49
_symmetry_cell_setting 'orthorhombic'
loop_
_space_group_symop_operation_xyz
x,y,z
-x,-y,z
x,-y,1/2-z
-x,y,1/2-z
-x,-y,-z
x,y,-z
-x,y,1/2+z
x,-y,1/2+z
loop_
_atom_site_type_symbol
_atom_site_label
_atom_site_fract_x
_atom_site_fract_y
_atom_site_fract_z
Si Si1 0.781475 0.856299 0.828338
Si Si2 0.923778 0.567233 0.319699
Si Si3 0.424046 0.186285 0.322012
Si Si4 0.649813 0.934287 0.826362
Si Si5 0.162318 0.676747 0.322343
Si Si6 0.074928 0.800923 0.327991
Si Si7 0.714391 0.742418 0.673326
O O1 0.737266 0.921816 0.811069
O O2 0.868855 0.860017 0.804461
O O3 0.751290 0.809981 0.700979
O O4 0.768212 0.828677 0.000000
O O5 0.901877 0.500000 0.250000
O O6 0.930580 0.561943 0.500000
O O7 0.862153 0.616526 0.273571
O O8 0.000000 0.590562 0.250000
O O9 0.500000 0.206038 0.250000
O O10 0.431719 0.174249 0.500000
O O11 0.395632 0.121701 0.248420
O O12 0.370616 0.246029 0.288998
O O13 0.629752 0.000000 0.750000
O O14 0.626037 0.938337 0.000000
O O15 0.155913 0.662608 0.500000
O O16 0.113188 0.736431 0.270079
O O17 0.246726 0.690329 0.279758
O O18 0.053929 0.790710 0.500000
O O19 0.000000 0.817484 0.250000
O O20 0.725787 0.722033 0.500000
#
# Coordination Sequence:
#
# PCOD8202828 Si02
#       7
#     8   8   8   8   8   8   8
#     4   8  16  30  44  59  83 113 141 176 223 272
#     4  11  21  33  47  65  93 129 167 203 239 276
#     4  10  20  33  49  70  96 122 148 178 219 268
#     4  10  19  32  49  66  86 113 147 183 220 264
#     4  10  19  31  46  65  91 123 157 191 228 271
#     4   9  17  27  41  62  85 109 140 179 224 268
#     4   9  17  29  46  68  90 114 147 186 223 264
#
# _framework density 16.278877999999999
#
# number of rings (size 3 to 8) (size 9 to 14) (size 15 to 20)
#    0.000    2.429    0.000    4.714    0.000    6.571 
#    0.000    1.429    0.000    0.429    0.000    3.000 
#    0.000    0.571    0.000    6.000    0.000    3.286 
#
# Total GULP energy -693950.063934 kJ/mol
# GULP energy per Si atom -12391.965427 kJ/mol
# Density = 1.624183 g / cm^3
# Si number density = 16.278878 Si / 1000 Ang^3
#
#
#
# Elastic Constant Matrix: (Units=GPa)
#
#
# Indices 1 2 3 4 5 6 
#
# 1 112.1484 32.4602 45.0785 0.0000 0.0000 0.0000
# 2 32.4602 46.7538 28.0482 0.0000 0.0000 0.0000
# 3 45.0785 28.0482 91.9725 0.0000 0.0000 0.0000
# 4 0.0000 0.0000 0.0000 21.1172 0.0000 0.0000
# 5 0.0000 0.0000 0.0000 0.0000 27.4430 0.0000
# 6 0.0000 0.0000 0.0000 0.0000 0.0000 20.0282
#
#
#
# Elastic Compliance Matrix: (Units=1/GPa)
#
#
# Indices 1 2 3 4 5 6 
#
# 1 0.012363 -0.006056 -0.004213 0.000000 0.000000 0.000000
# 2 -0.006056 0.029145 -0.005920 0.000000 0.000000 0.000000
# 3 -0.004213 -0.005920 0.014743 0.000000 0.000000 0.000000
# 4 0.000000 0.000000 0.000000 0.047355 0.000000 0.000000
# 5 0.000000 0.000000 0.000000 0.000000 0.036439 0.000000
# 6 0.000000 0.000000 0.000000 0.000000 0.000000 0.049930
#
#
# Mechanical properties :
#
#
# Convention : Reuss Voigt Hill
#
# Bulk Modulus (GPa) = 41.88742 51.33870 46.61306
# Shear Modulus (GPa) = 21.70999 23.40351 22.55675
#
# Velocity S-wave (km/s) = 3.65585 3.79576 3.72646
# Velocity P-wave (km/s) = 6.60359 7.12853 6.87107
#
# Compressibility (1/GPa) = 0.02387352
#
# Stress axis : x y z
#
# Youngs Moduli (GPa) = 80.88723 34.31165 67.82971
#
# Poissons Ratio (x) = 0.20780 0.28573
# Poissons Ratio (y) = 0.48986 0.40153
# Poissons Ratio (z) = 0.34074 0.20312
#
# Static dielectric constant tensor:
#      x y z
#    x 3.262930 0.000000 0.000000 
#    y 0.000000 2.823600 0.000000 
#    z 0.000000 0.000000 3.173940 
# 
# 
# High freq. dielectric constant tensor:
#      x y z
#    x 1.621130 0.000000 0.000000 
#    y 0.000000 1.583560 0.000000 
#    z 0.000000 0.000000 1.642170 
# 
# From -- ./inp_files/5208.got.cif
#   From: 2010.03.12/outbox.cif.g09.slc.cpg/sg49_3_cif.got.tgz:5208.got - 2010.04.14 03:58:27.
