data_PCOD8202218
_publ_section_title
;
Structure prediction by ZEFSAII (Michael W. Deem and Ramdas Pophale) SiO2 
 PCOD8202218
Probable space group: P C C M
;
_chemical_formula_sum "Si O2"
_cell_formula_units_Z 32
_cell_length_a 9.769965
_cell_length_b 20.992008
_cell_length_c 8.592677
_cell_angle_alpha 90.000000
_cell_angle_beta 90.000000
_cell_angle_gamma 90.000000
_cell_volume 1762.282295
_symmetry_space_group_name_H-M "P C C M"
_symmetry_group_IT_number 49
_symmetry_cell_setting 'orthorhombic'
loop_
_space_group_symop_operation_xyz
x,y,z
-x,-y,z
x,-y,1/2-z
-x,y,1/2-z
-x,-y,-z
x,y,-z
-x,y,1/2+z
x,-y,1/2+z
loop_
_atom_site_type_symbol
_atom_site_label
_atom_site_fract_x
_atom_site_fract_y
_atom_site_fract_z
Si Si1 0.146755 0.067492 0.183409
Si Si2 0.346869 0.436046 0.815682
Si Si3 0.347432 0.308350 0.315652
Si Si4 0.349571 0.821010 0.683920
O O1 0.256207 0.120052 0.234879
O O2 0.000000 0.087423 0.250000
O O3 0.196736 0.000000 0.250000
O O4 0.134450 0.061833 0.000000
O O5 0.272674 0.500000 0.750000
O O6 0.500000 0.435065 0.750000
O O7 0.272346 0.371519 0.754019
O O8 0.347613 0.437469 0.000000
O O9 0.500000 0.306102 0.250000
O O10 0.346705 0.312388 0.500000
O O11 0.279009 0.242648 0.256877
O O12 0.500000 0.833845 0.750000
O O13 0.358500 0.812543 0.500000
#
# Coordination Sequence:
#
# PCOD8202218 Si02
#       4
#     8   8   8   8
#     4  10  21  36  55  75  98 126 160 197 240 287
#     4  10  16  23  34  51  78 113 153 193 231 278
#     4  10  17  26  40  59  85 119 154 192 236 282
#     4  10  20  33  49  72  98 128 161 198 240 287
#
# _framework density 18.158273000000001
#
# number of rings (size 3 to 8) (size 9 to 14) (size 15 to 20)
#    0.000    2.000    0.000   10.500    0.000    4.500 
#    0.000    2.500    0.000    0.000    0.000    0.000 
#    0.000    1.000    0.000   10.500    0.000   10.000 
#
# Total GULP energy -396625.334362 kJ/mol
# GULP energy per Si atom -12394.541699 kJ/mol
# Density = 1.811694 g / cm^3
# Si number density = 18.158273 Si / 1000 Ang^3
#
#
#
# Elastic Constant Matrix: (Units=GPa)
#
#
# Indices 1 2 3 4 5 6 
#
# 1 41.4062 63.2289 28.5640 0.0000 0.0000 0.0000
# 2 63.2289 211.8827 85.0439 0.0000 0.0000 0.0000
# 3 28.5640 85.0439 155.1966 0.0000 0.0000 0.0000
# 4 0.0000 0.0000 0.0000 40.0446 0.0000 0.0000
# 5 0.0000 0.0000 0.0000 0.0000 9.5143 0.0000
# 6 0.0000 0.0000 0.0000 0.0000 0.0000 1.1639
#
#
#
# Elastic Compliance Matrix: (Units=1/GPa)
#
#
# Indices 1 2 3 4 5 6 
#
# 1 0.044536 -0.012820 -0.001172 0.000000 0.000000 0.000000
# 2 -0.012820 0.009740 -0.002978 0.000000 0.000000 0.000000
# 3 -0.001172 -0.002978 0.008291 0.000000 0.000000 0.000000
# 4 0.000000 0.000000 0.000000 0.024972 0.000000 0.000000
# 5 0.000000 0.000000 0.000000 0.000000 0.105105 0.000000
# 6 0.000000 0.000000 0.000000 0.000000 0.000000 0.859165
#
#
# Mechanical properties :
#
#
# Convention : Reuss Voigt Hill
#
# Bulk Modulus (GPa) = 34.93116 84.68436 59.80776
# Shear Modulus (GPa) = 4.56500 25.58781 15.07640
#
# Velocity S-wave (km/s) = 1.58728 3.75794 2.88458
# Velocity P-wave (km/s) = 4.75795 8.09738 6.64100
#
# Compressibility (1/GPa) = 0.02862774
#
# Stress axis : x y z
#
# Youngs Moduli (GPa) = 22.45394 102.66415 120.61202
#
# Poissons Ratio (x) = 1.31612 0.14135
# Poissons Ratio (y) = 0.28785 0.35919
# Poissons Ratio (z) = 0.02631 0.30574
#
# Static dielectric constant tensor:
#      x y z
#    x 2.786490 0.000000 0.000000 
#    y 0.000000 5.164740 0.000000 
#    z 0.000000 0.000000 3.466770 
# 
# 
# High freq. dielectric constant tensor:
#      x y z
#    x 1.619910 0.000000 0.000000 
#    y 0.000000 1.740000 0.000000 
#    z 0.000000 0.000000 1.727570 
# 
# From -- ./inp_files/1413.got.cif
#   From: 2010.03.12/outbox.cif.g09.slc.cpg/sg49_1_cif.got.tgz:1413.got - 2010.04.14 03:58:27.
