data_PCOD8202511
_publ_section_title
;
Structure prediction by ZEFSAII (Michael W. Deem and Ramdas Pophale) SiO2 
 PCOD8202511
Probable space group: P C C M
;
_chemical_formula_sum "Si O2"
_cell_formula_units_Z 56
_cell_length_a 16.064143
_cell_length_b 18.709615
_cell_length_c 9.156350
_cell_angle_alpha 90.000000
_cell_angle_beta 90.000000
_cell_angle_gamma 90.000000
_cell_volume 2751.976985
_symmetry_space_group_name_H-M "P C C M"
_symmetry_group_IT_number 49
_symmetry_cell_setting 'orthorhombic'
loop_
_space_group_symop_operation_xyz
x,y,z
-x,-y,z
x,-y,1/2-z
-x,y,1/2-z
-x,-y,-z
x,y,-z
-x,y,1/2+z
x,-y,1/2+z
loop_
_atom_site_type_symbol
_atom_site_label
_atom_site_fract_x
_atom_site_fract_y
_atom_site_fract_z
Si Si1 0.737897 0.144828 0.335956
Si Si2 0.878234 0.203096 0.169219
Si Si3 0.743200 0.574973 0.326185
Si Si4 0.080376 0.636733 0.832453
Si Si5 0.898432 0.069895 0.663788
Si Si6 0.581908 0.831558 0.329968
Si Si7 0.583036 0.335276 0.830719
O O1 0.715521 0.170954 0.500000
O O2 0.787883 0.207528 0.249052
O O3 0.797478 0.074733 0.342590
O O4 0.656397 0.124720 0.244812
O O5 0.923750 0.278093 0.188850
O O6 0.931640 0.139666 0.247089
O O7 0.863994 0.184259 0.000000
O O8 0.728669 0.500000 0.250000
O O9 0.743890 0.566717 0.500000
O O10 0.831816 0.606967 0.271468
O O11 0.666453 0.625011 0.275738
O O12 0.000000 0.603579 0.750000
O O13 0.070957 0.614932 0.000000
O O14 0.935947 0.069627 0.500000
O O15 0.928056 0.000000 0.750000
O O16 0.500000 0.859385 0.250000
O O17 0.576745 0.849607 0.500000
O O18 0.596300 0.748070 0.298185
O O19 0.500000 0.363975 0.750000
O O20 0.567814 0.349994 0.000000
#
# Coordination Sequence:
#
# PCOD8202511 Si02
#       7
#     8   8   8   8   8   8   8
#     4   9  18  29  45  72 102 134 176 222 266 324
#     4   9  17  32  54  78 104 137 174 220 275 324
#     4  10  22  40  58  81 113 150 191 233 283 342
#     4  10  22  39  60  84 113 148 189 237 288 342
#     4   9  18  30  49  78 109 141 179 222 269 328
#     4  10  18  29  47  70 100 137 175 222 277 331
#     4   9  19  35  55  80 111 145 184 228 279 340
#
# _framework density 20.349008000000001
#
# number of rings (size 3 to 8) (size 9 to 14) (size 15 to 20)
#    0.857    1.714    0.000    2.143    0.000    5.714 
#    0.000    4.286    0.000    0.857    0.000    6.000 
#    0.000    0.000    0.000    0.000    0.000    0.000 
#
# Total GULP energy -693979.606506 kJ/mol
# GULP energy per Si atom -12392.492973 kJ/mol
# Density = 2.030269 g / cm^3
# Si number density = 20.349008 Si / 1000 Ang^3
#
#
#
# Elastic Constant Matrix: (Units=GPa)
#
#
# Indices 1 2 3 4 5 6 
#
# 1 140.3532 2.3093 47.9823 0.0000 0.0000 0.0000
# 2 2.3093 37.2276 15.0981 0.0000 0.0000 0.0000
# 3 47.9823 15.0981 118.9749 0.0000 0.0000 0.0000
# 4 0.0000 0.0000 0.0000 27.8739 0.0000 0.0000
# 5 0.0000 0.0000 0.0000 0.0000 27.0382 0.0000
# 6 0.0000 0.0000 0.0000 0.0000 0.0000 97.8440
#
#
#
# Elastic Compliance Matrix: (Units=1/GPa)
#
#
# Indices 1 2 3 4 5 6 
#
# 1 0.008292 0.000888 -0.003457 0.000000 0.000000 0.000000
# 2 0.000888 0.028414 -0.003964 0.000000 0.000000 0.000000
# 3 -0.003457 -0.003964 0.010302 0.000000 0.000000 0.000000
# 4 0.000000 0.000000 0.000000 0.035876 0.000000 0.000000
# 5 0.000000 0.000000 0.000000 0.000000 0.036985 0.000000
# 6 0.000000 0.000000 0.000000 0.000000 0.000000 0.010220
#
#
# Mechanical properties :
#
#
# Convention : Reuss Voigt Hill
#
# Bulk Modulus (GPa) = 29.46151 47.48168 38.47159
# Shear Modulus (GPa) = 32.36881 45.96229 39.16555
#
# Velocity S-wave (km/s) = 3.99266 4.75773 4.39189
# Velocity P-wave (km/s) = 5.98036 7.31886 6.68320
#
# Compressibility (1/GPa) = 0.03394260
#
# Stress axis : x y z
#
# Youngs Moduli (GPa) = 120.59746 35.19354 97.06605
#
# Poissons Ratio (x) = -0.03124 0.33554
# Poissons Ratio (y) = -0.10704 0.38475
# Poissons Ratio (z) = 0.41688 0.13950
#
# Static dielectric constant tensor:
#      x y z
#    x 3.786760 0.000000 0.000000 
#    y 0.000000 3.264560 0.000000 
#    z 0.000000 0.000000 3.650770 
# 
# 
# High freq. dielectric constant tensor:
#      x y z
#    x 1.808750 0.000000 0.000000 
#    y 0.000000 1.756160 0.000000 
#    z 0.000000 0.000000 1.798420 
# 
# From -- ./inp_files/4096.got.cif
#   From: 2010.03.12/outbox.cif.g09.slc.cpg/sg49_3_cif.got.tgz:4096.got - 2010.04.14 03:58:27.
