data_PCOD8202934
_publ_section_title
;
Structure prediction by ZEFSAII (Michael W. Deem and Ramdas Pophale) SiO2 
 PCOD8202934
Probable space group: P C C M
;
_chemical_formula_sum "Si O2"
_cell_formula_units_Z 56
_cell_length_a 21.423398
_cell_length_b 18.248109
_cell_length_c 8.711391
_cell_angle_alpha 90.000000
_cell_angle_beta 90.000000
_cell_angle_gamma 90.000000
_cell_volume 3405.600724
_symmetry_space_group_name_H-M "P C C M"
_symmetry_group_IT_number 49
_symmetry_cell_setting 'orthorhombic'
loop_
_space_group_symop_operation_xyz
x,y,z
-x,-y,z
x,-y,1/2-z
-x,y,1/2-z
-x,-y,-z
x,y,-z
-x,y,1/2+z
x,-y,1/2+z
loop_
_atom_site_type_symbol
_atom_site_label
_atom_site_fract_x
_atom_site_fract_y
_atom_site_fract_z
Si Si1 0.933157 0.421970 0.317238
Si Si2 0.247562 0.798958 0.830775
Si Si3 0.180215 0.341711 0.682691
Si Si4 0.315562 0.078382 0.821342
Si Si5 0.701164 0.421284 0.317868
Si Si6 0.371029 0.296888 0.671887
Si Si7 0.435453 0.832653 0.681931
O O1 0.911476 0.500000 0.250000
O O2 0.936521 0.426696 0.500000
O O3 0.884716 0.360685 0.263158
O O4 0.000000 0.399438 0.250000
O O5 0.192959 0.743873 0.774854
O O6 0.257584 0.867973 0.718921
O O7 0.309047 0.750466 0.836384
O O8 0.232440 0.830029 0.000000
O O9 0.177044 0.352769 0.500000
O O10 0.233756 0.394160 0.747732
O O11 0.380594 0.112913 0.760654
O O12 0.303423 0.000000 0.750000
O O13 0.318454 0.067884 0.000000
O O14 0.685265 0.500000 0.250000
O O15 0.707323 0.424003 0.500000
O O16 0.643342 0.369398 0.270142
O O17 0.393056 0.318143 0.500000
O O18 0.424532 0.249378 0.754586
O O19 0.500000 0.863646 0.750000
O O20 0.438467 0.829728 0.500000
#
# Coordination Sequence:
#
# PCOD8202934 Si02
#       7
#     8   8   8   8   8   8   8
#     4  11  21  33  47  65  93 130 168 205 241 280
#     4   8  16  30  48  67  90 118 149 185 228 273
#     4  10  19  32  48  68  93 123 158 196 235 277
#     4  10  20  32  48  69  96 124 152 184 225 272
#     4  11  20  30  45  67  92 118 150 190 234 279
#     4   9  17  31  48  66  88 115 146 186 231 275
#     4  10  20  33  49  69  90 119 154 188 222 267
#
# _framework density 16.443501999999999
#
# number of rings (size 3 to 8) (size 9 to 14) (size 15 to 20)
#    0.000    2.143    0.000    6.000    0.000    6.000 
#    0.000    1.429    0.000    0.429    0.000    3.000 
#    0.000    0.571    0.000    6.000    0.000    2.571 
#
# Total GULP energy -694323.557992 kJ/mol
# GULP energy per Si atom -12398.634964 kJ/mol
# Density = 1.640608 g / cm^3
# Si number density = 16.443502 Si / 1000 Ang^3
#
#
#
# Elastic Constant Matrix: (Units=GPa)
#
#
# Indices 1 2 3 4 5 6 
#
# 1 59.3854 41.6395 28.1862 0.0000 0.0000 0.0000
# 2 41.6395 110.6528 44.1369 0.0000 0.0000 0.0000
# 3 28.1862 44.1369 105.9491 0.0000 0.0000 0.0000
# 4 0.0000 0.0000 0.0000 26.7708 0.0000 0.0000
# 5 0.0000 0.0000 0.0000 0.0000 25.2532 0.0000
# 6 0.0000 0.0000 0.0000 0.0000 0.0000 18.6830
#
#
#
# Elastic Compliance Matrix: (Units=1/GPa)
#
#
# Indices 1 2 3 4 5 6 
#
# 1 0.023697 -0.007679 -0.003105 0.000000 0.000000 0.000000
# 2 -0.007679 0.013326 -0.003509 0.000000 0.000000 0.000000
# 3 -0.003105 -0.003509 0.011726 0.000000 0.000000 0.000000
# 4 0.000000 0.000000 0.000000 0.037354 0.000000 0.000000
# 5 0.000000 0.000000 0.000000 0.000000 0.039599 0.000000
# 6 0.000000 0.000000 0.000000 0.000000 0.000000 0.053525
#
#
# Mechanical properties :
#
#
# Convention : Reuss Voigt Hill
#
# Bulk Modulus (GPa) = 49.59316 55.99027 52.79172
# Shear Modulus (GPa) = 23.30621 24.94304 24.12463
#
# Velocity S-wave (km/s) = 3.76886 3.89896 3.83446
# Velocity P-wave (km/s) = 7.01172 7.37517 7.19574
#
# Compressibility (1/GPa) = 0.02016407
#
# Stress axis : x y z
#
# Youngs Moduli (GPa) = 42.19898 75.03881 85.27801
#
# Poissons Ratio (x) = 0.57621 0.26482
# Poissons Ratio (y) = 0.32404 0.29922
# Poissons Ratio (z) = 0.13105 0.26329
#
# Static dielectric constant tensor:
#      x y z
#    x 3.015090 0.000000 0.000000 
#    y 0.000000 3.191770 0.000000 
#    z 0.000000 0.000000 3.265140 
# 
# 
# High freq. dielectric constant tensor:
#      x y z
#    x 1.600370 0.000000 0.000000 
#    y 0.000000 1.620680 0.000000 
#    z 0.000000 0.000000 1.651360 
# 
# From -- ./inp_files/5182.got.cif
#   From: 2010.03.12/outbox.cif.g09.slc.cpg/sg49_3_cif.got.tgz:5182.got - 2010.04.14 03:58:27.
