data_PCOD8202744
_publ_section_title
;
Structure prediction by ZEFSAII (Michael W. Deem and Ramdas Pophale) SiO2 
 PCOD8202744
Probable space group: P C C M
;
_chemical_formula_sum "Si O2"
_cell_formula_units_Z 56
_cell_length_a 18.584796
_cell_length_b 21.558426
_cell_length_c 8.683237
_cell_angle_alpha 90.000000
_cell_angle_beta 90.000000
_cell_angle_gamma 90.000000
_cell_volume 3479.016613
_symmetry_space_group_name_H-M "P C C M"
_symmetry_group_IT_number 49
_symmetry_cell_setting 'orthorhombic'
loop_
_space_group_symop_operation_xyz
x,y,z
-x,-y,z
x,-y,1/2-z
-x,y,1/2-z
-x,-y,-z
x,y,-z
-x,y,1/2+z
x,-y,1/2+z
loop_
_atom_site_type_symbol
_atom_site_label
_atom_site_fract_x
_atom_site_fract_y
_atom_site_fract_z
Si Si1 0.707284 0.645455 0.322858
Si Si2 0.208019 0.753545 0.679102
Si Si3 0.837872 0.566067 0.322582
Si Si4 0.421506 0.698861 0.680144
Si Si5 0.922013 0.680323 0.816659
Si Si6 0.338170 0.825631 0.319115
Si Si7 0.423814 0.065634 0.681022
O O1 0.709897 0.667942 0.500000
O O2 0.745355 0.693047 0.209502
O O3 0.752398 0.581632 0.304300
O O4 0.624912 0.643775 0.262925
O O5 0.201497 0.763400 0.500000
O O6 0.127756 0.738868 0.743409
O O7 0.255434 0.812001 0.739731
O O8 0.853874 0.500000 0.250000
O O9 0.860349 0.564683 0.500000
O O10 0.889200 0.615941 0.241582
O O11 0.500000 0.696716 0.750000
O O12 0.424491 0.685145 0.500000
O O13 0.387825 0.766193 0.716847
O O14 0.000000 0.692522 0.750000
O O15 0.924959 0.678004 0.000000
O O16 0.341005 0.841590 0.500000
O O17 0.364053 0.883842 0.221223
O O18 0.500000 0.087189 0.750000
O O19 0.432253 0.058862 0.500000
O O20 0.399275 0.000000 0.750000
#
# Coordination Sequence:
#
# PCOD8202744 Si02
#       7
#     8   8   8   8   8   8   8
#     4   9  17  29  45  64  86 110 141 180 222 265
#     4   8  16  30  47  65  88 118 148 179 219 263
#     4  10  20  33  49  68  88 115 149 183 217 261
#     4  10  19  29  44  65  89 115 144 181 226 269
#     4  10  19  32  49  70  96 123 148 178 218 263
#     4   9  17  30  46  65  88 116 151 187 220 260
#     4  11  21  32  45  62  88 124 160 194 229 264
#
# _framework density 16.096502000000001
#
# number of rings (size 3 to 8) (size 9 to 14) (size 15 to 20)
#    0.000    2.429    0.000    4.714    0.000    6.571 
#    0.000    1.429    0.000    0.429    0.000    3.000 
#    0.000    0.571    0.000    6.571    0.000    2.000 
#
# Total GULP energy -693766.408446 kJ/mol
# GULP energy per Si atom -12388.685865 kJ/mol
# Density = 1.605987 g / cm^3
# Si number density = 16.096502 Si / 1000 Ang^3
#
#
#
# Elastic Constant Matrix: (Units=GPa)
#
#
# Indices 1 2 3 4 5 6 
#
# 1 138.6126 57.0009 48.7564 0.0000 0.0000 0.0000
# 2 57.0009 63.7521 34.0949 0.0000 0.0000 0.0000
# 3 48.7564 34.0949 44.8606 0.0000 0.0000 0.0000
# 4 0.0000 0.0000 0.0000 19.7228 0.0000 0.0000
# 5 0.0000 0.0000 0.0000 0.0000 24.9969 0.0000
# 6 0.0000 0.0000 0.0000 0.0000 0.0000 22.6352
#
#
#
# Elastic Compliance Matrix: (Units=1/GPa)
#
#
# Indices 1 2 3 4 5 6 
#
# 1 0.013314 -0.007018 -0.009137 0.000000 0.000000 0.000000
# 2 -0.007018 0.030127 -0.015270 0.000000 0.000000 0.000000
# 3 -0.009137 -0.015270 0.043826 0.000000 0.000000 0.000000
# 4 0.000000 0.000000 0.000000 0.050703 0.000000 0.000000
# 5 0.000000 0.000000 0.000000 0.000000 0.040005 0.000000
# 6 0.000000 0.000000 0.000000 0.000000 0.000000 0.044179
#
#
# Mechanical properties :
#
#
# Convention : Reuss Voigt Hill
#
# Bulk Modulus (GPa) = 40.95140 58.54773 49.74956
# Shear Modulus (GPa) = 17.05664 20.62920 18.84292
#
# Velocity S-wave (km/s) = 3.25876 3.58382 3.42515
# Velocity P-wave (km/s) = 6.29728 7.31963 6.82762
#
# Compressibility (1/GPa) = 0.02441919
#
# Stress axis : x y z
#
# Youngs Moduli (GPa) = 75.10907 33.19323 22.81732
#
# Poissons Ratio (x) = 0.23294 0.20847
# Poissons Ratio (y) = 0.52710 0.34841
# Poissons Ratio (z) = 0.68623 0.50685
#
# Static dielectric constant tensor:
#      x y z
#    x 3.427810 0.000000 0.000000 
#    y 0.000000 2.918160 0.000000 
#    z 0.000000 0.000000 3.132600 
# 
# 
# High freq. dielectric constant tensor:
#      x y z
#    x 1.617010 0.000000 0.000000 
#    y 0.000000 1.581070 0.000000 
#    z 0.000000 0.000000 1.631490 
# 
# From -- ./inp_files/5157.got.cif
#   From: 2010.03.12/outbox.cif.g09.slc.cpg/sg49_3_cif.got.tgz:5157.got - 2010.04.14 03:58:27.
