data_PCOD8202604
_publ_section_title
;
Structure prediction by ZEFSAII (Michael W. Deem and Ramdas Pophale) SiO2 
 PCOD8202604
Probable space group: P C C M
;
_chemical_formula_sum "Si O2"
_cell_formula_units_Z 56
_cell_length_a 15.357975
_cell_length_b 11.399324
_cell_length_c 13.365331
_cell_angle_alpha 90.000000
_cell_angle_beta 90.000000
_cell_angle_gamma 90.000000
_cell_volume 2339.875622
_symmetry_space_group_name_H-M "P C C M"
_symmetry_group_IT_number 49
_symmetry_cell_setting 'orthorhombic'
loop_
_space_group_symop_operation_xyz
x,y,z
-x,-y,z
x,-y,1/2-z
-x,y,1/2-z
-x,-y,-z
x,y,-z
-x,y,1/2+z
x,-y,1/2+z
loop_
_atom_site_type_symbol
_atom_site_label
_atom_site_fract_x
_atom_site_fract_y
_atom_site_fract_z
Si Si1 0.673132 0.938760 0.615059
Si Si2 0.870854 0.054721 0.882670
Si Si3 0.037336 0.177905 0.118332
Si Si4 0.760499 0.452091 0.113252
Si Si5 0.178960 0.679053 0.298374
Si Si6 0.650443 0.188492 0.305988
Si Si7 0.582601 0.572807 0.117643
O O1 0.660761 0.898962 0.500000
O O2 0.772835 0.929131 0.654686
O O3 0.628041 0.845303 0.689883
O O4 0.634856 0.070295 0.628384
O O5 0.934266 0.165165 0.855562
O O6 0.912470 0.936510 0.839165
O O7 0.870739 0.037713 0.000000
O O8 0.079907 0.280921 0.183469
O O9 0.051667 0.197651 0.000000
O O10 0.797970 0.349512 0.182997
O O11 0.817696 0.567244 0.128925
O O12 0.662891 0.487912 0.145942
O O13 0.765789 0.405726 0.000000
O O14 0.250195 0.775036 0.332031
O O15 0.587838 0.297557 0.333085
O O16 0.500000 0.500000 0.157446
O O17 0.578766 0.594900 0.000000
#
# Coordination Sequence:
#
# PCOD8202604 Si02
#       7
#     8   8   8   8   8   8   8
#     4  10  19  33  53  83 129 176 223 269 319 393
#     4   8  15  27  47  79 117 162 214 273 326 367
#     4   9  15  26  49  80 117 162 215 273 329 374
#     4   9  19  33  52  84 120 157 216 276 326 395
#     4  10  18  31  51  81 119 166 215 266 328 387
#     4  10  20  32  53  88 127 171 220 263 322 397
#     4   9  18  36  63  94 127 161 206 275 344 396
#
# _framework density 23.932897000000001
#
# number of rings (size 3 to 8) (size 9 to 14) (size 15 to 20)
#    0.000    2.714    1.429    1.714    0.000    1.714 
#    0.000    6.429    0.000    0.429    0.000   32.000 
#    0.000   60.571    0.000    0.000    0.000    0.000 
#
# Total GULP energy -693997.102321 kJ/mol
# GULP energy per Si atom -12392.805399 kJ/mol
# Density = 2.387842 g / cm^3
# Si number density = 23.932897 Si / 1000 Ang^3
#
#
#
# Elastic Constant Matrix: (Units=GPa)
#
#
# Indices 1 2 3 4 5 6 
#
# 1 87.4868 62.7518 47.4715 0.0000 0.0000 0.0000
# 2 62.7518 118.6355 49.1184 0.0000 0.0000 0.0000
# 3 47.4715 49.1184 124.9419 0.0000 0.0000 0.0000
# 4 0.0000 0.0000 0.0000 37.5086 0.0000 0.0000
# 5 0.0000 0.0000 0.0000 0.0000 20.0254 0.0000
# 6 0.0000 0.0000 0.0000 0.0000 0.0000 41.2974
#
#
#
# Elastic Compliance Matrix: (Units=1/GPa)
#
#
# Indices 1 2 3 4 5 6 
#
# 1 0.020048 -0.008899 -0.004119 0.000000 0.000000 0.000000
# 2 -0.008899 0.014018 -0.002130 0.000000 0.000000 0.000000
# 3 -0.004119 -0.002130 0.010406 0.000000 0.000000 0.000000
# 4 0.000000 0.000000 0.000000 0.026661 0.000000 0.000000
# 5 0.000000 0.000000 0.000000 0.000000 0.049937 0.000000
# 6 0.000000 0.000000 0.000000 0.000000 0.000000 0.024215
#
#
# Mechanical properties :
#
#
# Convention : Reuss Voigt Hill
#
# Bulk Modulus (GPa) = 70.53695 72.19419 71.36557
# Shear Modulus (GPa) = 27.73076 31.21445 29.47260
#
# Velocity S-wave (km/s) = 3.40764 3.61536 3.51304
# Velocity P-wave (km/s) = 6.70966 6.90351 6.80727
#
# Compressibility (1/GPa) = 0.01417697
#
# Stress axis : x y z
#
# Youngs Moduli (GPa) = 49.87946 71.33620 96.09920
#
# Poissons Ratio (x) = 0.63483 0.39581
# Poissons Ratio (y) = 0.44389 0.20466
# Poissons Ratio (z) = 0.20544 0.15193
#
# Static dielectric constant tensor:
#      x y z
#    x 4.316790 0.000000 0.000000 
#    y 0.000000 4.285860 0.000000 
#    z 0.000000 0.000000 4.284670 
# 
# 
# High freq. dielectric constant tensor:
#      x y z
#    x 1.916910 0.000000 0.000000 
#    y 0.000000 1.939870 0.000000 
#    z 0.000000 0.000000 1.967100 
# 
# From -- ./inp_files/13542.got.cif
#   From: 2010.03.12/outbox.cif.g09.slc.cpg/sg49_7_cif.got.tgz:13542.got - 2010.04.14 03:58:27.
