data_PCOD8202755
_publ_section_title
;
Structure prediction by ZEFSAII (Michael W. Deem and Ramdas Pophale) SiO2 
 PCOD8202755
Probable space group: P C C M
;
_chemical_formula_sum "Si O2"
_cell_formula_units_Z 64
_cell_length_a 18.385008
_cell_length_b 22.920391
_cell_length_c 8.705579
_cell_angle_alpha 90.000000
_cell_angle_beta 90.000000
_cell_angle_gamma 90.000000
_cell_volume 3668.457619
_symmetry_space_group_name_H-M "P C C M"
_symmetry_group_IT_number 49
_symmetry_cell_setting 'orthorhombic'
loop_
_space_group_symop_operation_xyz
x,y,z
-x,-y,z
x,-y,1/2-z
-x,y,1/2-z
-x,-y,-z
x,y,-z
-x,y,1/2+z
x,-y,1/2+z
loop_
_atom_site_type_symbol
_atom_site_label
_atom_site_fract_x
_atom_site_fract_y
_atom_site_fract_z
Si Si1 0.831787 0.664876 0.830788
Si Si2 0.375652 0.561083 0.817184
Si Si3 0.074682 0.766061 0.673541
Si Si4 0.922923 0.936137 0.183124
Si Si5 0.575392 0.683281 0.817236
Si Si6 0.186013 0.845288 0.178769
Si Si7 0.789103 0.556401 0.324150
Si Si8 0.711828 0.759369 0.820415
O O1 0.909917 0.696991 0.833405
O O2 0.837809 0.612413 0.711745
O O3 0.769807 0.709702 0.779179
O O4 0.813130 0.640094 0.000000
O O5 0.408464 0.500000 0.750000
O O6 0.414152 0.618239 0.749737
O O7 0.292308 0.566022 0.760500
O O8 0.384649 0.561044 0.000000
O O9 0.079484 0.792923 0.500000
O O10 0.133263 0.791725 0.789184
O O11 0.000000 0.781268 0.750000
O O12 0.851021 0.899633 0.231789
O O13 0.000000 0.910402 0.250000
O O14 0.910909 0.000000 0.250000
O O15 0.928768 0.938144 0.000000
O O16 0.500000 0.707726 0.750000
O O17 0.635120 0.731765 0.764834
O O18 0.573984 0.678367 0.000000
O O19 0.265340 0.821246 0.238385
O O20 0.192189 0.861070 0.000000
O O21 0.826358 0.500000 0.250000
O O22 0.786059 0.543735 0.500000
O O23 0.711522 0.773516 0.000000
#
# Coordination Sequence:
#
# PCOD8202755 Si02
#       8
#     8   8   8   8   8   8   8   8
#     4   9  17  31  49  67  90 117 150 191 242 291
#     4  10  20  33  49  70  94 123 160 200 246 302
#     4  10  20  33  48  70  97 127 160 200 245 290
#     4  11  21  35  53  77 112 150 188 221 255 296
#     4  11  22  36  53  72  99 131 164 205 256 310
#     4  11  21  33  52  76 103 137 175 214 250 289
#     4  10  19  29  46  68  89 113 147 189 235 289
#     4   9  19  35  52  71  97 129 164 206 251 296
#
# _framework density 17.446024000000001
#
# number of rings (size 3 to 8) (size 9 to 14) (size 15 to 20)
#    0.000    1.875    1.250    5.250    0.000    4.750 
#    0.000    1.250    0.000    0.375    0.000    2.625 
#    0.000    0.500    0.000    5.250    0.000    2.875 
#
# Total GULP energy -792983.778729 kJ/mol
# GULP energy per Si atom -12390.371543 kJ/mol
# Density = 1.740632 g / cm^3
# Si number density = 17.446024 Si / 1000 Ang^3
#
#
#
# Elastic Constant Matrix: (Units=GPa)
#
#
# Indices 1 2 3 4 5 6 
#
# 1 64.9100 43.8318 27.8748 0.0000 0.0000 0.0000
# 2 43.8318 87.8126 36.6266 0.0000 0.0000 0.0000
# 3 27.8748 36.6266 92.2955 0.0000 0.0000 0.0000
# 4 0.0000 0.0000 0.0000 28.2218 0.0000 0.0000
# 5 0.0000 0.0000 0.0000 0.0000 16.2148 0.0000
# 6 0.0000 0.0000 0.0000 0.0000 0.0000 22.5430
#
#
#
# Elastic Compliance Matrix: (Units=1/GPa)
#
#
# Indices 1 2 3 4 5 6 
#
# 1 0.023903 -0.010689 -0.002977 0.000000 0.000000 0.000000
# 2 -0.010689 0.018427 -0.004084 0.000000 0.000000 0.000000
# 3 -0.002977 -0.004084 0.013355 0.000000 0.000000 0.000000
# 4 0.000000 0.000000 0.000000 0.035434 0.000000 0.000000
# 5 0.000000 0.000000 0.000000 0.000000 0.061672 0.000000
# 6 0.000000 0.000000 0.000000 0.000000 0.000000 0.044360
#
#
# Mechanical properties :
#
#
# Convention : Reuss Voigt Hill
#
# Bulk Modulus (GPa) = 49.54637 51.29829 50.42233
# Shear Modulus (GPa) = 20.88745 22.50826 21.69786
#
# Velocity S-wave (km/s) = 3.46390 3.59578 3.53046
# Velocity P-wave (km/s) = 6.66780 6.83428 6.75155
#
# Compressibility (1/GPa) = 0.02018311
#
# Stress axis : x y z
#
# Youngs Moduli (GPa) = 41.83654 54.26823 74.88013
#
# Poissons Ratio (x) = 0.58009 0.22292
# Poissons Ratio (y) = 0.44720 0.30583
# Poissons Ratio (z) = 0.12455 0.22164
#
# Static dielectric constant tensor:
#      x y z
#    x 1.667290 0.000000 0.000000 
#    y 0.000000 3.339760 0.000000 
#    z 0.000000 0.000000 3.336380 
# 
# 
# High freq. dielectric constant tensor:
#      x y z
#    x 1.643050 0.000000 0.000000 
#    y 0.000000 1.658280 0.000000 
#    z 0.000000 0.000000 1.685920 
# 
# From -- ./inp_files/5394.got.cif
#   From: 2010.03.12/outbox.cif.g09.slc.cpg/sg49_3_cif.got.tgz:5394.got - 2010.04.14 03:58:27.
