data_PCOD8202743
_publ_section_title
;
Structure prediction by ZEFSAII (Michael W. Deem and Ramdas Pophale) SiO2 
 PCOD8202743
Probable space group: P C C M
;
_chemical_formula_sum "Si O2"
_cell_formula_units_Z 48
_cell_length_a 24.070374
_cell_length_b 13.589645
_cell_length_c 8.766448
_cell_angle_alpha 90.000000
_cell_angle_beta 90.000000
_cell_angle_gamma 90.000000
_cell_volume 2867.573849
_symmetry_space_group_name_H-M "P C C M"
_symmetry_group_IT_number 49
_symmetry_cell_setting 'orthorhombic'
loop_
_space_group_symop_operation_xyz
x,y,z
-x,-y,z
x,-y,1/2-z
-x,y,1/2-z
-x,-y,-z
x,y,-z
-x,y,1/2+z
x,-y,1/2+z
loop_
_atom_site_type_symbol
_atom_site_label
_atom_site_fract_x
_atom_site_fract_y
_atom_site_fract_z
Si Si1 0.883057 0.897529 0.677229
Si Si2 0.447429 0.106294 0.824178
Si Si3 0.059084 0.299269 0.318739
Si Si4 0.675453 0.107675 0.321547
Si Si5 0.835649 0.603086 0.181336
Si Si6 0.775471 0.217173 0.819863
O O1 0.887412 0.913871 0.500000
O O2 0.925483 0.812278 0.729922
O O3 0.820574 0.866443 0.723748
O O4 0.900753 0.000000 0.750000
O O5 0.500000 0.165947 0.750000
O O6 0.386526 0.153426 0.797235
O O7 0.445248 0.000000 0.750000
O O8 0.460549 0.095178 0.000000
O O9 0.059336 0.311889 0.500000
O O10 0.103758 0.373212 0.248433
O O11 0.000000 0.327761 0.250000
O O12 0.690357 0.100179 0.500000
O O13 0.715639 0.182588 0.236046
O O14 0.681428 0.000000 0.250000
O O15 0.815474 0.500000 0.250000
O O16 0.790381 0.682815 0.233352
O O17 0.838579 0.598699 0.000000
O O18 0.775744 0.237435 0.000000
#
# Coordination Sequence:
#
# PCOD8202743 Si02
#       6
#     8   8   8   8   8   8
#     4   9  19  32  47  67  94 125 158 192 228 271
#     4   9  16  25  38  57  86 124 167 206 241 278
#     4  10  21  37  53  74  99 124 157 195 233 278
#     4  10  19  29  43  67  97 132 169 205 242 283
#     4  11  22  38  58  77  97 122 150 188 238 290
#     4  10  20  34  50  71  97 125 159 199 238 284
#
# _framework density 16.738887999999999
#
# number of rings (size 3 to 8) (size 9 to 14) (size 15 to 20)
#    0.000    2.167    0.000    5.500    0.000    8.000 
#    0.000    3.333    0.000    0.000    0.000    0.000 
#    0.000    0.667    0.000    7.000    0.000    3.833 
#
# Total GULP energy -595059.037610 kJ/mol
# GULP energy per Si atom -12397.063284 kJ/mol
# Density = 1.670079 g / cm^3
# Si number density = 16.738888 Si / 1000 Ang^3
#
#
#
# Elastic Constant Matrix: (Units=GPa)
#
#
# Indices 1 2 3 4 5 6 
#
# 1 109.5502 24.3580 41.5784 0.0000 0.0000 0.0000
# 2 24.3580 71.3323 29.6999 0.0000 0.0000 0.0000
# 3 41.5784 29.6999 102.8534 0.0000 0.0000 0.0000
# 4 0.0000 0.0000 0.0000 26.8283 0.0000 0.0000
# 5 0.0000 0.0000 0.0000 0.0000 30.9446 0.0000
# 6 0.0000 0.0000 0.0000 0.0000 0.0000 0.3783
#
#
#
# Elastic Compliance Matrix: (Units=1/GPa)
#
#
# Indices 1 2 3 4 5 6 
#
# 1 0.011073 -0.002179 -0.003847 0.000000 0.000000 0.000000
# 2 -0.002179 0.016364 -0.003844 0.000000 0.000000 0.000000
# 3 -0.003847 -0.003844 0.012388 0.000000 0.000000 0.000000
# 4 0.000000 0.000000 0.000000 0.037274 0.000000 0.000000
# 5 0.000000 0.000000 0.000000 0.000000 0.032316 0.000000
# 6 0.000000 0.000000 0.000000 0.000000 0.000000 2.643190
#
#
# Mechanical properties :
#
#
# Convention : Reuss Voigt Hill
#
# Bulk Modulus (GPa) = 49.79238 52.77872 51.28555
# Shear Modulus (GPa) = 1.79918 24.17022 12.98470
#
# Velocity S-wave (km/s) = 1.03788 3.80406 2.78820
# Velocity P-wave (km/s) = 5.58993 7.13397 6.40863
#
# Compressibility (1/GPa) = 0.02008339
#
# Stress axis : x y z
#
# Youngs Moduli (GPa) = 90.31098 61.11107 80.72521
#
# Poissons Ratio (x) = 0.13319 0.31054
# Poissons Ratio (y) = 0.19682 0.31032
# Poissons Ratio (z) = 0.34741 0.23492
#
# Static dielectric constant tensor:
#      x y z
#    x 3.679850 0.000000 0.000000 
#    y 0.000000 3.223020 0.000000 
#    z 0.000000 0.000000 3.258460 
# 
# 
# High freq. dielectric constant tensor:
#      x y z
#    x 1.647880 0.000000 0.000000 
#    y 0.000000 1.607650 0.000000 
#    z 0.000000 0.000000 1.664180 
# 
# From -- ./inp_files/2893.got.cif
#   From: 2010.03.12/outbox.cif.g09.slc.cpg/sg49_2_cif.got.tgz:2893.got - 2010.04.14 03:58:27.
