data_PCOD8202095
_publ_section_title
;
Structure prediction by ZEFSAII (Michael W. Deem and Ramdas Pophale) SiO2 
 PCOD8202095
Probable space group: P N N N
;
_chemical_formula_sum "Si O2"
_cell_formula_units_Z 64
_cell_length_a 9.238543
_cell_length_b 20.372465
_cell_length_c 16.836159
_cell_angle_alpha 90.000000
_cell_angle_beta 90.000000
_cell_angle_gamma 90.000000
_cell_volume 3168.765372
_symmetry_space_group_name_H-M "P N N N"
_symmetry_group_IT_number 48
_space_group.IT_coordinate_system_code '2'
_symmetry_cell_setting 'orthorhombic'
loop_
_space_group_symop_operation_xyz
x,y,z
1/2-x,1/2-y,z
x,1/2-y,1/2-z
1/2-x,y,1/2-z
-x,-y,-z
1/2+x,1/2+y,-z
-x,1/2+y,1/2+z
1/2+x,-y,1/2+z
loop_
_atom_site_type_symbol
_atom_site_label
_atom_site_fract_x
_atom_site_fract_y
_atom_site_fract_z
Si Si1 0.785065 0.421589 0.342521
Si Si2 0.476760 0.975704 0.315938
Si Si3 0.171975 0.680332 0.531396
Si Si4 0.891038 0.724172 0.456510
Si Si5 0.708613 0.626676 0.168389
Si Si6 0.208336 0.913529 0.395035
Si Si7 0.551159 0.982524 0.142223
Si Si8 0.393268 0.784088 0.165178
O O1 0.750000 0.413240 0.250000
O O2 0.812009 0.350772 0.381391
O O3 0.640320 0.452756 0.383614
O O4 0.925977 0.467441 0.357693
O O5 0.551113 0.905039 0.323447
O O6 0.324317 0.964874 0.360038
O O7 0.459875 0.994905 0.223618
O O8 0.250000 0.750000 0.529274
O O9 0.234705 0.627933 0.469101
O O10 0.001282 0.690193 0.516468
O O11 0.750000 0.750000 0.505785
O O12 0.797984 0.674385 0.404404
O O13 0.976143 0.773858 0.397009
O O14 0.750000 0.664942 0.250000
O O15 0.827341 0.571275 0.156947
O O16 0.145022 0.861742 0.328400
O O17 0.069905 0.958584 0.421232
O O18 0.250000 0.750000 0.128024
O O19 0.428668 0.750000 0.250000
#
# Coordination Sequence:
#
# PCOD8202095 Si02
#       8
#     8   8   8   8   8   8   8   8
#     4   9  22  47  68  91 110 144 215 271 327 378
#     4   9  18  35  60  86 119 158 201 254 298 352
#     4  12  25  44  62  86 128 163 203 262 315 389
#     4  12  23  36  50  82 126 171 214 251 291 353
#     4   9  18  31  50  77 117 166 211 239 274 334
#     4  12  20  35  56  91 136 165 199 244 310 367
#     4   9  20  34  59  91 119 158 202 261 289 363
#     4  11  23  33  50  80 131 186 226 238 276 355
#
# _framework density 20.197140000000001
#
# number of rings (size 3 to 8) (size 9 to 14) (size 15 to 20)
#    0.000    1.625    3.750    2.625    8.750    1.250 
#    0.000    1.250    0.000    0.000    0.000    0.875 
#    0.000    0.000    0.000    0.000    0.000    0.000 
#
# Total GULP energy -792861.311359 kJ/mol
# GULP energy per Si atom -12388.457990 kJ/mol
# Density = 2.015117 g / cm^3
# Si number density = 20.197140 Si / 1000 Ang^3
#
#
#
# Elastic Constant Matrix: (Units=GPa)
#
#
# Indices 1 2 3 4 5 6 
#
# 1 138.5739 47.4873 37.7703 0.0000 0.0000 0.0000
# 2 47.4873 75.1423 40.4512 0.0000 0.0000 0.0000
# 3 37.7703 40.4512 50.3756 0.0000 0.0000 0.0000
# 4 0.0000 0.0000 0.0000 21.5300 0.0000 0.0000
# 5 0.0000 0.0000 0.0000 0.0000 15.0035 0.0000
# 6 0.0000 0.0000 0.0000 0.0000 0.0000 10.3639
#
#
#
# Elastic Compliance Matrix: (Units=1/GPa)
#
#
# Indices 1 2 3 4 5 6 
#
# 1 0.009676 -0.003891 -0.004130 0.000000 0.000000 0.000000
# 2 -0.003891 0.025006 -0.017162 0.000000 0.000000 0.000000
# 3 -0.004130 -0.017162 0.036728 0.000000 0.000000 0.000000
# 4 0.000000 0.000000 0.000000 0.046447 0.000000 0.000000
# 5 0.000000 0.000000 0.000000 0.000000 0.066651 0.000000
# 6 0.000000 0.000000 0.000000 0.000000 0.000000 0.096489
#
#
# Mechanical properties :
#
#
# Convention : Reuss Voigt Hill
#
# Bulk Modulus (GPa) = 47.52050 57.27883 52.39967
# Shear Modulus (GPa) = 14.77641 18.60501 16.69071
#
# Velocity S-wave (km/s) = 2.70776 3.03837 2.87782
# Velocity P-wave (km/s) = 5.77541 6.38204 6.08629
#
# Compressibility (1/GPa) = 0.02104355
#
# Stress axis : x y z
#
# Youngs Moduli (GPa) = 103.35374 39.99012 27.22711
#
# Poissons Ratio (x) = 0.15562 0.11244
# Poissons Ratio (y) = 0.40220 0.46727
# Poissons Ratio (z) = 0.42681 0.68631
#
# Static dielectric constant tensor:
#      x y z
#    x 4.021470 0.000000 0.000000 
#    y 0.000000 3.633720 0.000000 
#    z 0.000000 0.000000 3.340110 
# 
# 
# High freq. dielectric constant tensor:
#      x y z
#    x 1.811380 0.000000 0.000000 
#    y 0.000000 1.766690 0.000000 
#    z 0.000000 0.000000 1.743410 
# 
# From -- ./inp_files/30580.got.cif
#   From: 2010.06.25/outbox.cif.g09.slc.cpg/sg48_16_cif.got.tgz:30580.got - 2010.06.26 18:06:46.
