data_PCOD8202339
_publ_section_title
;
Structure prediction by ZEFSAII (Michael W. Deem and Ramdas Pophale) SiO2 
 PCOD8202339
Probable space group: P C C M
;
_chemical_formula_sum "Si O2"
_cell_formula_units_Z 48
_cell_length_a 30.320961
_cell_length_b 9.580048
_cell_length_c 8.672796
_cell_angle_alpha 90.000000
_cell_angle_beta 90.000000
_cell_angle_gamma 90.000000
_cell_volume 2519.241361
_symmetry_space_group_name_H-M "P C C M"
_symmetry_group_IT_number 49
_symmetry_cell_setting 'orthorhombic'
loop_
_space_group_symop_operation_xyz
x,y,z
-x,-y,z
x,-y,1/2-z
-x,y,1/2-z
-x,-y,-z
x,y,-z
-x,y,1/2+z
x,-y,1/2+z
loop_
_atom_site_type_symbol
_atom_site_label
_atom_site_fract_x
_atom_site_fract_y
_atom_site_fract_z
Si Si1 0.385961 0.353907 0.679769
Si Si2 0.283299 0.353232 0.679057
Si Si3 0.214414 0.847518 0.318792
Si Si4 0.133211 0.347134 0.182183
Si Si5 0.455252 0.847442 0.682102
Si Si6 0.043909 0.655176 0.183149
O O1 0.401247 0.500000 0.750000
O O2 0.397352 0.350475 0.500000
O O3 0.334614 0.327733 0.711672
O O4 0.412262 0.236183 0.769170
O O5 0.267341 0.500000 0.750000
O O6 0.272103 0.358555 0.500000
O O7 0.258478 0.223775 0.755204
O O8 0.218847 0.861175 0.500000
O O9 0.172916 0.753504 0.270216
O O10 0.208264 0.000000 0.250000
O O11 0.142915 0.500000 0.250000
O O12 0.089185 0.276083 0.255496
O O13 0.127174 0.360569 0.000000
O O14 0.500000 0.777898 0.750000
O O15 0.459001 0.854566 0.500000
O O16 0.449610 0.000000 0.750000
O O17 0.044362 0.500000 0.250000
O O18 0.000000 0.732338 0.250000
O O19 0.042451 0.655232 0.000000
#
# Coordination Sequence:
#
# PCOD8202339 Si02
#       6
#     8   8   8   8   8   8
#     4  10  21  38  59  86 115 146 183 227 276 327
#     4  10  21  38  61  85 113 145 182 226 274 328
#     4  11  24  39  57  80 110 145 184 228 275 326
#     4  10  20  34  53  79 107 140 179 221 268 321
#     4  11  22  38  59  83 113 150 189 231 275 326
#     4  10  17  27  46  73 105 138 172 217 265 314
#
# _framework density 19.053356000000001
#
# number of rings (size 3 to 8) (size 9 to 14) (size 15 to 20)
#    0.000    1.667    0.000    7.500    0.000    7.000 
#    0.000    1.667    0.000    0.500    0.000    3.500 
#    0.000    0.000    0.000    0.000    0.000    0.000 
#
# Total GULP energy -595277.827196 kJ/mol
# GULP energy per Si atom -12401.621400 kJ/mol
# Density = 1.900999 g / cm^3
# Si number density = 19.053356 Si / 1000 Ang^3
#
#
#
# Elastic Constant Matrix: (Units=GPa)
#
#
# Indices 1 2 3 4 5 6 
#
# 1 109.2574 64.7432 67.3894 0.0000 0.0000 0.0000
# 2 64.7432 100.6320 55.0738 0.0000 0.0000 0.0000
# 3 67.3894 55.0738 145.1199 0.0000 0.0000 0.0000
# 4 0.0000 0.0000 0.0000 31.9142 0.0000 0.0000
# 5 0.0000 0.0000 0.0000 0.0000 28.7746 0.0000
# 6 0.0000 0.0000 0.0000 0.0000 0.0000 13.9289
#
#
#
# Elastic Compliance Matrix: (Units=1/GPa)
#
#
# Indices 1 2 3 4 5 6 
#
# 1 0.017029 -0.008366 -0.004733 0.000000 0.000000 0.000000
# 2 -0.008366 0.016652 -0.002435 0.000000 0.000000 0.000000
# 3 -0.004733 -0.002435 0.010013 0.000000 0.000000 0.000000
# 4 0.000000 0.000000 0.000000 0.031334 0.000000 0.000000
# 5 0.000000 0.000000 0.000000 0.000000 0.034753 0.000000
# 6 0.000000 0.000000 0.000000 0.000000 0.000000 0.071793
#
#
# Mechanical properties :
#
#
# Convention : Reuss Voigt Hill
#
# Bulk Modulus (GPa) = 79.19577 81.04689 80.12133
# Shear Modulus (GPa) = 23.05736 26.11039 24.58388
#
# Velocity S-wave (km/s) = 3.48249 3.70588 3.59592
# Velocity P-wave (km/s) = 7.60433 7.80645 7.70605
#
# Compressibility (1/GPa) = 0.01262694
#
# Stress axis : x y z
#
# Youngs Moduli (GPa) = 58.72188 60.05308 99.87295
#
# Poissons Ratio (x) = 0.50239 0.47271
# Poissons Ratio (y) = 0.49126 0.24316
# Poissons Ratio (z) = 0.27794 0.14621
#
# Static dielectric constant tensor:
#      x y z
#    x 4.083240 0.000000 0.000000 
#    y 0.000000 3.241840 0.000000 
#    z 0.000000 0.000000 3.643250 
# 
# 
# High freq. dielectric constant tensor:
#      x y z
#    x 1.760450 0.000000 0.000000 
#    y 0.000000 1.711070 0.000000 
#    z 0.000000 0.000000 1.762960 
# 
# From -- ./inp_files/6873.got.cif
#   From: 2010.03.12/outbox.cif.g09.slc.cpg/sg49_4_cif.got.tgz:6873.got - 2010.04.14 03:58:27.
