data_PCOD8202693
_publ_section_title
;
Structure prediction by ZEFSAII (Michael W. Deem and Ramdas Pophale) SiO2 
 PCOD8202693
Probable space group: P C C M
;
_chemical_formula_sum "Si O2"
_cell_formula_units_Z 64
_cell_length_a 17.731189
_cell_length_b 12.207299
_cell_length_c 15.283224
_cell_angle_alpha 90.000000
_cell_angle_beta 90.000000
_cell_angle_gamma 90.000000
_cell_volume 3308.052700
_symmetry_space_group_name_H-M "P C C M"
_symmetry_group_IT_number 49
_symmetry_cell_setting 'orthorhombic'
loop_
_space_group_symop_operation_xyz
x,y,z
-x,-y,z
x,-y,1/2-z
-x,y,1/2-z
-x,-y,-z
x,y,-z
-x,y,1/2+z
x,-y,1/2+z
loop_
_atom_site_type_symbol
_atom_site_label
_atom_site_fract_x
_atom_site_fract_y
_atom_site_fract_z
Si Si1 0.179963 0.746915 0.100509
Si Si2 0.714910 0.894641 0.695876
Si Si3 0.416185 0.990860 0.400924
Si Si4 0.277899 0.452646 0.598850
Si Si5 0.087078 0.631050 0.247851
Si Si6 0.424710 0.445327 0.895784
Si Si7 0.341014 0.766609 0.647752
Si Si8 0.192146 0.655290 0.598835
O O1 0.212160 0.862076 0.136893
O O2 0.254408 0.672069 0.106099
O O3 0.116441 0.688644 0.158761
O O4 0.151022 0.759045 0.000000
O O5 0.689296 0.793092 0.755611
O O6 0.742849 0.000000 0.750000
O O7 0.639907 0.923385 0.642888
O O8 0.423264 0.029036 0.500000
O O9 0.381836 0.869916 0.395384
O O10 0.500000 0.000000 0.357557
O O11 0.280511 0.495988 0.500000
O O12 0.361686 0.467297 0.635810
O O13 0.218031 0.537693 0.640291
O O14 0.097299 0.500000 0.250000
O O15 0.127455 0.689491 0.331714
O O16 0.000000 0.662807 0.250000
O O17 0.500000 0.500000 0.857479
O O18 0.403369 0.329495 0.851648
O O19 0.431104 0.428006 0.000000
O O20 0.265255 0.734259 0.594747
O O21 0.157791 0.649766 0.500000
#
# Coordination Sequence:
#
# PCOD8202693 Si02
#       8
#     8   8   8   8   8   8   8   8
#     4  11  21  38  61  87 120 159 199 244 297 355
#     4  10  22  37  58  84 112 150 203 258 300 351
#     4  10  21  37  56  82 115 153 201 256 311 354
#     4   8  16  29  50  78 108 150 195 231 278 336
#     4  11  23  37  59  94 130 161 193 234 294 361
#     4   9  17  30  49  78 113 150 194 239 282 342
#     4  10  19  34  57  82 112 154 200 240 298 356
#     4  10  18  34  58  84 116 156 201 236 277 351
#
# _framework density 19.346729
#
# number of rings (size 3 to 8) (size 9 to 14) (size 15 to 20)
#    0.000    2.125    2.500    2.250    0.000    3.750 
#    0.000    3.750    0.000    1.125    0.000    0.875 
#    0.000    0.500    0.000    0.000    0.000    0.000 
#
# Total GULP energy -793012.289271 kJ/mol
# GULP energy per Si atom -12390.817020 kJ/mol
# Density = 1.930270 g / cm^3
# Si number density = 19.346729 Si / 1000 Ang^3
#
#
#
# Elastic Constant Matrix: (Units=GPa)
#
#
# Indices 1 2 3 4 5 6 
#
# 1 125.5252 40.3038 53.2048 0.0000 0.0000 0.0000
# 2 40.3038 69.6235 33.8646 0.0000 0.0000 0.0000
# 3 53.2048 33.8646 109.8066 0.0000 0.0000 0.0000
# 4 0.0000 0.0000 0.0000 24.2796 0.0000 0.0000
# 5 0.0000 0.0000 0.0000 0.0000 21.6738 0.0000
# 6 0.0000 0.0000 0.0000 0.0000 0.0000 25.9882
#
#
#
# Elastic Compliance Matrix: (Units=1/GPa)
#
#
# Indices 1 2 3 4 5 6 
#
# 1 0.011099 -0.004482 -0.003996 0.000000 0.000000 0.000000
# 2 -0.004482 0.018707 -0.003598 0.000000 0.000000 0.000000
# 3 -0.003996 -0.003598 0.012153 0.000000 0.000000 0.000000
# 4 0.000000 0.000000 0.000000 0.041187 0.000000 0.000000
# 5 0.000000 0.000000 0.000000 0.000000 0.046139 0.000000
# 6 0.000000 0.000000 0.000000 0.000000 0.000000 0.038479
#
#
# Mechanical properties :
#
#
# Convention : Reuss Voigt Hill
#
# Bulk Modulus (GPa) = 56.15284 62.18908 59.17096
# Shear Modulus (GPa) = 25.27167 26.22713 25.74940
#
# Velocity S-wave (km/s) = 3.61813 3.68589 3.65217
# Velocity P-wave (km/s) = 6.82217 7.09427 6.95955
#
# Compressibility (1/GPa) = 0.01780854
#
# Stress axis : x y z
#
# Youngs Moduli (GPa) = 90.09743 53.45520 82.28702
#
# Poissons Ratio (x) = 0.23956 0.32880
# Poissons Ratio (y) = 0.40378 0.29606
# Poissons Ratio (z) = 0.36001 0.19233
#
# Static dielectric constant tensor:
#      x y z
#    x 3.478800 0.000000 0.000000 
#    y 0.000000 3.345130 0.000000 
#    z 0.000000 0.000000 3.595440 
# 
# 
# High freq. dielectric constant tensor:
#      x y z
#    x 1.736720 0.000000 0.000000 
#    y 0.000000 1.736280 0.000000 
#    z 0.000000 0.000000 1.757320 
# 
# From -- ./inp_files/14219.got.cif
#   From: 2010.03.12/outbox.cif.g09.slc.cpg/sg49_8_cif.got.tgz:14219.got - 2010.04.14 03:58:27.
