data_PCOD8202382
_publ_section_title
;
Structure prediction by ZEFSAII (Michael W. Deem and Ramdas Pophale) SiO2 
 PCOD8202382
Probable space group: P C C M
;
_chemical_formula_sum "Si O2"
_cell_formula_units_Z 48
_cell_length_a 5.210372
_cell_length_b 17.771116
_cell_length_c 33.375049
_cell_angle_alpha 90.000000
_cell_angle_beta 90.000000
_cell_angle_gamma 90.000000
_cell_volume 3090.333466
_symmetry_space_group_name_H-M "P C C M"
_symmetry_group_IT_number 49
_symmetry_cell_setting 'orthorhombic'
loop_
_space_group_symop_operation_xyz
x,y,z
-x,-y,z
x,-y,1/2-z
-x,y,1/2-z
-x,-y,-z
x,y,-z
-x,y,1/2+z
x,-y,1/2+z
loop_
_atom_site_type_symbol
_atom_site_label
_atom_site_fract_x
_atom_site_fract_y
_atom_site_fract_z
Si Si1 0.304217 0.081486 0.546032
Si Si2 0.941894 0.915269 0.170240
Si Si3 0.549738 0.839968 0.703013
Si Si4 0.808923 0.914610 0.078741
Si Si5 0.001830 0.414940 0.297785
Si Si6 0.501364 0.670547 0.797732
O O1 0.386122 0.073603 0.500000
O O2 0.533060 0.125119 0.570299
O O3 0.030249 0.123526 0.550795
O O4 0.250365 0.000562 0.566291
O O5 0.658174 0.895878 0.184918
O O6 0.925603 0.906550 0.122733
O O7 0.161865 0.863659 0.190348
O O8 0.000000 0.000000 0.183313
O O9 0.500000 0.841767 0.750000
O O10 0.505017 0.755881 0.686323
O O11 0.254309 0.373631 0.314393
O O12 0.000000 0.500000 0.314245
O O13 0.000000 0.415065 0.250000
O O14 0.754562 0.370576 0.314433
O O15 0.500000 0.669635 0.750000
#
# Coordination Sequence:
#
# PCOD8202382 Si02
#       6
#     8   8   8   8   8   8
#     4  10  17  28  47  67  86 105 122 151 216 282
#     4  12  23  35  50  60  79 106 145 201 245 269
#     4  11  24  37  48  60  76 110 152 191 241 276
#     4  10  18  29  43  64  85 102 127 165 221 272
#     4   9  15  24  43  67  85 101 119 148 202 265
#     4   9  17  30  43  58  83 104 128 167 209 265
#
# _framework density 15.532304999999999
#
# number of rings (size 3 to 8) (size 9 to 14) (size 15 to 20)
#    0.000    1.833    1.667    6.000    2.333    6.667 
#    0.000    0.000    0.000    0.000    0.000    0.000 
#    0.000    0.000    0.000    0.000    0.000    0.000 
#
# Total GULP energy -594701.792040 kJ/mol
# GULP energy per Si atom -12389.620668 kJ/mol
# Density = 1.549695 g / cm^3
# Si number density = 15.532305 Si / 1000 Ang^3
#
#
#
# Elastic Constant Matrix: (Units=GPa)
#
#
# Indices 1 2 3 4 5 6 
#
# 1 139.4528 27.9431 16.5594 0.0000 0.0000 0.0000
# 2 27.9431 72.3630 11.6417 0.0000 0.0000 0.0000
# 3 16.5594 11.6417 52.0889 0.0000 0.0000 0.0000
# 4 0.0000 0.0000 0.0000 14.8035 0.0000 0.0000
# 5 0.0000 0.0000 0.0000 0.0000 23.3181 0.0000
# 6 0.0000 0.0000 0.0000 0.0000 0.0000 23.5552
#
#
#
# Elastic Compliance Matrix: (Units=1/GPa)
#
#
# Indices 1 2 3 4 5 6 
#
# 1 0.007951 -0.002763 -0.001910 0.000000 0.000000 0.000000
# 2 -0.002763 0.015295 -0.002540 0.000000 0.000000 0.000000
# 3 -0.001910 -0.002540 0.020373 0.000000 0.000000 0.000000
# 4 0.000000 0.000000 0.000000 0.067552 0.000000 0.000000
# 5 0.000000 0.000000 0.000000 0.000000 0.042885 0.000000
# 6 0.000000 0.000000 0.000000 0.000000 0.000000 0.042454
#
#
# Mechanical properties :
#
#
# Convention : Reuss Voigt Hill
#
# Bulk Modulus (GPa) = 34.25535 41.79922 38.02729
# Shear Modulus (GPa) = 22.65861 26.18606 24.42234
#
# Velocity S-wave (km/s) = 3.82357 4.11044 3.96960
# Velocity P-wave (km/s) = 6.44943 7.03542 6.74879
#
# Compressibility (1/GPa) = 0.02919252
#
# Stress axis : x y z
#
# Youngs Moduli (GPa) = 125.76425 65.38162 49.08481
#
# Poissons Ratio (x) = 0.18066 0.09376
# Poissons Ratio (y) = 0.34750 0.12467
# Poissons Ratio (z) = 0.24024 0.16606
#
# Static dielectric constant tensor:
#      x y z
#    x 4.715290 0.000000 0.000000 
#    y 0.000000 2.811010 0.000000 
#    z 0.000000 0.000000 2.756640 
# 
# 
# High freq. dielectric constant tensor:
#      x y z
#    x 1.637280 0.000000 0.000000 
#    y 0.000000 1.549480 0.000000 
#    z 0.000000 0.000000 1.551750 
# 
# From -- ./inp_files/25778.got.cif
#   From: 2010.03.12/outbox.cif.g09.slc.cpg/sg49_13_cif.got.tgz:25778.got - 2010.04.14 03:58:27.
