data_PCOD8202450
_publ_section_title
;
Structure prediction by ZEFSAII (Michael W. Deem and Ramdas Pophale) SiO2 
 PCOD8202450
Probable space group: P C C M
;
_chemical_formula_sum "Si O2"
_cell_formula_units_Z 52
_cell_length_a 24.595961
_cell_length_b 5.208668
_cell_length_c 20.237363
_cell_angle_alpha 90.000000
_cell_angle_beta 90.000000
_cell_angle_gamma 90.000000
_cell_volume 2592.652995
_symmetry_space_group_name_H-M "P C C M"
_symmetry_group_IT_number 49
_symmetry_cell_setting 'orthorhombic'
loop_
_space_group_symop_operation_xyz
x,y,z
-x,-y,z
x,-y,1/2-z
-x,y,1/2-z
-x,-y,-z
x,y,-z
-x,y,1/2+z
x,-y,1/2+z
loop_
_atom_site_type_symbol
_atom_site_label
_atom_site_fract_x
_atom_site_fract_y
_atom_site_fract_z
Si Si1 0.938344 0.505008 0.171106
Si Si2 0.351138 0.113986 0.888620
Si Si3 0.682367 0.000000 0.250000
Si Si4 0.779598 0.703667 0.303377
Si Si5 0.286210 0.392564 0.574831
Si Si6 0.527625 0.245842 0.423301
Si Si7 0.115642 0.991226 0.822377
O O1 0.935920 0.500000 0.250000
O O2 0.908878 0.255693 0.140158
O O3 0.000000 0.500000 0.145105
O O4 0.903331 0.746103 0.142161
O O5 0.354704 0.109204 0.808841
O O6 0.310183 0.325515 0.915276
O O7 0.408414 0.211300 0.915314
O O8 0.331128 0.832861 0.912794
O O9 0.721028 0.772861 0.274643
O O10 0.806222 0.500000 0.250000
O O11 0.766642 0.607298 0.377367
O O12 0.819176 0.950311 0.313395
O O13 0.265085 0.365446 0.500000
O O14 0.500000 0.500000 0.390569
O O15 0.512463 0.252433 0.500000
O O16 0.500000 0.000000 0.388828
O O17 0.088117 0.000000 0.750000
#
# Coordination Sequence:
#
# PCOD8202450 Si02
#       7
#     8   8   4   8   8   8   8
#     4   9  17  28  41  65 100 138 178 221 272 327
#     4  11  22  39  60  83 114 147 194 235 292 349
#     4  10  22  36  57  80 111 152 192 230 280 344
#     4  11  20  35  53  80 114 148 193 234 280 345
#     4  11  23  37  58  84 115 152 193 243 290 342
#     4  10  20  35  57  83 109 139 179 230 283 336
#     4  10  18  27  46  69  98 140 180 220 267 333
#
# _framework density 20.056674999999998
#
# number of rings (size 3 to 8) (size 9 to 14) (size 15 to 20)
#    0.000    1.692    2.308    4.154    0.000    3.077 
#    0.000    0.385    0.000    0.923    0.000    0.000 
#    0.000    3.692    0.000    0.000    0.000   27.846 
#
# Total GULP energy -644230.189188 kJ/mol
# GULP energy per Si atom -12389.042100 kJ/mol
# Density = 2.001103 g / cm^3
# Si number density = 20.056675 Si / 1000 Ang^3
#
#
#
# Elastic Constant Matrix: (Units=GPa)
#
#
# Indices 1 2 3 4 5 6 
#
# 1 73.5825 38.5604 12.3787 0.0000 0.0000 0.0000
# 2 38.5604 141.5301 23.0941 0.0000 0.0000 0.0000
# 3 12.3787 23.0941 87.7974 0.0000 0.0000 0.0000
# 4 0.0000 0.0000 0.0000 14.9611 0.0000 0.0000
# 5 0.0000 0.0000 0.0000 0.0000 1.3252 0.0000
# 6 0.0000 0.0000 0.0000 0.0000 0.0000 39.8917
#
#
#
# Elastic Compliance Matrix: (Units=1/GPa)
#
#
# Indices 1 2 3 4 5 6 
#
# 1 0.015965 -0.004161 -0.001156 0.000000 0.000000 0.000000
# 2 -0.004161 0.008467 -0.001640 0.000000 0.000000 0.000000
# 3 -0.001156 -0.001640 0.011984 0.000000 0.000000 0.000000
# 4 0.000000 0.000000 0.000000 0.066840 0.000000 0.000000
# 5 0.000000 0.000000 0.000000 0.000000 0.754587 0.000000
# 6 0.000000 0.000000 0.000000 0.000000 0.000000 0.025068
#
#
# Mechanical properties :
#
#
# Convention : Reuss Voigt Hill
#
# Bulk Modulus (GPa) = 44.44302 50.10848 47.27575
# Shear Modulus (GPa) = 5.52897 26.49408 16.01152
#
# Velocity S-wave (km/s) = 1.66212 3.63844 2.82851
# Velocity P-wave (km/s) = 5.08826 6.53366 5.85573
#
# Compressibility (1/GPa) = 0.02250072
#
# Stress axis : x y z
#
# Youngs Moduli (GPa) = 62.63572 118.10523 83.44170
#
# Poissons Ratio (x) = 0.49145 0.09650
# Poissons Ratio (y) = 0.26063 0.13688
# Poissons Ratio (z) = 0.07243 0.19375
#
# Static dielectric constant tensor:
#      x y z
#    x 3.526580 0.000000 0.000000 
#    y 0.000000 4.110850 0.000000 
#    z 0.000000 0.000000 3.408100 
# 
# 
# High freq. dielectric constant tensor:
#      x y z
#    x 1.772370 0.000000 0.000000 
#    y 0.000000 1.807940 0.000000 
#    z 0.000000 0.000000 1.721850 
# 
# From -- ./inp_files/21188.got.cif
#   From: 2010.03.12/outbox.cif.g09.slc.cpg/sg49_11_cif.got.tgz:21188.got - 2010.04.14 03:58:27.
