data_PCOD8202914
_publ_section_title
;
Structure prediction by ZEFSAII (Michael W. Deem and Ramdas Pophale) SiO2 
 PCOD8202914
Probable space group: P C C M
;
_chemical_formula_sum "Si O2"
_cell_formula_units_Z 58
_cell_length_a 23.440848
_cell_length_b 14.927226
_cell_length_c 8.996628
_cell_angle_alpha 90.000000
_cell_angle_beta 90.000000
_cell_angle_gamma 90.000000
_cell_volume 3147.981636
_symmetry_space_group_name_H-M "P C C M"
_symmetry_group_IT_number 49
_symmetry_cell_setting 'orthorhombic'
loop_
_space_group_symop_operation_xyz
x,y,z
-x,-y,z
x,-y,1/2-z
-x,y,1/2-z
-x,-y,-z
x,y,-z
-x,y,1/2+z
x,-y,1/2+z
loop_
_atom_site_type_symbol
_atom_site_label
_atom_site_fract_x
_atom_site_fract_y
_atom_site_fract_z
Si Si1 0.000000 0.500000 0.750000
Si Si2 0.671549 0.151082 0.837129
Si Si3 0.176291 0.721545 0.323757
Si Si4 0.442031 0.236376 0.676756
Si Si5 0.389518 0.589853 0.678016
Si Si6 0.947388 0.326764 0.336648
Si Si7 0.775272 0.087489 0.327124
Si Si8 0.281061 0.650505 0.166279
O O1 0.958466 0.434629 0.654740
O O2 0.605212 0.159299 0.789744
O O3 0.708613 0.095323 0.719605
O O4 0.694800 0.250747 0.846386
O O5 0.677461 0.105608 0.000000
O O6 0.182265 0.707299 0.500000
O O7 0.113370 0.696646 0.262816
O O8 0.189654 0.824335 0.278929
O O9 0.219027 0.653095 0.242786
O O10 0.500000 0.200086 0.750000
O O11 0.447577 0.253098 0.500000
O O12 0.426057 0.328526 0.757959
O O13 0.416102 0.500000 0.750000
O O14 0.393134 0.588420 0.500000
O O15 0.323509 0.594003 0.730157
O O16 0.947117 0.285208 0.500000
O O17 0.000000 0.279845 0.250000
O O18 0.778341 0.071920 0.500000
O O19 0.802804 0.000000 0.250000
O O20 0.276863 0.608398 0.000000
#
# Coordination Sequence:
#
# PCOD8202914 Si02
#       8
#     2   8   8   8   8   8   8   8
#     4   8  18  32  54  72 100 132 174 220 256 288
#     4   8  16  31  50  71  99 127 159 197 239 292
#     4   9  18  33  51  74 102 136 170 208 253 307
#     4  10  20  34  52  74  97 126 165 208 249 301
#     4  11  21  34  49  66  93 128 165 210 260 309
#     4   9  18  32  51  73 101 134 174 215 256 299
#     4  10  19  31  52  78 105 132 164 202 250 303
#     4   9  17  31  49  71  95 125 162 203 250 306
#
# _framework density 18.424505
#
# number of rings (size 3 to 8) (size 9 to 14) (size 15 to 20)
#    0.414    2.207    0.000    3.517    0.000    5.241 
#    1.241    1.379    0.000    0.828    0.000    5.793 
#    0.000    0.000    0.000    0.000    0.000    0.000 
#
# Total GULP energy -718741.577188 kJ/mol
# GULP energy per Si atom -12392.096158 kJ/mol
# Density = 1.838257 g / cm^3
# Si number density = 18.424505 Si / 1000 Ang^3
#
#
#
# Elastic Constant Matrix: (Units=GPa)
#
#
# Indices 1 2 3 4 5 6 
#
# 1 128.1956 14.6843 31.1607 0.0000 0.0000 0.0000
# 2 14.6843 46.3988 14.8554 0.0000 0.0000 0.0000
# 3 31.1607 14.8554 92.1899 0.0000 0.0000 0.0000
# 4 0.0000 0.0000 0.0000 24.4287 0.0000 0.0000
# 5 0.0000 0.0000 0.0000 0.0000 29.3056 0.0000
# 6 0.0000 0.0000 0.0000 0.0000 0.0000 17.2351
#
#
#
# Elastic Compliance Matrix: (Units=1/GPa)
#
#
# Indices 1 2 3 4 5 6 
#
# 1 0.008655 -0.001901 -0.002619 0.000000 0.000000 0.000000
# 2 -0.001901 0.023142 -0.003087 0.000000 0.000000 0.000000
# 3 -0.002619 -0.003087 0.012230 0.000000 0.000000 0.000000
# 4 0.000000 0.000000 0.000000 0.040936 0.000000 0.000000
# 5 0.000000 0.000000 0.000000 0.000000 0.034123 0.000000
# 6 0.000000 0.000000 0.000000 0.000000 0.000000 0.058021
#
#
# Mechanical properties :
#
#
# Convention : Reuss Voigt Hill
#
# Bulk Modulus (GPa) = 34.70533 43.13167 38.91850
# Shear Modulus (GPa) = 24.76180 27.93281 26.34731
#
# Velocity S-wave (km/s) = 3.66998 3.89790 3.78566
# Velocity P-wave (km/s) = 6.06925 6.61203 6.34644
#
# Compressibility (1/GPa) = 0.02881402
#
# Stress axis : x y z
#
# Youngs Moduli (GPa) = 115.54115 43.21145 81.76715
#
# Poissons Ratio (x) = 0.08213 0.21416
# Poissons Ratio (y) = 0.21959 0.25239
# Poissons Ratio (z) = 0.30262 0.13338
#
# Static dielectric constant tensor:
#      x y z
#    x 3.522940 0.000000 0.000000 
#    y 0.000000 3.202260 0.000000 
#    z 0.000000 0.000000 3.427650 
# 
# 
# High freq. dielectric constant tensor:
#      x y z
#    x 1.705380 0.000000 0.000000 
#    y 0.000000 1.684160 0.000000 
#    z 0.000000 0.000000 1.720070 
# 
# From -- ./inp_files/6451.got.cif
#   From: 2010.03.12/outbox.cif.g09.slc.cpg/sg49_4_cif.got.tgz:6451.got - 2010.04.14 03:58:27.
