data_PCOD8202734
_publ_section_title
;
Structure prediction by ZEFSAII (Michael W. Deem and Ramdas Pophale) SiO2 
 PCOD8202734
Probable space group: P C C M
;
_chemical_formula_sum "Si O2"
_cell_formula_units_Z 56
_cell_length_a 29.152394
_cell_length_b 13.509034
_cell_length_c 8.914749
_cell_angle_alpha 90.000000
_cell_angle_beta 90.000000
_cell_angle_gamma 90.000000
_cell_volume 3510.812529
_symmetry_space_group_name_H-M "P C C M"
_symmetry_group_IT_number 49
_symmetry_cell_setting 'orthorhombic'
loop_
_space_group_symop_operation_xyz
x,y,z
-x,-y,z
x,-y,1/2-z
-x,y,1/2-z
-x,-y,-z
x,y,-z
-x,y,1/2+z
x,-y,1/2+z
loop_
_atom_site_type_symbol
_atom_site_label
_atom_site_fract_x
_atom_site_fract_y
_atom_site_fract_z
Si Si1 0.312075 0.099704 0.824000
Si Si2 0.042813 0.893914 0.326504
Si Si3 0.771894 0.200468 0.176648
Si Si4 0.640318 0.299849 0.673053
Si Si5 0.546170 0.604948 0.823709
Si Si6 0.277817 0.400080 0.674793
Si Si7 0.855714 0.107058 0.324715
O O1 0.262922 0.123306 0.751638
O O2 0.348339 0.186298 0.786436
O O3 0.331845 0.000000 0.750000
O O4 0.305440 0.084591 0.000000
O O5 0.031564 0.905618 0.500000
O O6 0.093162 0.846472 0.301666
O O7 0.000000 0.833638 0.250000
O O8 0.044807 0.000000 0.250000
O O9 0.757152 0.312218 0.216192
O O10 0.821923 0.184525 0.246132
O O11 0.772365 0.181127 0.000000
O O12 0.651357 0.321846 0.500000
O O13 0.587174 0.318787 0.710761
O O14 0.671301 0.374408 0.768423
O O15 0.558235 0.500000 0.750000
O O16 0.500000 0.649393 0.750000
O O17 0.538587 0.589875 0.000000
O O18 0.259153 0.500000 0.750000
O O19 0.280942 0.418352 0.500000
O O20 0.844146 0.096005 0.500000
O O21 0.850329 0.000000 0.250000
#
# Coordination Sequence:
#
# PCOD8202734 Si02
#       7
#     8   8   8   8   8   8   8
#     4  10  19  32  48  66  89 117 148 184 220 255
#     4   9  16  25  38  56  79 109 145 180 217 257
#     4  10  20  32  45  64  88 116 149 182 216 258
#     4   9  19  33  49  68  91 118 148 180 215 256
#     4  10  19  31  47  69  93 117 143 174 215 261
#     4  10  20  32  48  68  90 116 146 178 216 260
#     4  10  19  29  42  61  86 118 151 184 220 258
#
# _framework density 15.950725
#
# number of rings (size 3 to 8) (size 9 to 14) (size 15 to 20)
#    0.000    2.286    0.000    4.286    0.000    6.286 
#    0.000    0.000    0.000    0.429    0.000    3.000 
#    0.000    0.571    0.000    6.286    0.000    4.571 
#
# Total GULP energy -694297.856709 kJ/mol
# GULP energy per Si atom -12398.176013 kJ/mol
# Density = 1.591442 g / cm^3
# Si number density = 15.950725 Si / 1000 Ang^3
#
#
#
# Elastic Constant Matrix: (Units=GPa)
#
#
# Indices 1 2 3 4 5 6 
#
# 1 128.5424 48.5615 57.3538 0.0000 0.0000 0.0000
# 2 48.5615 80.8427 43.5313 0.0000 0.0000 0.0000
# 3 57.3538 43.5313 100.1162 0.0000 0.0000 0.0000
# 4 0.0000 0.0000 0.0000 24.0441 0.0000 0.0000
# 5 0.0000 0.0000 0.0000 0.0000 27.0867 0.0000
# 6 0.0000 0.0000 0.0000 0.0000 0.0000 16.9803
#
#
#
# Elastic Compliance Matrix: (Units=1/GPa)
#
#
# Indices 1 2 3 4 5 6 
#
# 1 0.011538 -0.004402 -0.004696 0.000000 0.000000 0.000000
# 2 -0.004402 0.017831 -0.005231 0.000000 0.000000 0.000000
# 3 -0.004696 -0.005231 0.014953 0.000000 0.000000 0.000000
# 4 0.000000 0.000000 0.000000 0.041590 0.000000 0.000000
# 5 0.000000 0.000000 0.000000 0.000000 0.036918 0.000000
# 6 0.000000 0.000000 0.000000 0.000000 0.000000 0.058892
#
#
# Mechanical properties :
#
#
# Convention : Reuss Voigt Hill
#
# Bulk Modulus (GPa) = 63.84159 67.59938 65.72049
# Shear Modulus (GPa) = 23.19101 24.29254 23.74177
#
# Velocity S-wave (km/s) = 3.81716 3.90676 3.86222
# Velocity P-wave (km/s) = 7.71614 7.92607 7.82181
#
# Compressibility (1/GPa) = 0.01566377
#
# Stress axis : x y z
#
# Youngs Moduli (GPa) = 86.67246 56.08266 66.87698
#
# Poissons Ratio (x) = 0.24689 0.31402
# Poissons Ratio (y) = 0.38155 0.34984
# Poissons Ratio (z) = 0.40697 0.29337
#
# Static dielectric constant tensor:
#      x y z
#    x 3.430250 0.000000 0.000000 
#    y 0.000000 2.831030 0.000000 
#    z 0.000000 0.000000 3.189550 
# 
# 
# High freq. dielectric constant tensor:
#      x y z
#    x 1.612750 0.000000 0.000000 
#    y 0.000000 1.576350 0.000000 
#    z 0.000000 0.000000 1.634010 
# 
# From -- ./inp_files/7025.got.cif
#   From: 2010.03.12/outbox.cif.g09.slc.cpg/sg49_4_cif.got.tgz:7025.got - 2010.04.14 03:58:27.
