data_PCOD8202271
_publ_section_title
;
Structure prediction by ZEFSAII (Michael W. Deem and Ramdas Pophale) SiO2 
 PCOD8202271
Probable space group: P C C M
;
_chemical_formula_sum "Si O2"
_cell_formula_units_Z 64
_cell_length_a 18.339765
_cell_length_b 20.785885
_cell_length_c 8.727486
_cell_angle_alpha 90.000000
_cell_angle_beta 90.000000
_cell_angle_gamma 90.000000
_cell_volume 3326.989632
_symmetry_space_group_name_H-M "P C C M"
_symmetry_group_IT_number 49
_symmetry_cell_setting 'orthorhombic'
loop_
_space_group_symop_operation_xyz
x,y,z
-x,-y,z
x,-y,1/2-z
-x,y,1/2-z
-x,-y,-z
x,y,-z
-x,y,1/2+z
x,-y,1/2+z
loop_
_atom_site_type_symbol
_atom_site_label
_atom_site_fract_x
_atom_site_fract_y
_atom_site_fract_z
Si Si1 0.346306 0.798364 0.179002
Si Si2 0.422525 0.327096 0.681500
Si Si3 0.183628 0.064136 0.819222
Si Si4 0.149719 0.567584 0.678644
Si Si5 0.182010 0.805318 0.181449
Si Si6 0.319107 0.567725 0.320761
Si Si7 0.343325 0.938410 0.820348
Si Si8 0.077314 0.690657 0.818931
O O1 0.398006 0.742883 0.248131
O O2 0.264134 0.793937 0.245621
O O3 0.381711 0.869230 0.211617
O O4 0.339906 0.785501 0.000000
O O5 0.500000 0.346160 0.750000
O O6 0.428647 0.327573 0.500000
O O7 0.362725 0.377658 0.733568
O O8 0.147707 0.129861 0.755288
O O9 0.267069 0.063791 0.766392
O O10 0.144808 0.000000 0.750000
O O11 0.176737 0.062358 0.000000
O O12 0.125444 0.500000 0.750000
O O13 0.132472 0.566172 0.500000
O O14 0.234439 0.581016 0.711910
O O15 0.101929 0.622067 0.756751
O O16 0.134395 0.744836 0.234421
O O17 0.182189 0.814739 0.000000
O O18 0.343431 0.500000 0.250000
O O19 0.337562 0.568152 0.500000
O O20 0.387838 0.000000 0.750000
O O21 0.330260 0.948535 0.000000
O O22 0.000000 0.710180 0.750000
O O23 0.071685 0.686910 0.000000
#
# Coordination Sequence:
#
# PCOD8202271 Si02
#       8
#     8   8   8   8   8   8   8   8
#     4   8  16  31  52  74 100 135 174 214 261 314
#     4  11  22  37  55  77 107 143 180 220 265 315
#     4  10  17  26  44  72 104 135 168 213 264 314
#     4  10  21  38  61  87 114 141 177 220 265 317
#     4   9  18  34  54  76 102 137 177 218 265 318
#     4  10  21  38  60  86 111 138 172 215 262 314
#     4   9  15  26  44  70 101 132 168 212 263 315
#     4  11  23  38  57  80 111 147 183 222 268 317
#
# _framework density 19.236609999999999
#
# number of rings (size 3 to 8) (size 9 to 14) (size 15 to 20)
#    0.000    2.250    0.000    5.250    0.000    4.000 
#    0.000   10.000    0.000    0.750    0.000    5.250 
#    0.000    0.000    0.000    0.000    0.000    0.000 
#
# Total GULP energy -793375.030556 kJ/mol
# GULP energy per Si atom -12396.484852 kJ/mol
# Density = 1.919283 g / cm^3
# Si number density = 19.236610 Si / 1000 Ang^3
#
#
#
# Elastic Constant Matrix: (Units=GPa)
#
#
# Indices 1 2 3 4 5 6 
#
# 1 30.3142 13.2105 15.8506 0.0000 0.0000 0.0000
# 2 13.2105 116.2252 34.8038 0.0000 0.0000 0.0000
# 3 15.8506 34.8038 80.2859 0.0000 0.0000 0.0000
# 4 0.0000 0.0000 0.0000 34.7028 0.0000 0.0000
# 5 0.0000 0.0000 0.0000 0.0000 16.0497 0.0000
# 6 0.0000 0.0000 0.0000 0.0000 0.0000 2.1834
#
#
#
# Elastic Compliance Matrix: (Units=1/GPa)
#
#
# Indices 1 2 3 4 5 6 
#
# 1 0.037331 -0.002340 -0.006356 0.000000 0.000000 0.000000
# 2 -0.002340 0.010034 -0.003888 0.000000 0.000000 0.000000
# 3 -0.006356 -0.003888 0.015396 0.000000 0.000000 0.000000
# 4 0.000000 0.000000 0.000000 0.028816 0.000000 0.000000
# 5 0.000000 0.000000 0.000000 0.000000 0.062306 0.000000
# 6 0.000000 0.000000 0.000000 0.000000 0.000000 0.458002
#
#
# Mechanical properties :
#
#
# Convention : Reuss Voigt Hill
#
# Bulk Modulus (GPa) = 26.60023 39.39501 32.99762
# Shear Modulus (GPa) = 7.69724 21.45121 14.57422
#
# Velocity S-wave (km/s) = 2.00251 3.34297 2.75549
# Velocity P-wave (km/s) = 4.38231 5.95183 5.22632
#
# Compressibility (1/GPa) = 0.03759367
#
# Stress axis : x y z
#
# Youngs Moduli (GPa) = 26.78749 99.65959 64.95344
#
# Poissons Ratio (x) = 0.23319 0.41283
# Poissons Ratio (y) = 0.06268 0.25253
# Poissons Ratio (z) = 0.17025 0.38746
#
# Static dielectric constant tensor:
#      x y z
#    x 3.905830 0.000000 0.000000 
#    y 0.000000 2.024890 0.000000 
#    z 0.000000 0.000000 3.484940 
# 
# 
# High freq. dielectric constant tensor:
#      x y z
#    x 1.704750 0.000000 0.000000 
#    y 0.000000 1.775600 0.000000 
#    z 0.000000 0.000000 1.747820 
# 
# From -- ./inp_files/5292.got.cif
#   From: 2010.03.12/outbox.cif.g09.slc.cpg/sg49_3_cif.got.tgz:5292.got - 2010.04.14 03:58:27.
