data_PCOD8202227
_publ_section_title
;
Structure prediction by ZEFSAII (Michael W. Deem and Ramdas Pophale) SiO2 
 PCOD8202227
Probable space group: P C C M
;
_chemical_formula_sum "Si O2"
_cell_formula_units_Z 48
_cell_length_a 7.925360
_cell_length_b 18.854550
_cell_length_c 16.355876
_cell_angle_alpha 90.000000
_cell_angle_beta 90.000000
_cell_angle_gamma 90.000000
_cell_volume 2444.043771
_symmetry_space_group_name_H-M "P C C M"
_symmetry_group_IT_number 49
_symmetry_cell_setting 'orthorhombic'
loop_
_space_group_symop_operation_xyz
x,y,z
-x,-y,z
x,-y,1/2-z
-x,y,1/2-z
-x,-y,-z
x,y,-z
-x,y,1/2+z
x,-y,1/2+z
loop_
_atom_site_type_symbol
_atom_site_label
_atom_site_fract_x
_atom_site_fract_y
_atom_site_fract_z
Si Si1 0.612626 0.302300 0.673868
Si Si2 0.496950 0.919654 0.847708
Si Si3 0.811045 0.166994 0.342918
Si Si4 0.181610 0.170598 0.348200
Si Si5 0.286842 0.676593 0.906869
Si Si6 0.805200 0.419675 0.234830
O O1 0.500000 0.270510 0.750000
O O2 0.754747 0.248168 0.643462
O O3 0.489673 0.317874 0.597888
O O4 0.698568 0.374866 0.700697
O O5 0.500000 0.916228 0.750000
O O6 0.667990 0.883569 0.881926
O O7 0.332662 0.878377 0.884702
O O8 0.500000 0.000000 0.879802
O O9 0.824851 0.154295 0.246930
O O10 0.994470 0.151689 0.384091
O O11 0.208550 0.253295 0.365968
O O12 0.229151 0.606753 0.857467
O O13 0.227561 0.668864 0.000000
O O14 0.747715 0.500000 0.250000
O O15 0.000000 0.408811 0.250000
#
# Coordination Sequence:
#
# PCOD8202227 Si02
#       6
#     8   8   8   8   8   8
#     4  10  17  32  55  78 110 148 192 232 286 352
#     4   9  17  29  47  80 117 148 190 249 299 340
#     4  10  16  29  54  81 107 148 199 240 288 348
#     4  10  18  30  53  80 112 150 191 244 294 348
#     4  11  22  36  57  88 121 149 193 251 294 337
#     4  10  21  39  62  87 113 155 199 235 288 359
#
# _framework density 19.639582000000001
#
# number of rings (size 3 to 8) (size 9 to 14) (size 15 to 20)
#    0.000    2.000    5.000    1.500    0.000    3.667 
#    0.000   10.000    0.000    0.500    0.000    1.167 
#    0.000    0.000    0.000    0.000    0.000    0.000 
#
# Total GULP energy -594890.448507 kJ/mol
# GULP energy per Si atom -12393.551011 kJ/mol
# Density = 1.959488 g / cm^3
# Si number density = 19.639582 Si / 1000 Ang^3
#
#
#
# Elastic Constant Matrix: (Units=GPa)
#
#
# Indices 1 2 3 4 5 6 
#
# 1 175.0651 78.8621 15.6665 0.0000 0.0000 0.0000
# 2 78.8621 138.5516 25.4954 0.0000 0.0000 0.0000
# 3 15.6665 25.4954 36.4560 0.0000 0.0000 0.0000
# 4 0.0000 0.0000 0.0000 4.3278 0.0000 0.0000
# 5 0.0000 0.0000 0.0000 0.0000 6.0475 0.0000
# 6 0.0000 0.0000 0.0000 0.0000 0.0000 27.0984
#
#
#
# Elastic Compliance Matrix: (Units=1/GPa)
#
#
# Indices 1 2 3 4 5 6 
#
# 1 0.007684 -0.004322 -0.000279 0.000000 0.000000 0.000000
# 2 -0.004322 0.010715 -0.005636 0.000000 0.000000 0.000000
# 3 -0.000279 -0.005636 0.031492 0.000000 0.000000 0.000000
# 4 0.000000 0.000000 0.000000 0.231062 0.000000 0.000000
# 5 0.000000 0.000000 0.000000 0.000000 0.165359 0.000000
# 6 0.000000 0.000000 0.000000 0.000000 0.000000 0.036903
#
#
# Mechanical properties :
#
#
# Convention : Reuss Voigt Hill
#
# Bulk Modulus (GPa) = 33.99555 65.56896 49.78225
# Shear Modulus (GPa) = 9.73720 22.83133 16.28426
#
# Velocity S-wave (km/s) = 2.22906 3.41327 2.88263
# Velocity P-wave (km/s) = 4.89615 6.99946 6.04006
#
# Compressibility (1/GPa) = 0.02941561
#
# Stress axis : x y z
#
# Youngs Moduli (GPa) = 130.13569 93.32813 31.75429
#
# Poissons Ratio (x) = 0.40340 0.00887
# Poissons Ratio (y) = 0.56250 0.17896
# Poissons Ratio (z) = 0.03635 0.52599
#
# Static dielectric constant tensor:
#      x y z
#    x 3.366880 0.000000 0.000000 
#    y 0.000000 3.562330 0.000000 
#    z 0.000000 0.000000 2.992100 
# 
# 
# High freq. dielectric constant tensor:
#      x y z
#    x 1.788390 0.000000 0.000000 
#    y 0.000000 1.757830 0.000000 
#    z 0.000000 0.000000 1.703490 
# 
# From -- ./inp_files/11781.got.cif
#   From: 2010.03.12/outbox.cif.g09.slc.cpg/sg49_6_cif.got.tgz:11781.got - 2010.04.14 03:58:27.
