data_PCOD8202326
_publ_section_title
;
Structure prediction by ZEFSAII (Michael W. Deem and Ramdas Pophale) SiO2 
 PCOD8202326
Probable space group: P C C M
;
_chemical_formula_sum "Si O2"
_cell_formula_units_Z 58
_cell_length_a 14.640918
_cell_length_b 24.982647
_cell_length_c 8.693284
_cell_angle_alpha 90.000000
_cell_angle_beta 90.000000
_cell_angle_gamma 90.000000
_cell_volume 3179.732806
_symmetry_space_group_name_H-M "P C C M"
_symmetry_group_IT_number 49
_symmetry_cell_setting 'orthorhombic'
loop_
_space_group_symop_operation_xyz
x,y,z
-x,-y,z
x,-y,1/2-z
-x,y,1/2-z
-x,-y,-z
x,y,-z
-x,y,1/2+z
x,-y,1/2+z
loop_
_atom_site_type_symbol
_atom_site_label
_atom_site_fract_x
_atom_site_fract_y
_atom_site_fract_z
Si Si1 0.898595 0.946755 0.183201
Si Si2 0.594722 0.301173 0.319293
Si Si3 0.227572 0.260054 0.318633
Si Si4 0.100586 0.162177 0.682823
Si Si5 0.161486 0.555909 0.181898
Si Si6 0.907545 0.340723 0.318716
Si Si7 0.500000 0.500000 0.750000
Si Si8 0.637169 0.588407 0.330426
O O1 0.854425 0.891958 0.246650
O O2 0.000000 0.946757 0.250000
O O3 0.847893 0.000000 0.250000
O O4 0.898409 0.947865 0.000000
O O5 0.500000 0.280383 0.250000
O O6 0.593332 0.294621 0.500000
O O7 0.671473 0.261421 0.251870
O O8 0.607081 0.364155 0.282317
O O9 0.234548 0.262465 0.500000
O O10 0.170173 0.208448 0.264955
O O11 0.179283 0.313034 0.257166
O O12 0.092159 0.157173 0.500000
O O13 0.000000 0.174224 0.750000
O O14 0.129188 0.500000 0.250000
O O15 0.097094 0.597829 0.268924
O O16 0.266892 0.565196 0.227867
O O17 0.145205 0.558911 0.000000
O O18 0.906010 0.332873 0.500000
O O19 0.000000 0.314858 0.250000
O O20 0.434990 0.460293 0.653806
O O21 0.647758 0.613991 0.500000
#
# Coordination Sequence:
#
# PCOD8202326 Si02
#       8
#     8   8   8   8   8   8   2   8
#     4  10  17  27  45  70 107 151 196 239 280 327
#     4  12  25  40  61  83 109 141 178 219 271 331
#     4  11  23  40  60  83 113 146 184 230 278 328
#     4  10  20  33  52  79 113 152 194 238 280 327
#     4  11  23  40  59  80 107 135 169 213 262 320
#     4  12  25  41  61  83 107 139 179 221 272 326
#     4  12  22  36  60  86 112 136 170 208 268 332
#     4  11  23  37  56  81 110 135 166 206 258 322
#
# _framework density 18.240527
#
# number of rings (size 3 to 8) (size 9 to 14) (size 15 to 20)
#    0.000    0.966    2.759    6.828    0.000    4.690 
#    0.000    1.379    0.000    0.000    0.000    0.000 
#    0.000    0.552    0.000    5.793    0.000    2.483 
#
# Total GULP energy -719208.187563 kJ/mol
# GULP energy per Si atom -12400.141165 kJ/mol
# Density = 1.819901 g / cm^3
# Si number density = 18.240527 Si / 1000 Ang^3
#
#
#
# Elastic Constant Matrix: (Units=GPa)
#
#
# Indices 1 2 3 4 5 6 
#
# 1 87.8929 37.0291 34.0988 0.0000 0.0000 0.0000
# 2 37.0291 115.8743 39.4650 0.0000 0.0000 0.0000
# 3 34.0988 39.4650 110.8291 0.0000 0.0000 0.0000
# 4 0.0000 0.0000 0.0000 25.6746 0.0000 0.0000
# 5 0.0000 0.0000 0.0000 0.0000 25.0414 0.0000
# 6 0.0000 0.0000 0.0000 0.0000 0.0000 18.8383
#
#
#
# Elastic Compliance Matrix: (Units=1/GPa)
#
#
# Indices 1 2 3 4 5 6 
#
# 1 0.014022 -0.003427 -0.003094 0.000000 0.000000 0.000000
# 2 -0.003427 0.010659 -0.002741 0.000000 0.000000 0.000000
# 3 -0.003094 -0.002741 0.010951 0.000000 0.000000 0.000000
# 4 0.000000 0.000000 0.000000 0.038949 0.000000 0.000000
# 5 0.000000 0.000000 0.000000 0.000000 0.039934 0.000000
# 6 0.000000 0.000000 0.000000 0.000000 0.000000 0.053083
#
#
# Mechanical properties :
#
#
# Convention : Reuss Voigt Hill
#
# Bulk Modulus (GPa) = 58.45402 59.53135 58.99268
# Shear Modulus (GPa) = 26.06562 27.51107 26.78835
#
# Velocity S-wave (km/s) = 3.78431 3.88782 3.83641
# Velocity P-wave (km/s) = 7.15615 7.27057 7.21359
#
# Compressibility (1/GPa) = 0.01710746
#
# Stress axis : x y z
#
# Youngs Moduli (GPa) = 71.31884 93.81940 91.31765
#
# Poissons Ratio (x) = 0.32153 0.28251
# Poissons Ratio (y) = 0.24442 0.25031
# Poissons Ratio (z) = 0.22064 0.25716
#
# Static dielectric constant tensor:
#      x y z
#    x 3.347350 0.000000 0.000000 
#    y 0.000000 3.821490 0.000000 
#    z 0.000000 0.000000 3.380190 
# 
# 
# High freq. dielectric constant tensor:
#      x y z
#    x 1.686480 0.000000 0.000000 
#    y 0.000000 1.695310 0.000000 
#    z 0.000000 0.000000 1.722850 
# 
# From -- ./inp_files/4251.got.cif
#   From: 2010.03.12/outbox.cif.g09.slc.cpg/sg49_3_cif.got.tgz:4251.got - 2010.04.14 03:58:27.
