data_PCOD8202987
_publ_section_title
;
Structure prediction by ZEFSAII (Michael W. Deem and Ramdas Pophale) SiO2 
 PCOD8202987
Probable space group: P C C M
;
_chemical_formula_sum "Si O2"
_cell_formula_units_Z 64
_cell_length_a 19.801221
_cell_length_b 19.879125
_cell_length_c 8.841559
_cell_angle_alpha 90.000000
_cell_angle_beta 90.000000
_cell_angle_gamma 90.000000
_cell_volume 3480.311246
_symmetry_space_group_name_H-M "P C C M"
_symmetry_group_IT_number 49
_symmetry_cell_setting 'orthorhombic'
loop_
_space_group_symop_operation_xyz
x,y,z
-x,-y,z
x,-y,1/2-z
-x,y,1/2-z
-x,-y,-z
x,y,-z
-x,y,1/2+z
x,-y,1/2+z
loop_
_atom_site_type_symbol
_atom_site_label
_atom_site_fract_x
_atom_site_fract_y
_atom_site_fract_z
Si Si1 0.250112 0.385066 0.672316
Si Si2 0.066974 0.293148 0.178597
Si Si3 0.429234 0.928809 0.179546
Si Si4 0.431532 0.710038 0.674533
Si Si5 0.102622 0.431790 0.672410
Si Si6 0.380483 0.564681 0.675299
Si Si7 0.331474 0.190450 0.677676
Si Si8 0.211641 0.750727 0.677167
O O1 0.263989 0.361545 0.500000
O O2 0.183483 0.430353 0.680592
O O3 0.310546 0.429538 0.734895
O O4 0.243584 0.320376 0.778636
O O5 0.071776 0.368722 0.239816
O O6 0.132622 0.248883 0.226389
O O7 0.000000 0.258851 0.250000
O O8 0.060477 0.295931 0.000000
O O9 0.500000 0.903585 0.250000
O O10 0.370365 0.877171 0.226150
O O11 0.408314 0.000000 0.250000
O O12 0.437604 0.935297 0.000000
O O13 0.500000 0.736762 0.750000
O O14 0.432285 0.730613 0.500000
O O15 0.426599 0.630115 0.698544
O O16 0.368166 0.744685 0.753431
O O17 0.076244 0.500000 0.750000
O O18 0.077033 0.429291 0.500000
O O19 0.417976 0.500000 0.750000
O O20 0.365476 0.551821 0.500000
O O21 0.330089 0.198144 0.500000
O O22 0.254295 0.190068 0.740119
O O23 0.219510 0.761412 0.500000
#
# Coordination Sequence:
#
# PCOD8202987 Si02
#       8
#     8   8   8   8   8   8   8   8
#     4  10  19  32  51  72  96 126 162 211 267 322
#     4  10  21  36  53  73 100 133 169 213 265 324
#     4  10  21  36  56  85 119 158 194 226 264 312
#     4  11  24  39  55  75 100 133 174 221 273 325
#     4  10  20  32  47  69  94 124 163 208 260 322
#     4  11  23  36  51  70  93 125 167 217 275 331
#     4  11  22  36  58  85 112 144 184 224 265 312
#     4  10  20  34  54  79 106 136 173 217 265 314
#
# _framework density 18.389161000000001
#
# number of rings (size 3 to 8) (size 9 to 14) (size 15 to 20)
#    0.000    1.625    1.250    4.125    0.000    9.000 
#    0.000    2.500    0.000    0.000    0.000    0.000 
#    0.000    0.500    0.000    5.500    0.000    4.000 
#
# Total GULP energy -793687.949491 kJ/mol
# GULP energy per Si atom -12401.374211 kJ/mol
# Density = 1.834731 g / cm^3
# Si number density = 18.389161 Si / 1000 Ang^3
#
#
#
# Elastic Constant Matrix: (Units=GPa)
#
#
# Indices 1 2 3 4 5 6 
#
# 1 119.6383 44.5697 56.1509 0.0000 0.0000 0.0000
# 2 44.5697 73.8738 40.4625 0.0000 0.0000 0.0000
# 3 56.1509 40.4625 96.8380 0.0000 0.0000 0.0000
# 4 0.0000 0.0000 0.0000 23.8427 0.0000 0.0000
# 5 0.0000 0.0000 0.0000 0.0000 27.9155 0.0000
# 6 0.0000 0.0000 0.0000 0.0000 0.0000 21.3189
#
#
#
# Elastic Compliance Matrix: (Units=1/GPa)
#
#
# Indices 1 2 3 4 5 6 
#
# 1 0.012617 -0.004675 -0.005362 0.000000 0.000000 0.000000
# 2 -0.004675 0.019286 -0.005348 0.000000 0.000000 0.000000
# 3 -0.005362 -0.005348 0.015670 0.000000 0.000000 0.000000
# 4 0.000000 0.000000 0.000000 0.041942 0.000000 0.000000
# 5 0.000000 0.000000 0.000000 0.000000 0.035822 0.000000
# 6 0.000000 0.000000 0.000000 0.000000 0.000000 0.046907
#
#
# Mechanical properties :
#
#
# Convention : Reuss Voigt Hill
#
# Bulk Modulus (GPa) = 59.51248 63.63515 61.57382
# Shear Modulus (GPa) = 23.96752 24.55989 24.26371
#
# Velocity S-wave (km/s) = 3.61411 3.65850 3.63637
# Velocity P-wave (km/s) = 7.06037 7.24748 7.15454
#
# Compressibility (1/GPa) = 0.01680320
#
# Stress axis : x y z
#
# Youngs Moduli (GPa) = 79.25853 51.85061 63.81452
#
# Poissons Ratio (x) = 0.24240 0.34221
# Poissons Ratio (y) = 0.37053 0.34126
# Poissons Ratio (z) = 0.42502 0.27728
#
# Static dielectric constant tensor:
#      x y z
#    x 3.513490 0.000000 0.000000 
#    y 0.000000 3.107580 0.000000 
#    z 0.000000 0.000000 3.522900 
# 
# 
# High freq. dielectric constant tensor:
#      x y z
#    x 1.714980 0.000000 0.000000 
#    y 0.000000 1.669220 0.000000 
#    z 0.000000 0.000000 1.732080 
# 
# From -- ./inp_files/6101.got.cif
#   From: 2010.03.12/outbox.cif.g09.slc.cpg/sg49_4_cif.got.tgz:6101.got - 2010.04.14 03:58:27.
