data_PCOD8202428
_publ_section_title
;
Structure prediction by ZEFSAII (Michael W. Deem and Ramdas Pophale) SiO2 
 PCOD8202428
Probable space group: P C C M
;
_chemical_formula_sum "Si O2"
_cell_formula_units_Z 64
_cell_length_a 8.825454
_cell_length_b 14.421653
_cell_length_c 25.751656
_cell_angle_alpha 90.000000
_cell_angle_beta 90.000000
_cell_angle_gamma 90.000000
_cell_volume 3277.609877
_symmetry_space_group_name_H-M "P C C M"
_symmetry_group_IT_number 49
_symmetry_cell_setting 'orthorhombic'
loop_
_space_group_symop_operation_xyz
x,y,z
-x,-y,z
x,-y,1/2-z
-x,y,1/2-z
-x,-y,-z
x,y,-z
-x,y,1/2+z
x,-y,1/2+z
loop_
_atom_site_type_symbol
_atom_site_label
_atom_site_fract_x
_atom_site_fract_y
_atom_site_fract_z
Si Si1 0.356233 0.382202 0.686078
Si Si2 0.697230 0.808644 0.644292
Si Si3 0.308613 0.658958 0.701725
Si Si4 0.407332 0.859947 0.698295
Si Si5 0.832915 0.297822 0.058482
Si Si6 0.332163 0.522591 0.915136
Si Si7 0.834483 0.010982 0.189306
Si Si8 0.087689 0.406191 0.883575
O O1 0.264759 0.290140 0.670335
O O2 0.534286 0.367255 0.673875
O O3 0.309763 0.402239 0.745324
O O4 0.312429 0.466365 0.648090
O O5 0.520141 0.835197 0.650667
O O6 0.752408 0.792664 0.584729
O O7 0.790803 0.886235 0.673632
O O8 0.314279 0.768681 0.715746
O O9 0.161075 0.640053 0.667488
O O10 0.500000 0.895178 0.750000
O O11 0.294594 0.936415 0.673469
O O12 0.715311 0.383513 0.056148
O O13 0.983413 0.329299 0.089340
O O14 0.876469 0.269374 0.000000
O O15 0.500000 0.500000 0.934374
O O16 0.218030 0.436698 0.925632
O O17 0.851622 0.000000 0.250000
O O18 0.000000 0.000000 0.162850
O O19 0.000000 0.500000 0.867414
#
# Coordination Sequence:
#
# PCOD8202428 Si02
#       8
#     8   8   8   8   8   8   8   8
#     4   9  17  32  53  81 117 160 195 236 290 354
#     4  10  20  38  59  85 116 158 198 241 295 358
#     4  10  17  32  54  83 119 166 200 228 287 365
#     4  11  19  35  61  88 124 164 196 234 289 355
#     4  10  24  44  62  80 112 158 206 264 330 360
#     4  10  19  35  59  87 117 146 204 259 300 362
#     4  11  22  33  55  95 132 158 191 230 284 358
#     4  10  22  37  57  83 117 158 200 257 309 365
#
# _framework density 19.526423000000001
#
# number of rings (size 3 to 8) (size 9 to 14) (size 15 to 20)
#    0.000    1.875    5.000    0.375    1.750    3.000 
#    0.000    8.125    0.000    1.875    0.000    0.000 
#    0.000    0.000    0.000    0.000    0.000    0.000 
#
# Total GULP energy -793004.145846 kJ/mol
# GULP energy per Si atom -12390.689779 kJ/mol
# Density = 1.948198 g / cm^3
# Si number density = 19.526423 Si / 1000 Ang^3
#
#
#
# Elastic Constant Matrix: (Units=GPa)
#
#
# Indices 1 2 3 4 5 6 
#
# 1 125.4123 38.0242 40.0494 0.0000 0.0000 0.0000
# 2 38.0242 75.9459 22.5181 0.0000 0.0000 0.0000
# 3 40.0494 22.5181 96.4142 0.0000 0.0000 0.0000
# 4 0.0000 0.0000 0.0000 12.2665 0.0000 0.0000
# 5 0.0000 0.0000 0.0000 0.0000 11.8898 0.0000
# 6 0.0000 0.0000 0.0000 0.0000 0.0000 34.1832
#
#
#
# Elastic Compliance Matrix: (Units=1/GPa)
#
#
# Indices 1 2 3 4 5 6 
#
# 1 0.010294 -0.004175 -0.003301 0.000000 0.000000 0.000000
# 2 -0.004175 0.015840 -0.001965 0.000000 0.000000 0.000000
# 3 -0.003301 -0.001965 0.012202 0.000000 0.000000 0.000000
# 4 0.000000 0.000000 0.000000 0.081523 0.000000 0.000000
# 5 0.000000 0.000000 0.000000 0.000000 0.084105 0.000000
# 6 0.000000 0.000000 0.000000 0.000000 0.000000 0.029254
#
#
# Mechanical properties :
#
#
# Convention : Reuss Voigt Hill
#
# Bulk Modulus (GPa) = 51.40409 55.43952 53.42181
# Shear Modulus (GPa) = 19.33599 24.81329 22.07464
#
# Velocity S-wave (km/s) = 3.15023 3.56863 3.36594
# Velocity P-wave (km/s) = 6.29401 6.74046 6.52106
#
# Compressibility (1/GPa) = 0.01945370
#
# Stress axis : x y z
#
# Youngs Moduli (GPa) = 97.14757 63.12991 81.95366
#
# Poissons Ratio (x) = 0.26357 0.27051
# Poissons Ratio (y) = 0.40560 0.16107
# Poissons Ratio (z) = 0.32066 0.12407
#
# Static dielectric constant tensor:
#      x y z
#    x 3.930680 0.000000 0.000000 
#    y 0.000000 3.585830 0.000000 
#    z 0.000000 0.000000 3.227360 
# 
# 
# High freq. dielectric constant tensor:
#      x y z
#    x 1.769210 0.000000 0.000000 
#    y 0.000000 1.753110 0.000000 
#    z 0.000000 0.000000 1.714110 
# 
# From -- ./inp_files/22563.got.cif
#   From: 2010.03.12/outbox.cif.g09.slc.cpg/sg49_12_cif.got.tgz:22563.got - 2010.04.14 03:58:27.
