data_PCOD8202585
_publ_section_title
;
Structure prediction by ZEFSAII (Michael W. Deem and Ramdas Pophale) SiO2 
 PCOD8202585
Probable space group: P C C M
;
_chemical_formula_sum "Si O2"
_cell_formula_units_Z 56
_cell_length_a 21.759224
_cell_length_b 18.476244
_cell_length_c 8.631490
_cell_angle_alpha 90.000000
_cell_angle_beta 90.000000
_cell_angle_gamma 90.000000
_cell_volume 3470.106979
_symmetry_space_group_name_H-M "P C C M"
_symmetry_group_IT_number 49
_symmetry_cell_setting 'orthorhombic'
loop_
_space_group_symop_operation_xyz
x,y,z
-x,-y,z
x,-y,1/2-z
-x,y,1/2-z
-x,-y,-z
x,y,-z
-x,y,1/2+z
x,-y,1/2+z
loop_
_atom_site_type_symbol
_atom_site_label
_atom_site_fract_x
_atom_site_fract_y
_atom_site_fract_z
Si Si1 0.293684 0.423267 0.318489
Si Si2 0.364810 0.302015 0.170470
Si Si3 0.434778 0.166774 0.816414
Si Si4 0.681723 0.078797 0.314754
Si Si5 0.065848 0.422545 0.683702
Si Si6 0.243964 0.792774 0.331139
Si Si7 0.178517 0.657231 0.314233
O O1 0.313597 0.500000 0.250000
O O2 0.281773 0.428488 0.500000
O O3 0.350126 0.368284 0.285273
O O4 0.230777 0.399031 0.236481
O O5 0.417946 0.248960 0.238371
O O6 0.305825 0.252304 0.149202
O O7 0.382940 0.332684 0.000000
O O8 0.500000 0.142692 0.750000
O O9 0.384201 0.108827 0.756522
O O10 0.437060 0.165434 0.000000
O O11 0.683935 0.078853 0.500000
O O12 0.736704 0.131575 0.248406
O O13 0.694114 0.000000 0.250000
O O14 0.086548 0.500000 0.750000
O O15 0.062577 0.427323 0.500000
O O16 0.114087 0.362612 0.737690
O O17 0.000000 0.399440 0.750000
O O18 0.217057 0.811886 0.500000
O O19 0.194944 0.738607 0.249458
O O20 0.174379 0.656050 0.500000
#
# Coordination Sequence:
#
# PCOD8202585 Si02
#       7
#     8   8   8   8   8   8   8
#     4  11  20  29  43  65  88 111 140 179 222 267
#     4   8  15  30  46  60  80 109 140 177 220 263
#     4   9  18  31  47  64  86 114 147 179 214 259
#     4   9  17  30  45  65  91 120 146 175 214 259
#     4  11  21  33  46  64  91 125 161 194 226 263
#     4   7  13  27  46  62  82 112 145 176 216 262
#     4  10  18  31  48  65  87 118 152 188 223 260
#
# _framework density 16.137830999999998
#
# number of rings (size 3 to 8) (size 9 to 14) (size 15 to 20)
#    0.000    2.714    0.000    6.429    0.000    1.429 
#    0.000    7.857    0.000    0.429    0.000    3.000 
#    0.000    0.571    0.000    6.571    0.000    2.000 
#
# Total GULP energy -693805.021868 kJ/mol
# GULP energy per Si atom -12389.375390 kJ/mol
# Density = 1.610110 g / cm^3
# Si number density = 16.137831 Si / 1000 Ang^3
#
#
#
# Elastic Constant Matrix: (Units=GPa)
#
#
# Indices 1 2 3 4 5 6 
#
# 1 70.3331 56.0763 22.4573 0.0000 0.0000 0.0000
# 2 56.0763 127.9205 34.0543 0.0000 0.0000 0.0000
# 3 22.4573 34.0543 71.3329 0.0000 0.0000 0.0000
# 4 0.0000 0.0000 0.0000 21.7370 0.0000 0.0000
# 5 0.0000 0.0000 0.0000 0.0000 4.4504 0.0000
# 6 0.0000 0.0000 0.0000 0.0000 0.0000 22.4288
#
#
#
# Elastic Compliance Matrix: (Units=1/GPa)
#
#
# Indices 1 2 3 4 5 6 
#
# 1 0.022301 -0.009058 -0.002697 0.000000 0.000000 0.000000
# 2 -0.009058 0.012635 -0.003180 0.000000 0.000000 0.000000
# 3 -0.002697 -0.003180 0.016386 0.000000 0.000000 0.000000
# 4 0.000000 0.000000 0.000000 0.046004 0.000000 0.000000
# 5 0.000000 0.000000 0.000000 0.000000 0.224700 0.000000
# 6 0.000000 0.000000 0.000000 0.000000 0.000000 0.044586
#
#
# Mechanical properties :
#
#
# Convention : Reuss Voigt Hill
#
# Bulk Modulus (GPa) = 46.61553 54.97358 50.79455
# Shear Modulus (GPa) = 12.38751 20.18982 16.28867
#
# Velocity S-wave (km/s) = 2.77358 3.54091 3.18047
# Velocity P-wave (km/s) = 6.26143 7.13136 6.71051
#
# Compressibility (1/GPa) = 0.02145208
#
# Stress axis : x y z
#
# Youngs Moduli (GPa) = 44.84065 79.14652 61.02821
#
# Poissons Ratio (x) = 0.71693 0.16456
# Poissons Ratio (y) = 0.40618 0.19407
# Poissons Ratio (z) = 0.12091 0.25169
#
# Static dielectric constant tensor:
#      x y z
#    x 3.132230 0.000000 0.000000 
#    y 0.000000 3.352320 0.000000 
#    z 0.000000 0.000000 2.935310 
# 
# 
# High freq. dielectric constant tensor:
#      x y z
#    x 1.590170 0.000000 0.000000 
#    y 0.000000 1.613300 0.000000 
#    z 0.000000 0.000000 1.612220 
# 
# From -- ./inp_files/5898.got.cif
#   From: 2010.03.12/outbox.cif.g09.slc.cpg/sg49_3_cif.got.tgz:5898.got - 2010.04.14 03:58:27.
