data_PCOD8202708
_publ_section_title
;
Structure prediction by ZEFSAII (Michael W. Deem and Ramdas Pophale) SiO2 
 PCOD8202708
Probable space group: P C C M
;
_chemical_formula_sum "Si O2"
_cell_formula_units_Z 64
_cell_length_a 15.905384
_cell_length_b 11.238006
_cell_length_c 19.304577
_cell_angle_alpha 90.000000
_cell_angle_beta 90.000000
_cell_angle_gamma 90.000000
_cell_volume 3450.592771
_symmetry_space_group_name_H-M "P C C M"
_symmetry_group_IT_number 49
_symmetry_cell_setting 'orthorhombic'
loop_
_space_group_symop_operation_xyz
x,y,z
-x,-y,z
x,-y,1/2-z
-x,y,1/2-z
-x,-y,-z
x,y,-z
-x,y,1/2+z
x,-y,1/2+z
loop_
_atom_site_type_symbol
_atom_site_label
_atom_site_fract_x
_atom_site_fract_y
_atom_site_fract_z
Si Si1 0.205600 0.407499 0.187536
Si Si2 0.113031 0.237404 0.580252
Si Si3 0.475411 0.863373 0.675983
Si Si4 0.245745 0.930503 0.855222
Si Si5 0.615871 0.788888 0.420597
Si Si6 0.713528 0.160771 0.704824
Si Si7 0.979454 0.364862 0.670575
Si Si8 0.738447 0.581988 0.577984
O O1 0.187052 0.500000 0.250000
O O2 0.258692 0.295983 0.211750
O O3 0.119633 0.352210 0.158102
O O4 0.259581 0.469064 0.127639
O O5 0.094148 0.202732 0.500000
O O6 0.157618 0.127112 0.620082
O O7 0.172830 0.351150 0.583771
O O8 0.027583 0.272545 0.620238
O O9 0.500000 0.810252 0.750000
O O10 0.527632 0.791716 0.618866
O O11 0.376590 0.845404 0.667682
O O12 0.500000 0.000000 0.669465
O O13 0.320478 0.900348 0.909184
O O14 0.284736 0.882713 0.783491
O O15 0.230088 0.072431 0.843973
O O16 0.591262 0.786728 0.500000
O O17 0.664119 0.668984 0.397964
O O18 0.000000 0.500000 0.651166
O O19 0.000000 0.333359 0.750000
O O20 0.723439 0.537097 0.500000
#
# Coordination Sequence:
#
# PCOD8202708 Si02
#       8
#     8   8   8   8   8   8   8   8
#     4  12  22  36  58  86 117 152 195 243 292 357
#     4  10  20  35  61  89 118 156 204 250 295 358
#     4  11  19  36  57  86 114 144 193 252 292 337
#     4  10  18  38  56  86 117 150 193 244 298 358
#     4  10  19  34  59  83 112 152 195 244 296 354
#     4  11  22  35  61  87 116 155 195 245 305 349
#     4  11  19  34  55  89 116 153 196 254 294 337
#     4   9  19  35  54  80 113 152 188 233 296 354
#
# _framework density 18.547536999999998
#
# number of rings (size 3 to 8) (size 9 to 14) (size 15 to 20)
#    0.000    1.500    5.000    4.125    0.000    1.000 
#    0.000    3.125    0.000    4.500    0.000    0.000 
#    0.000    0.000    0.000    0.000    0.000    0.000 
#
# Total GULP energy -793352.491124 kJ/mol
# GULP energy per Si atom -12396.132674 kJ/mol
# Density = 1.850532 g / cm^3
# Si number density = 18.547537 Si / 1000 Ang^3
#
#
#
# Elastic Constant Matrix: (Units=GPa)
#
#
# Indices 1 2 3 4 5 6 
#
# 1 108.5885 45.5489 51.8412 0.0000 0.0000 0.0000
# 2 45.5489 80.4891 38.7915 0.0000 0.0000 0.0000
# 3 51.8412 38.7915 94.2298 0.0000 0.0000 0.0000
# 4 0.0000 0.0000 0.0000 29.2368 0.0000 0.0000
# 5 0.0000 0.0000 0.0000 0.0000 20.6472 0.0000
# 6 0.0000 0.0000 0.0000 0.0000 0.0000 20.3727
#
#
#
# Elastic Compliance Matrix: (Units=1/GPa)
#
#
# Indices 1 2 3 4 5 6 
#
# 1 0.014087 -0.005286 -0.005574 0.000000 0.000000 0.000000
# 2 -0.005286 0.017482 -0.004289 0.000000 0.000000 0.000000
# 3 -0.005574 -0.004289 0.015445 0.000000 0.000000 0.000000
# 4 0.000000 0.000000 0.000000 0.034203 0.000000 0.000000
# 5 0.000000 0.000000 0.000000 0.000000 0.048433 0.000000
# 6 0.000000 0.000000 0.000000 0.000000 0.000000 0.049085
#
#
# Mechanical properties :
#
#
# Convention : Reuss Voigt Hill
#
# Bulk Modulus (GPa) = 59.82097 61.74118 60.78107
# Shear Modulus (GPa) = 23.29850 23.85973 23.57912
#
# Velocity S-wave (km/s) = 3.54807 3.59055 3.56937
# Velocity P-wave (km/s) = 7.00770 7.10983 7.05895
#
# Compressibility (1/GPa) = 0.01671655
#
# Stress axis : x y z
#
# Youngs Moduli (GPa) = 70.98517 57.20101 64.74664
#
# Poissons Ratio (x) = 0.30234 0.36093
# Poissons Ratio (y) = 0.37519 0.27770
# Poissons Ratio (z) = 0.39570 0.24534
#
# Static dielectric constant tensor:
#      x y z
#    x 2.861640 0.000000 0.000000 
#    y 0.000000 3.359940 0.000000 
#    z 0.000000 0.000000 3.524130 
# 
# 
# High freq. dielectric constant tensor:
#      x y z
#    x 1.710410 0.000000 0.000000 
#    y 0.000000 1.697170 0.000000 
#    z 0.000000 0.000000 1.720620 
# 
# From -- ./inp_files/17967.got.cif
#   From: 2010.03.12/outbox.cif.g09.slc.cpg/sg49_9_cif.got.tgz:17967.got - 2010.04.14 03:58:27.
