data_PCOD8202093
_publ_section_title
;
Structure prediction by ZEFSAII (Michael W. Deem and Ramdas Pophale) SiO2 
 PCOD8202093
Probable space group: P N N N
;
_chemical_formula_sum "Si O2"
_cell_formula_units_Z 48
_cell_length_a 17.033143
_cell_length_b 13.818737
_cell_length_c 9.210003
_cell_angle_alpha 90.000000
_cell_angle_beta 90.000000
_cell_angle_gamma 90.000000
_cell_volume 2167.818487
_symmetry_space_group_name_H-M "P N N N"
_symmetry_group_IT_number 48
_space_group.IT_coordinate_system_code '2'
_symmetry_cell_setting 'orthorhombic'
loop_
_space_group_symop_operation_xyz
x,y,z
1/2-x,1/2-y,z
x,1/2-y,1/2-z
1/2-x,y,1/2-z
-x,-y,-z
1/2+x,1/2+y,-z
-x,1/2+y,1/2+z
1/2+x,-y,1/2+z
loop_
_atom_site_type_symbol
_atom_site_label
_atom_site_fract_x
_atom_site_fract_y
_atom_site_fract_z
Si Si1 0.083634 0.948771 0.664027
Si Si2 0.089280 0.242530 0.014622
Si Si3 0.297579 0.401533 0.620161
Si Si4 0.578190 0.052717 0.824190
Si Si5 0.990861 0.250000 0.750000
Si Si6 0.810301 0.573005 0.635349
Si Si7 0.462692 0.750000 0.750000
O O1 0.101740 0.953379 0.491774
O O2 0.092617 0.846012 0.750169
O O3 0.151637 0.021866 0.715110
O O4 0.999052 0.990161 0.706551
O O5 0.149312 0.328903 0.976338
O O6 0.048878 0.204390 0.869290
O O7 0.128538 0.156723 0.101361
O O8 0.016804 0.278262 0.112654
O O9 0.250000 0.346234 0.750000
O O10 0.237027 0.455261 0.510389
O O11 0.565440 0.165702 0.801569
O O12 0.645719 0.017356 0.712474
O O13 0.750000 0.618351 0.750000
#
# Coordination Sequence:
#
# PCOD8202093 Si02
#       7
#     8   8   8   8   4   8   4
#     4  11  22  47  71 100 143 184 239 295 349 430
#     4  12  24  41  67 110 142 179 236 299 364 436
#     4  12  26  46  68 102 152 190 230 306 378 435
#     4  11  23  45  71 102 143 183 237 301 348 428
#     4  12  24  42  74 104 140 182 242 306 356 408
#     4  12  25  43  69 103 146 191 237 288 373 442
#     4  12  22  42  80 104 130 194 248 294 350 426
#
# _framework density 22.142074999999998
#
# number of rings (size 3 to 8) (size 9 to 14) (size 15 to 20)
#    0.000    0.333    6.667    3.500    0.000    3.333 
#    0.000    0.833    0.000    0.000    0.000    0.000 
#    0.000    0.000    0.000    0.000    0.000    0.000 
#
# Total GULP energy -594847.634319 kJ/mol
# GULP energy per Si atom -12392.659048 kJ/mol
# Density = 2.209168 g / cm^3
# Si number density = 22.142075 Si / 1000 Ang^3
#
#
#
# Elastic Constant Matrix: (Units=GPa)
#
#
# Indices 1 2 3 4 5 6 
#
# 1 74.0080 25.1088 33.6591 0.0000 0.0000 0.0000
# 2 25.1088 113.1600 9.7145 0.0000 0.0000 0.0000
# 3 33.6591 9.7145 96.2400 0.0000 0.0000 0.0000
# 4 0.0000 0.0000 0.0000 35.1229 0.0000 0.0000
# 5 0.0000 0.0000 0.0000 0.0000 30.0022 0.0000
# 6 0.0000 0.0000 0.0000 0.0000 0.0000 61.6210
#
#
#
# Elastic Compliance Matrix: (Units=1/GPa)
#
#
# Indices 1 2 3 4 5 6 
#
# 1 0.017231 -0.003335 -0.005690 0.000000 0.000000 0.000000
# 2 -0.003335 0.009560 0.000201 0.000000 0.000000 0.000000
# 3 -0.005690 0.000201 0.012360 0.000000 0.000000 0.000000
# 4 0.000000 0.000000 0.000000 0.028471 0.000000 0.000000
# 5 0.000000 0.000000 0.000000 0.000000 0.033331 0.000000
# 6 0.000000 0.000000 0.000000 0.000000 0.000000 0.016228
#
#
# Mechanical properties :
#
#
# Convention : Reuss Voigt Hill
#
# Bulk Modulus (GPa) = 46.50179 46.70809 46.60494
# Shear Modulus (GPa) = 35.21203 39.67758 37.44480
#
# Velocity S-wave (km/s) = 3.99215 4.23774 4.11678
# Velocity P-wave (km/s) = 6.50360 6.71454 6.60992
#
# Compressibility (1/GPa) = 0.02150455
#
# Stress axis : x y z
#
# Youngs Moduli (GPa) = 58.03405 104.60539 80.90388
#
# Poissons Ratio (x) = 0.34885 0.46033
# Poissons Ratio (y) = 0.19354 -0.01629
# Poissons Ratio (z) = 0.33021 -0.02107
#
# Static dielectric constant tensor:
#      x y z
#    x 4.146600 0.000000 0.000000 
#    y 0.000000 3.946740 0.000000 
#    z 0.000000 0.000000 4.168630 
# 
# 
# High freq. dielectric constant tensor:
#      x y z
#    x 1.868400 0.000000 0.000000 
#    y 0.000000 1.857100 0.000000 
#    z 0.000000 0.000000 1.884760 
# 
# From -- ./inp_files/14198.got.cif
#   From: 2010.06.25/outbox.cif.g09.slc.cpg/sg48_8_cif.got.tgz:14198.got - 2010.06.26 18:06:46.
