data_PCOD8202418
_publ_section_title
;
Structure prediction by ZEFSAII (Michael W. Deem and Ramdas Pophale) SiO2 
 PCOD8202418
Probable space group: P C C M
;
_chemical_formula_sum "Si O2"
_cell_formula_units_Z 56
_cell_length_a 10.362138
_cell_length_b 18.463159
_cell_length_c 15.391511
_cell_angle_alpha 90.000000
_cell_angle_beta 90.000000
_cell_angle_gamma 90.000000
_cell_volume 2944.670046
_symmetry_space_group_name_H-M "P C C M"
_symmetry_group_IT_number 49
_symmetry_cell_setting 'orthorhombic'
loop_
_space_group_symop_operation_xyz
x,y,z
-x,-y,z
x,-y,1/2-z
-x,y,1/2-z
-x,-y,-z
x,y,-z
-x,y,1/2+z
x,-y,1/2+z
loop_
_atom_site_type_symbol
_atom_site_label
_atom_site_fract_x
_atom_site_fract_y
_atom_site_fract_z
Si Si1 0.351432 0.815921 0.847869
Si Si2 0.347296 0.080407 0.500000
Si Si3 0.648568 0.815921 0.152131
Si Si4 0.747702 0.665871 0.103287
Si Si5 0.652704 0.080407 0.500000
Si Si6 0.252299 0.334129 0.603287
Si Si7 0.000000 0.582227 0.103372
Si Si8 0.500000 0.580675 0.103430
O O1 0.500000 0.794673 0.870192
O O2 0.340205 0.846338 0.750000
O O3 0.260274 0.746155 0.857640
O O4 0.301096 0.877513 0.913610
O O5 0.500000 0.073657 0.500000
O O6 0.285300 1.000000 0.500000
O O7 0.739726 0.746155 0.142360
O O8 0.698904 0.877513 0.086390
O O9 0.875284 0.625479 0.137624
O O10 0.626361 0.620808 0.138708
O O11 0.746595 0.671464 0.000000
O O12 0.253406 0.328536 0.500000
O O13 0.373641 0.379191 0.638708
O O14 0.124717 0.374521 0.637624
O O15 0.000000 0.500000 0.140154
O O16 0.999999 0.579179 0.000000
O O17 0.500000 0.500000 0.141628
O O18 0.500000 0.579024 0.000000
#
# Coordination Sequence:
#
# PCOD8202418 Si02
#       8
#     8   4   8   8   4   8   8   8
#     4  10  19  31  51  78 108 140 176 217 260 309
#     4   9  18  32  52  79 112 143 171 207 259 319
#     4  10  19  31  51  78 108 140 176 217 260 309
#     4  10  17  29  49  71 103 140 177 221 267 311
#     4   9  18  32  52  79 112 143 171 207 259 319
#     4  10  17  29  49  71 103 140 177 221 267 311
#     4   9  18  30  47  75 107 139 181 230 273 314
#     4   9  16  24  43  71  95 131 179 220 265 316
#
# _framework density 19.017410999999999
#
# number of rings (size 3 to 8) (size 9 to 14) (size 15 to 20)
#    0.000    2.429    2.857    0.857    0.000    4.000 
#    0.000    3.571    0.000    5.143    0.000    2.000 
#    0.000    2.286    0.000    0.000    0.000    0.000 
#
# Total GULP energy -694370.231822 kJ/mol
# GULP energy per Si atom -12399.468425 kJ/mol
# Density = 1.897413 g / cm^3
# Si number density = 19.017411 Si / 1000 Ang^3
#
#
#
# Elastic Constant Matrix: (Units=GPa)
#
#
# Indices 1 2 3 4 5 6 
#
# 1 111.4619 57.8018 24.1154 0.0000 0.0000 0.0000
# 2 57.8018 178.5681 53.8150 0.0000 0.0000 0.0000
# 3 24.1154 53.8150 81.9579 0.0000 0.0000 0.0000
# 4 0.0000 0.0000 0.0000 -1.3552 0.0000 0.0000
# 5 0.0000 0.0000 0.0000 0.0000 6.1217 0.0000
# 6 0.0000 0.0000 0.0000 0.0000 0.0000 20.8858
#
#
#
# Elastic Compliance Matrix: (Units=1/GPa)
#
#
# Indices 1 2 3 4 5 6 
#
# 1 0.010861 -0.003182 -0.001106 0.000000 0.000000 0.000000
# 2 -0.003182 0.007914 -0.004260 0.000000 0.000000 0.000000
# 3 -0.001106 -0.004260 0.015324 0.000000 0.000000 0.000000
# 4 0.000000 0.000000 0.000000 -0.737924 0.000000 0.000000
# 5 0.000000 0.000000 0.000000 0.000000 0.163353 0.000000
# 6 0.000000 0.000000 0.000000 0.000000 0.000000 0.047879
#
#
# Mechanical properties :
#
#
# Convention : Reuss Voigt Hill
#
# Bulk Modulus (GPa) = 58.81642 71.49471 65.15557
# Shear Modulus (GPa) = -10.64221 20.88086 5.11933
#
# Velocity S-wave (km/s) = -2.36816 3.31718 1.64249
# Velocity P-wave (km/s) = 4.84946 7.23516 6.15893
#
# Compressibility (1/GPa) = 0.01700205
#
# Stress axis : x y z
#
# Youngs Moduli (GPa) = 92.06978 126.35666 65.25633
#
# Poissons Ratio (x) = 0.40211 0.07219
# Poissons Ratio (y) = 0.29300 0.27800
# Poissons Ratio (z) = 0.10185 0.53830
#
# Static dielectric constant tensor:
#      x y z
#    x 3.310830 0.000000 0.000000 
#    y 0.000000 3.573920 0.000000 
#    z 0.000000 0.000000 3.250100 
# 
# 
# High freq. dielectric constant tensor:
#      x y z
#    x 1.701980 0.000000 0.000000 
#    y 0.000000 1.735960 0.000000 
#    z 0.000000 0.000000 1.726780 
# 
# From -- ./inp_files/12066.got.cif
#   From: 2010.03.12/outbox.cif.g09.slc.cpg/sg49_7_cif.got.tgz:12066.got - 2010.04.14 03:58:27.
