data_PCOD8202164
_publ_section_title
;
Structure prediction by ZEFSAII (Michael W. Deem and Ramdas Pophale) SiO2 
 PCOD8202164
Probable space group: P N N N
;
_chemical_formula_sum "Si O2"
_cell_formula_units_Z 38
_cell_length_a 7.886604
_cell_length_b 10.702612
_cell_length_c 18.068473
_cell_angle_alpha 90.000000
_cell_angle_beta 90.000000
_cell_angle_gamma 90.000000
_cell_volume 1525.110345
_symmetry_space_group_name_H-M "P N N N"
_symmetry_group_IT_number 48
_space_group.IT_coordinate_system_code '2'
_symmetry_cell_setting 'orthorhombic'
loop_
_space_group_symop_operation_xyz
x,y,z
1/2-x,1/2-y,z
x,1/2-y,1/2-z
1/2-x,y,1/2-z
-x,-y,-z
1/2+x,1/2+y,-z
-x,1/2+y,1/2+z
1/2+x,-y,1/2+z
loop_
_atom_site_type_symbol
_atom_site_label
_atom_site_fract_x
_atom_site_fract_y
_atom_site_fract_z
Si Si1 0.568516 0.356692 0.611789
Si Si2 0.250000 0.250000 0.963812
Si Si3 0.541555 0.116092 0.332160
Si Si4 0.577287 0.396480 0.338655
Si Si5 0.250000 0.750000 0.250000
Si Si6 0.667013 0.508824 0.952541
O O1 0.422577 0.258452 0.586485
O O2 0.511975 0.501345 0.611098
O O3 0.626537 0.326028 0.695040
O O4 0.728697 0.375920 0.554344
O O5 0.233028 0.373460 0.013611
O O6 0.497471 0.260143 0.350263
O O7 0.728262 0.092978 0.365380
O O8 0.552759 0.076058 0.247587
O O9 0.394111 0.034678 0.368506
O O10 0.500000 0.500000 0.000000
#
# Coordination Sequence:
#
# PCOD8202164 Si02
#       6
#     8   4   8   8   2   8
#     4  12  26  46  66  97 132 175 226 282 346 404
#     4  12  28  45  68  99 136 186 232 274 338 426
#     4   9  19  37  64  99 126 168 221 273 338 401
#     4   9  19  38  66  94 129 165 217 283 338 395
#     4  12  28  46  72 102 132 170 228 290 344 416
#     4  12  25  43  65  93 135 179 221 274 333 409
#
# _framework density 24.916229999999999
#
# number of rings (size 3 to 8) (size 9 to 14) (size 15 to 20)
#    0.000    1.263    0.000    6.947    0.000    7.158 
#    0.000    2.105    0.000    0.000    0.000    0.000 
#    0.000    0.000    0.000    0.000    0.000    0.000 
#
# Total GULP energy -470815.654522 kJ/mol
# GULP energy per Si atom -12389.885645 kJ/mol
# Density = 2.485952 g / cm^3
# Si number density = 24.916230 Si / 1000 Ang^3
#
#
#
# Elastic Constant Matrix: (Units=GPa)
#
#
# Indices 1 2 3 4 5 6 
#
# 1 126.1950 36.7193 53.6059 0.0000 0.0000 0.0000
# 2 36.7193 74.7055 26.8074 0.0000 0.0000 0.0000
# 3 53.6059 26.8074 82.4032 0.0000 0.0000 0.0000
# 4 0.0000 0.0000 0.0000 37.9043 0.0000 0.0000
# 5 0.0000 0.0000 0.0000 0.0000 37.7739 0.0000
# 6 0.0000 0.0000 0.0000 0.0000 0.0000 46.0847
#
#
#
# Elastic Compliance Matrix: (Units=1/GPa)
#
#
# Indices 1 2 3 4 5 6 
#
# 1 0.011670 -0.003410 -0.006482 0.000000 0.000000 0.000000
# 2 -0.003410 0.016151 -0.003036 0.000000 0.000000 0.000000
# 3 -0.006482 -0.003036 0.017340 0.000000 0.000000 0.000000
# 4 0.000000 0.000000 0.000000 0.026382 0.000000 0.000000
# 5 0.000000 0.000000 0.000000 0.000000 0.026473 0.000000
# 6 0.000000 0.000000 0.000000 0.000000 0.000000 0.021699
#
#
# Mechanical properties :
#
#
# Convention : Reuss Voigt Hill
#
# Bulk Modulus (GPa) = 51.80076 57.50767 54.65421
# Shear Modulus (GPa) = 32.89293 35.43065 34.16179
#
# Velocity S-wave (km/s) = 3.63732 3.77502 3.70681
# Velocity P-wave (km/s) = 6.20284 6.49088 6.34849
#
# Compressibility (1/GPa) = 0.01930474
#
# Stress axis : x y z
#
# Youngs Moduli (GPa) = 85.68908 61.91405 57.66946
#
# Poissons Ratio (x) = 0.21112 0.37384
# Poissons Ratio (y) = 0.29219 0.17509
# Poissons Ratio (z) = 0.55548 0.18798
#
# Static dielectric constant tensor:
#      x y z
#    x 4.805680 0.000000 0.000000 
#    y 0.000000 185.837210 0.000000 
#    z 0.000000 0.000000 4.731450 
# 
# 
# High freq. dielectric constant tensor:
#      x y z
#    x 2.005630 0.000000 0.000000 
#    y 0.000000 1.991240 0.000000 
#    z 0.000000 0.000000 1.988640 
# 
# From -- ./inp_files/30056.got.cif
#   From: 2010.06.25/outbox.cif.g09.slc.cpg/sg48_16_cif.got.tgz:30056.got - 2010.06.26 18:06:46.
