data_PCOD8202409
_publ_section_title
;
Structure prediction by ZEFSAII (Michael W. Deem and Ramdas Pophale) SiO2 
 PCOD8202409
Probable space group: P C C M
;
_chemical_formula_sum "Si O2"
_cell_formula_units_Z 48
_cell_length_a 19.294663
_cell_length_b 14.934198
_cell_length_c 8.793229
_cell_angle_alpha 90.000000
_cell_angle_beta 90.000000
_cell_angle_gamma 90.000000
_cell_volume 2533.771729
_symmetry_space_group_name_H-M "P C C M"
_symmetry_group_IT_number 49
_symmetry_cell_setting 'orthorhombic'
loop_
_space_group_symop_operation_xyz
x,y,z
-x,-y,z
x,-y,1/2-z
-x,y,1/2-z
-x,-y,-z
x,y,-z
-x,y,1/2+z
x,-y,1/2+z
loop_
_atom_site_type_symbol
_atom_site_label
_atom_site_fract_x
_atom_site_fract_y
_atom_site_fract_z
Si Si1 0.926313 0.266162 0.177015
Si Si2 0.429565 0.807375 0.327953
Si Si3 0.193236 0.404463 0.324433
Si Si4 0.711330 0.266430 0.327998
Si Si5 0.684067 0.907907 0.679634
Si Si6 0.076862 0.088425 0.181022
O O1 0.877234 0.350546 0.203682
O O2 0.889306 0.181148 0.260228
O O3 0.000000 0.290663 0.250000
O O4 0.936640 0.243636 0.000000
O O5 0.500000 0.774451 0.250000
O O6 0.444894 0.838038 0.500000
O O7 0.373108 0.726209 0.325220
O O8 0.395276 0.891278 0.237253
O O9 0.183439 0.500000 0.250000
O O10 0.209815 0.417382 0.500000
O O11 0.258300 0.353277 0.252518
O O12 0.739404 0.260256 0.500000
O O13 0.732408 0.174129 0.240112
O O14 0.687455 0.912925 0.500000
O O15 0.712597 0.000000 0.750000
O O16 0.000000 0.091167 0.250000
O O17 0.114978 0.000000 0.250000
O O18 0.076265 0.083294 0.000000
#
# Coordination Sequence:
#
# PCOD8202409 Si02
#       6
#     8   8   8   8   8   8
#     4  10  21  37  57  85 116 146 182 227 277 332
#     4   9  18  31  51  81 114 153 192 233 279 327
#     4  11  24  41  63  85 108 141 183 229 284 343
#     4   9  20  37  56  80 111 145 187 230 275 330
#     4  10  18  31  51  78 115 154 193 234 277 328
#     4  10  17  28  49  76 108 145 179 215 256 309
#
# _framework density 18.944089000000002
#
# number of rings (size 3 to 8) (size 9 to 14) (size 15 to 20)
#    1.000    1.167    0.000    6.000    0.000    3.333 
#    0.000    4.167    0.000    4.500    0.000    3.500 
#    0.000    0.000    0.000    0.000    0.000    0.000 
#
# Total GULP energy -594850.005080 kJ/mol
# GULP energy per Si atom -12392.708439 kJ/mol
# Density = 1.890097 g / cm^3
# Si number density = 18.944089 Si / 1000 Ang^3
#
#
#
# Elastic Constant Matrix: (Units=GPa)
#
#
# Indices 1 2 3 4 5 6 
#
# 1 42.4072 39.1532 39.9057 0.0000 0.0000 0.0000
# 2 39.1532 148.3063 86.6781 0.0000 0.0000 0.0000
# 3 39.9057 86.6781 197.3235 0.0000 0.0000 0.0000
# 4 0.0000 0.0000 0.0000 36.0952 0.0000 0.0000
# 5 0.0000 0.0000 0.0000 0.0000 18.8462 0.0000
# 6 0.0000 0.0000 0.0000 0.0000 0.0000 21.3405
#
#
#
# Elastic Compliance Matrix: (Units=1/GPa)
#
#
# Indices 1 2 3 4 5 6 
#
# 1 0.033228 -0.006518 -0.003857 0.000000 0.000000 0.000000
# 2 -0.006518 0.010351 -0.003228 0.000000 0.000000 0.000000
# 3 -0.003857 -0.003228 0.007266 0.000000 0.000000 0.000000
# 4 0.000000 0.000000 0.000000 0.027704 0.000000 0.000000
# 5 0.000000 0.000000 0.000000 0.000000 0.053061 0.000000
# 6 0.000000 0.000000 0.000000 0.000000 0.000000 0.046859
#
#
# Mechanical properties :
#
#
# Convention : Reuss Voigt Hill
#
# Bulk Modulus (GPa) = 42.30494 79.94569 61.12531
# Shear Modulus (GPa) = 23.41313 30.07639 26.74476
#
# Velocity S-wave (km/s) = 3.51936 3.98884 3.76143
# Velocity P-wave (km/s) = 6.23654 7.96913 7.15547
#
# Compressibility (1/GPa) = 0.02363790
#
# Stress axis : x y z
#
# Youngs Moduli (GPa) = 30.09496 96.61359 137.62894
#
# Poissons Ratio (x) = 0.62976 0.53078
# Poissons Ratio (y) = 0.19617 0.44433
# Poissons Ratio (z) = 0.11606 0.31191
#
# Static dielectric constant tensor:
#      x y z
#    x 3.206800 0.000000 0.000000 
#    y 0.000000 3.486570 0.000000 
#    z 0.000000 0.000000 3.613940 
# 
# 
# High freq. dielectric constant tensor:
#      x y z
#    x 1.712820 0.000000 0.000000 
#    y 0.000000 1.718380 0.000000 
#    z 0.000000 0.000000 1.758660 
# 
# From -- ./inp_files/6365.got.cif
#   From: 2010.03.12/outbox.cif.g09.slc.cpg/sg49_4_cif.got.tgz:6365.got - 2010.04.14 03:58:27.
