data_PCOD8202337
_publ_section_title
;
Structure prediction by ZEFSAII (Michael W. Deem and Ramdas Pophale) SiO2 
 PCOD8202337
Probable space group: P C C M
;
_chemical_formula_sum "Si O2"
_cell_formula_units_Z 40
_cell_length_a 26.120545
_cell_length_b 9.297861
_cell_length_c 8.761256
_cell_angle_alpha 90.000000
_cell_angle_beta 90.000000
_cell_angle_gamma 90.000000
_cell_volume 2127.804161
_symmetry_space_group_name_H-M "P C C M"
_symmetry_group_IT_number 49
_symmetry_cell_setting 'orthorhombic'
loop_
_space_group_symop_operation_xyz
x,y,z
-x,-y,z
x,-y,1/2-z
-x,y,1/2-z
-x,-y,-z
x,y,-z
-x,y,1/2+z
x,-y,1/2+z
loop_
_atom_site_type_symbol
_atom_site_label
_atom_site_fract_x
_atom_site_fract_y
_atom_site_fract_z
Si Si1 0.451423 0.655689 0.676564
Si Si2 0.250991 0.154737 0.678592
Si Si3 0.949260 0.340443 0.681818
Si Si4 0.338176 0.656899 0.321720
Si Si5 0.846944 0.655530 0.679543
O O1 0.450115 0.500000 0.750000
O O2 0.500000 0.743012 0.750000
O O3 0.462702 0.641442 0.500000
O O4 0.395268 0.722762 0.707234
O O5 0.259527 0.139390 0.500000
O O6 0.300358 0.229828 0.748228
O O7 0.201001 0.245992 0.718785
O O8 0.243259 0.000000 0.750000
O O9 0.948109 0.500000 0.750000
O O10 0.951540 0.341195 0.500000
O O11 0.896706 0.268512 0.742126
O O12 0.000000 0.261402 0.750000
O O13 0.330648 0.500000 0.250000
O O14 0.326626 0.641119 0.500000
O O15 0.835586 0.500000 0.750000
O O16 0.856716 0.639161 0.500000
#
# Coordination Sequence:
#
# PCOD8202337 Si02
#       5
#     8   8   8   8   8
#     4   9  16  26  44  72 104 136 167 207 254 303
#     4  11  24  39  56  76 103 139 177 219 267 316
#     4  10  17  27  46  73 105 137 167 206 253 301
#     4  10  20  34  54  80 109 139 176 217 260 309
#     4  10  20  34  53  79 106 135 172 213 256 305
#
# _framework density 18.798722000000001
#
# number of rings (size 3 to 8) (size 9 to 14) (size 15 to 20)
#    0.000    2.000    0.000    7.200    0.000    7.200 
#    0.000    0.000    0.000    1.200    0.000    8.400 
#    0.000    0.000    0.000    0.000    0.000    0.000 
#
# Total GULP energy -495744.161447 kJ/mol
# GULP energy per Si atom -12393.604036 kJ/mol
# Density = 1.875594 g / cm^3
# Si number density = 18.798722 Si / 1000 Ang^3
#
#
#
# Elastic Constant Matrix: (Units=GPa)
#
#
# Indices 1 2 3 4 5 6 
#
# 1 191.9695 58.9722 104.5532 0.0000 0.0000 0.0000
# 2 58.9722 69.7368 46.6161 0.0000 0.0000 0.0000
# 3 104.5532 46.6161 150.4276 0.0000 0.0000 0.0000
# 4 0.0000 0.0000 0.0000 21.0832 0.0000 0.0000
# 5 0.0000 0.0000 0.0000 0.0000 36.9360 0.0000
# 6 0.0000 0.0000 0.0000 0.0000 0.0000 -9.0118
#
#
#
# Elastic Compliance Matrix: (Units=1/GPa)
#
#
# Indices 1 2 3 4 5 6 
#
# 1 0.009387 -0.004511 -0.005126 0.000000 0.000000 0.000000
# 2 -0.004511 0.020254 -0.003141 0.000000 0.000000 0.000000
# 3 -0.005126 -0.003141 0.011184 0.000000 0.000000 0.000000
# 4 0.000000 0.000000 0.000000 0.047431 0.000000 0.000000
# 5 0.000000 0.000000 0.000000 0.000000 0.027074 0.000000
# 6 0.000000 0.000000 0.000000 0.000000 0.000000 -0.110966
#
#
# Mechanical properties :
#
#
# Convention : Reuss Voigt Hill
#
# Bulk Modulus (GPa) = 65.49661 92.49074 78.99368
# Shear Modulus (GPa) = 142.81264 23.26765 83.04014
#
# Velocity S-wave (km/s) = 8.72549 3.52195 6.65351
# Velocity P-wave (km/s) = 11.68028 8.11457 10.05672
#
# Compressibility (1/GPa) = 0.01526796
#
# Stress axis : x y z
#
# Youngs Moduli (GPa) = 106.53063 49.37243 89.41258
#
# Poissons Ratio (x) = 0.22273 0.45836
# Poissons Ratio (y) = 0.48059 0.28085
# Poissons Ratio (z) = 0.54611 0.15508
#
# Static dielectric constant tensor:
#      x y z
#    x 4.981320 0.000000 0.000000 
#    y 0.000000 2.912580 0.000000 
#    z 0.000000 0.000000 3.657180 
# 
# 
# High freq. dielectric constant tensor:
#      x y z
#    x 1.766740 0.000000 0.000000 
#    y 0.000000 1.662800 0.000000 
#    z 0.000000 0.000000 1.753030 
# 
# From -- ./inp_files/1883.got.cif
#   From: 2010.03.12/outbox.cif.g09.slc.cpg/sg49_1_cif.got.tgz:1883.got - 2010.04.14 03:58:27.
