data_PCOD8202458
_publ_section_title
;
Structure prediction by ZEFSAII (Michael W. Deem and Ramdas Pophale) SiO2 
 PCOD8202458
Probable space group: P C C M
;
_chemical_formula_sum "Si O2"
_cell_formula_units_Z 64
_cell_length_a 26.781315
_cell_length_b 18.328319
_cell_length_c 8.983779
_cell_angle_alpha 90.000000
_cell_angle_beta 90.000000
_cell_angle_gamma 90.000000
_cell_volume 4409.746178
_symmetry_space_group_name_H-M "P C C M"
_symmetry_group_IT_number 49
_symmetry_cell_setting 'orthorhombic'
loop_
_space_group_symop_operation_xyz
x,y,z
-x,-y,z
x,-y,1/2-z
-x,y,1/2-z
-x,-y,-z
x,y,-z
-x,y,1/2+z
x,-y,1/2+z
loop_
_atom_site_type_symbol
_atom_site_label
_atom_site_fract_x
_atom_site_fract_y
_atom_site_fract_z
Si Si1 0.896855 0.285567 0.670027
Si Si2 0.191647 0.781783 0.832178
Si Si3 0.853326 0.925817 0.668966
Si Si4 0.453691 0.577924 0.327414
Si Si5 0.050245 0.835125 0.825080
Si Si6 0.745797 0.650490 0.328676
Si Si7 0.160133 0.575351 0.325019
Si Si8 0.656792 0.578197 0.826509
O O1 0.911517 0.270628 0.500000
O O2 0.844015 0.248674 0.705145
O O3 0.939442 0.248431 0.771754
O O4 0.887795 0.371578 0.700399
O O5 0.193713 0.869702 0.810602
O O6 0.243861 0.738235 0.816835
O O7 0.169426 0.767303 0.000000
O O8 0.861581 0.947839 0.500000
O O9 0.904091 0.886932 0.727396
O O10 0.840238 0.000000 0.750000
O O11 0.451562 0.500000 0.250000
O O12 0.500000 0.622454 0.250000
O O13 0.465972 0.569338 0.500000
O O14 0.398776 0.612495 0.302749
O O15 0.000000 0.865467 0.750000
O O16 0.043142 0.835238 0.000000
O O17 0.741174 0.626003 0.500000
O O18 0.790209 0.604667 0.254809
O O19 0.694298 0.636244 0.244440
O O20 0.144238 0.500000 0.250000
O O21 0.171619 0.566272 0.500000
O O22 0.663681 0.500000 0.750000
O O23 0.668439 0.567726 0.000000
#
# Coordination Sequence:
#
# PCOD8202458 Si02
#       8
#     8   8   8   8   8   8   8   8
#     4   9  17  29  45  63  80 101 130 159 189 228
#     4   8  16  30  44  59  80 106 133 158 188 227
#     4   9  18  31  46  65  87 108 130 156 184 218
#     4   9  16  25  37  50  67  94 129 170 210 248
#     4  10  20  33  48  65  85 107 130 156 187 224
#     4  10  18  28  42  57  77 105 134 165 200 237
#     4  10  19  29  42  60  81 103 128 160 197 237
#     4  10  19  28  37  53  77 103 134 173 214 249
#
# _framework density 14.513306
#
# number of rings (size 3 to 8) (size 9 to 14) (size 15 to 20)
#    0.000    2.625    0.000    3.750    0.000    6.250 
#    0.000    1.250    0.000    0.375    0.000    2.625 
#    0.000    0.000    0.000    0.000    0.000    0.625 
#
# Total GULP energy -792901.254140 kJ/mol
# GULP energy per Si atom -12389.082096 kJ/mol
# Density = 1.448027 g / cm^3
# Si number density = 14.513306 Si / 1000 Ang^3
#
#
#
# Elastic Constant Matrix: (Units=GPa)
#
#
# Indices 1 2 3 4 5 6 
#
# 1 59.1341 34.8846 29.6642 0.0000 0.0000 0.0000
# 2 34.8846 88.3569 38.1521 0.0000 0.0000 0.0000
# 3 29.6642 38.1521 80.3634 0.0000 0.0000 0.0000
# 4 0.0000 0.0000 0.0000 20.5596 0.0000 0.0000
# 5 0.0000 0.0000 0.0000 0.0000 21.9527 0.0000
# 6 0.0000 0.0000 0.0000 0.0000 0.0000 11.6729
#
#
#
# Elastic Compliance Matrix: (Units=1/GPa)
#
#
# Indices 1 2 3 4 5 6 
#
# 1 0.023796 -0.007047 -0.005438 0.000000 0.000000 0.000000
# 2 -0.007047 0.016323 -0.005148 0.000000 0.000000 0.000000
# 3 -0.005438 -0.005148 0.016895 0.000000 0.000000 0.000000
# 4 0.000000 0.000000 0.000000 0.048639 0.000000 0.000000
# 5 0.000000 0.000000 0.000000 0.000000 0.045552 0.000000
# 6 0.000000 0.000000 0.000000 0.000000 0.000000 0.085668
#
#
# Mechanical properties :
#
#
# Convention : Reuss Voigt Hill
#
# Bulk Modulus (GPa) = 45.98237 48.13957 47.06097
# Shear Modulus (GPa) = 17.89625 19.18064 18.53844
#
# Velocity S-wave (km/s) = 3.51535 3.63931 3.57787
# Velocity P-wave (km/s) = 6.94468 7.13447 7.04022
#
# Compressibility (1/GPa) = 0.02174746
#
# Stress axis : x y z
#
# Youngs Moduli (GPa) = 42.02426 61.26414 59.18957
#
# Poissons Ratio (x) = 0.43171 0.32189
# Poissons Ratio (y) = 0.29613 0.30471
# Poissons Ratio (z) = 0.22854 0.31539
#
# Static dielectric constant tensor:
#      x y z
#    x 3.079210 0.000000 0.000000 
#    y 0.000000 2.764970 0.000000 
#    z 0.000000 0.000000 2.978950 
# 
# 
# High freq. dielectric constant tensor:
#      x y z
#    x 1.529240 0.000000 0.000000 
#    y 0.000000 1.522190 0.000000 
#    z 0.000000 0.000000 1.574650 
# 
# From -- ./inp_files/6798.got.cif
#   From: 2010.03.12/outbox.cif.g09.slc.cpg/sg49_4_cif.got.tgz:6798.got - 2010.04.14 03:58:27.
