data_PCOD8202960
_publ_section_title
;
Structure prediction by ZEFSAII (Michael W. Deem and Ramdas Pophale) SiO2 
 PCOD8202960
Probable space group: P C C M
;
_chemical_formula_sum "Si O2"
_cell_formula_units_Z 64
_cell_length_a 19.813757
_cell_length_b 19.899714
_cell_length_c 8.705389
_cell_angle_alpha 90.000000
_cell_angle_beta 90.000000
_cell_angle_gamma 90.000000
_cell_volume 3432.431267
_symmetry_space_group_name_H-M "P C C M"
_symmetry_group_IT_number 49
_symmetry_cell_setting 'orthorhombic'
loop_
_space_group_symop_operation_xyz
x,y,z
-x,-y,z
x,-y,1/2-z
-x,y,1/2-z
-x,-y,-z
x,y,-z
-x,y,1/2+z
x,-y,1/2+z
loop_
_atom_site_type_symbol
_atom_site_label
_atom_site_fract_x
_atom_site_fract_y
_atom_site_fract_z
Si Si1 0.253488 0.103270 0.678593
Si Si2 0.390739 0.934235 0.319316
Si Si3 0.170697 0.321642 0.181224
Si Si4 0.569242 0.785684 0.819882
Si Si5 0.931978 0.208244 0.680336
Si Si6 0.929643 0.573639 0.317072
Si Si7 0.116271 0.067412 0.820064
Si Si8 0.707093 0.746304 0.679640
O O1 0.239083 0.090529 0.500000
O O2 0.320455 0.065570 0.729371
O O3 0.194683 0.071105 0.778727
O O4 0.259458 0.182089 0.716632
O O5 0.379666 0.941464 0.500000
O O6 0.429019 0.865160 0.279526
O O7 0.429814 0.000000 0.250000
O O8 0.130114 0.254785 0.228358
O O9 0.135004 0.383527 0.265663
O O10 0.247261 0.311431 0.240793
O O11 0.170950 0.334993 0.000000
O O12 0.500000 0.756507 0.750000
O O13 0.631522 0.745028 0.746994
O O14 0.571015 0.773081 0.000000
O O15 0.939768 0.205957 0.500000
O O16 0.920275 0.133463 0.748454
O O17 0.000000 0.239036 0.750000
O O18 0.918455 0.500000 0.250000
O O19 0.934561 0.571414 0.500000
O O20 0.000000 0.603907 0.250000
O O21 0.083287 0.000000 0.750000
O O22 0.107483 0.064491 0.000000
O O23 0.702917 0.731555 0.500000
#
# Coordination Sequence:
#
# PCOD8202960 Si02
#       8
#     8   8   8   8   8   8   8   8
#     4  10  19  32  50  71  94 124 162 212 268 326
#     4  10  20  32  47  67  93 125 163 210 265 329
#     4  11  21  37  59  85 114 148 186 230 275 323
#     4  10  21  36  53  73 101 137 173 219 275 335
#     4  10  23  38  54  73  99 132 172 220 273 328
#     4  11  22  38  59  88 124 164 201 235 275 325
#     4  11  22  36  50  68  91 124 165 217 277 335
#     4  10  20  34  55  81 106 136 177 224 271 324
#
# _framework density 18.645676999999999
#
# number of rings (size 3 to 8) (size 9 to 14) (size 15 to 20)
#    0.000    1.625    1.250    4.500    0.000    6.000 
#    0.000    2.500    0.000    0.000    0.000    0.000 
#    0.000    0.500    0.000    5.000    0.000    3.000 
#
# Total GULP energy -793658.697093 kJ/mol
# GULP energy per Si atom -12400.917142 kJ/mol
# Density = 1.860324 g / cm^3
# Si number density = 18.645677 Si / 1000 Ang^3
#
#
#
# Elastic Constant Matrix: (Units=GPa)
#
#
# Indices 1 2 3 4 5 6 
#
# 1 110.5459 39.4364 41.4649 0.0000 0.0000 0.0000
# 2 39.4364 69.7270 39.0043 0.0000 0.0000 0.0000
# 3 41.4649 39.0043 86.2908 0.0000 0.0000 0.0000
# 4 0.0000 0.0000 0.0000 24.6582 0.0000 0.0000
# 5 0.0000 0.0000 0.0000 0.0000 29.8634 0.0000
# 6 0.0000 0.0000 0.0000 0.0000 0.0000 16.7941
#
#
#
# Elastic Compliance Matrix: (Units=1/GPa)
#
#
# Indices 1 2 3 4 5 6 
#
# 1 0.012136 -0.004821 -0.003653 0.000000 0.000000 0.000000
# 2 -0.004821 0.021110 -0.007225 0.000000 0.000000 0.000000
# 3 -0.003653 -0.007225 0.016610 0.000000 0.000000 0.000000
# 4 0.000000 0.000000 0.000000 0.040554 0.000000 0.000000
# 5 0.000000 0.000000 0.000000 0.000000 0.033486 0.000000
# 6 0.000000 0.000000 0.000000 0.000000 0.000000 0.059545
#
#
# Mechanical properties :
#
#
# Convention : Reuss Voigt Hill
#
# Bulk Modulus (GPa) = 54.17629 56.26387 55.22008
# Shear Modulus (GPa) = 22.62539 24.04034 23.33287
#
# Velocity S-wave (km/s) = 3.48722 3.59461 3.54133
# Velocity P-wave (km/s) = 6.73298 6.88978 6.81184
#
# Compressibility (1/GPa) = 0.01845826
#
# Stress axis : x y z
#
# Youngs Moduli (GPa) = 82.40100 47.37108 60.20522
#
# Poissons Ratio (x) = 0.22836 0.21990
# Poissons Ratio (y) = 0.39722 0.43501
# Poissons Ratio (z) = 0.30098 0.34228
#
# Static dielectric constant tensor:
#      x y z
#    x 3.364310 0.000000 0.000000 
#    y 0.000000 3.344250 0.000000 
#    z 0.000000 0.000000 3.461460 
# 
# 
# High freq. dielectric constant tensor:
#      x y z
#    x 1.717880 0.000000 0.000000 
#    y 0.000000 1.689750 0.000000 
#    z 0.000000 0.000000 1.736170 
# 
# From -- ./inp_files/5327.got.cif
#   From: 2010.03.12/outbox.cif.g09.slc.cpg/sg49_3_cif.got.tgz:5327.got - 2010.04.14 03:58:27.
