data_PCOD8202486
_publ_section_title
;
Structure prediction by ZEFSAII (Michael W. Deem and Ramdas Pophale) SiO2 
 PCOD8202486
Probable space group: P C C M
;
_chemical_formula_sum "Si O2"
_cell_formula_units_Z 64
_cell_length_a 24.365857
_cell_length_b 18.662366
_cell_length_c 8.885683
_cell_angle_alpha 90.000000
_cell_angle_beta 90.000000
_cell_angle_gamma 90.000000
_cell_volume 4040.538126
_symmetry_space_group_name_H-M "P C C M"
_symmetry_group_IT_number 49
_symmetry_cell_setting 'orthorhombic'
loop_
_space_group_symop_operation_xyz
x,y,z
-x,-y,z
x,-y,1/2-z
-x,y,1/2-z
-x,-y,-z
x,y,-z
-x,y,1/2+z
x,-y,1/2+z
loop_
_atom_site_type_symbol
_atom_site_label
_atom_site_fract_x
_atom_site_fract_y
_atom_site_fract_z
Si Si1 0.376527 0.286633 0.173874
Si Si2 0.659394 0.926724 0.677692
Si Si3 0.051233 0.800817 0.327435
Si Si4 0.893092 0.077071 0.821587
Si Si5 0.721853 0.783255 0.675233
Si Si6 0.558602 0.854087 0.823386
Si Si7 0.829969 0.191726 0.326781
Si Si8 0.441745 0.427053 0.822274
O O1 0.322268 0.275072 0.271958
O O2 0.422100 0.226861 0.211752
O O3 0.399971 0.363857 0.217763
O O4 0.359681 0.282143 0.000000
O O5 0.652715 0.935159 0.500000
O O6 0.701549 0.863013 0.718709
O O7 0.600351 0.910189 0.749586
O O8 0.682440 0.000000 0.750000
O O9 0.036484 0.813609 0.500000
O O10 0.055083 0.877186 0.240080
O O11 0.111894 0.763325 0.311928
O O12 0.000000 0.757947 0.250000
O O13 0.837329 0.116785 0.764010
O O14 0.895971 0.000000 0.750000
O O15 0.893425 0.071986 0.000000
O O16 0.731092 0.774196 0.500000
O O17 0.779241 0.765202 0.756917
O O18 0.500000 0.866646 0.750000
O O19 0.555210 0.869320 0.000000
O O20 0.817646 0.174165 0.500000
O O21 0.418057 0.500000 0.750000
O O22 0.500000 0.407907 0.750000
O O23 0.449312 0.436472 0.000000
#
# Coordination Sequence:
#
# PCOD8202486 Si02
#       8
#     8   8   8   8   8   8   8   8
#     4   9  19  33  49  68  92 121 151 182 220 260
#     4  10  21  35  48  64  82 104 135 174 221 271
#     4   9  18  30  44  62  81 108 137 174 221 269
#     4  10  18  29  42  57  78 102 134 174 218 270
#     4  10  20  33  50  68  86 111 146 186 226 267
#     4  10  19  32  49  67  86 109 137 174 216 262
#     4   9  19  32  45  61  82 106 137 173 216 263
#     4  10  19  31  48  72 101 131 158 187 222 262
#
# _framework density 15.839473999999999
#
# number of rings (size 3 to 8) (size 9 to 14) (size 15 to 20)
#    0.750    1.625    0.000    3.750    0.000    4.000 
#    0.000    3.750    0.000    0.000    0.000    0.000 
#    0.000    0.000    0.000    0.000    0.000    0.625 
#
# Total GULP energy -793156.133232 kJ/mol
# GULP energy per Si atom -12393.064582 kJ/mol
# Density = 1.580342 g / cm^3
# Si number density = 15.839474 Si / 1000 Ang^3
#
#
#
# Elastic Constant Matrix: (Units=GPa)
#
#
# Indices 1 2 3 4 5 6 
#
# 1 106.9145 25.7476 53.2632 0.0000 0.0000 0.0000
# 2 25.7476 58.1233 28.9004 0.0000 0.0000 0.0000
# 3 53.2632 28.9004 111.0249 0.0000 0.0000 0.0000
# 4 0.0000 0.0000 0.0000 18.4811 0.0000 0.0000
# 5 0.0000 0.0000 0.0000 0.0000 29.3884 0.0000
# 6 0.0000 0.0000 0.0000 0.0000 0.0000 11.8604
#
#
#
# Elastic Compliance Matrix: (Units=1/GPa)
#
#
# Indices 1 2 3 4 5 6 
#
# 1 0.012727 -0.002989 -0.005328 0.000000 0.000000 0.000000
# 2 -0.002989 0.020465 -0.003893 0.000000 0.000000 0.000000
# 3 -0.005328 -0.003893 0.012576 0.000000 0.000000 0.000000
# 4 0.000000 0.000000 0.000000 0.054109 0.000000 0.000000
# 5 0.000000 0.000000 0.000000 0.000000 0.034027 0.000000
# 6 0.000000 0.000000 0.000000 0.000000 0.000000 0.084314
#
#
# Mechanical properties :
#
#
# Convention : Reuss Voigt Hill
#
# Bulk Modulus (GPa) = 46.84143 54.65390 50.74767
# Shear Modulus (GPa) = 20.01963 23.15607 21.58785
#
# Velocity S-wave (km/s) = 3.55900 3.82766 3.69577
# Velocity P-wave (km/s) = 6.82096 7.35625 7.09365
#
# Compressibility (1/GPa) = 0.02134862
#
# Stress axis : x y z
#
# Youngs Moduli (GPa) = 78.57135 48.86484 79.51427
#
# Poissons Ratio (x) = 0.14605 0.42363
# Poissons Ratio (y) = 0.23484 0.30956
# Poissons Ratio (z) = 0.41861 0.19024
#
# Static dielectric constant tensor:
#      x y z
#    x 3.068740 0.000000 0.000000 
#    y 0.000000 2.670010 0.000000 
#    z 0.000000 0.000000 3.111940 
# 
# 
# High freq. dielectric constant tensor:
#      x y z
#    x 1.607080 0.000000 0.000000 
#    y 0.000000 1.551970 0.000000 
#    z 0.000000 0.000000 1.630030 
# 
# From -- ./inp_files/6606.got.cif
#   From: 2010.03.12/outbox.cif.g09.slc.cpg/sg49_4_cif.got.tgz:6606.got - 2010.04.14 03:58:27.
