data_PCOD8202447
_publ_section_title
;
Structure prediction by ZEFSAII (Michael W. Deem and Ramdas Pophale) SiO2 
 PCOD8202447
Probable space group: P C C M
;
_chemical_formula_sum "Si O2"
_cell_formula_units_Z 56
_cell_length_a 14.161564
_cell_length_b 24.476643
_cell_length_c 10.142411
_cell_angle_alpha 90.000000
_cell_angle_beta 90.000000
_cell_angle_gamma 90.000000
_cell_volume 3515.639039
_symmetry_space_group_name_H-M "P C C M"
_symmetry_group_IT_number 49
_symmetry_cell_setting 'orthorhombic'
loop_
_space_group_symop_operation_xyz
x,y,z
-x,-y,z
x,-y,1/2-z
-x,y,1/2-z
-x,-y,-z
x,y,-z
-x,y,1/2+z
x,-y,1/2+z
loop_
_atom_site_type_symbol
_atom_site_label
_atom_site_fract_x
_atom_site_fract_y
_atom_site_fract_z
Si Si1 0.412565 0.651206 0.846589
Si Si2 0.577431 0.841863 0.651027
Si Si3 0.716097 0.251092 0.152151
Si Si4 0.283483 0.546054 0.850294
Si Si5 0.078890 0.410145 0.648893
Si Si6 0.599350 0.032642 0.140527
Si Si7 0.918358 0.718629 0.652138
O O1 0.500000 0.642876 0.750000
O O2 0.355512 0.703691 0.790626
O O3 0.346659 0.599042 0.831664
O O4 0.444468 0.658994 0.000000
O O5 0.500000 0.816827 0.750000
O O6 0.543045 0.834291 0.500000
O O7 0.674949 0.809648 0.675553
O O8 0.589632 0.905213 0.686166
O O9 0.822047 0.254102 0.209236
O O10 0.726943 0.266318 0.000000
O O11 0.320198 0.500000 0.750000
O O12 0.175947 0.560356 0.815216
O O13 0.291717 0.524110 0.000000
O O14 0.046272 0.424044 0.500000
O O15 0.094737 0.345881 0.664240
O O16 0.000000 0.431897 0.750000
O O17 0.500000 0.000000 0.129873
O O18 0.660937 0.000000 0.250000
O O19 0.651761 0.030551 0.000000
O O20 0.940744 0.735468 0.500000
O O21 0.000000 0.739853 0.750000
#
# Coordination Sequence:
#
# PCOD8202447 Si02
#       7
#     8   8   8   8   8   8   8
#     4  10  20  36  53  68  90 121 154 191 233 272
#     4  10  18  27  42  65  92 127 164 191 222 263
#     4   9  17  31  50  69  93 123 154 188 229 279
#     4  10  21  36  52  69  92 120 151 188 232 279
#     4   9  17  31  51  72  93 118 145 179 227 282
#     4   9  15  24  38  57  86 124 159 190 221 255
#     4   9  16  30  51  71  91 118 149 183 227 279
#
# _framework density 15.928824000000001
#
# number of rings (size 3 to 8) (size 9 to 14) (size 15 to 20)
#    0.000    2.571    2.857    0.429    0.000    1.714 
#    0.000    4.286    0.000    0.000    0.000    0.000 
#    0.000    0.571    0.000    7.143    0.000    0.000 
#
# Total GULP energy -693970.367240 kJ/mol
# GULP energy per Si atom -12392.327986 kJ/mol
# Density = 1.589257 g / cm^3
# Si number density = 15.928824 Si / 1000 Ang^3
#
#
#
# Elastic Constant Matrix: (Units=GPa)
#
#
# Indices 1 2 3 4 5 6 
#
# 1 75.2005 35.9378 48.3455 0.0000 0.0000 0.0000
# 2 35.9378 78.0957 34.5224 0.0000 0.0000 0.0000
# 3 48.3455 34.5224 87.9749 0.0000 0.0000 0.0000
# 4 0.0000 0.0000 0.0000 16.1003 0.0000 0.0000
# 5 0.0000 0.0000 0.0000 0.0000 22.4612 0.0000
# 6 0.0000 0.0000 0.0000 0.0000 0.0000 13.1766
#
#
#
# Elastic Compliance Matrix: (Units=1/GPa)
#
#
# Indices 1 2 3 4 5 6 
#
# 1 0.022638 -0.005950 -0.010105 0.000000 0.000000 0.000000
# 2 -0.005950 0.017056 -0.003423 0.000000 0.000000 0.000000
# 3 -0.010105 -0.003423 0.018264 0.000000 0.000000 0.000000
# 4 0.000000 0.000000 0.000000 0.062111 0.000000 0.000000
# 5 0.000000 0.000000 0.000000 0.000000 0.044521 0.000000
# 6 0.000000 0.000000 0.000000 0.000000 0.000000 0.075892
#
#
# Mechanical properties :
#
#
# Convention : Reuss Voigt Hill
#
# Bulk Modulus (GPa) = 52.63193 53.20917 52.92055
# Shear Modulus (GPa) = 17.49640 18.51197 18.00419
#
# Velocity S-wave (km/s) = 3.31782 3.41276 3.36563
# Velocity P-wave (km/s) = 6.91310 7.00043 6.95690
#
# Compressibility (1/GPa) = 0.01899987
#
# Stress axis : x y z
#
# Youngs Moduli (GPa) = 44.17330 58.62961 54.75399
#
# Poissons Ratio (x) = 0.34887 0.55332
# Poissons Ratio (y) = 0.26285 0.18743
# Poissons Ratio (z) = 0.44639 0.20070
#
# Static dielectric constant tensor:
#      x y z
#    x 2.905710 0.000000 0.000000 
#    y 0.000000 2.934720 0.000000 
#    z 0.000000 0.000000 3.821470 
# 
# 
# High freq. dielectric constant tensor:
#      x y z
#    x 1.583960 0.000000 0.000000 
#    y 0.000000 1.603640 0.000000 
#    z 0.000000 0.000000 1.613910 
# 
# From -- ./inp_files/8930.got.cif
#   From: 2010.03.12/outbox.cif.g09.slc.cpg/sg49_5_cif.got.tgz:8930.got - 2010.04.14 03:58:27.
