data_PCOD8202353
_publ_section_title
;
Structure prediction by ZEFSAII (Michael W. Deem and Ramdas Pophale) SiO2 
 PCOD8202353
Probable space group: P C C M
;
_chemical_formula_sum "Si O2"
_cell_formula_units_Z 64
_cell_length_a 22.939759
_cell_length_b 17.543546
_cell_length_c 8.755832
_cell_angle_alpha 90.000000
_cell_angle_beta 90.000000
_cell_angle_gamma 90.000000
_cell_volume 3523.738333
_symmetry_space_group_name_H-M "P C C M"
_symmetry_group_IT_number 49
_symmetry_cell_setting 'orthorhombic'
loop_
_space_group_symop_operation_xyz
x,y,z
-x,-y,z
x,-y,1/2-z
-x,y,1/2-z
-x,-y,-z
x,y,-z
-x,y,1/2+z
x,-y,1/2+z
loop_
_atom_site_type_symbol
_atom_site_label
_atom_site_fract_x
_atom_site_fract_y
_atom_site_fract_z
Si Si1 0.153350 0.419694 0.320915
Si Si2 0.670825 0.210638 0.178968
Si Si3 0.761307 0.919150 0.679413
Si Si4 0.241479 0.683799 0.328037
Si Si5 0.563164 0.730497 0.180971
Si Si6 0.062276 0.711595 0.821596
Si Si7 0.148271 0.817459 0.328904
Si Si8 0.435468 0.575215 0.182437
O O1 0.134949 0.500000 0.250000
O O2 0.162937 0.427938 0.500000
O O3 0.214297 0.391782 0.247652
O O4 0.101910 0.361055 0.281195
O O5 0.708799 0.137256 0.225394
O O6 0.704137 0.287720 0.228474
O O7 0.609381 0.204417 0.269897
O O8 0.658317 0.213673 0.000000
O O9 0.767629 0.926386 0.500000
O O10 0.823079 0.889209 0.743132
O O11 0.745379 0.000000 0.750000
O O12 0.262385 0.665405 0.500000
O O13 0.193046 0.748498 0.328127
O O14 0.500000 0.750115 0.250000
O O15 0.591482 0.653433 0.253529
O O16 0.557288 0.723472 0.000000
O O17 0.089714 0.789507 0.754870
O O18 0.000000 0.695532 0.750000
O O19 0.055621 0.723339 0.000000
O O20 0.132296 0.842945 0.500000
O O21 0.402568 0.500000 0.250000
O O22 0.500000 0.574314 0.250000
O O23 0.435414 0.573990 0.000000
#
# Coordination Sequence:
#
# PCOD8202353 Si02
#       8
#     8   8   8   8   8   8   8   8
#     4  10  20  33  49  70  99 136 176 222 270 315
#     4  10  20  35  54  78 106 135 167 207 252 303
#     4  10  20  34  56  84 112 137 166 205 252 303
#     4   9  17  31  51  73  96 127 166 209 257 307
#     4  11  21  34  52  75 103 138 177 215 257 307
#     4  10  20  33  50  73 102 138 181 222 263 308
#     4   9  17  31  52  76 103 133 168 208 252 300
#     4  10  17  28  45  66  92 123 161 204 247 289
#
# _framework density 18.16253
#
# number of rings (size 3 to 8) (size 9 to 14) (size 15 to 20)
#    0.000    2.125    0.000    5.625    0.000    6.250 
#    0.000    1.875    0.000    0.750    0.000    5.250 
#    0.000    0.000    0.000    0.000    0.000    0.000 
#
# Total GULP energy -793516.530522 kJ/mol
# GULP energy per Si atom -12398.695789 kJ/mol
# Density = 1.812119 g / cm^3
# Si number density = 18.162530 Si / 1000 Ang^3
#
#
#
# Elastic Constant Matrix: (Units=GPa)
#
#
# Indices 1 2 3 4 5 6 
#
# 1 87.5068 48.5957 49.7589 0.0000 0.0000 0.0000
# 2 48.5957 90.6445 54.9434 0.0000 0.0000 0.0000
# 3 49.7589 54.9434 136.6513 0.0000 0.0000 0.0000
# 4 0.0000 0.0000 0.0000 30.6412 0.0000 0.0000
# 5 0.0000 0.0000 0.0000 0.0000 31.9827 0.0000
# 6 0.0000 0.0000 0.0000 0.0000 0.0000 13.0923
#
#
#
# Elastic Compliance Matrix: (Units=1/GPa)
#
#
# Indices 1 2 3 4 5 6 
#
# 1 0.017402 -0.007257 -0.003419 0.000000 0.000000 0.000000
# 2 -0.007257 0.017614 -0.004439 0.000000 0.000000 0.000000
# 3 -0.003419 -0.004439 0.010348 0.000000 0.000000 0.000000
# 4 0.000000 0.000000 0.000000 0.032636 0.000000 0.000000
# 5 0.000000 0.000000 0.000000 0.000000 0.031267 0.000000
# 6 0.000000 0.000000 0.000000 0.000000 0.000000 0.076381
#
#
# Mechanical properties :
#
#
# Convention : Reuss Voigt Hill
#
# Bulk Modulus (GPa) = 66.08169 69.04429 67.56299
# Shear Modulus (GPa) = 22.63252 25.91022 24.27137
#
# Velocity S-wave (km/s) = 3.53386 3.78110 3.65957
# Velocity P-wave (km/s) = 7.28789 7.56039 7.42539
#
# Compressibility (1/GPa) = 0.01513278
#
# Stress axis : x y z
#
# Youngs Moduli (GPa) = 57.46535 56.77410 96.64012
#
# Poissons Ratio (x) = 0.41202 0.33038
# Poissons Ratio (y) = 0.41703 0.42902
# Poissons Ratio (z) = 0.19645 0.25204
#
# Static dielectric constant tensor:
#      x y z
#    x 3.218490 0.000000 0.000000 
#    y 0.000000 3.670160 0.000000 
#    z 0.000000 0.000000 3.508290 
# 
# 
# High freq. dielectric constant tensor:
#      x y z
#    x 1.687210 0.000000 0.000000 
#    y 0.000000 1.680860 0.000000 
#    z 0.000000 0.000000 1.724530 
# 
# From -- ./inp_files/5953.got.cif
#   From: 2010.03.12/outbox.cif.g09.slc.cpg/sg49_3_cif.got.tgz:5953.got - 2010.04.14 03:58:27.
