data_PCOD8202634
_publ_section_title
;
Structure prediction by ZEFSAII (Michael W. Deem and Ramdas Pophale) SiO2 
 PCOD8202634
Probable space group: P C C M
;
_chemical_formula_sum "Si O2"
_cell_formula_units_Z 64
_cell_length_a 19.614613
_cell_length_b 20.383950
_cell_length_c 8.818834
_cell_angle_alpha 90.000000
_cell_angle_beta 90.000000
_cell_angle_gamma 90.000000
_cell_volume 3525.975230
_symmetry_space_group_name_H-M "P C C M"
_symmetry_group_IT_number 49
_symmetry_cell_setting 'orthorhombic'
loop_
_space_group_symop_operation_xyz
x,y,z
-x,-y,z
x,-y,1/2-z
-x,y,1/2-z
-x,-y,-z
x,y,-z
-x,y,1/2+z
x,-y,1/2+z
loop_
_atom_site_type_symbol
_atom_site_label
_atom_site_fract_x
_atom_site_fract_y
_atom_site_fract_z
Si Si1 0.348672 0.314981 0.822303
Si Si2 0.659815 0.065601 0.178089
Si Si3 0.201916 0.264361 0.174826
Si Si4 0.428241 0.429901 0.681006
Si Si5 0.067960 0.114335 0.672191
Si Si6 0.425931 0.192945 0.679742
Si Si7 0.793810 0.884504 0.179188
Si Si8 0.067075 0.270659 0.330342
O O1 0.268046 0.308336 0.794165
O O2 0.370472 0.379308 0.731019
O O3 0.387114 0.252672 0.756394
O O4 0.365842 0.321644 0.000000
O O5 0.613025 0.126671 0.224237
O O6 0.735406 0.073078 0.243660
O O7 0.626945 0.000000 0.250000
O O8 0.664466 0.057260 0.000000
O O9 0.216188 0.190684 0.233686
O O10 0.137043 0.297114 0.256681
O O11 0.182492 0.260500 0.000000
O O12 0.408429 0.500000 0.750000
O O13 0.500000 0.405536 0.750000
O O14 0.433594 0.434339 0.500000
O O15 0.071790 0.089296 0.500000
O O16 0.133428 0.088229 0.763895
O O17 0.066095 0.192562 0.680006
O O18 0.000000 0.085350 0.750000
O O19 0.500000 0.187863 0.750000
O O20 0.429735 0.204212 0.500000
O O21 0.788543 0.892098 0.000000
O O22 0.065373 0.296857 0.500000
O O23 0.000000 0.299990 0.250000
#
# Coordination Sequence:
#
# PCOD8202634 Si02
#       8
#     8   8   8   8   8   8   8   8
#     4  11  21  36  57  83 114 147 181 222 268 318
#     4  11  24  40  58  78 101 132 172 219 270 326
#     4   9  18  30  48  73 103 138 174 215 264 314
#     4  11  22  38  58  82 112 149 188 227 267 317
#     4   9  16  26  42  68  98 131 168 210 256 309
#     4  11  24  40  59  82 107 136 173 218 268 323
#     4  10  18  32  52  74 100 133 170 214 264 317
#     4   9  16  25  40  63  97 136 174 215 259 310
#
# _framework density 18.151005999999999
#
# number of rings (size 3 to 8) (size 9 to 14) (size 15 to 20)
#    0.000    1.875    1.250    4.125    0.000    6.250 
#    0.000    1.250    0.000    0.375    0.000    2.625 
#    0.000    0.500    0.000    5.250    0.000    2.500 
#
# Total GULP energy -793742.570032 kJ/mol
# GULP energy per Si atom -12402.227657 kJ/mol
# Density = 1.810969 g / cm^3
# Si number density = 18.151006 Si / 1000 Ang^3
#
#
#
# Elastic Constant Matrix: (Units=GPa)
#
#
# Indices 1 2 3 4 5 6 
#
# 1 120.8488 42.6399 61.8064 0.0000 0.0000 0.0000
# 2 42.6399 71.0050 45.7048 0.0000 0.0000 0.0000
# 3 61.8064 45.7048 109.2233 0.0000 0.0000 0.0000
# 4 0.0000 0.0000 0.0000 24.3265 0.0000 0.0000
# 5 0.0000 0.0000 0.0000 0.0000 34.0938 0.0000
# 6 0.0000 0.0000 0.0000 0.0000 0.0000 7.3995
#
#
#
# Elastic Compliance Matrix: (Units=1/GPa)
#
#
# Indices 1 2 3 4 5 6 
#
# 1 0.012430 -0.004020 -0.005352 0.000000 0.000000 0.000000
# 2 -0.004020 0.020575 -0.006335 0.000000 0.000000 0.000000
# 3 -0.005352 -0.006335 0.014835 0.000000 0.000000 0.000000
# 4 0.000000 0.000000 0.000000 0.041107 0.000000 0.000000
# 5 0.000000 0.000000 0.000000 0.000000 0.029331 0.000000
# 6 0.000000 0.000000 0.000000 0.000000 0.000000 0.135145
#
#
# Mechanical properties :
#
#
# Convention : Reuss Voigt Hill
#
# Bulk Modulus (GPa) = 60.87511 66.81991 63.84751
# Shear Modulus (GPa) = 17.22281 23.22569 20.22425
#
# Velocity S-wave (km/s) = 3.08370 3.58100 3.34162
# Velocity P-wave (km/s) = 6.80367 7.34788 7.08101
#
# Compressibility (1/GPa) = 0.01642707
#
# Stress axis : x y z
#
# Youngs Moduli (GPa) = 80.44910 48.60207 67.40826
#
# Poissons Ratio (x) = 0.19536 0.36076
# Poissons Ratio (y) = 0.32338 0.42704
# Poissons Ratio (z) = 0.43055 0.30790
#
# Static dielectric constant tensor:
#      x y z
#    x 3.507940 0.000000 0.000000 
#    y 0.000000 3.110350 0.000000 
#    z 0.000000 0.000000 3.511740 
# 
# 
# High freq. dielectric constant tensor:
#      x y z
#    x 1.712900 0.000000 0.000000 
#    y 0.000000 1.658430 0.000000 
#    z 0.000000 0.000000 1.720470 
# 
# From -- ./inp_files/5286.got.cif
#   From: 2010.03.12/outbox.cif.g09.slc.cpg/sg49_3_cif.got.tgz:5286.got - 2010.04.14 03:58:27.
