data_PCOD8202283
_publ_section_title
;
Structure prediction by ZEFSAII (Michael W. Deem and Ramdas Pophale) SiO2 
 PCOD8202283
Probable space group: P C C M
;
_chemical_formula_sum "Si O2"
_cell_formula_units_Z 56
_cell_length_a 17.425249
_cell_length_b 22.975312
_cell_length_c 8.782356
_cell_angle_alpha 90.000000
_cell_angle_beta 90.000000
_cell_angle_gamma 90.000000
_cell_volume 3516.020901
_symmetry_space_group_name_H-M "P C C M"
_symmetry_group_IT_number 49
_symmetry_cell_setting 'orthorhombic'
loop_
_space_group_symop_operation_xyz
x,y,z
-x,-y,z
x,-y,1/2-z
-x,y,1/2-z
-x,-y,-z
x,y,-z
-x,y,1/2+z
x,-y,1/2+z
loop_
_atom_site_type_symbol
_atom_site_label
_atom_site_fract_x
_atom_site_fract_y
_atom_site_fract_z
Si Si1 0.084806 0.823554 0.318336
Si Si2 0.928675 0.368277 0.165082
Si Si3 0.303501 0.350250 0.829443
Si Si4 0.915188 0.942434 0.317496
Si Si5 0.175039 0.554201 0.665485
Si Si6 0.583837 0.560633 0.318086
Si Si7 0.194054 0.730751 0.829844
O O1 0.076499 0.827801 0.500000
O O2 0.120702 0.882977 0.247880
O O3 0.148474 0.776098 0.275304
O O4 0.000000 0.809466 0.250000
O O5 0.902708 0.426701 0.250446
O O6 0.858645 0.324909 0.152589
O O7 0.000000 0.337913 0.250000
O O8 0.958115 0.386545 0.000000
O O9 0.232249 0.392606 0.843770
O O10 0.367833 0.382575 0.729564
O O11 0.274092 0.290324 0.748840
O O12 0.334540 0.335782 0.000000
O O13 0.914742 0.942992 0.500000
O O14 0.000000 0.943497 0.250000
O O15 0.872022 0.000000 0.250000
O O16 0.214726 0.500000 0.750000
O O17 0.151634 0.532226 0.500000
O O18 0.618168 0.500000 0.250000
O O19 0.500000 0.570130 0.250000
O O20 0.581443 0.555743 0.500000
O O21 0.211047 0.756017 0.000000
#
# Coordination Sequence:
#
# PCOD8202283 Si02
#       7
#     8   8   8   8   8   8   8
#     4  11  20  30  44  63  86 115 151 192 232 270
#     4  10  20  32  45  58  75  97 127 166 209 251
#     4  10  20  34  50  68  89 113 138 169 208 254
#     4  10  17  27  41  59  83 111 144 184 229 274
#     4  10  20  32  46  61  78  99 127 160 200 247
#     4  11  21  34  52  74  97 119 143 174 211 257
#     4  10  20  33  47  64  84 110 142 177 216 259
#
# _framework density 15.927094
#
# number of rings (size 3 to 8) (size 9 to 14) (size 15 to 20)
#    0.000    1.714    0.000    8.143    0.000    6.000 
#    0.000    1.429    0.000    0.000    0.000    0.000 
#    0.000    0.000    0.000    0.000    0.000    0.714 
#
# Total GULP energy -693951.487710 kJ/mol
# GULP energy per Si atom -12391.990852 kJ/mol
# Density = 1.589084 g / cm^3
# Si number density = 15.927094 Si / 1000 Ang^3
#
#
#
# Elastic Constant Matrix: (Units=GPa)
#
#
# Indices 1 2 3 4 5 6 
#
# 1 46.6009 22.9511 30.9818 0.0000 0.0000 0.0000
# 2 22.9511 78.1761 42.7045 0.0000 0.0000 0.0000
# 3 30.9818 42.7045 168.2865 0.0000 0.0000 0.0000
# 4 0.0000 0.0000 0.0000 23.6570 0.0000 0.0000
# 5 0.0000 0.0000 0.0000 0.0000 18.3683 0.0000
# 6 0.0000 0.0000 0.0000 0.0000 0.0000 21.2383
#
#
#
# Elastic Compliance Matrix: (Units=1/GPa)
#
#
# Indices 1 2 3 4 5 6 
#
# 1 0.026655 -0.005973 -0.003392 0.000000 0.000000 0.000000
# 2 -0.005973 0.016189 -0.003008 0.000000 0.000000 0.000000
# 3 -0.003392 -0.003008 0.007330 0.000000 0.000000 0.000000
# 4 0.000000 0.000000 0.000000 0.042271 0.000000 0.000000
# 5 0.000000 0.000000 0.000000 0.000000 0.054441 0.000000
# 6 0.000000 0.000000 0.000000 0.000000 0.000000 0.047085
#
#
# Mechanical properties :
#
#
# Convention : Reuss Voigt Hill
#
# Bulk Modulus (GPa) = 39.32637 54.03757 46.68197
# Shear Modulus (GPa) = 22.00775 25.74780 23.87777
#
# Velocity S-wave (km/s) = 3.72126 4.02506 3.87614
# Velocity P-wave (km/s) = 6.57334 7.45676 7.02894
#
# Compressibility (1/GPa) = 0.02542823
#
# Stress axis : x y z
#
# Youngs Moduli (GPa) = 37.51597 61.77219 136.42442
#
# Poissons Ratio (x) = 0.36895 0.46270
# Poissons Ratio (y) = 0.22408 0.41042
# Poissons Ratio (z) = 0.12724 0.18584
#
# Static dielectric constant tensor:
#      x y z
#    x 2.696060 0.000000 0.000000 
#    y 0.000000 3.483900 0.000000 
#    z 0.000000 0.000000 3.489280 
# 
# 
# High freq. dielectric constant tensor:
#      x y z
#    x 1.560120 0.000000 0.000000 
#    y 0.000000 1.592400 0.000000 
#    z 0.000000 0.000000 1.642760 
# 
# From -- ./inp_files/5155.got.cif
#   From: 2010.03.12/outbox.cif.g09.slc.cpg/sg49_3_cif.got.tgz:5155.got - 2010.04.14 03:58:27.
