data_PCOD8202508
_publ_section_title
;
Structure prediction by ZEFSAII (Michael W. Deem and Ramdas Pophale) SiO2 
 PCOD8202508
Probable space group: P C C M
;
_chemical_formula_sum "Si O2"
_cell_formula_units_Z 64
_cell_length_a 16.297250
_cell_length_b 13.495697
_cell_length_c 17.251011
_cell_angle_alpha 90.000000
_cell_angle_beta 90.000000
_cell_angle_gamma 90.000000
_cell_volume 3794.234764
_symmetry_space_group_name_H-M "P C C M"
_symmetry_group_IT_number 49
_symmetry_cell_setting 'orthorhombic'
loop_
_space_group_symop_operation_xyz
x,y,z
-x,-y,z
x,-y,1/2-z
-x,y,1/2-z
-x,-y,-z
x,y,-z
-x,y,1/2+z
x,-y,1/2+z
loop_
_atom_site_type_symbol
_atom_site_label
_atom_site_fract_x
_atom_site_fract_y
_atom_site_fract_z
Si Si1 0.441697 0.742345 0.683882
Si Si2 0.336406 0.109125 0.722087
Si Si3 0.694268 0.587848 0.195195
Si Si4 0.835157 0.525811 0.912484
Si Si5 0.105138 0.301945 0.586034
Si Si6 0.051003 0.671469 0.676233
Si Si7 0.541660 0.893776 0.590436
Si Si8 0.807110 0.752174 0.266677
O O1 0.500000 0.694781 0.750000
O O2 0.397363 0.833899 0.722742
O O3 0.379570 0.654116 0.658635
O O4 0.487926 0.795327 0.611919
O O5 0.370902 0.114861 0.634345
O O6 0.245145 0.148769 0.736591
O O7 0.333573 0.000000 0.750000
O O8 0.659634 0.500000 0.250000
O O9 0.744889 0.539715 0.124316
O O10 0.752079 0.655772 0.249074
O O11 0.866694 0.414909 0.912979
O O12 0.901290 0.580936 0.860637
O O13 0.832042 0.568259 0.000000
O O14 0.114592 0.257026 0.500000
O O15 0.163575 0.245685 0.644832
O O16 0.010597 0.285794 0.611850
O O17 0.116144 0.754554 0.706466
O O18 0.000000 0.631004 0.750000
O O19 0.560629 0.888426 0.500000
O O20 0.500000 0.000000 0.611825
#
# Coordination Sequence:
#
# PCOD8202508 Si02
#       8
#     8   8   8   8   8   8   8   8
#     4   9  19  32  52  77  97 132 173 208 251 299
#     4  10  18  33  55  74  99 128 162 213 255 300
#     4  10  18  32  49  68 103 140 171 207 245 294
#     4  10  19  29  44  70 100 132 167 204 253 302
#     4  10  18  29  46  69  98 131 166 205 249 296
#     4   9  18  29  46  67  96 127 168 215 252 293
#     4  10  19  32  53  81 108 130 161 213 271 316
#     4   9  19  31  47  74  94 129 173 204 251 301
#
# _framework density 16.867697
#
# number of rings (size 3 to 8) (size 9 to 14) (size 15 to 20)
#    0.000    2.375    2.500    0.750    0.000    3.750 
#    0.000    0.000    0.000    4.125    0.000    4.375 
#    0.000    0.000    0.000    0.000    0.000    0.000 
#
# Total GULP energy -793061.607692 kJ/mol
# GULP energy per Si atom -12391.587620 kJ/mol
# Density = 1.682931 g / cm^3
# Si number density = 16.867697 Si / 1000 Ang^3
#
#
#
# Elastic Constant Matrix: (Units=GPa)
#
#
# Indices 1 2 3 4 5 6 
#
# 1 90.5956 44.8410 39.4259 0.0000 0.0000 0.0000
# 2 44.8410 43.7652 28.9128 0.0000 0.0000 0.0000
# 3 39.4259 28.9128 92.1437 0.0000 0.0000 0.0000
# 4 0.0000 0.0000 0.0000 13.7565 0.0000 0.0000
# 5 0.0000 0.0000 0.0000 0.0000 18.3902 0.0000
# 6 0.0000 0.0000 0.0000 0.0000 0.0000 22.6568
#
#
#
# Elastic Compliance Matrix: (Units=1/GPa)
#
#
# Indices 1 2 3 4 5 6 
#
# 1 0.023075 -0.021596 -0.003097 0.000000 0.000000 0.000000
# 2 -0.021596 0.049037 -0.006146 0.000000 0.000000 0.000000
# 3 -0.003097 -0.006146 0.014106 0.000000 0.000000 0.000000
# 4 0.000000 0.000000 0.000000 0.072693 0.000000 0.000000
# 5 0.000000 0.000000 0.000000 0.000000 0.054377 0.000000
# 6 0.000000 0.000000 0.000000 0.000000 0.000000 0.044137
#
#
# Mechanical properties :
#
#
# Convention : Reuss Voigt Hill
#
# Bulk Modulus (GPa) = 40.75080 50.31822 45.53451
# Shear Modulus (GPa) = 15.27730 18.51569 16.89650
#
# Velocity S-wave (km/s) = 3.01277 3.31675 3.16841
# Velocity P-wave (km/s) = 6.02610 6.67560 6.35915
#
# Compressibility (1/GPa) = 0.02453940
#
# Stress axis : x y z
#
# Youngs Moduli (GPa) = 43.33696 20.39283 70.89106
#
# Poissons Ratio (x) = 0.44041 0.21953
# Poissons Ratio (y) = 0.93592 0.43571
# Poissons Ratio (z) = 0.13420 0.12534
#
# Static dielectric constant tensor:
#      x y z
#    x 3.653160 0.000000 0.000000 
#    y 0.000000 2.853110 0.000000 
#    z 0.000000 0.000000 3.308020 
# 
# 
# High freq. dielectric constant tensor:
#      x y z
#    x 1.653260 0.000000 0.000000 
#    y 0.000000 1.618680 0.000000 
#    z 0.000000 0.000000 1.650010 
# 
# From -- ./inp_files/18023.got.cif
#   From: 2010.03.12/outbox.cif.g09.slc.cpg/sg49_10_cif.got.tgz:18023.got - 2010.04.14 03:58:27.
