data_PCOD8202222
_publ_section_title
;
Structure prediction by ZEFSAII (Michael W. Deem and Ramdas Pophale) SiO2 
 PCOD8202222
Probable space group: P C C M
;
_chemical_formula_sum "Si O2"
_cell_formula_units_Z 40
_cell_length_a 9.333674
_cell_length_b 26.096333
_cell_length_c 8.572497
_cell_angle_alpha 90.000000
_cell_angle_beta 90.000000
_cell_angle_gamma 90.000000
_cell_volume 2088.043083
_symmetry_space_group_name_H-M "P C C M"
_symmetry_group_IT_number 49
_symmetry_cell_setting 'orthorhombic'
loop_
_space_group_symop_operation_xyz
x,y,z
-x,-y,z
x,-y,1/2-z
-x,y,1/2-z
-x,-y,-z
x,y,-z
-x,y,1/2+z
x,-y,1/2+z
loop_
_atom_site_type_symbol
_atom_site_label
_atom_site_fract_x
_atom_site_fract_y
_atom_site_fract_z
Si Si1 0.340214 0.345670 0.684706
Si Si2 0.652993 0.053945 0.817741
Si Si3 0.842061 0.849634 0.316099
Si Si4 0.657901 0.758682 0.816087
Si Si5 0.339588 0.448503 0.184592
O O1 0.500000 0.344157 0.750000
O O2 0.338859 0.348557 0.500000
O O3 0.268963 0.292846 0.743985
O O4 0.261532 0.396586 0.753724
O O5 0.500000 0.070567 0.750000
O O6 0.768615 0.096625 0.773815
O O7 0.707310 0.000000 0.750000
O O8 0.633829 0.047614 0.000000
O O9 0.841122 0.838719 0.500000
O O10 0.758824 0.805263 0.227497
O O11 0.000000 0.852034 0.250000
O O12 0.500000 0.769218 0.750000
O O13 0.646398 0.752258 0.000000
O O14 0.261905 0.500000 0.250000
O O15 0.500000 0.447774 0.250000
O O16 0.340234 0.449573 0.000000
#
# Coordination Sequence:
#
# PCOD8202222 Si02
#       5
#     8   8   8   8   8
#     4  10  17  27  42  63  91 125 166 212 259 312
#     4  10  21  37  60  86 113 143 180 219 262 311
#     4  11  24  40  57  81 110 144 180 221 269 320
#     4  11  21  35  55  78 104 138 178 223 268 319
#     4  10  16  23  34  53  83 121 162 204 254 312
#
# _framework density 19.156693000000001
#
# number of rings (size 3 to 8) (size 9 to 14) (size 15 to 20)
#    0.000    1.600    0.000   10.800    0.000    5.200 
#    0.000    2.000    0.000    0.000    0.000    0.000 
#    0.000    0.800    0.000    8.000    0.000    7.800 
#
# Total GULP energy -495901.665637 kJ/mol
# GULP energy per Si atom -12397.541641 kJ/mol
# Density = 1.911309 g / cm^3
# Si number density = 19.156693 Si / 1000 Ang^3
#
#
#
# Elastic Constant Matrix: (Units=GPa)
#
#
# Indices 1 2 3 4 5 6 
#
# 1 68.0121 58.4022 35.1211 0.0000 0.0000 0.0000
# 2 58.4022 168.6698 78.8698 0.0000 0.0000 0.0000
# 3 35.1211 78.8698 178.0829 0.0000 0.0000 0.0000
# 4 0.0000 0.0000 0.0000 32.2318 0.0000 0.0000
# 5 0.0000 0.0000 0.0000 0.0000 17.8759 0.0000
# 6 0.0000 0.0000 0.0000 0.0000 0.0000 -3.9931
#
#
#
# Elastic Compliance Matrix: (Units=1/GPa)
#
#
# Indices 1 2 3 4 5 6 
#
# 1 0.021116 -0.006765 -0.001168 0.000000 0.000000 0.000000
# 2 -0.006765 0.009645 -0.002937 0.000000 0.000000 0.000000
# 3 -0.001168 -0.002937 0.007147 0.000000 0.000000 0.000000
# 4 0.000000 0.000000 0.000000 0.031025 0.000000 0.000000
# 5 0.000000 0.000000 0.000000 0.000000 0.055941 0.000000
# 6 0.000000 0.000000 0.000000 0.000000 0.000000 -0.250435
#
#
# Mechanical properties :
#
#
# Convention : Reuss Voigt Hill
#
# Bulk Modulus (GPa) = 61.85897 84.39455 73.12676
# Shear Modulus (GPa) = -50.79667 25.38103 -12.70782
#
# Velocity S-wave (km/s) = -5.15499 3.64389 -2.57838
# Velocity P-wave (km/s) = 1.75237 7.86476 5.42142
#
# Compressibility (1/GPa) = 0.01616580
#
# Stress axis : x y z
#
# Youngs Moduli (GPa) = 47.35805 103.68490 139.92641
#
# Poissons Ratio (x) = 0.70144 0.16347
# Poissons Ratio (y) = 0.32038 0.41100
# Poissons Ratio (z) = 0.05533 0.30455
#
# Static dielectric constant tensor:
#      x y z
#    x 3.036890 0.000000 0.000000 
#    y 0.000000 5.271510 0.000000 
#    z 0.000000 0.000000 3.667670 
# 
# 
# High freq. dielectric constant tensor:
#      x y z
#    x 1.676700 0.000000 0.000000 
#    y 0.000000 1.780560 0.000000 
#    z 0.000000 0.000000 1.769820 
# 
# From -- ./inp_files/1901.got.cif
#   From: 2010.03.12/outbox.cif.g09.slc.cpg/sg49_1_cif.got.tgz:1901.got - 2010.04.14 03:58:27.
