data_PCOD8202149
_publ_section_title
;
Structure prediction by ZEFSAII (Michael W. Deem and Ramdas Pophale) SiO2 
 PCOD8202149
Probable space group: P N N N
;
_chemical_formula_sum "Si O2"
_cell_formula_units_Z 60
_cell_length_a 21.012615
_cell_length_b 11.609527
_cell_length_c 11.486352
_cell_angle_alpha 90.000000
_cell_angle_beta 90.000000
_cell_angle_gamma 90.000000
_cell_volume 2802.055611
_symmetry_space_group_name_H-M "P N N N"
_symmetry_group_IT_number 48
_space_group.IT_coordinate_system_code '2'
_symmetry_cell_setting 'orthorhombic'
loop_
_space_group_symop_operation_xyz
x,y,z
1/2-x,1/2-y,z
x,1/2-y,1/2-z
1/2-x,y,1/2-z
-x,-y,-z
1/2+x,1/2+y,-z
-x,1/2+y,1/2+z
1/2+x,-y,1/2+z
loop_
_atom_site_type_symbol
_atom_site_label
_atom_site_fract_x
_atom_site_fract_y
_atom_site_fract_z
Si Si1 0.084716 0.676622 0.518212
Si Si2 0.939787 0.420446 0.720003
Si Si3 0.133354 0.268546 0.535342
Si Si4 0.951501 0.750000 0.250000
Si Si5 0.931769 0.065745 0.517700
Si Si6 0.682540 0.948965 0.110530
Si Si7 0.177785 0.502486 0.622946
Si Si8 0.037545 0.329646 0.352926
O O1 0.098654 0.646472 0.382498
O O2 0.073149 0.811182 0.546566
O O3 0.141488 0.622224 0.596416
O O4 0.017163 0.624537 0.559321
O O5 0.913054 0.403284 0.849632
O O6 0.934577 0.555243 0.700886
O O7 0.009864 0.365885 0.720804
O O8 0.088419 0.221215 0.637208
O O9 0.192967 0.180863 0.556647
O O10 0.151972 0.401943 0.540137
O O11 0.093695 0.256379 0.415725
O O12 0.875395 0.992467 0.465746
O O13 0.000000 0.000000 0.500000
O O14 0.665322 0.955487 0.247084
O O15 0.747575 0.021284 0.094713
O O16 0.009809 0.250000 0.250000
#
# Coordination Sequence:
#
# PCOD8202149 Si02
#       8
#     8   8   8   4   8   8   8   8
#     4  12  24  42  66  94 134 179 225 271 337 417
#     4  12  22  41  62  95 134 172 218 273 334 414
#     4  12  21  40  68  98 134 177 226 283 342 412
#     4  12  20  34  67  98 127 174 222 274 338 402
#     4  12  26  43  68 100 134 172 222 287 350 400
#     4  11  25  44  66  99 136 172 229 286 340 417
#     4  11  25  43  69  95 131 186 227 276 343 415
#     4  12  25  37  63 103 140 171 219 284 349 403
#
# _framework density 21.412852000000001
#
# number of rings (size 3 to 8) (size 9 to 14) (size 15 to 20)
#    0.000    0.267    5.333    4.800    3.733    1.600 
#    0.000    2.000    0.000    2.400    0.000    0.000 
#    0.000    0.000    0.000    0.000    0.000    0.000 
#
# Total GULP energy -743489.450485 kJ/mol
# GULP energy per Si atom -12391.490841 kJ/mol
# Density = 2.136412 g / cm^3
# Si number density = 21.412852 Si / 1000 Ang^3
#
#
#
# Elastic Constant Matrix: (Units=GPa)
#
#
# Indices 1 2 3 4 5 6 
#
# 1 93.6371 39.3543 33.5502 0.0000 0.0000 0.0000
# 2 39.3543 128.4800 24.8437 0.0000 0.0000 0.0000
# 3 33.5502 24.8437 94.1613 0.0000 0.0000 0.0000
# 4 0.0000 0.0000 0.0000 37.8998 0.0000 0.0000
# 5 0.0000 0.0000 0.0000 0.0000 -5.2793 0.0000
# 6 0.0000 0.0000 0.0000 0.0000 0.0000 -84.5584
#
#
#
# Elastic Compliance Matrix: (Units=1/GPa)
#
#
# Indices 1 2 3 4 5 6 
#
# 1 0.013504 -0.003378 -0.003920 0.000000 0.000000 0.000000
# 2 -0.003378 0.009047 -0.001183 0.000000 0.000000 0.000000
# 3 -0.003920 -0.001183 0.012329 0.000000 0.000000 0.000000
# 4 0.000000 0.000000 0.000000 0.026385 0.000000 0.000000
# 5 0.000000 0.000000 0.000000 0.000000 -0.189417 0.000000
# 6 0.000000 0.000000 0.000000 0.000000 0.000000 -0.011826
#
#
# Mechanical properties :
#
#
# Convention : Reuss Voigt Hill
#
# Bulk Modulus (GPa) = 55.81472 56.86387 56.33929
# Shear Modulus (GPa) = -42.71958 4.18108 -19.26925
#
# Velocity S-wave (km/s) = -4.47144 1.39887 -3.00307
# Velocity P-wave (km/s) = 0.73195 5.40580 3.78728
#
# Compressibility (1/GPa) = 0.01791642
#
# Stress axis : x y z
#
# Youngs Moduli (GPa) = 74.05206 110.53483 81.10921
#
# Poissons Ratio (x) = 0.37342 0.31797
# Poissons Ratio (y) = 0.25017 0.09597
# Poissons Ratio (z) = 0.29030 0.13079
#
# Static dielectric constant tensor:
#      x y z
#    x 3.644900 0.000000 0.000000 
#    y 0.000000 -3.031880 0.000000 
#    z 0.000000 0.000000 4.061800 
# 
# 
# High freq. dielectric constant tensor:
#      x y z
#    x 1.809060 0.000000 0.000000 
#    y 0.000000 1.854920 0.000000 
#    z 0.000000 0.000000 1.845640 
# 
# From -- ./inp_files/22949.got.cif
#   From: 2010.06.25/outbox.cif.g09.slc.cpg/sg48_12_cif.got.tgz:22949.got - 2010.06.26 18:06:46.
