data_PCOD8202036
_publ_section_title
;
Structure prediction by ZEFSAII (Michael W. Deem and Ramdas Pophale) SiO2 
 PCOD8202036
Probable space group: P N N N
;
_chemical_formula_sum "Si O2"
_cell_formula_units_Z 50
_cell_length_a 13.726392
_cell_length_b 8.934665
_cell_length_c 18.756702
_cell_angle_alpha 90.000000
_cell_angle_beta 90.000000
_cell_angle_gamma 90.000000
_cell_volume 2300.335329
_symmetry_space_group_name_H-M "P N N N"
_symmetry_group_IT_number 48
_space_group.IT_coordinate_system_code '2'
_symmetry_cell_setting 'orthorhombic'
loop_
_space_group_symop_operation_xyz
x,y,z
1/2-x,1/2-y,z
x,1/2-y,1/2-z
1/2-x,y,1/2-z
-x,-y,-z
1/2+x,1/2+y,-z
-x,1/2+y,1/2+z
1/2+x,-y,1/2+z
loop_
_atom_site_type_symbol
_atom_site_label
_atom_site_fract_x
_atom_site_fract_y
_atom_site_fract_z
Si Si1 0.841325 0.495253 0.457384
Si Si2 0.987644 0.265731 0.049808
Si Si3 0.158301 0.548514 0.865371
Si Si4 0.848371 0.312353 0.670466
Si Si5 0.828970 0.872887 0.891099
Si Si6 0.448531 0.230788 0.899183
Si Si7 0.750000 0.250000 0.250000
O O1 0.916500 0.365460 0.478095
O O2 0.752661 0.427837 0.413618
O O3 0.800730 0.567049 0.530044
O O4 0.894838 0.610512 0.404719
O O5 0.934312 0.391677 0.093121
O O6 0.066111 0.203171 0.105223
O O7 0.038671 0.333996 0.979468
O O8 0.124687 0.376075 0.853094
O O9 0.177967 0.640852 0.793557
O O10 0.750000 0.250000 0.631877
O O11 0.849508 0.250000 0.750000
O O12 0.839043 0.492723 0.666101
O O13 0.945810 0.248384 0.635332
O O14 0.750000 0.750000 0.865575
#
# Coordination Sequence:
#
# PCOD8202036 Si02
#       7
#     8   8   8   8   8   8   2
#     4  11  20  43  68 107 140 165 214 291 345 411
#     4  11  21  41  69 107 135 167 222 283 348 412
#     4  12  26  41  68  98 140 183 229 275 338 424
#     4  11  26  44  63  93 132 177 234 277 321 397
#     4  11  23  41  71 101 136 172 216 284 354 395
#     4  11  23  42  70 101 133 173 228 282 349 401
#     4  12  28  48  58 100 146 192 236 276 340 420
#
# _framework density 21.735963000000002
#
# number of rings (size 3 to 8) (size 9 to 14) (size 15 to 20)
#    0.000    0.800    4.800    3.840    4.480    2.560 
#    0.000    2.400    0.000    0.000    0.000    0.000 
#    0.000    0.000    0.000    0.000    0.000    0.000 
#
# Total GULP energy -619917.812716 kJ/mol
# GULP energy per Si atom -12398.356254 kJ/mol
# Density = 2.168649 g / cm^3
# Si number density = 21.735963 Si / 1000 Ang^3
#
#
#
# Elastic Constant Matrix: (Units=GPa)
#
#
# Indices 1 2 3 4 5 6 
#
# 1 109.7464 34.2036 34.7003 0.0000 0.0000 0.0000
# 2 34.2036 92.5727 43.2827 0.0000 0.0000 0.0000
# 3 34.7003 43.2827 75.6453 0.0000 0.0000 0.0000
# 4 0.0000 0.0000 0.0000 48.1354 0.0000 0.0000
# 5 0.0000 0.0000 0.0000 0.0000 150.6687 0.0000
# 6 0.0000 0.0000 0.0000 0.0000 0.0000 47.7523
#
#
#
# Elastic Compliance Matrix: (Units=1/GPa)
#
#
# Indices 1 2 3 4 5 6 
#
# 1 0.011014 -0.002331 -0.003719 0.000000 0.000000 0.000000
# 2 -0.002331 0.015241 -0.007651 0.000000 0.000000 0.000000
# 3 -0.003719 -0.007651 0.019303 0.000000 0.000000 0.000000
# 4 0.000000 0.000000 0.000000 0.020775 0.000000 0.000000
# 5 0.000000 0.000000 0.000000 0.000000 0.006637 0.000000
# 6 0.000000 0.000000 0.000000 0.000000 0.000000 0.020941
#
#
# Mechanical properties :
#
#
# Convention : Reuss Voigt Hill
#
# Bulk Modulus (GPa) = 55.07633 55.81529 55.44581
# Shear Modulus (GPa) = 39.25696 60.36311 49.81003
#
# Velocity S-wave (km/s) = 4.25441 5.27554 4.79225
# Velocity P-wave (km/s) = 7.03756 7.92736 7.49567
#
# Compressibility (1/GPa) = 0.01815662
#
# Stress axis : x y z
#
# Youngs Moduli (GPa) = 90.79207 65.61289 51.80408
#
# Poissons Ratio (x) = 0.15293 0.19265
# Poissons Ratio (y) = 0.21161 0.39637
# Poissons Ratio (z) = 0.33764 0.50203
#
# Static dielectric constant tensor:
#      x y z
#    x 4.235490 0.000000 0.000000 
#    y 0.000000 4.059030 0.000000 
#    z 0.000000 0.000000 3.606420 
# 
# 
# High freq. dielectric constant tensor:
#      x y z
#    x 1.872410 0.000000 0.000000 
#    y 0.000000 1.866370 0.000000 
#    z 0.000000 0.000000 1.823390 
# 
# From -- ./inp_files/31589.got.cif
#   From: 2010.06.25/outbox.cif.g09.slc.cpg/sg48_16_cif.got.tgz:31589.got - 2010.06.26 18:06:46.
