data_PCOD8202434
_publ_section_title
;
Structure prediction by ZEFSAII (Michael W. Deem and Ramdas Pophale) SiO2 
 PCOD8202434
Probable space group: P C C M
;
_chemical_formula_sum "Si O2"
_cell_formula_units_Z 64
_cell_length_a 27.750195
_cell_length_b 5.103596
_cell_length_c 24.966342
_cell_angle_alpha 90.000000
_cell_angle_beta 90.000000
_cell_angle_gamma 90.000000
_cell_volume 3535.877764
_symmetry_space_group_name_H-M "P C C M"
_symmetry_group_IT_number 49
_symmetry_cell_setting 'orthorhombic'
loop_
_space_group_symop_operation_xyz
x,y,z
-x,-y,z
x,-y,1/2-z
-x,y,1/2-z
-x,-y,-z
x,y,-z
-x,y,1/2+z
x,-y,1/2+z
loop_
_atom_site_type_symbol
_atom_site_label
_atom_site_fract_x
_atom_site_fract_y
_atom_site_fract_z
Si Si1 0.621213 0.939536 0.874582
Si Si2 0.468253 0.253386 0.059413
Si Si3 0.789272 0.092799 0.377964
Si Si4 0.707519 0.124583 0.939049
Si Si5 0.355161 0.440290 0.691549
Si Si6 0.886924 0.998645 0.061624
Si Si7 0.745243 0.601809 0.655512
Si Si8 0.052755 0.516518 0.938743
O O1 0.571701 0.822476 0.897120
O O2 0.644480 0.711526 0.840102
O O3 0.655667 0.003386 0.924512
O O4 0.615768 0.202073 0.837488
O O5 0.500000 0.500000 0.080607
O O6 0.500000 0.000000 0.052799
O O7 0.447011 0.325078 0.000000
O O8 0.779420 0.349174 0.342282
O O9 0.750464 0.082762 0.426735
O O10 0.842294 0.083962 0.401953
O O11 0.780931 0.849297 0.337550
O O12 0.717767 0.380664 0.902494
O O13 0.707435 0.213996 0.000000
O O14 0.377759 0.500000 0.750000
O O15 0.297907 0.377627 0.698721
O O16 0.911915 0.260981 0.085848
O O17 0.925016 0.768146 0.066281
O O18 0.869904 0.040322 0.000000
O O19 0.000000 0.500000 0.910697
O O20 0.045303 0.604961 0.000000
#
# Coordination Sequence:
#
# PCOD8202434 Si02
#       8
#     8   8   8   8   8   8   8   8
#     4  11  21  37  56  84 105 133 179 218 248 304
#     4  10  21  38  60  85 115 148 173 204 257 315
#     4  10  18  31  43  64 102 124 164 200 244 303
#     4   9  19  30  47  70 104 135 159 202 246 296
#     4  11  21  38  58  78 103 136 178 220 259 298
#     4  10  18  26  40  59  81 122 163 199 255 298
#     4   9  19  33  44  69  97 130 165 201 237 302
#     4   9  17  28  39  53  76 110 167 225 250 276
#
# _framework density 18.100173999999999
#
# number of rings (size 3 to 8) (size 9 to 14) (size 15 to 20)
#    0.750    1.375    1.250    3.000    0.000    2.500 
#    0.000    1.250    0.000    5.625    0.000    0.000 
#    0.000    0.000    0.000    0.000    0.000   43.750 
#
# Total GULP energy -792888.919060 kJ/mol
# GULP energy per Si atom -12388.889360 kJ/mol
# Density = 1.805898 g / cm^3
# Si number density = 18.100174 Si / 1000 Ang^3
#
#
#
# Elastic Constant Matrix: (Units=GPa)
#
#
# Indices 1 2 3 4 5 6 
#
# 1 87.8388 20.8649 16.3415 0.0000 0.0000 0.0000
# 2 20.8649 114.3623 14.3951 0.0000 0.0000 0.0000
# 3 16.3415 14.3951 40.1121 0.0000 0.0000 0.0000
# 4 0.0000 0.0000 0.0000 13.4853 0.0000 0.0000
# 5 0.0000 0.0000 0.0000 0.0000 11.4711 0.0000
# 6 0.0000 0.0000 0.0000 0.0000 0.0000 33.2853
#
#
#
# Elastic Compliance Matrix: (Units=1/GPa)
#
#
# Indices 1 2 3 4 5 6 
#
# 1 0.012639 -0.001736 -0.004526 0.000000 0.000000 0.000000
# 2 -0.001736 0.009396 -0.002665 0.000000 0.000000 0.000000
# 3 -0.004526 -0.002665 0.027730 0.000000 0.000000 0.000000
# 4 0.000000 0.000000 0.000000 0.074155 0.000000 0.000000
# 5 0.000000 0.000000 0.000000 0.000000 0.087176 0.000000
# 6 0.000000 0.000000 0.000000 0.000000 0.000000 0.030043
#
#
# Mechanical properties :
#
#
# Convention : Reuss Voigt Hill
#
# Bulk Modulus (GPa) = 31.33645 38.39066 34.86355
# Shear Modulus (GPa) = 18.54390 24.36244 21.45317
#
# Velocity S-wave (km/s) = 3.20428 3.67274 3.44648
# Velocity P-wave (km/s) = 5.57138 6.26430 5.92797
#
# Compressibility (1/GPa) = 0.03191172
#
# Stress axis : x y z
#
# Youngs Moduli (GPa) = 79.12073 106.42458 36.06162
#
# Poissons Ratio (x) = 0.18478 0.16321
# Poissons Ratio (y) = 0.13737 0.09610
# Poissons Ratio (z) = 0.35810 0.28359
#
# Static dielectric constant tensor:
#      x y z
#    x 3.182750 0.000000 0.000000 
#    y 0.000000 3.442920 0.000000 
#    z 0.000000 0.000000 2.930940 
# 
# 
# High freq. dielectric constant tensor:
#      x y z
#    x 1.689970 0.000000 0.000000 
#    y 0.000000 1.720550 0.000000 
#    z 0.000000 0.000000 1.645990 
# 
# From -- ./inp_files/23431.got.cif
#   From: 2010.03.12/outbox.cif.g09.slc.cpg/sg49_12_cif.got.tgz:23431.got - 2010.04.14 03:58:27.
