data_PCOD8202883
_publ_section_title
;
Structure prediction by ZEFSAII (Michael W. Deem and Ramdas Pophale) SiO2 
 PCOD8202883
Probable space group: P C C M
;
_chemical_formula_sum "Si O2"
_cell_formula_units_Z 64
_cell_length_a 15.205288
_cell_length_b 24.936516
_cell_length_c 8.916019
_cell_angle_alpha 90.000000
_cell_angle_beta 90.000000
_cell_angle_gamma 90.000000
_cell_volume 3380.659351
_symmetry_space_group_name_H-M "P C C M"
_symmetry_group_IT_number 49
_symmetry_cell_setting 'orthorhombic'
loop_
_space_group_symop_operation_xyz
x,y,z
-x,-y,z
x,-y,1/2-z
-x,y,1/2-z
-x,-y,-z
x,y,-z
-x,y,1/2+z
x,-y,1/2+z
loop_
_atom_site_type_symbol
_atom_site_label
_atom_site_fract_x
_atom_site_fract_y
_atom_site_fract_z
Si Si1 0.724610 0.351044 0.822899
Si Si2 0.591738 0.442772 0.820599
Si Si3 0.735552 0.052153 0.825866
Si Si4 0.086872 0.086791 0.172819
Si Si5 0.911260 0.313535 0.177579
Si Si6 0.411661 0.265982 0.328965
Si Si7 0.136932 0.794179 0.670952
Si Si8 0.305463 0.167846 0.670806
O O1 0.673218 0.404712 0.772959
O O2 0.825255 0.346599 0.762246
O O3 0.670000 0.299813 0.761981
O O4 0.730751 0.348131 0.000000
O O5 0.614495 0.500000 0.750000
O O6 0.500000 0.421073 0.750000
O O7 0.581378 0.446670 0.000000
O O8 0.831424 0.061123 0.757919
O O9 0.676277 0.105133 0.793502
O O10 0.690730 0.000000 0.750000
O O11 0.745001 0.040488 0.000000
O O12 0.083067 0.151041 0.190353
O O13 0.000000 0.062902 0.250000
O O14 0.091502 0.069450 0.000000
O O15 0.903973 0.251178 0.223000
O O16 0.000000 0.338427 0.250000
O O17 0.919966 0.317135 0.000000
O O18 0.500000 0.283503 0.250000
O O19 0.424303 0.282709 0.500000
O O20 0.394484 0.202248 0.309855
O O21 0.134778 0.773573 0.500000
O O22 0.236662 0.806680 0.715703
O O23 0.269233 0.173463 0.500000
#
# Coordination Sequence:
#
# PCOD8202883 Si02
#       8
#     8   8   8   8   8   8   8   8
#     4   9  19  35  55  77 112 151 183 220 272 320
#     4  10  19  34  56  84 114 150 187 226 272 322
#     4  10  20  34  52  71  90 123 164 209 258 315
#     4  10  20  32  46  67  95 125 162 209 257 313
#     4  11  21  35  52  74 106 146 187 229 270 319
#     4  10  19  34  54  81 110 142 173 210 263 323
#     4  10  19  31  49  74 101 134 176 218 261 311
#     4   9  18  34  54  72 101 138 170 205 262 320
#
# _framework density 18.931218000000001
#
# number of rings (size 3 to 8) (size 9 to 14) (size 15 to 20)
#    0.000    2.125    1.250    3.000    0.000    3.750 
#    0.000    4.375    0.000    0.750    0.000    5.250 
#    0.000    0.000    0.000    0.000    0.000    0.000 
#
# Total GULP energy -793312.216340 kJ/mol
# GULP energy per Si atom -12395.503380 kJ/mol
# Density = 1.888813 g / cm^3
# Si number density = 18.931218 Si / 1000 Ang^3
#
#
#
# Elastic Constant Matrix: (Units=GPa)
#
#
# Indices 1 2 3 4 5 6 
#
# 1 117.6621 52.9407 37.2929 0.0000 0.0000 0.0000
# 2 52.9407 101.6373 32.8412 0.0000 0.0000 0.0000
# 3 37.2929 32.8412 79.2045 0.0000 0.0000 0.0000
# 4 0.0000 0.0000 0.0000 19.7311 0.0000 0.0000
# 5 0.0000 0.0000 0.0000 0.0000 23.4477 0.0000
# 6 0.0000 0.0000 0.0000 0.0000 0.0000 25.4169
#
#
#
# Elastic Compliance Matrix: (Units=1/GPa)
#
#
# Indices 1 2 3 4 5 6 
#
# 1 0.011884 -0.005060 -0.003497 0.000000 0.000000 0.000000
# 2 -0.005060 0.013516 -0.003222 0.000000 0.000000 0.000000
# 3 -0.003497 -0.003222 0.015608 0.000000 0.000000 0.000000
# 4 0.000000 0.000000 0.000000 0.050681 0.000000 0.000000
# 5 0.000000 0.000000 0.000000 0.000000 0.042648 0.000000
# 6 0.000000 0.000000 0.000000 0.000000 0.000000 0.039344
#
#
# Mechanical properties :
#
#
# Convention : Reuss Voigt Hill
#
# Bulk Modulus (GPa) = 57.30799 60.51703 58.91251
# Shear Modulus (GPa) = 24.62376 25.41442 25.01909
#
# Velocity S-wave (km/s) = 3.61043 3.66794 3.63930
# Velocity P-wave (km/s) = 6.90780 7.06927 6.98900
#
# Compressibility (1/GPa) = 0.01744957
#
# Stress axis : x y z
#
# Youngs Moduli (GPa) = 84.14559 73.98879 64.06939
#
# Poissons Ratio (x) = 0.37439 0.22408
# Poissons Ratio (y) = 0.42579 0.20640
# Poissons Ratio (z) = 0.29430 0.23836
#
# Static dielectric constant tensor:
#      x y z
#    x 3.436000 0.000000 0.000000 
#    y 0.000000 3.538020 0.000000 
#    z 0.000000 0.000000 3.418490 
# 
# 
# High freq. dielectric constant tensor:
#      x y z
#    x 1.715360 0.000000 0.000000 
#    y 0.000000 1.724840 0.000000 
#    z 0.000000 0.000000 1.732350 
# 
# From -- ./inp_files/4389.got.cif
#   From: 2010.03.12/outbox.cif.g09.slc.cpg/sg49_3_cif.got.tgz:4389.got - 2010.04.14 03:58:27.
