data_PCOD8202574
_publ_section_title
;
Structure prediction by ZEFSAII (Michael W. Deem and Ramdas Pophale) SiO2 
 PCOD8202574
Probable space group: P C C M
;
_chemical_formula_sum "Si O2"
_cell_formula_units_Z 58
_cell_length_a 18.005144
_cell_length_b 18.579505
_cell_length_c 9.127133
_cell_angle_alpha 90.000000
_cell_angle_beta 90.000000
_cell_angle_gamma 90.000000
_cell_volume 3053.269345
_symmetry_space_group_name_H-M "P C C M"
_symmetry_group_IT_number 49
_symmetry_cell_setting 'orthorhombic'
loop_
_space_group_symop_operation_xyz
x,y,z
-x,-y,z
x,-y,1/2-z
-x,y,1/2-z
-x,-y,-z
x,y,-z
-x,y,1/2+z
x,-y,1/2+z
loop_
_atom_site_type_symbol
_atom_site_label
_atom_site_fract_x
_atom_site_fract_y
_atom_site_fract_z
Si Si1 0.793604 0.574544 0.167099
Si Si2 0.709999 0.303787 0.829707
Si Si3 0.500000 0.000000 0.750000
Si Si4 0.933703 0.326998 0.660400
Si Si5 0.614304 0.885522 0.663289
Si Si6 0.222734 0.149228 0.332701
Si Si7 0.428283 0.748948 0.327577
Si Si8 0.923280 0.834837 0.826037
O O1 0.803056 0.500000 0.250000
O O2 0.743992 0.623113 0.271038
O O3 0.871310 0.613923 0.159314
O O4 0.762856 0.564955 0.000000
O O5 0.760058 0.233390 0.802067
O O6 0.637989 0.298560 0.730444
O O7 0.690320 0.312195 0.000000
O O8 0.559260 0.953983 0.654997
O O9 0.965142 0.312082 0.500000
O O10 0.910464 0.248476 0.721464
O O11 0.000000 0.362174 0.750000
O O12 0.614489 0.849945 0.500000
O O13 0.702231 0.898323 0.703497
O O14 0.580613 0.832386 0.783104
O O15 0.199011 0.137019 0.500000
O O16 0.151475 0.125195 0.234603
O O17 0.500000 0.716002 0.250000
O O18 0.435676 0.743616 0.500000
O O19 0.000000 0.863152 0.750000
O O20 0.928012 0.848024 0.000000
#
# Coordination Sequence:
#
# PCOD8202574 Si02
#       8
#     8   8   2   8   8   8   8   8
#     4  11  22  36  51  73 101 137 182 226 278 337
#     4  10  20  35  55  77 104 138 177 228 280 327
#     4  12  22  36  64  86 128 168 196 224 262 316
#     4   9  19  32  47  68  98 134 176 223 273 331
#     4  10  22  37  54  82 118 157 195 229 267 317
#     4   9  18  33  52  76 108 143 184 230 277 325
#     4  11  21  35  57  83 111 142 181 224 268 319
#     4  10  18  30  50  77 106 138 179 229 285 338
#
# _framework density 18.996030000000001
#
# number of rings (size 3 to 8) (size 9 to 14) (size 15 to 20)
#    0.000    1.931    2.069    3.517    0.000    4.690 
#    0.000    1.379    0.000    0.414    0.000    3.379 
#    0.000    3.310    0.000    0.000    0.000    0.000 
#
# Total GULP energy -718586.832156 kJ/mol
# GULP energy per Si atom -12389.428141 kJ/mol
# Density = 1.895279 g / cm^3
# Si number density = 18.996030 Si / 1000 Ang^3
#
#
#
# Elastic Constant Matrix: (Units=GPa)
#
#
# Indices 1 2 3 4 5 6 
#
# 1 135.8995 25.0533 65.0318 0.0000 0.0000 0.0000
# 2 25.0533 29.6370 11.1701 0.0000 0.0000 0.0000
# 3 65.0318 11.1701 130.0121 0.0000 0.0000 0.0000
# 4 0.0000 0.0000 0.0000 9.4507 0.0000 0.0000
# 5 0.0000 0.0000 0.0000 0.0000 35.2675 0.0000
# 6 0.0000 0.0000 0.0000 0.0000 0.0000 24.7780
#
#
#
# Elastic Compliance Matrix: (Units=1/GPa)
#
#
# Indices 1 2 3 4 5 6 
#
# 1 0.011092 -0.007529 -0.004901 0.000000 0.000000 0.000000
# 2 -0.007529 0.039981 0.000331 0.000000 0.000000 0.000000
# 3 -0.004901 0.000331 0.010115 0.000000 0.000000 0.000000
# 4 0.000000 0.000000 0.000000 0.105813 0.000000 0.000000
# 5 0.000000 0.000000 0.000000 0.000000 0.028355 0.000000
# 6 0.000000 0.000000 0.000000 0.000000 0.000000 0.040358
#
#
# Mechanical properties :
#
#
# Convention : Reuss Voigt Hill
#
# Bulk Modulus (GPa) = 27.03478 55.33988 41.18733
# Shear Modulus (GPa) = 18.36600 26.85211 22.60906
#
# Velocity S-wave (km/s) = 3.11277 3.76382 3.45367
# Velocity P-wave (km/s) = 5.21362 6.93426 6.13457
#
# Compressibility (1/GPa) = 0.03698939
#
# Stress axis : x y z
#
# Youngs Moduli (GPa) = 90.15716 25.01160 98.86571
#
# Poissons Ratio (x) = 0.18831 0.48456
# Poissons Ratio (y) = 0.67880 -0.03272
# Poissons Ratio (z) = 0.44188 -0.00828
#
# Static dielectric constant tensor:
#      x y z
#    x 3.816950 0.000000 0.000000 
#    y 0.000000 3.092080 0.000000 
#    z 0.000000 0.000000 3.594000 
# 
# 
# High freq. dielectric constant tensor:
#      x y z
#    x 1.749690 0.000000 0.000000 
#    y 0.000000 1.690260 0.000000 
#    z 0.000000 0.000000 1.749960 
# 
# From -- ./inp_files/5083.got.cif
#   From: 2010.03.12/outbox.cif.g09.slc.cpg/sg49_3_cif.got.tgz:5083.got - 2010.04.14 03:58:27.
