data_PCOD8202028
_publ_section_title
;
Structure prediction by ZEFSAII (Michael W. Deem and Ramdas Pophale) SiO2 
 PCOD8202028
Probable space group: P N N N
;
_chemical_formula_sum "Si O2"
_cell_formula_units_Z 48
_cell_length_a 10.277666
_cell_length_b 10.071622
_cell_length_c 21.604623
_cell_angle_alpha 90.000000
_cell_angle_beta 90.000000
_cell_angle_gamma 90.000000
_cell_volume 2236.354307
_symmetry_space_group_name_H-M "P N N N"
_symmetry_group_IT_number 48
_space_group.IT_coordinate_system_code '2'
_symmetry_cell_setting 'orthorhombic'
loop_
_space_group_symop_operation_xyz
x,y,z
1/2-x,1/2-y,z
x,1/2-y,1/2-z
1/2-x,y,1/2-z
-x,-y,-z
1/2+x,1/2+y,-z
-x,1/2+y,1/2+z
1/2+x,-y,1/2+z
loop_
_atom_site_type_symbol
_atom_site_label
_atom_site_fract_x
_atom_site_fract_y
_atom_site_fract_z
Si Si1 0.841831 0.376381 0.484472
Si Si2 0.956514 0.497812 0.856565
Si Si3 0.326152 0.380735 0.560794
Si Si4 0.413980 0.238474 0.062730
Si Si5 0.676428 0.507731 0.892507
Si Si6 0.901590 0.897424 0.764873
O O1 0.750000 0.250000 0.485304
O O2 0.769794 0.496380 0.449446
O O3 0.884355 0.412735 0.555228
O O4 0.972066 0.346643 0.447261
O O5 0.957815 0.650530 0.879444
O O6 0.813082 0.440571 0.872978
O O7 0.974600 0.501726 0.782215
O O8 0.069204 0.410311 0.886006
O O9 0.250000 0.250000 0.582581
O O10 0.403275 0.353255 0.497537
O O11 0.293481 0.344554 0.076358
O O12 0.580789 0.542847 0.834442
O O13 0.957407 0.750000 0.750000
O O14 0.750000 0.895641 0.750000
#
# Coordination Sequence:
#
# PCOD8202028 Si02
#       6
#     8   8   8   8   8   8
#     4  12  24  38  60  98 134 172 212 260 331 395
#     4  11  20  37  62  93 131 166 214 263 325 386
#     4  12  24  40  61  94 134 177 212 265 329 391
#     4  12  21  37  62  97 131 166 205 273 334 389
#     4  11  21  37  60  96 133 160 212 264 331 391
#     4   9  18  32  60  93 122 161 204 262 318 381
#
# _framework density 21.463504
#
# number of rings (size 3 to 8) (size 9 to 14) (size 15 to 20)
#    0.000    0.833    6.667    2.500    0.000    0.000 
#    0.000    0.000    0.000   12.500    4.333    0.000 
#    0.000    0.000    0.000    0.000    0.000    0.000 
#
# Total GULP energy -594959.883308 kJ/mol
# GULP energy per Si atom -12394.997569 kJ/mol
# Density = 2.141465 g / cm^3
# Si number density = 21.463504 Si / 1000 Ang^3
#
#
#
# Elastic Constant Matrix: (Units=GPa)
#
#
# Indices 1 2 3 4 5 6 
#
# 1 45.4751 25.0523 18.9902 0.0000 0.0000 0.0000
# 2 25.0523 93.2454 21.0591 0.0000 0.0000 0.0000
# 3 18.9902 21.0591 117.8421 0.0000 0.0000 0.0000
# 4 0.0000 0.0000 0.0000 27.2653 0.0000 0.0000
# 5 0.0000 0.0000 0.0000 0.0000 27.2740 0.0000
# 6 0.0000 0.0000 0.0000 0.0000 0.0000 35.5280
#
#
#
# Elastic Compliance Matrix: (Units=1/GPa)
#
#
# Indices 1 2 3 4 5 6 
#
# 1 0.026902 -0.006511 -0.003172 0.000000 0.000000 0.000000
# 2 -0.006511 0.012751 -0.001229 0.000000 0.000000 0.000000
# 3 -0.003172 -0.001229 0.009217 0.000000 0.000000 0.000000
# 4 0.000000 0.000000 0.000000 0.036677 0.000000 0.000000
# 5 0.000000 0.000000 0.000000 0.000000 0.036665 0.000000
# 6 0.000000 0.000000 0.000000 0.000000 0.000000 0.028147
#
#
# Mechanical properties :
#
#
# Convention : Reuss Voigt Hill
#
# Bulk Modulus (GPa) = 36.97539 42.97396 39.97467
# Shear Modulus (GPa) = 27.59412 30.77753 29.18583
#
# Velocity S-wave (km/s) = 3.58946 3.79086 3.69153
# Velocity P-wave (km/s) = 5.86885 6.26308 6.06917
#
# Compressibility (1/GPa) = 0.02704502
#
# Stress axis : x y z
#
# Youngs Moduli (GPa) = 37.17254 78.42228 108.49825
#
# Poissons Ratio (x) = 0.51064 0.34411
# Poissons Ratio (y) = 0.24204 0.13339
# Poissons Ratio (z) = 0.11789 0.09642
#
# Static dielectric constant tensor:
#      x y z
#    x 3.890930 0.000000 0.000000 
#    y 0.000000 3.945380 0.000000 
#    z 0.000000 0.000000 4.057600 
# 
# 
# High freq. dielectric constant tensor:
#      x y z
#    x 1.821800 0.000000 0.000000 
#    y 0.000000 1.841190 0.000000 
#    z 0.000000 0.000000 1.835500 
# 
# From -- ./inp_files/36244.got.cif
#   From: 2010.06.25/outbox.cif.g09.slc.cpg/sg48_19_cif.got.tgz:36244.got - 2010.06.26 18:06:46.
