data_PCOD8202972
_publ_section_title
;
Structure prediction by ZEFSAII (Michael W. Deem and Ramdas Pophale) SiO2 
 PCOD8202972
Probable space group: P C C M
;
_chemical_formula_sum "Si O2"
_cell_formula_units_Z 64
_cell_length_a 23.554465
_cell_length_b 19.201988
_cell_length_c 8.553518
_cell_angle_alpha 90.000000
_cell_angle_beta 90.000000
_cell_angle_gamma 90.000000
_cell_volume 3868.692504
_symmetry_space_group_name_H-M "P C C M"
_symmetry_group_IT_number 49
_symmetry_cell_setting 'orthorhombic'
loop_
_space_group_symop_operation_xyz
x,y,z
-x,-y,z
x,-y,1/2-z
-x,y,1/2-z
-x,-y,-z
x,y,-z
-x,y,1/2+z
x,-y,1/2+z
loop_
_atom_site_type_symbol
_atom_site_label
_atom_site_fract_x
_atom_site_fract_y
_atom_site_fract_z
Si Si1 0.270137 0.218346 0.684884
Si Si2 0.755431 0.929062 0.316425
Si Si3 0.334899 0.350093 0.314952
Si Si4 0.061656 0.788228 0.685082
Si Si5 0.886210 0.927292 0.314964
Si Si6 0.439511 0.574684 0.316352
Si Si7 0.161023 0.699261 0.185668
Si Si8 0.225866 0.424829 0.185040
O O1 0.268306 0.215663 0.500000
O O2 0.278195 0.139260 0.748899
O O3 0.320045 0.270731 0.738267
O O4 0.209548 0.247066 0.742456
O O5 0.750602 0.933538 0.500000
O O6 0.820632 0.921347 0.263761
O O7 0.728065 0.000000 0.250000
O O8 0.342518 0.356463 0.500000
O O9 0.393318 0.368252 0.230421
O O10 0.284823 0.401293 0.263376
O O11 0.062683 0.783417 0.500000
O O12 0.079435 0.865158 0.737164
O O13 0.101488 0.728674 0.756801
O O14 0.000000 0.771210 0.750000
O O15 0.893806 0.922982 0.500000
O O16 0.911227 0.000000 0.250000
O O17 0.420805 0.500000 0.250000
O O18 0.500000 0.598810 0.250000
O O19 0.444397 0.568238 0.500000
O O20 0.174068 0.625323 0.266113
O O21 0.161008 0.689568 0.000000
O O22 0.209645 0.500000 0.250000
O O23 0.233755 0.426167 0.000000
#
# Coordination Sequence:
#
# PCOD8202972 Si02
#       8
#     8   8   8   8   8   8   8   8
#     4   8  15  29  49  69  95 128 160 195 243 291
#     4   9  16  28  45  68  95 128 160 194 237 289
#     4  10  19  32  50  73 101 136 172 210 250 289
#     4  12  24  37  53  73  95 125 162 201 244 295
#     4  10  19  33  51  71  97 126 161 201 243 291
#     4  11  21  34  50  70  99 136 176 213 247 291
#     4  10  19  36  55  73  97 126 157 199 247 296
#     4  11  21  34  52  78 104 131 163 201 245 294
#
# _framework density 16.543057000000001
#
# number of rings (size 3 to 8) (size 9 to 14) (size 15 to 20)
#    0.000    1.875    1.250    6.000    0.000    0.750 
#    0.000    2.500    0.000    0.375    0.000    2.625 
#    0.000    0.500    0.000    5.750    0.000    1.750 
#
# Total GULP energy -793526.169769 kJ/mol
# GULP energy per Si atom -12398.846403 kJ/mol
# Density = 1.650540 g / cm^3
# Si number density = 16.543057 Si / 1000 Ang^3
#
#
#
# Elastic Constant Matrix: (Units=GPa)
#
#
# Indices 1 2 3 4 5 6 
#
# 1 86.9863 60.6381 27.8607 0.0000 0.0000 0.0000
# 2 60.6381 140.3044 24.1254 0.0000 0.0000 0.0000
# 3 27.8607 24.1254 74.8774 0.0000 0.0000 0.0000
# 4 0.0000 0.0000 0.0000 27.2812 0.0000 0.0000
# 5 0.0000 0.0000 0.0000 0.0000 21.9705 0.0000
# 6 0.0000 0.0000 0.0000 0.0000 0.0000 40.6111
#
#
#
# Elastic Compliance Matrix: (Units=1/GPa)
#
#
# Indices 1 2 3 4 5 6 
#
# 1 0.017705 -0.006901 -0.004364 0.000000 0.000000 0.000000
# 2 -0.006901 0.010236 -0.000730 0.000000 0.000000 0.000000
# 3 -0.004364 -0.000730 0.015214 0.000000 0.000000 0.000000
# 4 0.000000 0.000000 0.000000 0.036655 0.000000 0.000000
# 5 0.000000 0.000000 0.000000 0.000000 0.045516 0.000000
# 6 0.000000 0.000000 0.000000 0.000000 0.000000 0.024624
#
#
# Mechanical properties :
#
#
# Convention : Reuss Voigt Hill
#
# Bulk Modulus (GPa) = 52.18214 58.60183 55.39199
# Shear Modulus (GPa) = 27.72726 30.60883 29.16805
#
# Velocity S-wave (km/s) = 4.09842 4.30612 4.20355
# Velocity P-wave (km/s) = 7.34900 7.76043 7.55752
#
# Compressibility (1/GPa) = 0.01916364
#
# Stress axis : x y z
#
# Youngs Moduli (GPa) = 56.48191 97.69823 65.72825
#
# Poissons Ratio (x) = 0.67426 0.28684
# Poissons Ratio (y) = 0.38981 0.04798
# Poissons Ratio (z) = 0.24649 0.07132
#
# Static dielectric constant tensor:
#      x y z
#    x 2.950680 0.000000 0.000000 
#    y 0.000000 3.417630 0.000000 
#    z 0.000000 0.000000 3.149150 
# 
# 
# High freq. dielectric constant tensor:
#      x y z
#    x 1.602540 0.000000 0.000000 
#    y 0.000000 1.641100 0.000000 
#    z 0.000000 0.000000 1.645520 
# 
# From -- ./inp_files/6000.got.cif
#   From: 2010.03.12/outbox.cif.g09.slc.cpg/sg49_3_cif.got.tgz:6000.got - 2010.04.14 03:58:27.
