data_PCOD8202861
_publ_section_title
;
Structure prediction by ZEFSAII (Michael W. Deem and Ramdas Pophale) SiO2 
 PCOD8202861
Probable space group: P C C M
;
_chemical_formula_sum "Si O2"
_cell_formula_units_Z 56
_cell_length_a 20.247546
_cell_length_b 15.430613
_cell_length_c 8.878335
_cell_angle_alpha 90.000000
_cell_angle_beta 90.000000
_cell_angle_gamma 90.000000
_cell_volume 2773.876374
_symmetry_space_group_name_H-M "P C C M"
_symmetry_group_IT_number 49
_symmetry_cell_setting 'orthorhombic'
loop_
_space_group_symop_operation_xyz
x,y,z
-x,-y,z
x,-y,1/2-z
-x,y,1/2-z
-x,-y,-z
x,y,-z
-x,y,1/2+z
x,-y,1/2+z
loop_
_atom_site_type_symbol
_atom_site_label
_atom_site_fract_x
_atom_site_fract_y
_atom_site_fract_z
Si Si1 0.067096 0.267978 0.679057
Si Si2 0.901346 0.914390 0.826985
Si Si3 0.674284 0.589587 0.176500
Si Si4 0.567796 0.271364 0.678036
Si Si5 0.804280 0.317243 0.321880
Si Si6 0.382056 0.914205 0.677759
Si Si7 0.757745 0.864833 0.170935
O O1 0.063606 0.268604 0.500000
O O2 0.075197 0.169701 0.737317
O O3 0.126391 0.330759 0.735460
O O4 0.000000 0.306334 0.750000
O O5 0.821999 0.925224 0.818174
O O6 0.932426 0.000000 0.750000
O O7 0.924981 0.906718 0.000000
O O8 0.652078 0.500000 0.250000
O O9 0.627183 0.666897 0.235569
O O10 0.751187 0.608406 0.216635
O O11 0.665576 0.580116 0.000000
O O12 0.500000 0.305019 0.750000
O O13 0.561981 0.276394 0.500000
O O14 0.580644 0.172635 0.731069
O O15 0.819178 0.310251 0.500000
O O16 0.773837 0.228147 0.256155
O O17 0.385185 0.925189 0.500000
O O18 0.306794 0.908564 0.744083
O O19 0.415141 0.000000 0.750000
O O20 0.737006 0.844700 0.000000
#
# Coordination Sequence:
#
# PCOD8202861 Si02
#       7
#     8   8   8   8   8   8   8
#     4  11  22  36  54  79 110 148 193 236 286 347
#     4  10  19  31  48  72 105 145 190 242 297 348
#     4  10  21  39  65  93 121 153 190 236 293 355
#     4  10  22  40  60  82 117 160 198 240 293 349
#     4   9  17  35  60  83 111 149 187 230 288 345
#     4  10  19  33  53  78 109 150 197 241 289 341
#     4   8  14  28  51  74 102 140 184 232 284 340
#
# _framework density 20.188355999999999
#
# number of rings (size 3 to 8) (size 9 to 14) (size 15 to 20)
#    0.000    2.286    1.429    3.000    0.000    2.571 
#    0.000    7.143    0.000    0.429    0.000    3.000 
#    0.000    0.000    0.000    0.000    0.000    0.000 
#
# Total GULP energy -694163.710313 kJ/mol
# GULP energy per Si atom -12395.780541 kJ/mol
# Density = 2.014241 g / cm^3
# Si number density = 20.188356 Si / 1000 Ang^3
#
#
#
# Elastic Constant Matrix: (Units=GPa)
#
#
# Indices 1 2 3 4 5 6 
#
# 1 123.5714 40.8868 46.6694 0.0000 0.0000 0.0000
# 2 40.8868 104.8506 34.8264 0.0000 0.0000 0.0000
# 3 46.6694 34.8264 80.2863 0.0000 0.0000 0.0000
# 4 0.0000 0.0000 0.0000 27.6628 0.0000 0.0000
# 5 0.0000 0.0000 0.0000 0.0000 28.6998 0.0000
# 6 0.0000 0.0000 0.0000 0.0000 0.0000 10.0358
#
#
#
# Elastic Compliance Matrix: (Units=1/GPa)
#
#
# Indices 1 2 3 4 5 6 
#
# 1 0.010906 -0.002509 -0.005251 0.000000 0.000000 0.000000
# 2 -0.002509 0.011720 -0.003626 0.000000 0.000000 0.000000
# 3 -0.005251 -0.003626 0.017081 0.000000 0.000000 0.000000
# 4 0.000000 0.000000 0.000000 0.036150 0.000000 0.000000
# 5 0.000000 0.000000 0.000000 0.000000 0.034843 0.000000
# 6 0.000000 0.000000 0.000000 0.000000 0.000000 0.099643
#
#
# Mechanical properties :
#
#
# Convention : Reuss Voigt Hill
#
# Bulk Modulus (GPa) = 59.04780 61.49707 60.27243
# Shear Modulus (GPa) = 20.94169 25.70141 23.32155
#
# Velocity S-wave (km/s) = 3.22423 3.57190 3.40251
# Velocity P-wave (km/s) = 6.57060 6.89486 6.73468
#
# Compressibility (1/GPa) = 0.01693543
#
# Stress axis : x y z
#
# Youngs Moduli (GPa) = 91.69489 85.32536 58.54591
#
# Poissons Ratio (x) = 0.21404 0.30744
# Poissons Ratio (y) = 0.23002 0.21227
# Poissons Ratio (z) = 0.48151 0.30936
#
# Static dielectric constant tensor:
#      x y z
#    x 3.900520 0.000000 0.000000 
#    y 0.000000 3.449200 0.000000 
#    z 0.000000 0.000000 3.351230 
# 
# 
# High freq. dielectric constant tensor:
#      x y z
#    x 1.796600 0.000000 0.000000 
#    y 0.000000 1.764340 0.000000 
#    z 0.000000 0.000000 1.763710 
# 
# From -- ./inp_files/5801.got.cif
#   From: 2010.03.12/outbox.cif.g09.slc.cpg/sg49_3_cif.got.tgz:5801.got - 2010.04.14 03:58:27.
