data_PCOD8202630
_publ_section_title
;
Structure prediction by ZEFSAII (Michael W. Deem and Ramdas Pophale) SiO2 
 PCOD8202630
Probable space group: P C C M
;
_chemical_formula_sum "Si O2"
_cell_formula_units_Z 64
_cell_length_a 19.769033
_cell_length_b 19.837178
_cell_length_c 8.752381
_cell_angle_alpha 90.000000
_cell_angle_beta 90.000000
_cell_angle_gamma 90.000000
_cell_volume 3432.349719
_symmetry_space_group_name_H-M "P C C M"
_symmetry_group_IT_number 49
_symmetry_cell_setting 'orthorhombic'
loop_
_space_group_symop_operation_xyz
x,y,z
-x,-y,z
x,-y,1/2-z
-x,y,1/2-z
-x,-y,-z
x,y,-z
-x,y,1/2+z
x,-y,1/2+z
loop_
_atom_site_type_symbol
_atom_site_label
_atom_site_fract_x
_atom_site_fract_y
_atom_site_fract_z
Si Si1 0.434237 0.879201 0.176633
Si Si2 0.288962 0.069054 0.676829
Si Si3 0.285581 0.431743 0.320209
Si Si4 0.433206 0.393816 0.321618
Si Si5 0.815926 0.163020 0.320541
Si Si6 0.927132 0.070832 0.181520
Si Si7 0.247144 0.700868 0.325167
Si Si8 0.602063 0.259976 0.676769
O O1 0.500000 0.916116 0.250000
O O2 0.369537 0.926828 0.197585
O O3 0.425209 0.811535 0.272317
O O4 0.446047 0.861959 0.000000
O O5 0.267122 0.071876 0.500000
O O6 0.254052 0.129648 0.767099
O O7 0.262675 0.000000 0.750000
O O8 0.254286 0.500000 0.250000
O O9 0.284748 0.437319 0.500000
O O10 0.362708 0.424201 0.256409
O O11 0.239874 0.367341 0.273529
O O12 0.500000 0.429547 0.250000
O O13 0.436484 0.404258 0.500000
O O14 0.435641 0.315314 0.278648
O O15 0.826243 0.150302 0.500000
O O16 0.877847 0.131682 0.226797
O O17 0.810430 0.243429 0.285174
O O18 0.000000 0.088122 0.250000
O O19 0.900072 0.000000 0.250000
O O20 0.931831 0.064506 0.000000
O O21 0.241428 0.678267 0.500000
O O22 0.318090 0.737021 0.291576
O O23 0.584952 0.273083 0.500000
#
# Coordination Sequence:
#
# PCOD8202630 Si02
#       8
#     8   8   8   8   8   8   8   8
#     4  11  23  36  51  69  92 124 165 217 276 334
#     4  11  24  39  55  75 100 133 174 223 274 329
#     4  10  21  35  52  72 100 134 171 216 270 328
#     4  10  20  32  46  67  92 124 162 209 262 325
#     4  11  21  37  60  86 114 146 184 227 271 320
#     4  11  22  38  59  87 123 163 199 233 271 319
#     4   9  19  34  55  79 104 135 173 218 267 317
#     4  10  18  32  51  71  94 124 161 210 266 323
#
# _framework density 18.64612
#
# number of rings (size 3 to 8) (size 9 to 14) (size 15 to 20)
#    0.000    1.625    1.250    4.500    0.000    5.000 
#    0.000    2.500    0.000    0.000    0.000    0.000 
#    0.000    0.500    0.000    5.250    0.000    2.250 
#
# Total GULP energy -793611.562791 kJ/mol
# GULP energy per Si atom -12400.180669 kJ/mol
# Density = 1.860368 g / cm^3
# Si number density = 18.646120 Si / 1000 Ang^3
#
#
#
# Elastic Constant Matrix: (Units=GPa)
#
#
# Indices 1 2 3 4 5 6 
#
# 1 69.3845 32.4377 33.8813 0.0000 0.0000 0.0000
# 2 32.4377 103.5149 42.6191 0.0000 0.0000 0.0000
# 3 33.8813 42.6191 95.4253 0.0000 0.0000 0.0000
# 4 0.0000 0.0000 0.0000 26.2126 0.0000 0.0000
# 5 0.0000 0.0000 0.0000 0.0000 25.6238 0.0000
# 6 0.0000 0.0000 0.0000 0.0000 0.0000 11.5754
#
#
#
# Elastic Compliance Matrix: (Units=1/GPa)
#
#
# Indices 1 2 3 4 5 6 
#
# 1 0.018584 -0.003807 -0.004898 0.000000 0.000000 0.000000
# 2 -0.003807 0.012617 -0.004283 0.000000 0.000000 0.000000
# 3 -0.004898 -0.004283 0.014132 0.000000 0.000000 0.000000
# 4 0.000000 0.000000 0.000000 0.038150 0.000000 0.000000
# 5 0.000000 0.000000 0.000000 0.000000 0.039026 0.000000
# 6 0.000000 0.000000 0.000000 0.000000 0.000000 0.086390
#
#
# Mechanical properties :
#
#
# Convention : Reuss Voigt Hill
#
# Bulk Modulus (GPa) = 51.66416 54.02231 52.84323
# Shear Modulus (GPa) = 20.71879 23.30813 22.01346
#
# Velocity S-wave (km/s) = 3.33702 3.53941 3.43970
# Velocity P-wave (km/s) = 6.52805 6.76302 6.64658
#
# Compressibility (1/GPa) = 0.01935578
#
# Stress axis : x y z
#
# Youngs Moduli (GPa) = 53.80977 79.25868 70.76370
#
# Poissons Ratio (x) = 0.30173 0.34661
# Poissons Ratio (y) = 0.20485 0.30311
# Poissons Ratio (z) = 0.26357 0.33949
#
# Static dielectric constant tensor:
#      x y z
#    x 3.300150 0.000000 0.000000 
#    y 0.000000 3.348610 0.000000 
#    z 0.000000 0.000000 3.466220 
# 
# 
# High freq. dielectric constant tensor:
#      x y z
#    x 1.686550 0.000000 0.000000 
#    y 0.000000 1.716600 0.000000 
#    z 0.000000 0.000000 1.736790 
# 
# From -- ./inp_files/5946.got.cif
#   From: 2010.03.12/outbox.cif.g09.slc.cpg/sg49_3_cif.got.tgz:5946.got - 2010.04.14 03:58:27.
