data_PCOD8202967
_publ_section_title
;
Structure prediction by ZEFSAII (Michael W. Deem and Ramdas Pophale) SiO2 
 PCOD8202967
Probable space group: P C C M
;
_chemical_formula_sum "Si O2"
_cell_formula_units_Z 40
_cell_length_a 9.317307
_cell_length_b 26.346926
_cell_length_c 8.792246
_cell_angle_alpha 90.000000
_cell_angle_beta 90.000000
_cell_angle_gamma 90.000000
_cell_volume 2158.341632
_symmetry_space_group_name_H-M "P C C M"
_symmetry_group_IT_number 49
_symmetry_cell_setting 'orthorhombic'
loop_
_space_group_symop_operation_xyz
x,y,z
-x,-y,z
x,-y,1/2-z
-x,y,1/2-z
-x,-y,-z
x,y,-z
-x,y,1/2+z
x,-y,1/2+z
loop_
_atom_site_type_symbol
_atom_site_label
_atom_site_fract_x
_atom_site_fract_y
_atom_site_fract_z
Si Si1 0.343499 0.548533 0.177362
Si Si2 0.346642 0.052839 0.180579
Si Si3 0.342452 0.241556 0.180261
Si Si4 0.656160 0.658465 0.678399
Si Si5 0.844714 0.147048 0.321012
O O1 0.258345 0.500000 0.250000
O O2 0.500000 0.550281 0.250000
O O3 0.267027 0.603484 0.208377
O O4 0.358855 0.538917 0.000000
O O5 0.500000 0.067483 0.250000
O O6 0.234748 0.095798 0.230312
O O7 0.290261 0.000000 0.250000
O O8 0.361716 0.048062 0.000000
O O9 0.500000 0.235005 0.250000
O O10 0.266204 0.293735 0.240518
O O11 0.245802 0.195090 0.238050
O O12 0.354932 0.242933 0.000000
O O13 0.500000 0.655445 0.750000
O O14 0.644065 0.669491 0.500000
O O15 0.860998 0.149286 0.500000
O O16 0.000000 0.148369 0.250000
#
# Coordination Sequence:
#
# PCOD8202967 Si02
#       5
#     8   8   8   8   8
#     4   9  15  21  31  49  77 112 150 187 231 283
#     4  10  20  36  57  82 107 134 168 204 242 288
#     4  10  19  32  50  72  95 125 164 204 245 292
#     4   9  16  25  38  59  85 117 155 196 239 286
#     4  10  23  38  53  75 103 133 167 204 246 293
#
# _framework density 18.532747000000001
#
# number of rings (size 3 to 8) (size 9 to 14) (size 15 to 20)
#    0.000    2.400    0.000    5.400    0.000    6.000 
#    0.000    2.000    0.000    0.000    0.000    0.000 
#    0.000    0.800    0.000    8.800    0.000    9.800 
#
# Total GULP energy -495623.201305 kJ/mol
# GULP energy per Si atom -12390.580033 kJ/mol
# Density = 1.849057 g / cm^3
# Si number density = 18.532747 Si / 1000 Ang^3
#
#
#
# Elastic Constant Matrix: (Units=GPa)
#
#
# Indices 1 2 3 4 5 6 
#
# 1 67.8955 74.1813 31.0252 0.0000 0.0000 0.0000
# 2 74.1813 215.1485 68.3017 0.0000 0.0000 0.0000
# 3 31.0252 68.3017 91.2507 0.0000 0.0000 0.0000
# 4 0.0000 0.0000 0.0000 34.2887 0.0000 0.0000
# 5 0.0000 0.0000 0.0000 0.0000 21.4636 0.0000
# 6 0.0000 0.0000 0.0000 0.0000 0.0000 2.4369
#
#
#
# Elastic Compliance Matrix: (Units=1/GPa)
#
#
# Indices 1 2 3 4 5 6 
#
# 1 0.024088 -0.007483 -0.002588 0.000000 0.000000 0.000000
# 2 -0.007483 0.008422 -0.003759 0.000000 0.000000 0.000000
# 3 -0.002588 -0.003759 0.014653 0.000000 0.000000 0.000000
# 4 0.000000 0.000000 0.000000 0.029164 0.000000 0.000000
# 5 0.000000 0.000000 0.000000 0.000000 0.046591 0.000000
# 6 0.000000 0.000000 0.000000 0.000000 0.000000 0.410359
#
#
# Mechanical properties :
#
#
# Convention : Reuss Voigt Hill
#
# Bulk Modulus (GPa) = 51.28275 80.14568 65.71421
# Shear Modulus (GPa) = 8.81154 25.02361 16.91758
#
# Velocity S-wave (km/s) = 2.18287 3.67854 3.02461
# Velocity P-wave (km/s) = 5.83821 7.83464 6.90892
#
# Compressibility (1/GPa) = 0.01949974
#
# Stress axis : x y z
#
# Youngs Moduli (GPa) = 41.51520 118.74213 68.24692
#
# Poissons Ratio (x) = 0.88860 0.17665
# Poissons Ratio (y) = 0.31068 0.25656
# Poissons Ratio (z) = 0.10745 0.44638
#
# Static dielectric constant tensor:
#      x y z
#    x 2.794130 0.000000 0.000000 
#    y 0.000000 4.677980 0.000000 
#    z 0.000000 0.000000 3.517400 
# 
# 
# High freq. dielectric constant tensor:
#      x y z
#    x 1.647730 0.000000 0.000000 
#    y 0.000000 1.756810 0.000000 
#    z 0.000000 0.000000 1.732080 
# 
# From -- ./inp_files/1925.got.cif
#   From: 2010.03.12/outbox.cif.g09.slc.cpg/sg49_1_cif.got.tgz:1925.got - 2010.04.14 03:58:27.
