data_PCOD8202276
_publ_section_title
;
Structure prediction by ZEFSAII (Michael W. Deem and Ramdas Pophale) SiO2 
 PCOD8202276
Probable space group: P C C M
;
_chemical_formula_sum "Si O2"
_cell_formula_units_Z 64
_cell_length_a 18.366529
_cell_length_b 26.305916
_cell_length_c 8.703364
_cell_angle_alpha 90.000000
_cell_angle_beta 90.000000
_cell_angle_gamma 90.000000
_cell_volume 4205.016122
_symmetry_space_group_name_H-M "P C C M"
_symmetry_group_IT_number 49
_symmetry_cell_setting 'orthorhombic'
loop_
_space_group_symop_operation_xyz
x,y,z
-x,-y,z
x,-y,1/2-z
-x,y,1/2-z
-x,-y,-z
x,y,-z
-x,y,1/2+z
x,-y,1/2+z
loop_
_atom_site_type_symbol
_atom_site_label
_atom_site_fract_x
_atom_site_fract_y
_atom_site_fract_z
Si Si1 0.077302 0.851294 0.682232
Si Si2 0.419125 0.550544 0.817316
Si Si3 0.578945 0.850234 0.320137
Si Si4 0.842986 0.946935 0.318411
Si Si5 0.420644 0.347037 0.180816
Si Si6 0.291748 0.900878 0.671222
Si Si7 0.657692 0.745603 0.322680
Si Si8 0.785779 0.206822 0.669798
O O1 0.074303 0.858829 0.500000
O O2 0.103409 0.903790 0.756107
O O3 0.131886 0.804710 0.725721
O O4 0.000000 0.835358 0.750000
O O5 0.379038 0.500000 0.750000
O O6 0.500000 0.551358 0.750000
O O7 0.383103 0.602771 0.756512
O O8 0.419279 0.548697 0.000000
O O9 0.500000 0.856217 0.250000
O O10 0.575154 0.858503 0.500000
O O11 0.629876 0.894447 0.250989
O O12 0.609653 0.794550 0.279348
O O13 0.847836 0.947946 0.500000
O O14 0.759165 0.938496 0.268406
O O15 0.871064 0.000000 0.250000
O O16 0.500000 0.335756 0.250000
O O17 0.368486 0.300068 0.215995
O O18 0.428489 0.355122 0.000000
O O19 0.302114 0.923326 0.500000
O O20 0.253603 0.846871 0.662707
O O21 0.649216 0.730545 0.500000
O O22 0.742902 0.756365 0.286696
O O23 0.785440 0.231803 0.500000
#
# Coordination Sequence:
#
# PCOD8202276 Si02
#       8
#     8   8   8   8   8   8   8   8
#     4  10  20  34  51  72  95 117 142 170 201 237
#     4  10  17  27  40  54  73 100 138 180 223 266
#     4  10  19  29  43  63  85 110 139 173 213 254
#     4  11  21  34  51  70  91 114 140 168 202 242
#     4  11  20  29  40  56  80 109 143 184 228 265
#     4   9  17  31  48  65  85 109 138 170 204 245
#     4  10  19  29  42  61  84 110 141 175 213 255
#     4   8  16  30  46  63  85 112 139 167 200 242
#
# _framework density 15.219918
#
# number of rings (size 3 to 8) (size 9 to 14) (size 15 to 20)
#    0.000    2.125    0.000    7.125    0.000    6.250 
#    0.000    1.250    0.000    0.375    0.000    2.625 
#    0.000    0.000    0.000    0.000    0.000    0.625 
#
# Total GULP energy -793446.799949 kJ/mol
# GULP energy per Si atom -12397.606249 kJ/mol
# Density = 1.518528 g / cm^3
# Si number density = 15.219918 Si / 1000 Ang^3
#
#
#
# Elastic Constant Matrix: (Units=GPa)
#
#
# Indices 1 2 3 4 5 6 
#
# 1 92.5789 24.2997 31.8501 0.0000 0.0000 0.0000
# 2 24.2997 45.9929 26.4131 0.0000 0.0000 0.0000
# 3 31.8501 26.4131 106.9641 0.0000 0.0000 0.0000
# 4 0.0000 0.0000 0.0000 24.0970 0.0000 0.0000
# 5 0.0000 0.0000 0.0000 0.0000 24.1727 0.0000
# 6 0.0000 0.0000 0.0000 0.0000 0.0000 9.1533
#
#
#
# Elastic Compliance Matrix: (Units=1/GPa)
#
#
# Indices 1 2 3 4 5 6 
#
# 1 0.013114 -0.005461 -0.002557 0.000000 0.000000 0.000000
# 2 -0.005461 0.027609 -0.005192 0.000000 0.000000 0.000000
# 3 -0.002557 -0.005192 0.011392 0.000000 0.000000 0.000000
# 4 0.000000 0.000000 0.000000 0.041499 0.000000 0.000000
# 5 0.000000 0.000000 0.000000 0.000000 0.041369 0.000000
# 6 0.000000 0.000000 0.000000 0.000000 0.000000 0.109250
#
#
# Mechanical properties :
#
#
# Convention : Reuss Voigt Hill
#
# Bulk Modulus (GPa) = 38.91360 45.62907 42.27133
# Shear Modulus (GPa) = 17.90721 22.34947 20.12834
#
# Velocity S-wave (km/s) = 3.43383 3.83617 3.64056
# Velocity P-wave (km/s) = 6.42998 7.04745 6.74578
#
# Compressibility (1/GPa) = 0.02569796
#
# Stress axis : x y z
#
# Youngs Moduli (GPa) = 76.25200 36.22004 87.77943
#
# Poissons Ratio (x) = 0.19778 0.22442
# Poissons Ratio (y) = 0.41638 0.45572
# Poissons Ratio (z) = 0.19495 0.18804
#
# Static dielectric constant tensor:
#      x y z
#    x 2.946870 0.000000 0.000000 
#    y 0.000000 3.116820 0.000000 
#    z 0.000000 0.000000 3.087380 
# 
# 
# High freq. dielectric constant tensor:
#      x y z
#    x 1.552590 0.000000 0.000000 
#    y 0.000000 1.557250 0.000000 
#    z 0.000000 0.000000 1.604900 
# 
# From -- ./inp_files/5417.got.cif
#   From: 2010.03.12/outbox.cif.g09.slc.cpg/sg49_3_cif.got.tgz:5417.got - 2010.04.14 03:58:27.
