data_PCOD8202752
_publ_section_title
;
Structure prediction by ZEFSAII (Michael W. Deem and Ramdas Pophale) SiO2 
 PCOD8202752
Probable space group: P C C M
;
_chemical_formula_sum "Si O2"
_cell_formula_units_Z 64
_cell_length_a 18.844170
_cell_length_b 23.619065
_cell_length_c 8.892161
_cell_angle_alpha 90.000000
_cell_angle_beta 90.000000
_cell_angle_gamma 90.000000
_cell_volume 3957.737922
_symmetry_space_group_name_H-M "P C C M"
_symmetry_group_IT_number 49
_symmetry_cell_setting 'orthorhombic'
loop_
_space_group_symop_operation_xyz
x,y,z
-x,-y,z
x,-y,1/2-z
-x,y,1/2-z
-x,-y,-z
x,y,-z
-x,y,1/2+z
x,-y,1/2+z
loop_
_atom_site_type_symbol
_atom_site_label
_atom_site_fract_x
_atom_site_fract_y
_atom_site_fract_z
Si Si1 0.428412 0.755456 0.675115
Si Si2 0.850892 0.671906 0.325320
Si Si3 0.925441 0.775318 0.822818
Si Si4 0.198363 0.164005 0.326648
Si Si5 0.427086 0.886041 0.677784
Si Si6 0.709175 0.271190 0.172495
Si Si7 0.075148 0.442593 0.676877
Si Si8 0.291781 0.058456 0.677157
O O1 0.500000 0.731731 0.750000
O O2 0.437605 0.747947 0.500000
O O3 0.415803 0.820559 0.722307
O O4 0.361053 0.718797 0.729151
O O5 0.864569 0.686368 0.500000
O O6 0.900435 0.713442 0.230323
O O7 0.768039 0.681464 0.285865
O O8 0.869693 0.607340 0.286835
O O9 0.869993 0.824000 0.775384
O O10 0.000000 0.791115 0.750000
O O11 0.933638 0.774534 0.000000
O O12 0.175163 0.169163 0.500000
O O13 0.259054 0.209667 0.290127
O O14 0.229125 0.102660 0.287133
O O15 0.500000 0.908411 0.750000
O O16 0.429439 0.894840 0.500000
O O17 0.364651 0.922878 0.746882
O O18 0.686090 0.275513 0.000000
O O19 0.105918 0.500000 0.750000
O O20 0.064517 0.451417 0.500000
O O21 0.000000 0.426870 0.750000
O O22 0.304377 0.052319 0.500000
O O23 0.266261 0.000000 0.750000
#
# Coordination Sequence:
#
# PCOD8202752 Si02
#       8
#     8   8   8   8   8   8   8   8
#     4  10  19  29  45  68  94 124 157 191 230 280
#     4   9  19  33  48  70 100 132 164 200 240 281
#     4  11  21  32  51  75  99 124 154 193 236 282
#     4   9  19  35  52  69  94 123 151 186 234 286
#     4  10  20  33  49  69  94 122 157 194 231 278
#     4   9  16  30  49  68  93 123 155 192 237 282
#     4  10  19  31  47  67  96 134 174 207 239 276
#     4  11  22  36  53  71  93 121 153 192 235 281
#
# _framework density 16.170853999999999
#
# number of rings (size 3 to 8) (size 9 to 14) (size 15 to 20)
#    0.000    2.125    1.250    4.125    0.000    6.250 
#    0.000    1.250    0.000    0.375    0.000    2.625 
#    0.000    0.500    0.000    5.750    0.000    1.750 
#
# Total GULP energy -793723.131628 kJ/mol
# GULP energy per Si atom -12401.923932 kJ/mol
# Density = 1.613405 g / cm^3
# Si number density = 16.170854 Si / 1000 Ang^3
#
#
#
# Elastic Constant Matrix: (Units=GPa)
#
#
# Indices 1 2 3 4 5 6 
#
# 1 114.7714 59.2851 59.1912 0.0000 0.0000 0.0000
# 2 59.2851 93.5698 43.5081 0.0000 0.0000 0.0000
# 3 59.1912 43.5081 94.9175 0.0000 0.0000 0.0000
# 4 0.0000 0.0000 0.0000 9.1842 0.0000 0.0000
# 5 0.0000 0.0000 0.0000 0.0000 29.3580 0.0000
# 6 0.0000 0.0000 0.0000 0.0000 0.0000 24.8319
#
#
#
# Elastic Compliance Matrix: (Units=1/GPa)
#
#
# Indices 1 2 3 4 5 6 
#
# 1 0.015670 -0.006843 -0.006635 0.000000 0.000000 0.000000
# 2 -0.006843 0.016570 -0.003328 0.000000 0.000000 0.000000
# 3 -0.006635 -0.003328 0.016199 0.000000 0.000000 0.000000
# 4 0.000000 0.000000 0.000000 0.108883 0.000000 0.000000
# 5 0.000000 0.000000 0.000000 0.000000 0.034062 0.000000
# 6 0.000000 0.000000 0.000000 0.000000 0.000000 0.040271
#
#
# Mechanical properties :
#
#
# Convention : Reuss Voigt Hill
#
# Bulk Modulus (GPa) = 67.44752 69.69195 68.56974
# Shear Modulus (GPa) = 18.50419 22.09309 20.29864
#
# Velocity S-wave (km/s) = 3.38641 3.70026 3.54681
# Velocity P-wave (km/s) = 7.55581 7.83880 7.69860
#
# Compressibility (1/GPa) = 0.01482634
#
# Stress axis : x y z
#
# Youngs Moduli (GPa) = 63.81785 60.34847 61.73356
#
# Poissons Ratio (x) = 0.41297 0.40960
# Poissons Ratio (y) = 0.43671 0.20546
# Poissons Ratio (z) = 0.42343 0.20085
#
# Static dielectric constant tensor:
#      x y z
#    x 3.082860 0.000000 0.000000 
#    y 0.000000 2.971360 0.000000 
#    z 0.000000 0.000000 3.099860 
# 
# 
# High freq. dielectric constant tensor:
#      x y z
#    x 1.618530 0.000000 0.000000 
#    y 0.000000 1.590040 0.000000 
#    z 0.000000 0.000000 1.633750 
# 
# From -- ./inp_files/5430.got.cif
#   From: 2010.03.12/outbox.cif.g09.slc.cpg/sg49_3_cif.got.tgz:5430.got - 2010.04.14 03:58:27.
