data_PCOD8202497
_publ_section_title
;
Structure prediction by ZEFSAII (Michael W. Deem and Ramdas Pophale) SiO2 
 PCOD8202497
Probable space group: P C C M
;
_chemical_formula_sum "Si O2"
_cell_formula_units_Z 64
_cell_length_a 5.163709
_cell_length_b 30.901197
_cell_length_c 24.301551
_cell_angle_alpha 90.000000
_cell_angle_beta 90.000000
_cell_angle_gamma 90.000000
_cell_volume 3877.671859
_symmetry_space_group_name_H-M "P C C M"
_symmetry_group_IT_number 49
_symmetry_cell_setting 'orthorhombic'
loop_
_space_group_symop_operation_xyz
x,y,z
-x,-y,z
x,-y,1/2-z
-x,y,1/2-z
-x,-y,-z
x,y,-z
-x,y,1/2+z
x,-y,1/2+z
loop_
_atom_site_type_symbol
_atom_site_label
_atom_site_fract_x
_atom_site_fract_y
_atom_site_fract_z
Si Si1 0.497972 0.599150 0.565680
Si Si2 0.957499 0.073927 0.436240
Si Si3 0.997854 0.451194 0.934400
Si Si4 0.516458 0.696250 0.434852
Si Si5 0.034394 0.160898 0.123904
Si Si6 0.534640 0.134161 0.185960
Si Si7 0.457213 0.952430 0.125107
Si Si8 0.018923 0.748240 0.434686
O O1 0.498806 0.600145 0.500000
O O2 0.246023 0.574501 0.588163
O O3 0.502272 0.647824 0.589689
O O4 0.745871 0.573357 0.588111
O O5 0.006112 0.065886 0.500000
O O6 0.981477 0.124806 0.423496
O O7 0.673765 0.056743 0.420935
O O8 0.175315 0.048124 0.402616
O O9 0.000000 0.500000 0.911232
O O10 0.999186 0.451988 0.000000
O O11 0.504146 0.693182 0.500000
O O12 0.780104 0.718696 0.415592
O O13 0.276070 0.724376 0.413385
O O14 0.310796 0.159586 0.153720
O O15 0.810314 0.153472 0.168590
O O16 0.993833 0.206240 0.094771
O O17 0.500000 0.141763 0.250000
O O18 0.520291 0.082837 0.173522
O O19 0.500000 0.000000 0.151065
O O20 0.021137 0.755673 0.500000
#
# Coordination Sequence:
#
# PCOD8202497 Si02
#       8
#     8   8   8   8   8   8   8   8
#     4   9  15  23  32  44  67  95 129 173 218 263
#     4  10  20  33  49  70  98 126 148 174 212 255
#     4   9  15  21  30  43  60  89 131 179 227 262
#     4   9  17  26  38  57  80 110 140 170 217 268
#     4  10  20  34  51  71  91 114 146 180 216 260
#     4  10  21  37  54  70  90 115 144 181 223 256
#     4  10  21  34  50  73  95 119 152 180 208 255
#     4  10  18  29  45  65  89 113 140 173 215 267
#
# _framework density 16.504750000000001
#
# number of rings (size 3 to 8) (size 9 to 14) (size 15 to 20)
#    0.000    2.375    0.000    3.375    0.000    6.250 
#    0.000    3.750    0.000    4.500    0.000    0.000 
#    0.000    0.000    0.000    0.000    0.000    0.000 
#
# Total GULP energy -793649.566581 kJ/mol
# GULP energy per Si atom -12400.774478 kJ/mol
# Density = 1.646718 g / cm^3
# Si number density = 16.504750 Si / 1000 Ang^3
#
#
#
# Elastic Constant Matrix: (Units=GPa)
#
#
# Indices 1 2 3 4 5 6 
#
# 1 96.2140 26.3045 4.5648 0.0000 0.0000 0.0000
# 2 26.3045 124.2679 11.8150 0.0000 0.0000 0.0000
# 3 4.5648 11.8150 28.2068 0.0000 0.0000 0.0000
# 4 0.0000 0.0000 0.0000 7.2516 0.0000 0.0000
# 5 0.0000 0.0000 0.0000 0.0000 9.6457 0.0000
# 6 0.0000 0.0000 0.0000 0.0000 0.0000 26.1940
#
#
#
# Elastic Compliance Matrix: (Units=1/GPa)
#
#
# Indices 1 2 3 4 5 6 
#
# 1 0.011051 -0.002259 -0.000842 0.000000 0.000000 0.000000
# 2 -0.002259 0.008843 -0.003338 0.000000 0.000000 0.000000
# 3 -0.000842 -0.003338 0.036987 0.000000 0.000000 0.000000
# 4 0.000000 0.000000 0.000000 0.137901 0.000000 0.000000
# 5 0.000000 0.000000 0.000000 0.000000 0.103673 0.000000
# 6 0.000000 0.000000 0.000000 0.000000 0.000000 0.038177
#
#
# Mechanical properties :
#
#
# Convention : Reuss Voigt Hill
#
# Bulk Modulus (GPa) = 22.72643 37.11747 29.92195
# Shear Modulus (GPa) = 13.72956 22.35188 18.04072
#
# Velocity S-wave (km/s) = 2.88732 3.68403 3.30974
# Velocity P-wave (km/s) = 4.99149 6.37447 5.72490
#
# Compressibility (1/GPa) = 0.04400163
#
# Stress axis : x y z
#
# Youngs Moduli (GPa) = 90.48873 113.08703 27.03644
#
# Poissons Ratio (x) = 0.25548 0.02277
# Poissons Ratio (y) = 0.20443 0.09026
# Poissons Ratio (z) = 0.07620 0.37753
#
# Static dielectric constant tensor:
#      x y z
#    x 3.432250 0.000000 0.000000 
#    y 0.000000 3.263670 0.000000 
#    z 0.000000 0.000000 2.489920 
# 
# 
# High freq. dielectric constant tensor:
#      x y z
#    x 1.661550 0.000000 0.000000 
#    y 0.000000 1.646620 0.000000 
#    z 0.000000 0.000000 1.560360 
# 
# From -- ./inp_files/21958.got.cif
#   From: 2010.03.12/outbox.cif.g09.slc.cpg/sg49_11_cif.got.tgz:21958.got - 2010.04.14 03:58:27.
