data_PCOD8202983
_publ_section_title
;
Structure prediction by ZEFSAII (Michael W. Deem and Ramdas Pophale) SiO2 
 PCOD8202983
Probable space group: P C C M
;
_chemical_formula_sum "Si O2"
_cell_formula_units_Z 64
_cell_length_a 24.907878
_cell_length_b 15.088020
_cell_length_c 8.659755
_cell_angle_alpha 90.000000
_cell_angle_beta 90.000000
_cell_angle_gamma 90.000000
_cell_volume 3254.427388
_symmetry_space_group_name_H-M "P C C M"
_symmetry_group_IT_number 49
_symmetry_cell_setting 'orthorhombic'
loop_
_space_group_symop_operation_xyz
x,y,z
-x,-y,z
x,-y,1/2-z
-x,y,1/2-z
-x,-y,-z
x,y,-z
-x,y,1/2+z
x,-y,1/2+z
loop_
_atom_site_type_symbol
_atom_site_label
_atom_site_fract_x
_atom_site_fract_y
_atom_site_fract_z
Si Si1 0.319229 0.587413 0.181897
Si Si2 0.792650 0.370600 0.676531
Si Si3 0.654003 0.782327 0.680689
Si Si4 0.096048 0.591400 0.818331
Si Si5 0.055868 0.229927 0.182609
Si Si6 0.557066 0.905806 0.682256
Si Si7 0.763467 0.169122 0.675207
Si Si8 0.862547 0.907929 0.318847
O O1 0.349806 0.500000 0.250000
O O2 0.261267 0.586076 0.260733
O O3 0.350301 0.678210 0.227070
O O4 0.313315 0.579147 0.000000
O O5 0.802693 0.400400 0.500000
O O6 0.840666 0.403738 0.783403
O O7 0.789259 0.265453 0.688872
O O8 0.665218 0.791823 0.500000
O O9 0.599268 0.830233 0.730843
O O10 0.702483 0.831182 0.766555
O O11 0.072744 0.500000 0.750000
O O12 0.063996 0.669438 0.735098
O O13 0.086043 0.597080 0.000000
O O14 0.104424 0.171390 0.244145
O O15 0.000000 0.193157 0.250000
O O16 0.054913 0.224684 0.000000
O O17 0.500000 0.876298 0.750000
O O18 0.552098 0.915397 0.500000
O O19 0.575828 0.000000 0.750000
O O20 0.764093 0.134486 0.500000
O O21 0.799610 0.103697 0.778026
O O22 0.871269 0.907259 0.500000
O O23 0.883950 0.000000 0.250000
#
# Coordination Sequence:
#
# PCOD8202983 Si02
#       8
#     8   8   8   8   8   8   8   8
#     4  10  19  32  50  76 112 152 195 239 286 340
#     4  10  19  33  54  81 115 153 193 236 283 343
#     4   9  20  36  55  81 117 158 197 238 290 350
#     4  12  24  39  61  89 119 156 195 240 293 349
#     4  12  26  47  69  92 119 151 194 243 296 355
#     4  10  20  36  58  84 113 149 192 242 294 348
#     4  10  20  35  58  87 121 156 194 238 288 346
#     4  12  25  43  67  93 122 157 195 240 295 352
#
# _framework density 19.665517999999999
#
# number of rings (size 3 to 8) (size 9 to 14) (size 15 to 20)
#    0.000    1.375    1.250    5.625    0.000    3.500 
#    0.000    3.750    0.000    0.375    0.000    2.625 
#    0.000    0.000    0.000    0.000    0.000    0.000 
#
# Total GULP energy -793822.979513 kJ/mol
# GULP energy per Si atom -12403.484055 kJ/mol
# Density = 1.962076 g / cm^3
# Si number density = 19.665518 Si / 1000 Ang^3
#
#
#
# Elastic Constant Matrix: (Units=GPa)
#
#
# Indices 1 2 3 4 5 6 
#
# 1 92.4517 50.2242 42.8325 0.0000 0.0000 0.0000
# 2 50.2242 100.1612 44.5259 0.0000 0.0000 0.0000
# 3 42.8325 44.5259 138.9612 0.0000 0.0000 0.0000
# 4 0.0000 0.0000 0.0000 34.0863 0.0000 0.0000
# 5 0.0000 0.0000 0.0000 0.0000 26.0618 0.0000
# 6 0.0000 0.0000 0.0000 0.0000 0.0000 18.4595
#
#
#
# Elastic Compliance Matrix: (Units=1/GPa)
#
#
# Indices 1 2 3 4 5 6 
#
# 1 0.015689 -0.006667 -0.002700 0.000000 0.000000 0.000000
# 2 -0.006667 0.014475 -0.002583 0.000000 0.000000 0.000000
# 3 -0.002700 -0.002583 0.008856 0.000000 0.000000 0.000000
# 4 0.000000 0.000000 0.000000 0.029337 0.000000 0.000000
# 5 0.000000 0.000000 0.000000 0.000000 0.038370 0.000000
# 6 0.000000 0.000000 0.000000 0.000000 0.000000 0.054173
#
#
# Mechanical properties :
#
#
# Convention : Reuss Voigt Hill
#
# Bulk Modulus (GPa) = 66.13394 67.41548 66.77471
# Shear Modulus (GPa) = 26.33792 28.65428 27.49610
#
# Velocity S-wave (km/s) = 3.66361 3.82132 3.74329
# Velocity P-wave (km/s) = 7.18320 7.33658 7.26030
#
# Compressibility (1/GPa) = 0.01512083
#
# Stress axis : x y z
#
# Youngs Moduli (GPa) = 63.73911 69.08352 112.91662
#
# Poissons Ratio (x) = 0.46057 0.30484
# Poissons Ratio (y) = 0.42494 0.29169
# Poissons Ratio (z) = 0.17207 0.17846
#
# Static dielectric constant tensor:
#      x y z
#    x 3.458600 0.000000 0.000000 
#    y 0.000000 3.896040 0.000000 
#    z 0.000000 0.000000 3.744560 
# 
# 
# High freq. dielectric constant tensor:
#      x y z
#    x 1.743160 0.000000 0.000000 
#    y 0.000000 1.775990 0.000000 
#    z 0.000000 0.000000 1.781140 
# 
# From -- ./inp_files/6503.got.cif
#   From: 2010.03.12/outbox.cif.g09.slc.cpg/sg49_4_cif.got.tgz:6503.got - 2010.04.14 03:58:27.
