data_PCOD8202788
_publ_section_title
;
Structure prediction by ZEFSAII (Michael W. Deem and Ramdas Pophale) SiO2 
 PCOD8202788
Probable space group: P C C M
;
_chemical_formula_sum "Si O2"
_cell_formula_units_Z 34
_cell_length_a 5.199749
_cell_length_b 18.069966
_cell_length_c 21.622408
_cell_angle_alpha 90.000000
_cell_angle_beta 90.000000
_cell_angle_gamma 90.000000
_cell_volume 2031.626053
_symmetry_space_group_name_H-M "P C C M"
_symmetry_group_IT_number 49
_symmetry_cell_setting 'orthorhombic'
loop_
_space_group_symop_operation_xyz
x,y,z
-x,-y,z
x,-y,1/2-z
-x,y,1/2-z
-x,-y,-z
x,y,-z
-x,y,1/2+z
x,-y,1/2+z
loop_
_atom_site_type_symbol
_atom_site_label
_atom_site_fract_x
_atom_site_fract_y
_atom_site_fract_z
Si Si1 0.245154 0.296100 0.426560
Si Si2 0.000000 0.500000 0.250000
Si Si3 0.253720 0.790985 0.573385
Si Si4 0.750005 0.042549 0.573783
Si Si5 0.760108 0.544068 0.368154
O O1 0.243108 0.305641 0.500000
O O2 0.488108 0.248719 0.403704
O O3 0.264578 0.375552 0.396109
O O4 0.991149 0.254646 0.402193
O O5 0.182433 0.449595 0.294180
O O6 0.245696 0.794767 0.500000
O O7 0.247490 0.874090 0.600313
O O8 0.748368 0.043776 0.500000
O O9 0.500000 0.000000 0.599097
O O10 0.000000 0.000000 0.598845
O O11 0.500000 0.500000 0.381884
O O12 0.000000 0.500000 0.399793
#
# Coordination Sequence:
#
# PCOD8202788 Si02
#       5
#     8   2   8   8   8
#     4  10  19  30  45  66  93 124 152 186 228 269
#     4   8  22  36  52  68  86 112 152 190 238 272
#     4   9  17  28  40  60  92 123 155 188 221 260
#     4   9  15  23  37  56  80 118 162 189 207 245
#     4  10  20  34  51  68  88 116 154 185 235 271
#
# _framework density 16.735364000000001
#
# number of rings (size 3 to 8) (size 9 to 14) (size 15 to 20)
#    0.706    1.882    0.000    3.176    0.000    6.588 
#    0.000    0.000    0.000    0.000    0.000    0.000 
#    0.000    0.000    0.000   15.882    0.471    7.059 
#
# Total GULP energy -421427.514041 kJ/mol
# GULP energy per Si atom -12394.926884 kJ/mol
# Density = 1.669727 g / cm^3
# Si number density = 16.735364 Si / 1000 Ang^3
#
#
#
# Elastic Constant Matrix: (Units=GPa)
#
#
# Indices 1 2 3 4 5 6 
#
# 1 171.2193 87.0189 19.8653 0.0000 0.0000 0.0000
# 2 87.0189 172.8887 28.8684 0.0000 0.0000 0.0000
# 3 19.8653 28.8684 21.4309 0.0000 0.0000 0.0000
# 4 0.0000 0.0000 0.0000 -4.1001 0.0000 0.0000
# 5 0.0000 0.0000 0.0000 0.0000 1.5201 0.0000
# 6 0.0000 0.0000 0.0000 0.0000 0.0000 37.7467
#
#
#
# Elastic Compliance Matrix: (Units=1/GPa)
#
#
# Indices 1 2 3 4 5 6 
#
# 1 0.007955 -0.003577 -0.002555 0.000000 0.000000 0.000000
# 2 -0.003577 0.009071 -0.008903 0.000000 0.000000 0.000000
# 3 -0.002555 -0.008903 0.061023 0.000000 0.000000 0.000000
# 4 0.000000 0.000000 0.000000 -0.243894 0.000000 0.000000
# 5 0.000000 0.000000 0.000000 0.000000 0.657837 0.000000
# 6 0.000000 0.000000 0.000000 0.000000 0.000000 0.026492
#
#
# Mechanical properties :
#
#
# Convention : Reuss Voigt Hill
#
# Bulk Modulus (GPa) = 20.84291 70.78268 45.81280
# Shear Modulus (GPa) = 8.85662 22.35243 15.60452
#
# Velocity S-wave (km/s) = 2.30297 3.65861 3.05688
# Velocity P-wave (km/s) = 4.42188 7.76108 6.31614
#
# Compressibility (1/GPa) = 0.04797794
#
# Stress axis : x y z
#
# Youngs Moduli (GPa) = 125.70705 110.23804 16.38717
#
# Poissons Ratio (x) = 0.39435 0.04187
# Poissons Ratio (y) = 0.44969 0.14590
# Poissons Ratio (z) = 0.32119 0.98150
#
# Static dielectric constant tensor:
#      x y z
#    x 3.583670 0.000000 0.000000 
#    y 0.000000 3.265470 0.000000 
#    z 0.000000 0.000000 2.516780 
# 
# 
# High freq. dielectric constant tensor:
#      x y z
#    x 1.670180 0.000000 0.000000 
#    y 0.000000 1.655830 0.000000 
#    z 0.000000 0.000000 1.564630 
# 
# From -- ./inp_files/18840.got.cif
#   From: 2010.03.12/outbox.cif.g09.slc.cpg/sg49_10_cif.got.tgz:18840.got - 2010.04.14 03:58:27.
