data_PCOD8202039
_publ_section_title
;
Structure prediction by ZEFSAII (Michael W. Deem and Ramdas Pophale) SiO2 
 PCOD8202039
Probable space group: P N N N
;
_chemical_formula_sum "Si O2"
_cell_formula_units_Z 32
_cell_length_a 8.503498
_cell_length_b 9.645582
_cell_length_c 19.069106
_cell_angle_alpha 90.000000
_cell_angle_beta 90.000000
_cell_angle_gamma 90.000000
_cell_volume 1564.070714
_symmetry_space_group_name_H-M "P N N N"
_symmetry_group_IT_number 48
_space_group.IT_coordinate_system_code '2'
_symmetry_cell_setting 'orthorhombic'
loop_
_space_group_symop_operation_xyz
x,y,z
1/2-x,1/2-y,z
x,1/2-y,1/2-z
1/2-x,y,1/2-z
-x,-y,-z
1/2+x,1/2+y,-z
-x,1/2+y,1/2+z
1/2+x,-y,1/2+z
loop_
_atom_site_type_symbol
_atom_site_label
_atom_site_fract_x
_atom_site_fract_y
_atom_site_fract_z
Si Si1 0.925294 0.196898 0.935995
Si Si2 0.559542 0.521262 0.420656
Si Si3 0.420629 0.284262 0.331331
Si Si4 0.415209 0.926541 0.585536
O O1 0.750000 0.250000 0.922028
O O2 0.040902 0.315209 0.905924
O O3 0.959010 0.164196 0.017319
O O4 0.963607 0.052067 0.897830
O O5 0.500000 0.500000 0.500000
O O6 0.465616 0.437663 0.359764
O O7 0.740659 0.482686 0.418291
O O8 0.250000 0.250000 0.365354
O O9 0.408913 0.250000 0.250000
O O10 0.561445 0.182138 0.353020
#
# Coordination Sequence:
#
# PCOD8202039 Si02
#       4
#     8   8   8   8
#     4  11  21  36  59  94 129 164 206 268 325 374
#     4  12  22  38  62  97 130 166 216 271 323 382
#     4  11  25  44  66  93 131 178 218 264 330 403
#     4  11  23  37  62  94 128 171 210 268 327 378
#
# _framework density 20.459430999999999
#
# number of rings (size 3 to 8) (size 9 to 14) (size 15 to 20)
#    0.000    0.750    5.000    3.000    3.500    2.000 
#    0.000    1.250    0.000    7.500    0.000    0.000 
#    0.000    0.000    0.000    0.000    0.000    0.000 
#
# Total GULP energy -396500.930162 kJ/mol
# GULP energy per Si atom -12390.654068 kJ/mol
# Density = 2.041286 g / cm^3
# Si number density = 20.459431 Si / 1000 Ang^3
#
#
#
# Elastic Constant Matrix: (Units=GPa)
#
#
# Indices 1 2 3 4 5 6 
#
# 1 114.7586 70.0770 17.0508 0.0000 0.0000 0.0000
# 2 70.0770 157.6898 37.5272 0.0000 0.0000 0.0000
# 3 17.0508 37.5272 53.8180 0.0000 0.0000 0.0000
# 4 0.0000 0.0000 0.0000 31.1867 0.0000 0.0000
# 5 0.0000 0.0000 0.0000 0.0000 22.4968 0.0000
# 6 0.0000 0.0000 0.0000 0.0000 0.0000 40.5564
#
#
#
# Elastic Compliance Matrix: (Units=1/GPa)
#
#
# Indices 1 2 3 4 5 6 
#
# 1 0.011960 -0.005291 -0.000100 0.000000 0.000000 0.000000
# 2 -0.005291 0.009944 -0.005258 0.000000 0.000000 0.000000
# 3 -0.000100 -0.005258 0.022279 0.000000 0.000000 0.000000
# 4 0.000000 0.000000 0.000000 0.032065 0.000000 0.000000
# 5 0.000000 0.000000 0.000000 0.000000 0.044451 0.000000
# 6 0.000000 0.000000 0.000000 0.000000 0.000000 0.024657
#
#
# Mechanical properties :
#
#
# Convention : Reuss Voigt Hill
#
# Bulk Modulus (GPa) = 43.69505 63.95292 53.82399
# Shear Modulus (GPa) = 28.68927 32.28875 30.48901
#
# Velocity S-wave (km/s) = 3.74873 3.97695 3.86452
# Velocity P-wave (km/s) = 6.33566 7.23978 6.80276
#
# Compressibility (1/GPa) = 0.02288589
#
# Stress axis : x y z
#
# Youngs Moduli (GPa) = 83.61341 100.56111 44.88557
#
# Poissons Ratio (x) = 0.53209 0.00447
# Poissons Ratio (y) = 0.44242 0.23599
# Poissons Ratio (z) = 0.00833 0.52872
#
# Static dielectric constant tensor:
#      x y z
#    x 4.206310 0.000000 0.000000 
#    y 0.000000 4.332910 0.000000 
#    z 0.000000 0.000000 3.408630 
# 
# 
# High freq. dielectric constant tensor:
#      x y z
#    x 1.816570 0.000000 0.000000 
#    y 0.000000 1.822550 0.000000 
#    z 0.000000 0.000000 1.753560 
# 
# From -- ./inp_files/8623.got.cif
#   From: 2010.06.25/outbox.cif.g09.slc.cpg/sg48_5_cif.got.tgz:8623.got - 2010.06.26 18:06:46.
