data_PCOD8202140
_publ_section_title
;
Structure prediction by ZEFSAII (Michael W. Deem and Ramdas Pophale) SiO2 
 PCOD8202140
Probable space group: P N N N
;
_chemical_formula_sum "Si O2"
_cell_formula_units_Z 32
_cell_length_a 15.931391
_cell_length_b 8.578030
_cell_length_c 10.122551
_cell_angle_alpha 90.000000
_cell_angle_beta 90.000000
_cell_angle_gamma 90.000000
_cell_volume 1383.347313
_symmetry_space_group_name_H-M "P N N N"
_symmetry_group_IT_number 48
_space_group.IT_coordinate_system_code '2'
_symmetry_cell_setting 'orthorhombic'
loop_
_space_group_symop_operation_xyz
x,y,z
1/2-x,1/2-y,z
x,1/2-y,1/2-z
1/2-x,y,1/2-z
-x,-y,-z
1/2+x,1/2+y,-z
-x,1/2+y,1/2+z
1/2+x,-y,1/2+z
loop_
_atom_site_type_symbol
_atom_site_label
_atom_site_fract_x
_atom_site_fract_y
_atom_site_fract_z
Si Si1 0.219728 0.420994 0.522322
Si Si2 0.125342 0.841224 0.115767
Si Si3 0.643255 0.131178 0.140318
Si Si4 0.550123 0.916587 0.313103
O O1 0.250000 0.250000 0.476273
O O2 0.203669 0.538188 0.399327
O O3 0.289031 0.494253 0.618516
O O4 0.130115 0.418786 0.593045
O O5 0.141333 0.750000 0.250000
O O6 0.038840 0.941528 0.113309
O O7 0.121525 0.720265 0.994034
O O8 0.679114 0.250000 0.250000
O O9 0.559806 0.048711 0.199519
O O10 0.541983 0.750000 0.250000
#
# Coordination Sequence:
#
# PCOD8202140 Si02
#       4
#     8   8   8   8
#     4  12  25  45  77 111 142 188 257 308 357 430
#     4  11  28  49  72 105 159 194 238 302 385 443
#     4  12  26  43  80 106 141 194 251 299 363 438
#     4  11  24  45  75 110 145 188 249 310 359 436
#
# _framework density 23.132294999999999
#
# number of rings (size 3 to 8) (size 9 to 14) (size 15 to 20)
#    0.000    0.500    5.000    2.250    3.500    6.000 
#    0.000    2.500    0.000    0.000    0.000    0.000 
#    0.000    0.000    0.000    0.000    0.000    0.000 
#
# Total GULP energy -396669.461873 kJ/mol
# GULP energy per Si atom -12395.920684 kJ/mol
# Density = 2.307964 g / cm^3
# Si number density = 23.132295 Si / 1000 Ang^3
#
#
#
# Elastic Constant Matrix: (Units=GPa)
#
#
# Indices 1 2 3 4 5 6 
#
# 1 98.9000 44.8533 37.6265 0.0000 0.0000 0.0000
# 2 44.8533 157.0993 57.1461 0.0000 0.0000 0.0000
# 3 37.6265 57.1461 138.1527 0.0000 0.0000 0.0000
# 4 0.0000 0.0000 0.0000 29.5165 0.0000 0.0000
# 5 0.0000 0.0000 0.0000 0.0000 76.7138 0.0000
# 6 0.0000 0.0000 0.0000 0.0000 0.0000 34.7280
#
#
#
# Elastic Compliance Matrix: (Units=1/GPa)
#
#
# Indices 1 2 3 4 5 6 
#
# 1 0.012162 -0.002669 -0.002208 0.000000 0.000000 0.000000
# 2 -0.002669 0.008079 -0.002615 0.000000 0.000000 0.000000
# 3 -0.002208 -0.002615 0.008921 0.000000 0.000000 0.000000
# 4 0.000000 0.000000 0.000000 0.033879 0.000000 0.000000
# 5 0.000000 0.000000 0.000000 0.000000 0.013035 0.000000
# 6 0.000000 0.000000 0.000000 0.000000 0.000000 0.028795
#
#
# Mechanical properties :
#
#
# Convention : Reuss Voigt Hill
#
# Bulk Modulus (GPa) = 70.53354 74.82265 72.67809
# Shear Modulus (GPa) = 40.13429 45.16007 42.64718
#
# Velocity S-wave (km/s) = 4.16984 4.42322 4.29840
# Velocity P-wave (km/s) = 7.33082 7.64868 7.49144
#
# Compressibility (1/GPa) = 0.01417765
#
# Stress axis : x y z
#
# Youngs Moduli (GPa) = 82.22443 123.78436 112.09036
#
# Poissons Ratio (x) = 0.33038 0.24753
# Poissons Ratio (y) = 0.21946 0.29309
# Poissons Ratio (z) = 0.18158 0.32366
#
# Static dielectric constant tensor:
#      x y z
#    x 4.816610 0.000000 0.000000 
#    y 0.000000 4.307920 0.000000 
#    z 0.000000 0.000000 6.586930 
# 
# 
# High freq. dielectric constant tensor:
#      x y z
#    x 1.921440 0.000000 0.000000 
#    y 0.000000 1.927080 0.000000 
#    z 0.000000 0.000000 1.909400 
# 
# From -- ./inp_files/20721.got.cif
#   From: 2010.06.25/outbox.cif.g09.slc.cpg/sg48_11_cif.got.tgz:20721.got - 2010.06.26 18:06:46.
