data_PCOD8202754
_publ_section_title
;
Structure prediction by ZEFSAII (Michael W. Deem and Ramdas Pophale) SiO2 
 PCOD8202754
Probable space group: P C C M
;
_chemical_formula_sum "Si O2"
_cell_formula_units_Z 64
_cell_length_a 22.878506
_cell_length_b 18.346187
_cell_length_c 8.953198
_cell_angle_alpha 90.000000
_cell_angle_beta 90.000000
_cell_angle_gamma 90.000000
_cell_volume 3757.955784
_symmetry_space_group_name_H-M "P C C M"
_symmetry_group_IT_number 49
_symmetry_cell_setting 'orthorhombic'
loop_
_space_group_symop_operation_xyz
x,y,z
-x,-y,z
x,-y,1/2-z
-x,y,1/2-z
-x,-y,-z
x,y,-z
-x,y,1/2+z
x,-y,1/2+z
loop_
_atom_site_type_symbol
_atom_site_label
_atom_site_fract_x
_atom_site_fract_y
_atom_site_fract_z
Si Si1 0.319307 0.925482 0.821708
Si Si2 0.335375 0.331971 0.664772
Si Si3 0.556399 0.705603 0.829221
Si Si4 0.560507 0.874686 0.823237
Si Si5 0.062841 0.575613 0.321265
Si Si6 0.757585 0.211116 0.825807
Si Si7 0.234039 0.573120 0.832454
Si Si8 0.160340 0.310859 0.174507
O O1 0.383251 0.911095 0.752375
O O2 0.269268 0.866710 0.776685
O O3 0.295668 0.000000 0.750000
O O4 0.325922 0.930215 0.000000
O O5 0.359236 0.311071 0.500000
O O6 0.387891 0.340429 0.779226
O O7 0.291869 0.268817 0.719943
O O8 0.303048 0.410185 0.658121
O O9 0.500000 0.672799 0.750000
O O10 0.566091 0.789579 0.786757
O O11 0.545616 0.693306 0.000000
O O12 0.500000 0.904744 0.750000
O O13 0.559934 0.891122 0.000000
O O14 0.089110 0.500000 0.250000
O O15 0.059342 0.565815 0.500000
O O16 0.099976 0.648315 0.277620
O O17 0.000000 0.589564 0.250000
O O18 0.820509 0.232755 0.748450
O O19 0.771037 0.213912 0.000000
O O20 0.219147 0.500000 0.750000
O O21 0.210043 0.634992 0.726242
O O22 0.206693 0.573405 0.000000
O O23 0.160771 0.297772 0.000000
#
# Coordination Sequence:
#
# PCOD8202754 Si02
#       8
#     8   8   8   8   8   8   8   8
#     4  11  22  36  52  71  97 128 161 200 247 300
#     4   9  17  31  48  66  89 115 147 188 234 282
#     4  10  19  29  46  68  88 112 145 185 231 282
#     4  10  20  33  49  70  93 122 157 196 241 294
#     4  10  20  32  48  73 105 144 180 212 244 281
#     4   9  19  34  51  70  95 126 160 199 243 288
#     4  10  20  32  47  69  95 125 157 194 239 283
#     4  10  20  32  50  74 100 131 169 208 242 279
#
# _framework density 17.030536000000001
#
# number of rings (size 3 to 8) (size 9 to 14) (size 15 to 20)
#    0.000    2.125    1.250    3.750    0.000    7.750 
#    0.000    1.250    0.000    0.375    0.000    2.625 
#    0.000    0.500    0.000    5.500    0.000    4.000 
#
# Total GULP energy -792944.358609 kJ/mol
# GULP energy per Si atom -12389.755603 kJ/mol
# Density = 1.699177 g / cm^3
# Si number density = 17.030536 Si / 1000 Ang^3
#
#
#
# Elastic Constant Matrix: (Units=GPa)
#
#
# Indices 1 2 3 4 5 6 
#
# 1 86.5476 43.2582 41.9024 0.0000 0.0000 0.0000
# 2 43.2582 58.9247 29.1282 0.0000 0.0000 0.0000
# 3 41.9024 29.1282 58.0085 0.0000 0.0000 0.0000
# 4 0.0000 0.0000 0.0000 16.7498 0.0000 0.0000
# 5 0.0000 0.0000 0.0000 0.0000 27.3638 0.0000
# 6 0.0000 0.0000 0.0000 0.0000 0.0000 22.2993
#
#
#
# Elastic Compliance Matrix: (Units=1/GPa)
#
#
# Indices 1 2 3 4 5 6 
#
# 1 0.022155 -0.011112 -0.010424 0.000000 0.000000 0.000000
# 2 -0.011112 0.028147 -0.006107 0.000000 0.000000 0.000000
# 3 -0.010424 -0.006107 0.027835 0.000000 0.000000 0.000000
# 4 0.000000 0.000000 0.000000 0.059702 0.000000 0.000000
# 5 0.000000 0.000000 0.000000 0.000000 0.036545 0.000000
# 6 0.000000 0.000000 0.000000 0.000000 0.000000 0.044844
#
#
# Mechanical properties :
#
#
# Convention : Reuss Voigt Hill
#
# Bulk Modulus (GPa) = 43.76067 48.00650 45.88358
# Shear Modulus (GPa) = 17.72220 19.22872 18.47546
#
# Velocity S-wave (km/s) = 3.22935 3.36381 3.29727
# Velocity P-wave (km/s) = 6.29731 6.58306 6.44177
#
# Compressibility (1/GPa) = 0.02285157
#
# Stress axis : x y z
#
# Youngs Moduli (GPa) = 45.13639 35.52757 35.92548
#
# Poissons Ratio (x) = 0.39477 0.37449
# Poissons Ratio (y) = 0.50154 0.21940
# Poissons Ratio (z) = 0.47051 0.21697
#
# Static dielectric constant tensor:
#      x y z
#    x 3.273140 0.000000 0.000000 
#    y 0.000000 3.169400 0.000000 
#    z 0.000000 0.000000 3.468060 
# 
# 
# High freq. dielectric constant tensor:
#      x y z
#    x 1.638070 0.000000 0.000000 
#    y 0.000000 1.628700 0.000000 
#    z 0.000000 0.000000 1.671300 
# 
# From -- ./inp_files/6646.got.cif
#   From: 2010.03.12/outbox.cif.g09.slc.cpg/sg49_4_cif.got.tgz:6646.got - 2010.04.14 03:58:27.
