data_PCOD8202598
_publ_section_title
;
Structure prediction by ZEFSAII (Michael W. Deem and Ramdas Pophale) SiO2 
 PCOD8202598
Probable space group: P C C M
;
_chemical_formula_sum "Si O2"
_cell_formula_units_Z 64
_cell_length_a 23.438282
_cell_length_b 18.933747
_cell_length_c 8.727887
_cell_angle_alpha 90.000000
_cell_angle_beta 90.000000
_cell_angle_gamma 90.000000
_cell_volume 3873.213703
_symmetry_space_group_name_H-M "P C C M"
_symmetry_group_IT_number 49
_symmetry_cell_setting 'orthorhombic'
loop_
_space_group_symop_operation_xyz
x,y,z
-x,-y,z
x,-y,1/2-z
-x,y,1/2-z
-x,-y,-z
x,y,-z
-x,y,1/2+z
x,-y,1/2+z
loop_
_atom_site_type_symbol
_atom_site_label
_atom_site_fract_x
_atom_site_fract_y
_atom_site_fract_z
Si Si1 0.160843 0.659747 0.318967
Si Si2 0.559387 0.789439 0.318610
Si Si3 0.221704 0.785711 0.179399
Si Si4 0.666415 0.300580 0.821983
Si Si5 0.256505 0.926257 0.319338
Si Si6 0.388166 0.073522 0.819606
Si Si7 0.938732 0.574463 0.681933
Si Si8 0.727434 0.423995 0.679370
O O1 0.150895 0.657028 0.500000
O O2 0.174232 0.739444 0.266693
O O3 0.104526 0.635461 0.230825
O O4 0.212509 0.608929 0.265772
O O5 0.500000 0.761991 0.250000
O O6 0.556098 0.795378 0.500000
O O7 0.607074 0.733123 0.267019
O O8 0.573231 0.865914 0.251886
O O9 0.284120 0.755196 0.217163
O O10 0.218590 0.864858 0.244058
O O11 0.208264 0.785368 0.000000
O O12 0.675953 0.373184 0.730975
O O13 0.665895 0.319320 0.000000
O O14 0.247413 0.926614 0.500000
O O15 0.322378 0.913880 0.273991
O O16 0.234705 0.000000 0.250000
O O17 0.409932 0.000000 0.750000
O O18 0.396874 0.072248 0.000000
O O19 0.917127 0.500000 0.750000
O O20 0.942619 0.568424 0.500000
O O21 0.000000 0.594449 0.750000
O O22 0.718249 0.500000 0.750000
O O23 0.726044 0.431953 0.500000
#
# Coordination Sequence:
#
# PCOD8202598 Si02
#       8
#     8   8   8   8   8   8   8   8
#     4  10  20  33  49  74 104 135 170 209 246 289
#     4  11  22  36  52  71  93 121 155 196 239 289
#     4  10  18  31  50  72  98 129 163 202 247 295
#     4   9  19  34  51  69  94 122 153 191 237 290
#     4  10  19  30  47  70  97 129 163 199 242 294
#     4  10  20  33  50  70  94 124 158 197 237 285
#     4  11  21  34  51  72 101 141 181 217 252 291
#     4  10  20  32  51  75 100 126 156 194 240 288
#
# _framework density 16.523745999999999
#
# number of rings (size 3 to 8) (size 9 to 14) (size 15 to 20)
#    0.000    1.875    1.250    4.125    0.000    5.250 
#    0.000    1.250    0.000    0.375    0.000    2.625 
#    0.000    0.500    0.000    5.000    0.000    3.000 
#
# Total GULP energy -793882.754273 kJ/mol
# GULP energy per Si atom -12404.418036 kJ/mol
# Density = 1.648614 g / cm^3
# Si number density = 16.523746 Si / 1000 Ang^3
#
#
#
# Elastic Constant Matrix: (Units=GPa)
#
#
# Indices 1 2 3 4 5 6 
#
# 1 83.2600 51.5040 37.7511 0.0000 0.0000 0.0000
# 2 51.5040 118.6846 42.0104 0.0000 0.0000 0.0000
# 3 37.7511 42.0104 82.6381 0.0000 0.0000 0.0000
# 4 0.0000 0.0000 0.0000 32.1362 0.0000 0.0000
# 5 0.0000 0.0000 0.0000 0.0000 24.2928 0.0000
# 6 0.0000 0.0000 0.0000 0.0000 0.0000 30.1214
#
#
#
# Elastic Compliance Matrix: (Units=1/GPa)
#
#
# Indices 1 2 3 4 5 6 
#
# 1 0.018088 -0.006005 -0.005210 0.000000 0.000000 0.000000
# 2 -0.006005 0.012268 -0.003493 0.000000 0.000000 0.000000
# 3 -0.005210 -0.003493 0.016257 0.000000 0.000000 0.000000
# 4 0.000000 0.000000 0.000000 0.031118 0.000000 0.000000
# 5 0.000000 0.000000 0.000000 0.000000 0.041164 0.000000
# 6 0.000000 0.000000 0.000000 0.000000 0.000000 0.033199
#
#
# Mechanical properties :
#
#
# Convention : Reuss Voigt Hill
#
# Bulk Modulus (GPa) = 58.15451 60.79040 59.47245
# Shear Modulus (GPa) = 26.70329 27.53122 27.11726
#
# Velocity S-wave (km/s) = 4.02438 4.08629 4.05545
# Velocity P-wave (km/s) = 7.54089 7.68982 7.61572
#
# Compressibility (1/GPa) = 0.01719557
#
# Stress axis : x y z
#
# Youngs Moduli (GPa) = 55.28660 81.51160 61.51185
#
# Poissons Ratio (x) = 0.48948 0.32048
# Poissons Ratio (y) = 0.33200 0.21489
# Poissons Ratio (z) = 0.28805 0.28476
#
# Static dielectric constant tensor:
#      x y z
#    x 2.951950 0.000000 0.000000 
#    y 0.000000 3.114890 0.000000 
#    z 0.000000 0.000000 3.182020 
# 
# 
# High freq. dielectric constant tensor:
#      x y z
#    x 1.604150 0.000000 0.000000 
#    y 0.000000 1.633250 0.000000 
#    z 0.000000 0.000000 1.654160 
# 
# From -- ./inp_files/5240.got.cif
#   From: 2010.03.12/outbox.cif.g09.slc.cpg/sg49_3_cif.got.tgz:5240.got - 2010.04.14 03:58:27.
