data_PCOD8202611
_publ_section_title
;
Structure prediction by ZEFSAII (Michael W. Deem and Ramdas Pophale) SiO2 
 PCOD8202611
Probable space group: P C C M
;
_chemical_formula_sum "Si O2"
_cell_formula_units_Z 56
_cell_length_a 20.116039
_cell_length_b 15.340839
_cell_length_c 8.998403
_cell_angle_alpha 90.000000
_cell_angle_beta 90.000000
_cell_angle_gamma 90.000000
_cell_volume 2776.879411
_symmetry_space_group_name_H-M "P C C M"
_symmetry_group_IT_number 49
_symmetry_cell_setting 'orthorhombic'
loop_
_space_group_symop_operation_xyz
x,y,z
-x,-y,z
x,-y,1/2-z
-x,y,1/2-z
-x,-y,-z
x,y,-z
-x,y,1/2+z
x,-y,1/2+z
loop_
_atom_site_type_symbol
_atom_site_label
_atom_site_fract_x
_atom_site_fract_y
_atom_site_fract_z
Si Si1 0.709601 0.306077 0.670152
Si Si2 0.265247 0.133511 0.327990
Si Si3 0.835194 0.590397 0.172003
Si Si4 0.116234 0.085603 0.670763
Si Si5 0.564395 0.725605 0.828003
Si Si6 0.931182 0.273346 0.178038
Si Si7 0.394748 0.916545 0.674312
O O1 0.710155 0.270099 0.500000
O O2 0.739756 0.233998 0.778904
O O3 0.755788 0.391323 0.684879
O O4 0.632433 0.326241 0.713371
O O5 0.286486 0.129465 0.500000
O O6 0.194711 0.089173 0.300212
O O7 0.318426 0.083428 0.227659
O O8 0.852285 0.500000 0.250000
O O9 0.873730 0.666481 0.256032
O O10 0.857270 0.586546 0.000000
O O11 0.098963 0.075156 0.500000
O O12 0.082324 0.174105 0.730451
O O13 0.086417 0.000000 0.750000
O O14 0.500000 0.683194 0.750000
O O15 0.571404 0.826292 0.775128
O O16 0.549469 0.720302 0.000000
O O17 0.000000 0.304830 0.250000
O O18 0.932129 0.282409 0.000000
O O19 0.397177 0.929125 0.500000
O O20 0.430902 0.000000 0.750000
#
# Coordination Sequence:
#
# PCOD8202611 Si02
#       7
#     8   8   8   8   8   8   8
#     4   9  19  36  58  84 116 152 190 236 292 349
#     4  10  18  31  52  79 109 147 192 243 296 346
#     4  11  23  41  68  98 125 157 193 242 300 359
#     4  10  22  36  55  83 118 157 202 251 294 345
#     4   9  19  34  51  75 107 146 192 238 288 351
#     4  11  24  44  64  90 125 162 204 249 298 355
#     4  10  20  32  45  68 103 143 190 245 297 350
#
# _framework density 20.166523000000002
#
# number of rings (size 3 to 8) (size 9 to 14) (size 15 to 20)
#    0.000    2.000    1.429    3.000    0.000    7.714 
#    0.000    4.286    0.000    0.429    0.000    3.000 
#    0.000    0.000    0.000    0.000    0.000    0.000 
#
# Total GULP energy -694288.782115 kJ/mol
# GULP energy per Si atom -12398.013966 kJ/mol
# Density = 2.012062 g / cm^3
# Si number density = 20.166523 Si / 1000 Ang^3
#
#
#
# Elastic Constant Matrix: (Units=GPa)
#
#
# Indices 1 2 3 4 5 6 
#
# 1 99.0295 37.5929 43.1891 0.0000 0.0000 0.0000
# 2 37.5929 84.6958 33.5334 0.0000 0.0000 0.0000
# 3 43.1891 33.5334 74.9680 0.0000 0.0000 0.0000
# 4 0.0000 0.0000 0.0000 22.9860 0.0000 0.0000
# 5 0.0000 0.0000 0.0000 0.0000 25.3480 0.0000
# 6 0.0000 0.0000 0.0000 0.0000 0.0000 6.9178
#
#
#
# Elastic Compliance Matrix: (Units=1/GPa)
#
#
# Indices 1 2 3 4 5 6 
#
# 1 0.014418 -0.003780 -0.006615 0.000000 0.000000 0.000000
# 2 -0.003780 0.015339 -0.004683 0.000000 0.000000 0.000000
# 3 -0.006615 -0.004683 0.019245 0.000000 0.000000 0.000000
# 4 0.000000 0.000000 0.000000 0.043505 0.000000 0.000000
# 5 0.000000 0.000000 0.000000 0.000000 0.039451 0.000000
# 6 0.000000 0.000000 0.000000 0.000000 0.000000 0.144555
#
#
# Mechanical properties :
#
#
# Convention : Reuss Voigt Hill
#
# Bulk Modulus (GPa) = 53.06684 54.14710 53.60697
# Shear Modulus (GPa) = 15.97683 20.67554 18.32619
#
# Velocity S-wave (km/s) = 2.81774 3.20541 3.01781
# Velocity P-wave (km/s) = 6.07928 6.37243 6.22758
#
# Compressibility (1/GPa) = 0.01884416
#
# Stress axis : x y z
#
# Youngs Moduli (GPa) = 69.35684 65.19241 51.96159
#
# Poissons Ratio (x) = 0.24646 0.34374
# Poissons Ratio (y) = 0.26220 0.24335
# Poissons Ratio (z) = 0.45882 0.30532
#
# Static dielectric constant tensor:
#      x y z
#    x 3.670250 0.000000 0.000000 
#    y 0.000000 3.479880 0.000000 
#    z 0.000000 0.000000 3.634890 
# 
# 
# High freq. dielectric constant tensor:
#      x y z
#    x 1.789780 0.000000 0.000000 
#    y 0.000000 1.761580 0.000000 
#    z 0.000000 0.000000 1.789430 
# 
# From -- ./inp_files/5785.got.cif
#   From: 2010.03.12/outbox.cif.g09.slc.cpg/sg49_3_cif.got.tgz:5785.got - 2010.04.14 03:58:27.
