data_PCOD8202378
_publ_section_title
;
Structure prediction by ZEFSAII (Michael W. Deem and Ramdas Pophale) SiO2 
 PCOD8202378
Probable space group: P C C M
;
_chemical_formula_sum "Si O2"
_cell_formula_units_Z 64
_cell_length_a 15.252358
_cell_length_b 25.440290
_cell_length_c 8.682138
_cell_angle_alpha 90.000000
_cell_angle_beta 90.000000
_cell_angle_gamma 90.000000
_cell_volume 3368.881481
_symmetry_space_group_name_H-M "P C C M"
_symmetry_group_IT_number 49
_symmetry_cell_setting 'orthorhombic'
loop_
_space_group_symop_operation_xyz
x,y,z
-x,-y,z
x,-y,1/2-z
-x,y,1/2-z
-x,-y,-z
x,y,-z
-x,y,1/2+z
x,-y,1/2+z
loop_
_atom_site_type_symbol
_atom_site_label
_atom_site_fract_x
_atom_site_fract_y
_atom_site_fract_z
Si Si1 0.695118 0.550565 0.323944
Si Si2 0.913810 0.337463 0.818079
Si Si3 0.903597 0.840795 0.182271
Si Si4 0.902623 0.052320 0.816664
Si Si5 0.416021 0.626805 0.331886
Si Si6 0.218993 0.246637 0.319158
Si Si7 0.881076 0.551016 0.183147
Si Si8 0.590154 0.249786 0.672972
O O1 0.645766 0.500000 0.250000
O O2 0.673845 0.549470 0.500000
O O3 0.667871 0.607317 0.260056
O O4 0.796046 0.547135 0.288424
O O5 0.824838 0.303904 0.783708
O O6 0.920116 0.392421 0.725198
O O7 0.000000 0.306740 0.750000
O O8 0.922508 0.347297 0.000000
O O9 0.859925 0.893858 0.253940
O O10 0.837776 0.794529 0.223992
O O11 0.000000 0.829482 0.250000
O O12 0.912109 0.846745 0.000000
O O13 0.000000 0.052265 0.750000
O O14 0.853886 0.000000 0.750000
O O15 0.902095 0.051134 0.000000
O O16 0.500000 0.602171 0.250000
O O17 0.410955 0.602128 0.500000
O O18 0.421497 0.688630 0.337738
O O19 0.212944 0.234405 0.500000
O O20 0.320675 0.240219 0.268972
O O21 0.935772 0.500000 0.250000
O O22 0.865334 0.547001 0.000000
O O23 0.500000 0.226477 0.750000
O O24 0.599205 0.226077 0.500000
#
# Coordination Sequence:
#
# PCOD8202378 Si02
#       8
#     8   8   8   8   8   8   8   8
#     4  11  21  34  51  71  95 122 154 192 239 295
#     4  11  24  40  58  81 108 139 176 217 264 319
#     4  11  21  34  52  77 112 153 196 237 279 326
#     4  10  17  28  46  71 105 147 195 240 282 323
#     4  10  20  34  51  72  96 122 154 193 243 302
#     4  11  23  38  57  81 111 145 181 223 271 325
#     4  11  22  38  58  77  98 125 162 207 256 308
#     4  10  21  37  58  81 105 134 170 214 263 317
#
# _framework density 18.997404
#
# number of rings (size 3 to 8) (size 9 to 14) (size 15 to 20)
#    0.000    1.375    0.000    9.000    0.000    7.000 
#    0.000    2.500    0.000    0.000    0.000    0.000 
#    0.000    0.500    0.000    5.000    0.000    3.000 
#
# Total GULP energy -792860.982742 kJ/mol
# GULP energy per Si atom -12388.452855 kJ/mol
# Density = 1.895416 g / cm^3
# Si number density = 18.997404 Si / 1000 Ang^3
#
#
#
# Elastic Constant Matrix: (Units=GPa)
#
#
# Indices 1 2 3 4 5 6 
#
# 1 81.8496 26.7723 25.1834 0.0000 0.0000 0.0000
# 2 26.7723 78.1812 40.5706 0.0000 0.0000 0.0000
# 3 25.1834 40.5706 162.3876 0.0000 0.0000 0.0000
# 4 0.0000 0.0000 0.0000 30.8166 0.0000 0.0000
# 5 0.0000 0.0000 0.0000 0.0000 23.3148 0.0000
# 6 0.0000 0.0000 0.0000 0.0000 0.0000 6.6850
#
#
#
# Elastic Compliance Matrix: (Units=1/GPa)
#
#
# Indices 1 2 3 4 5 6 
#
# 1 0.013931 -0.004193 -0.001113 0.000000 0.000000 0.000000
# 2 -0.004193 0.015958 -0.003337 0.000000 0.000000 0.000000
# 3 -0.001113 -0.003337 0.007164 0.000000 0.000000 0.000000
# 4 0.000000 0.000000 0.000000 0.032450 0.000000 0.000000
# 5 0.000000 0.000000 0.000000 0.000000 0.042891 0.000000
# 6 0.000000 0.000000 0.000000 0.000000 0.000000 0.149588
#
#
# Mechanical properties :
#
#
# Convention : Reuss Voigt Hill
#
# Bulk Modulus (GPa) = 50.58550 56.38568 53.48559
# Shear Modulus (GPa) = 17.49120 27.48944 22.49032
#
# Velocity S-wave (km/s) = 3.03762 3.80809 3.44446
# Velocity P-wave (km/s) = 6.24406 7.00575 6.63584
#
# Compressibility (1/GPa) = 0.01976851
#
# Stress axis : x y z
#
# Youngs Moduli (GPa) = 71.77984 62.66373 139.58044
#
# Poissons Ratio (x) = 0.26276 0.15534
# Poissons Ratio (y) = 0.30098 0.46574
# Poissons Ratio (z) = 0.07988 0.20909
#
# Static dielectric constant tensor:
#      x y z
#    x 3.441420 0.000000 0.000000 
#    y 0.000000 4.238830 0.000000 
#    z 0.000000 0.000000 3.729080 
# 
# 
# High freq. dielectric constant tensor:
#      x y z
#    x 1.718040 0.000000 0.000000 
#    y 0.000000 1.718390 0.000000 
#    z 0.000000 0.000000 1.761410 
# 
# From -- ./inp_files/4393.got.cif
#   From: 2010.03.12/outbox.cif.g09.slc.cpg/sg49_3_cif.got.tgz:4393.got - 2010.04.14 03:58:27.
