data_PCOD8202332
_publ_section_title
;
Structure prediction by ZEFSAII (Michael W. Deem and Ramdas Pophale) SiO2 
 PCOD8202332
Probable space group: P C C M
;
_chemical_formula_sum "Si O2"
_cell_formula_units_Z 48
_cell_length_a 15.459698
_cell_length_b 19.261394
_cell_length_c 8.649531
_cell_angle_alpha 90.000000
_cell_angle_beta 90.000000
_cell_angle_gamma 90.000000
_cell_volume 2575.616985
_symmetry_space_group_name_H-M "P C C M"
_symmetry_group_IT_number 49
_symmetry_cell_setting 'orthorhombic'
loop_
_space_group_symop_operation_xyz
x,y,z
-x,-y,z
x,-y,1/2-z
-x,y,1/2-z
-x,-y,-z
x,y,-z
-x,y,1/2+z
x,-y,1/2+z
loop_
_atom_site_type_symbol
_atom_site_label
_atom_site_fract_x
_atom_site_fract_y
_atom_site_fract_z
Si Si1 0.582562 0.179026 0.319734
Si Si2 0.090678 0.926700 0.820228
Si Si3 0.765279 0.332171 0.678844
Si Si4 0.227888 0.831592 0.325218
Si Si5 0.412535 0.670827 0.818746
Si Si6 0.907810 0.573294 0.318309
O O1 0.500000 0.135523 0.250000
O O2 0.569812 0.198433 0.500000
O O3 0.674044 0.139446 0.298695
O O4 0.584915 0.247636 0.215808
O O5 0.163757 0.869507 0.791032
O O6 0.000000 0.900946 0.750000
O O7 0.120285 0.000000 0.750000
O O8 0.077302 0.936914 0.000000
O O9 0.776224 0.351388 0.500000
O O10 0.773129 0.250144 0.707403
O O11 0.672523 0.360755 0.736717
O O12 0.839745 0.367531 0.777868
O O13 0.197895 0.847398 0.500000
O O14 0.500000 0.635633 0.750000
O O15 0.407067 0.656464 0.000000
O O16 0.876301 0.500000 0.250000
O O17 0.917169 0.565747 0.500000
O O18 0.000000 0.595632 0.250000
#
# Coordination Sequence:
#
# PCOD8202332 Si02
#       6
#     8   8   8   8   8   8
#     4   9  16  27  45  70 102 137 170 209 252 301
#     4  11  22  37  57  76 100 133 171 211 255 309
#     4  10  20  35  54  79 109 139 173 218 263 306
#     4   9  19  34  52  77 108 137 170 212 258 302
#     4  10  17  27  45  71 103 138 174 212 255 306
#     4  11  22  38  58  79 104 138 177 216 259 312
#
# _framework density 18.636312
#
# number of rings (size 3 to 8) (size 9 to 14) (size 15 to 20)
#    0.000    2.000    0.000    8.500    0.000    4.667 
#    0.000    0.000    0.000    1.000    0.000    7.000 
#    0.000    0.000    0.000    0.000    0.000    0.000 
#
# Total GULP energy -595067.547866 kJ/mol
# GULP energy per Si atom -12397.240581 kJ/mol
# Density = 1.859389 g / cm^3
# Si number density = 18.636312 Si / 1000 Ang^3
#
#
#
# Elastic Constant Matrix: (Units=GPa)
#
#
# Indices 1 2 3 4 5 6 
#
# 1 142.0381 45.2786 55.6264 0.0000 0.0000 0.0000
# 2 45.2786 36.7618 28.5446 0.0000 0.0000 0.0000
# 3 55.6264 28.5446 138.7201 0.0000 0.0000 0.0000
# 4 0.0000 0.0000 0.0000 22.4674 0.0000 0.0000
# 5 0.0000 0.0000 0.0000 0.0000 38.4374 0.0000
# 6 0.0000 0.0000 0.0000 0.0000 0.0000 -1.1027
#
#
#
# Elastic Compliance Matrix: (Units=1/GPa)
#
#
# Indices 1 2 3 4 5 6 
#
# 1 0.012096 -0.013249 -0.002124 0.000000 0.000000 0.000000
# 2 -0.013249 0.046886 -0.004335 0.000000 0.000000 0.000000
# 3 -0.002124 -0.004335 0.008953 0.000000 0.000000 0.000000
# 4 0.000000 0.000000 0.000000 0.044509 0.000000 0.000000
# 5 0.000000 0.000000 0.000000 0.000000 0.026016 0.000000
# 6 0.000000 0.000000 0.000000 0.000000 0.000000 -0.906831
#
#
# Mechanical properties :
#
#
# Convention : Reuss Voigt Hill
#
# Bulk Modulus (GPa) = 35.06470 64.04657 49.55564
# Shear Modulus (GPa) = -6.94975 24.49845 8.77435
#
# Velocity S-wave (km/s) = -1.93319 3.62961 2.17219
# Velocity P-wave (km/s) = 3.72466 7.21156 5.73933
#
# Compressibility (1/GPa) = 0.02851871
#
# Stress axis : x y z
#
# Youngs Moduli (GPa) = 82.67488 21.32821 111.69946
#
# Poissons Ratio (x) = 0.28257 0.23726
# Poissons Ratio (y) = 1.09532 0.48424
# Poissons Ratio (z) = 0.17561 0.09246
#
# Static dielectric constant tensor:
#      x y z
#    x 3.966950 0.000000 0.000000 
#    y 0.000000 2.917150 0.000000 
#    z 0.000000 0.000000 3.517650 
# 
# 
# High freq. dielectric constant tensor:
#      x y z
#    x 1.747200 0.000000 0.000000 
#    y 0.000000 1.665260 0.000000 
#    z 0.000000 0.000000 1.740580 
# 
# From -- ./inp_files/3724.got.cif
#   From: 2010.03.12/outbox.cif.g09.slc.cpg/sg49_2_cif.got.tgz:3724.got - 2010.04.14 03:58:27.
