data_PCOD8202713
_publ_section_title
;
Structure prediction by ZEFSAII (Michael W. Deem and Ramdas Pophale) SiO2 
 PCOD8202713
Probable space group: P C C M
;
_chemical_formula_sum "Si O2"
_cell_formula_units_Z 64
_cell_length_a 26.364845
_cell_length_b 18.383399
_cell_length_c 9.005407
_cell_angle_alpha 90.000000
_cell_angle_beta 90.000000
_cell_angle_gamma 90.000000
_cell_volume 4364.699827
_symmetry_space_group_name_H-M "P C C M"
_symmetry_group_IT_number 49
_symmetry_cell_setting 'orthorhombic'
loop_
_space_group_symop_operation_xyz
x,y,z
-x,-y,z
x,-y,1/2-z
-x,y,1/2-z
-x,-y,-z
x,y,-z
-x,y,1/2+z
x,-y,1/2+z
loop_
_atom_site_type_symbol
_atom_site_label
_atom_site_fract_x
_atom_site_fract_y
_atom_site_fract_z
Si Si1 0.694191 0.707422 0.172464
Si Si2 0.349502 0.077198 0.826159
Si Si3 0.047071 0.077772 0.672878
Si Si4 0.550671 0.656559 0.670935
Si Si5 0.754950 0.157620 0.668048
Si Si6 0.840954 0.922924 0.327990
Si Si7 0.606987 0.795420 0.327276
Si Si8 0.346202 0.422123 0.677290
O O1 0.745684 0.755264 0.183802
O O2 0.654000 0.749671 0.270514
O O3 0.698159 0.627825 0.248018
O O4 0.677179 0.701860 0.000000
O O5 0.295288 0.112594 0.787199
O O6 0.394749 0.128676 0.762681
O O7 0.353688 0.000000 0.750000
O O8 0.357848 0.068655 0.000000
O O9 0.035197 0.069993 0.500000
O O10 0.102909 0.111692 0.700451
O O11 0.000000 0.122181 0.750000
O O12 0.048789 0.000000 0.750000
O O13 0.500000 0.628881 0.750000
O O14 0.542637 0.640237 0.500000
O O15 0.558245 0.743425 0.699761
O O16 0.599188 0.610372 0.726100
O O17 0.770029 0.138031 0.500000
O O18 0.800986 0.136436 0.773696
O O19 0.832182 0.937970 0.500000
O O20 0.832324 0.000000 0.250000
O O21 0.614167 0.813119 0.500000
O O22 0.339944 0.500000 0.750000
O O23 0.339370 0.424721 0.500000
#
# Coordination Sequence:
#
# PCOD8202713 Si02
#       8
#     8   8   8   8   8   8   8   8
#     4   9  17  30  46  63  82 107 136 164 194 234
#     4  10  19  29  42  61  81 104 132 165 204 244
#     4   9  16  25  36  50  67  94 132 173 214 254
#     4   9  19  32  47  66  86 108 133 159 192 231
#     4   9  18  29  41  58  80 105 134 164 201 244
#     4  10  19  27  37  54  77 104 137 176 217 253
#     4   9  17  30  45  62  82 105 133 162 193 236
#     4  10  20  33  48  68  90 112 136 162 191 226
#
# _framework density 14.663093
#
# number of rings (size 3 to 8) (size 9 to 14) (size 15 to 20)
#    0.000    2.625    0.000    4.500    0.000    8.750 
#    0.000    1.250    0.000    0.375    0.000    2.625 
#    0.000    0.000    0.000    0.000    0.000    0.625 
#
# Total GULP energy -792990.290404 kJ/mol
# GULP energy per Si atom -12390.473288 kJ/mol
# Density = 1.462972 g / cm^3
# Si number density = 14.663093 Si / 1000 Ang^3
#
#
#
# Elastic Constant Matrix: (Units=GPa)
#
#
# Indices 1 2 3 4 5 6 
#
# 1 44.9612 25.8066 25.4923 0.0000 0.0000 0.0000
# 2 25.8066 95.9584 35.8251 0.0000 0.0000 0.0000
# 3 25.4923 35.8251 65.6806 0.0000 0.0000 0.0000
# 4 0.0000 0.0000 0.0000 23.7999 0.0000 0.0000
# 5 0.0000 0.0000 0.0000 0.0000 22.0411 0.0000
# 6 0.0000 0.0000 0.0000 0.0000 0.0000 11.4771
#
#
#
# Elastic Compliance Matrix: (Units=1/GPa)
#
#
# Indices 1 2 3 4 5 6 
#
# 1 0.030108 -0.004689 -0.009128 0.000000 0.000000 0.000000
# 2 -0.004689 0.013816 -0.005716 0.000000 0.000000 0.000000
# 3 -0.009128 -0.005716 0.021886 0.000000 0.000000 0.000000
# 4 0.000000 0.000000 0.000000 0.042017 0.000000 0.000000
# 5 0.000000 0.000000 0.000000 0.000000 0.045370 0.000000
# 6 0.000000 0.000000 0.000000 0.000000 0.000000 0.087130
#
#
# Mechanical properties :
#
#
# Convention : Reuss Voigt Hill
#
# Bulk Modulus (GPa) = 37.39190 42.31646 39.85418
# Shear Modulus (GPa) = 17.34250 19.42870 18.38560
#
# Velocity S-wave (km/s) = 3.44282 3.64401 3.54484
# Velocity P-wave (km/s) = 6.43118 6.82839 6.63276
#
# Compressibility (1/GPa) = 0.02674376
#
# Stress axis : x y z
#
# Youngs Moduli (GPa) = 33.21324 72.37816 45.69176
#
# Poissons Ratio (x) = 0.33941 0.41708
# Poissons Ratio (y) = 0.15575 0.26117
# Poissons Ratio (z) = 0.30317 0.41371
#
# Static dielectric constant tensor:
#      x y z
#    x 3.128280 0.000000 0.000000 
#    y 0.000000 2.507980 0.000000 
#    z 0.000000 0.000000 3.037110 
# 
# 
# High freq. dielectric constant tensor:
#      x y z
#    x 1.530210 0.000000 0.000000 
#    y 0.000000 1.534510 0.000000 
#    z 0.000000 0.000000 1.580800 
# 
# From -- ./inp_files/5444.got.cif
#   From: 2010.03.12/outbox.cif.g09.slc.cpg/sg49_3_cif.got.tgz:5444.got - 2010.04.14 03:58:27.
