data_PCOD8202078
_publ_section_title
;
Structure prediction by ZEFSAII (Michael W. Deem and Ramdas Pophale) SiO2 
 PCOD8202078
Probable space group: P N N N
;
_chemical_formula_sum "Si O2"
_cell_formula_units_Z 58
_cell_length_a 9.165719
_cell_length_b 16.943991
_cell_length_c 16.677398
_cell_angle_alpha 90.000000
_cell_angle_beta 90.000000
_cell_angle_gamma 90.000000
_cell_volume 2590.064288
_symmetry_space_group_name_H-M "P N N N"
_symmetry_group_IT_number 48
_space_group.IT_coordinate_system_code '2'
_symmetry_cell_setting 'orthorhombic'
loop_
_space_group_symop_operation_xyz
x,y,z
1/2-x,1/2-y,z
x,1/2-y,1/2-z
1/2-x,y,1/2-z
-x,-y,-z
1/2+x,1/2+y,-z
-x,1/2+y,1/2+z
1/2+x,-y,1/2+z
loop_
_atom_site_type_symbol
_atom_site_label
_atom_site_fract_x
_atom_site_fract_y
_atom_site_fract_z
Si Si1 0.398193 0.553518 0.272664
Si Si2 0.481309 0.167863 0.642262
Si Si3 0.250000 0.250000 0.750000
Si Si4 0.394650 0.827189 0.083516
Si Si5 0.624105 0.934033 0.020076
Si Si6 0.713237 0.162752 0.428053
Si Si7 0.932109 0.584656 0.517227
Si Si8 0.834804 0.474158 0.169586
O O1 0.250000 0.509253 0.250000
O O2 0.444599 0.598046 0.191755
O O3 0.370682 0.617124 0.341562
O O4 0.497534 0.482876 0.304607
O O5 0.347713 0.196034 0.694909
O O6 0.594642 0.238290 0.618329
O O7 0.413908 0.135641 0.561661
O O8 0.543282 0.850603 0.035111
O O9 0.261251 0.841546 0.021489
O O10 0.704578 0.961031 0.102414
O O11 0.759365 0.925807 0.955557
O O12 0.500000 0.000000 0.000000
O O13 0.750000 0.250000 0.396504
O O14 0.542700 0.133422 0.423276
O O15 0.809095 0.111615 0.367051
O O16 0.000000 0.500000 0.500000
O O17 0.750000 0.493259 0.250000
#
# Coordination Sequence:
#
# PCOD8202078 Si02
#       8
#     8   8   2   8   8   8   8   8
#     4  11  25  39  66 102 142 183 225 284 360 439
#     4  12  24  40  65 100 147 186 236 277 358 432
#     4  12  24  40  62 100 148 196 214 280 348 448
#     4  11  22  42  64  98 146 186 222 292 356 432
#     4  11  22  42  68 101 144 183 232 292 359 429
#     4  12  25  46  72 103 138 185 247 305 361 427
#     4  12  24  39  68 100 135 186 241 291 349 428
#     4  11  25  46  69  98 138 186 239 296 360 430
#
# _framework density 22.393265
#
# number of rings (size 3 to 8) (size 9 to 14) (size 15 to 20)
#    0.000    0.552    5.517    2.483    2.897    1.931 
#    0.000    0.000    0.000    0.000    0.000    0.000 
#    0.000    0.000    0.000    0.000    0.000    0.000 
#
# Total GULP energy -718621.124880 kJ/mol
# GULP energy per Si atom -12390.019394 kJ/mol
# Density = 2.234230 g / cm^3
# Si number density = 22.393265 Si / 1000 Ang^3
#
#
#
# Elastic Constant Matrix: (Units=GPa)
#
#
# Indices 1 2 3 4 5 6 
#
# 1 146.9517 46.6427 18.0660 0.0000 0.0000 0.0000
# 2 46.6427 91.6777 20.9921 0.0000 0.0000 0.0000
# 3 18.0660 20.9921 63.9928 0.0000 0.0000 0.0000
# 4 0.0000 0.0000 0.0000 18.9997 0.0000 0.0000
# 5 0.0000 0.0000 0.0000 0.0000 36.7879 0.0000
# 6 0.0000 0.0000 0.0000 0.0000 0.0000 49.5118
#
#
#
# Elastic Compliance Matrix: (Units=1/GPa)
#
#
# Indices 1 2 3 4 5 6 
#
# 1 0.008177 -0.003926 -0.001020 0.000000 0.000000 0.000000
# 2 -0.003926 0.013679 -0.003379 0.000000 0.000000 0.000000
# 3 -0.001020 -0.003379 0.017023 0.000000 0.000000 0.000000
# 4 0.000000 0.000000 0.000000 0.052632 0.000000 0.000000
# 5 0.000000 0.000000 0.000000 0.000000 0.027183 0.000000
# 6 0.000000 0.000000 0.000000 0.000000 0.000000 0.020197
#
#
# Mechanical properties :
#
#
# Convention : Reuss Voigt Hill
#
# Bulk Modulus (GPa) = 44.98867 52.66932 48.82900
# Shear Modulus (GPa) = 30.68394 35.52130 33.10262
#
# Velocity S-wave (km/s) = 3.70568 3.98710 3.84896
# Velocity P-wave (km/s) = 6.20027 6.69082 6.45021
#
# Compressibility (1/GPa) = 0.02222782
#
# Stress axis : x y z
#
# Youngs Moduli (GPa) = 122.29966 73.10451 58.74342
#
# Poissons Ratio (x) = 0.28704 0.05994
# Poissons Ratio (y) = 0.48019 0.19848
# Poissons Ratio (z) = 0.12479 0.24700
#
# Static dielectric constant tensor:
#      x y z
#    x 4.549260 0.000000 0.000000 
#    y 0.000000 4.145150 0.000000 
#    z 0.000000 0.000000 4.120640 
# 
# 
# High freq. dielectric constant tensor:
#      x y z
#    x 1.903440 0.000000 0.000000 
#    y 0.000000 1.869030 0.000000 
#    z 0.000000 0.000000 1.861670 
# 
# From -- ./inp_files/30461.got.cif
#   From: 2010.06.25/outbox.cif.g09.slc.cpg/sg48_16_cif.got.tgz:30461.got - 2010.06.26 18:06:46.
