data_PCOD8202025
_publ_section_title
;
Structure prediction by ZEFSAII (Michael W. Deem and Ramdas Pophale) SiO2 
 PCOD8202025
Probable space group: P N N N
;
_chemical_formula_sum "Si O2"
_cell_formula_units_Z 64
_cell_length_a 16.886196
_cell_length_b 20.855069
_cell_length_c 8.856676
_cell_angle_alpha 90.000000
_cell_angle_beta 90.000000
_cell_angle_gamma 90.000000
_cell_volume 3118.991666
_symmetry_space_group_name_H-M "P N N N"
_symmetry_group_IT_number 48
_space_group.IT_coordinate_system_code '2'
_symmetry_cell_setting 'orthorhombic'
loop_
_space_group_symop_operation_xyz
x,y,z
1/2-x,1/2-y,z
x,1/2-y,1/2-z
1/2-x,y,1/2-z
-x,-y,-z
1/2+x,1/2+y,-z
-x,1/2+y,1/2+z
1/2+x,-y,1/2+z
loop_
_atom_site_type_symbol
_atom_site_label
_atom_site_fract_x
_atom_site_fract_y
_atom_site_fract_z
Si Si1 0.438747 0.532251 0.783274
Si Si2 0.022016 0.177386 0.698072
Si Si3 0.927996 0.058748 0.761989
Si Si4 0.324302 0.128702 0.636262
Si Si5 0.135618 0.008416 0.499687
Si Si6 0.175517 0.181265 0.177698
Si Si7 0.182253 0.508407 0.489859
Si Si8 0.050415 0.125407 0.376363
O O1 0.507961 0.486325 0.848372
O O2 0.389744 0.485548 0.672342
O O3 0.471804 0.592732 0.691206
O O4 0.374388 0.554785 0.907433
O O5 0.006330 0.250000 0.750000
O O6 0.102935 0.149515 0.762120
O O7 0.025889 0.172378 0.514803
O O8 0.950582 0.133888 0.768748
O O9 0.923525 0.041570 0.583999
O O10 0.843006 0.033783 0.824234
O O11 0.250000 0.122435 0.750000
O O12 0.315119 0.182443 0.504964
O O13 0.339524 0.064300 0.537330
O O14 0.224740 0.981707 0.500746
O O15 0.121065 0.077936 0.428996
O O16 0.184167 0.250000 0.250000
O O17 0.250000 0.140822 0.250000
O O18 0.088822 0.158825 0.230740
#
# Coordination Sequence:
#
# PCOD8202025 Si02
#       8
#     8   8   8   8   8   8   8   8
#     4  11  20  36  61  86 126 156 195 262 331 382
#     4  12  24  40  62  87 125 177 223 258 307 379
#     4  11  22  39  58  91 129 162 210 263 320 384
#     4  12  24  40  64  95 134 164 207 263 320 391
#     4  11  20  38  61  88 121 164 195 256 330 396
#     4  11  24  40  57  85 127 173 216 249 293 369
#     4  12  23  35  62  96 127 155 205 268 339 386
#     4  11  21  40  61  88 125 167 207 257 322 381
#
# _framework density 20.519451
#
# number of rings (size 3 to 8) (size 9 to 14) (size 15 to 20)
#    0.000    0.625    3.750    7.125    1.750    1.250 
#    0.000    0.000    0.000    1.500    0.000    0.000 
#    0.000    0.000    0.000    0.000    0.000    0.000 
#
# Total GULP energy -792849.407011 kJ/mol
# GULP energy per Si atom -12388.271985 kJ/mol
# Density = 2.047275 g / cm^3
# Si number density = 20.519451 Si / 1000 Ang^3
#
#
#
# Elastic Constant Matrix: (Units=GPa)
#
#
# Indices 1 2 3 4 5 6 
#
# 1 77.8827 23.6687 7.0239 0.0000 0.0000 0.0000
# 2 23.6687 99.6217 23.3036 0.0000 0.0000 0.0000
# 3 7.0239 23.3036 68.3549 0.0000 0.0000 0.0000
# 4 0.0000 0.0000 0.0000 26.5573 0.0000 0.0000
# 5 0.0000 0.0000 0.0000 0.0000 47.3759 0.0000
# 6 0.0000 0.0000 0.0000 0.0000 0.0000 18.8019
#
#
#
# Elastic Compliance Matrix: (Units=1/GPa)
#
#
# Indices 1 2 3 4 5 6 
#
# 1 0.013846 -0.003213 -0.000327 0.000000 0.000000 0.000000
# 2 -0.003213 0.011653 -0.003643 0.000000 0.000000 0.000000
# 3 -0.000327 -0.003643 0.015905 0.000000 0.000000 0.000000
# 4 0.000000 0.000000 0.000000 0.037654 0.000000 0.000000
# 5 0.000000 0.000000 0.000000 0.000000 0.021108 0.000000
# 6 0.000000 0.000000 0.000000 0.000000 0.000000 0.053186
#
#
# Mechanical properties :
#
#
# Convention : Reuss Voigt Hill
#
# Bulk Modulus (GPa) = 36.98489 39.31688 38.15088
# Shear Modulus (GPa) = 28.29148 31.33788 29.81468
#
# Velocity S-wave (km/s) = 3.71720 3.91222 3.81595
# Velocity P-wave (km/s) = 6.04044 6.29362 6.16833
#
# Compressibility (1/GPa) = 0.02703807
#
# Stress axis : x y z
#
# Youngs Moduli (GPa) = 72.22421 85.81144 62.87305
#
# Poissons Ratio (x) = 0.27571 0.02058
# Poissons Ratio (y) = 0.23206 0.22903
# Poissons Ratio (z) = 0.02364 0.31259
#
# Static dielectric constant tensor:
#      x y z
#    x 4.118490 0.000000 0.000000 
#    y 0.000000 3.375330 0.000000 
#    z 0.000000 0.000000 4.154720 
# 
# 
# High freq. dielectric constant tensor:
#      x y z
#    x 1.800210 0.000000 0.000000 
#    y 0.000000 1.759460 0.000000 
#    z 0.000000 0.000000 1.826900 
# 
# From -- ./inp_files/14589.got.cif
#   From: 2010.06.25/outbox.cif.g09.slc.cpg/sg48_8_cif.got.tgz:14589.got - 2010.06.26 18:06:46.
