data_PCOD8202441
_publ_section_title
;
Structure prediction by ZEFSAII (Michael W. Deem and Ramdas Pophale) SiO2 
 PCOD8202441
Probable space group: P C C M
;
_chemical_formula_sum "Si O2"
_cell_formula_units_Z 64
_cell_length_a 26.153638
_cell_length_b 18.447604
_cell_length_c 8.918237
_cell_angle_alpha 90.000000
_cell_angle_beta 90.000000
_cell_angle_gamma 90.000000
_cell_volume 4302.799258
_symmetry_space_group_name_H-M "P C C M"
_symmetry_group_IT_number 49
_symmetry_cell_setting 'orthorhombic'
loop_
_space_group_symop_operation_xyz
x,y,z
-x,-y,z
x,-y,1/2-z
-x,y,1/2-z
-x,-y,-z
x,y,-z
-x,y,1/2+z
x,-y,1/2+z
loop_
_atom_site_type_symbol
_atom_site_label
_atom_site_fract_x
_atom_site_fract_y
_atom_site_fract_z
Si Si1 0.859283 0.844183 0.330269
Si Si2 0.745856 0.426480 0.828862
Si Si3 0.247134 0.076810 0.673334
Si Si4 0.792944 0.718114 0.669370
Si Si5 0.551974 0.576640 0.823130
Si Si6 0.946883 0.076224 0.677655
Si Si7 0.706000 0.203335 0.327992
Si Si8 0.345835 0.655631 0.325794
O O1 0.876842 0.862189 0.500000
O O2 0.807890 0.888272 0.289940
O O3 0.848066 0.757535 0.311835
O O4 0.903670 0.864950 0.214889
O O5 0.763081 0.500000 0.750000
O O6 0.793024 0.369025 0.811147
O O7 0.693391 0.393854 0.765730
O O8 0.735117 0.445365 0.000000
O O9 0.255501 0.064518 0.500000
O O10 0.292615 0.129757 0.731013
O O11 0.251827 0.000000 0.750000
O O12 0.772601 0.737578 0.500000
O O13 0.756527 0.749974 0.796251
O O14 0.566485 0.500000 0.750000
O O15 0.500000 0.607422 0.750000
O O16 0.596642 0.633302 0.785050
O O17 0.544372 0.566187 0.000000
O O18 0.953029 0.067750 0.500000
O O19 0.000000 0.102530 0.750000
O O20 0.930058 0.000000 0.750000
O O21 0.704611 0.179564 0.500000
O O22 0.659407 0.258255 0.287136
O O23 0.333515 0.642399 0.500000
#
# Coordination Sequence:
#
# PCOD8202441 Si02
#       8
#     8   8   8   8   8   8   8   8
#     4   9  17  30  45  60  80 107 139 171 202 237
#     4  10  18  27  41  61  84 111 141 171 204 242
#     4  10  19  29  42  61  85 112 140 169 201 239
#     4   8  16  29  42  57  80 109 138 168 202 241
#     4  10  19  30  42  58  80 106 138 173 208 242
#     4  11  21  32  45  61  82 108 138 171 205 238
#     4   9  16  27  42  59  80 105 134 169 205 240
#     4   9  18  30  43  59  80 108 140 172 206 245
#
# _framework density 14.874038000000001
#
# number of rings (size 3 to 8) (size 9 to 14) (size 15 to 20)
#    0.000    2.500    0.000    4.875    0.000    6.500 
#    0.000    0.000    0.000    0.000    0.000    0.000 
#    0.000    1.000    0.000   11.500    0.000    3.500 
#
# Total GULP energy -793179.391506 kJ/mol
# GULP energy per Si atom -12393.427992 kJ/mol
# Density = 1.484018 g / cm^3
# Si number density = 14.874038 Si / 1000 Ang^3
#
#
#
# Elastic Constant Matrix: (Units=GPa)
#
#
# Indices 1 2 3 4 5 6 
#
# 1 75.3707 52.9133 42.5483 0.0000 0.0000 0.0000
# 2 52.9133 112.4577 53.6978 0.0000 0.0000 0.0000
# 3 42.5483 53.6978 89.9519 0.0000 0.0000 0.0000
# 4 0.0000 0.0000 0.0000 23.8726 0.0000 0.0000
# 5 0.0000 0.0000 0.0000 0.0000 18.1313 0.0000
# 6 0.0000 0.0000 0.0000 0.0000 0.0000 25.9640
#
#
#
# Elastic Compliance Matrix: (Units=1/GPa)
#
#
# Indices 1 2 3 4 5 6 
#
# 1 0.021820 -0.007467 -0.005864 0.000000 0.000000 0.000000
# 2 -0.007467 0.014993 -0.005418 0.000000 0.000000 0.000000
# 3 -0.005864 -0.005418 0.017125 0.000000 0.000000 0.000000
# 4 0.000000 0.000000 0.000000 0.041889 0.000000 0.000000
# 5 0.000000 0.000000 0.000000 0.000000 0.055153 0.000000
# 6 0.000000 0.000000 0.000000 0.000000 0.000000 0.038515
#
#
# Mechanical properties :
#
#
# Convention : Reuss Voigt Hill
#
# Bulk Modulus (GPa) = 60.82589 64.01102 62.41846
# Shear Modulus (GPa) = 21.50797 22.16831 21.83814
#
# Velocity S-wave (km/s) = 3.80677 3.86476 3.83587
# Velocity P-wave (km/s) = 7.76561 7.94003 7.85330
#
# Compressibility (1/GPa) = 0.01644037
#
# Stress axis : x y z
#
# Youngs Moduli (GPa) = 45.82971 66.69963 58.39399
#
# Poissons Ratio (x) = 0.49803 0.34240
# Poissons Ratio (y) = 0.34220 0.31639
# Poissons Ratio (z) = 0.26873 0.36139
#
# Static dielectric constant tensor:
#      x y z
#    x 2.708060 0.000000 0.000000 
#    y 0.000000 3.023170 0.000000 
#    z 0.000000 0.000000 3.005080 
# 
# 
# High freq. dielectric constant tensor:
#      x y z
#    x 1.529000 0.000000 0.000000 
#    y 0.000000 1.562300 0.000000 
#    z 0.000000 0.000000 1.585930 
# 
# From -- ./inp_files/6803.got.cif
#   From: 2010.03.12/outbox.cif.g09.slc.cpg/sg49_4_cif.got.tgz:6803.got - 2010.04.14 03:58:27.
