data_PCOD8202001
_publ_section_title
;
Structure prediction by ZEFSAII (Michael W. Deem and Ramdas Pophale) SiO2 
 PCOD8202001
Probable space group: P N N N
;
_chemical_formula_sum "Si O2"
_cell_formula_units_Z 40
_cell_length_a 10.346009
_cell_length_b 9.174066
_cell_length_c 26.448740
_cell_angle_alpha 90.000000
_cell_angle_beta 90.000000
_cell_angle_gamma 90.000000
_cell_volume 2510.381348
_symmetry_space_group_name_H-M "P N N N"
_symmetry_group_IT_number 48
_space_group.IT_coordinate_system_code '2'
_symmetry_cell_setting 'orthorhombic'
loop_
_space_group_symop_operation_xyz
x,y,z
1/2-x,1/2-y,z
x,1/2-y,1/2-z
1/2-x,y,1/2-z
-x,-y,-z
1/2+x,1/2+y,-z
-x,1/2+y,1/2+z
1/2+x,-y,1/2+z
loop_
_atom_site_type_symbol
_atom_site_label
_atom_site_fract_x
_atom_site_fract_y
_atom_site_fract_z
Si Si1 0.250000 0.577504 0.551276
Si Si2 0.020087 0.412663 0.897393
Si Si3 0.520087 0.587337 0.102607
Si Si4 0.903718 0.750000 0.193187
Si Si5 0.750000 0.077538 0.936152
O O1 0.250000 0.750000 0.554593
O O2 0.377145 0.520113 0.578555
O O3 0.122855 0.520113 0.578555
O O4 0.250001 0.521550 0.493678
O O5 0.033490 0.250000 0.922418
O O6 0.045334 0.394169 0.836859
O O7 0.878189 0.480293 0.907591
O O8 0.545333 0.605831 0.163141
O O9 0.378189 0.519707 0.092408
O O10 0.750000 0.750000 0.193279
O O11 0.959569 0.750000 0.250000
O O12 0.750000 0.250000 0.933479
#
# Coordination Sequence:
#
# PCOD8202001 Si02
#       5
#     8   8   8   8   8
#     4  11  19  29  45  70  97 134 157 194 227 285
#     4   9  17  33  48  69  93 127 157 204 233 282
#     4   9  17  33  48  69  93 127 157 204 233 282
#     4   9  16  29  55  75  91 119 163 209 244 274
#     4   9  18  29  47  69 100 122 162 193 239 281
#
# _framework density 15.933833
#
# number of rings (size 3 to 8) (size 9 to 14) (size 15 to 20)
#    1.200    1.400    2.000    1.800    0.000    0.000 
#    0.000    5.000    0.000    2.400    0.000    0.000 
#    0.000    3.200    0.000    0.000    0.000    0.000 
#
# Total GULP energy -495575.204279 kJ/mol
# GULP energy per Si atom -12389.380107 kJ/mol
# Density = 1.589757 g / cm^3
# Si number density = 15.933833 Si / 1000 Ang^3
#
#
#
# Elastic Constant Matrix: (Units=GPa)
#
#
# Indices 1 2 3 4 5 6 
#
# 1 148.4124 30.2074 73.3638 0.0000 0.0000 0.0000
# 2 30.2074 39.5884 25.1928 0.0000 0.0000 0.0000
# 3 73.3638 25.1928 149.2342 0.0000 0.0000 0.0000
# 4 0.0000 0.0000 0.0000 21.3233 0.0000 0.0000
# 5 0.0000 0.0000 0.0000 0.0000 0.1819 0.0000
# 6 0.0000 0.0000 0.0000 0.0000 0.0000 1.1542
#
#
#
# Elastic Compliance Matrix: (Units=1/GPa)
#
#
# Indices 1 2 3 4 5 6 
#
# 1 0.009675 -0.004880 -0.003933 0.000000 0.000000 0.000000
# 2 -0.004880 0.030762 -0.002794 0.000000 0.000000 0.000000
# 3 -0.003933 -0.002794 0.009106 0.000000 0.000000 0.000000
# 4 0.000000 0.000000 0.000000 0.046897 0.000000 0.000000
# 5 0.000000 0.000000 0.000000 0.000000 5.498807 0.000000
# 6 0.000000 0.000000 0.000000 0.000000 0.000000 0.866421
#
#
# Mechanical properties :
#
#
# Convention : Reuss Voigt Hill
#
# Bulk Modulus (GPa) = 37.98015 66.08476 52.03245
# Shear Modulus (GPa) = 0.76998 18.42993 9.59995
#
# Velocity S-wave (km/s) = 0.69591 3.40465 2.45723
# Velocity P-wave (km/s) = 4.95314 7.55116 6.38567
#
# Compressibility (1/GPa) = 0.02632954
#
# Stress axis : x y z
#
# Youngs Moduli (GPa) = 103.35721 32.50813 109.82047
#
# Poissons Ratio (x) = 0.15864 0.43187
# Poissons Ratio (y) = 0.50438 0.30683
# Poissons Ratio (z) = 0.40645 0.09083
#
# Static dielectric constant tensor:
#      x y z
#    x 3.395720 0.000000 0.000000 
#    y 0.000000 2.633700 0.000000 
#    z 0.000000 0.000000 3.071940 
# 
# 
# High freq. dielectric constant tensor:
#      x y z
#    x 1.628480 0.000000 0.000000 
#    y 0.000000 1.568290 0.000000 
#    z 0.000000 0.000000 1.597780 
# 
# From -- ./inp_files/37445.got.cif
#   From: 2010.06.25/outbox.cif.g09.slc.cpg/sg48_19_cif.got.tgz:37445.got - 2010.06.26 18:06:46.
