data_PCOD8202310
_publ_section_title
;
Structure prediction by ZEFSAII (Michael W. Deem and Ramdas Pophale) SiO2 
 PCOD8202310
Probable space group: P C C M
;
_chemical_formula_sum "Si O2"
_cell_formula_units_Z 48
_cell_length_a 30.577213
_cell_length_b 9.673427
_cell_length_c 8.600713
_cell_angle_alpha 90.000000
_cell_angle_beta 90.000000
_cell_angle_gamma 90.000000
_cell_volume 2543.974261
_symmetry_space_group_name_H-M "P C C M"
_symmetry_group_IT_number 49
_symmetry_cell_setting 'orthorhombic'
loop_
_space_group_symop_operation_xyz
x,y,z
-x,-y,z
x,-y,1/2-z
-x,y,1/2-z
-x,-y,-z
x,y,-z
-x,y,1/2+z
x,-y,1/2+z
loop_
_atom_site_type_symbol
_atom_site_label
_atom_site_fract_x
_atom_site_fract_y
_atom_site_fract_z
Si Si1 0.367526 0.347964 0.184384
Si Si2 0.707389 0.855004 0.816357
Si Si3 0.456198 0.654317 0.184274
Si Si4 0.881239 0.346978 0.684570
Si Si5 0.805332 0.145352 0.683156
Si Si6 0.951992 0.145307 0.815335
O O1 0.360788 0.500000 0.250000
O O2 0.325823 0.261630 0.242871
O O3 0.411525 0.275644 0.253446
O O4 0.371522 0.353114 0.000000
O O5 0.756378 0.820688 0.755237
O O6 0.690920 0.000000 0.750000
O O7 0.706871 0.863890 0.000000
O O8 0.455711 0.500000 0.250000
O O9 0.500000 0.730115 0.250000
O O10 0.457218 0.654403 0.000000
O O11 0.878082 0.500000 0.750000
O O12 0.886659 0.349538 0.500000
O O13 0.837337 0.267340 0.737810
O O14 0.922516 0.271632 0.759668
O O15 0.805626 0.131063 0.500000
O O16 0.822312 0.000000 0.750000
O O17 0.000000 0.172958 0.750000
O O18 0.933332 0.000000 0.750000
O O19 0.953342 0.138053 0.000000
#
# Coordination Sequence:
#
# PCOD8202310 Si02
#       6
#     8   8   8   8   8   8
#     4  10  19  31  48  73 103 133 168 210 256 305
#     4   9  19  35  54  76 103 136 174 215 259 310
#     4  10  17  27  44  67  96 129 166 207 253 302
#     4  11  23  38  56  82 115 148 183 224 273 323
#     4   9  19  36  57  79 104 137 178 220 261 311
#     4  11  22  39  62  87 114 146 186 227 269 317
#
# _framework density 18.868115
#
# number of rings (size 3 to 8) (size 9 to 14) (size 15 to 20)
#    0.000    2.000    0.000    6.500    0.000    5.000 
#    0.000    1.667    0.000    0.500    0.000    3.500 
#    0.000    0.000    0.000    0.000    0.000    0.000 
#
# Total GULP energy -595154.105297 kJ/mol
# GULP energy per Si atom -12399.043860 kJ/mol
# Density = 1.882517 g / cm^3
# Si number density = 18.868115 Si / 1000 Ang^3
#
#
#
# Elastic Constant Matrix: (Units=GPa)
#
#
# Indices 1 2 3 4 5 6 
#
# 1 141.6515 87.8785 54.3584 0.0000 0.0000 0.0000
# 2 87.8785 126.7659 44.1648 0.0000 0.0000 0.0000
# 3 54.3584 44.1648 105.2643 0.0000 0.0000 0.0000
# 4 0.0000 0.0000 0.0000 28.4392 0.0000 0.0000
# 5 0.0000 0.0000 0.0000 0.0000 27.2294 0.0000
# 6 0.0000 0.0000 0.0000 0.0000 0.0000 -4.6469
#
#
#
# Elastic Compliance Matrix: (Units=1/GPa)
#
#
# Indices 1 2 3 4 5 6 
#
# 1 0.013430 -0.008074 -0.003548 0.000000 0.000000 0.000000
# 2 -0.008074 0.014093 -0.001743 0.000000 0.000000 0.000000
# 3 -0.003548 -0.001743 0.012063 0.000000 0.000000 0.000000
# 4 0.000000 0.000000 0.000000 0.035163 0.000000 0.000000
# 5 0.000000 0.000000 0.000000 0.000000 0.036725 0.000000
# 6 0.000000 0.000000 0.000000 0.000000 0.000000 -0.215198
#
#
# Mechanical properties :
#
#
# Convention : Reuss Voigt Hill
#
# Bulk Modulus (GPa) = 77.78417 82.94277 80.36347
# Shear Modulus (GPa) = -68.76851 22.68968 -23.03942
#
# Velocity S-wave (km/s) = -6.04368 3.47153 -3.49818
# Velocity P-wave (km/s) = 2.71785 7.75392 5.13501
#
# Compressibility (1/GPa) = 0.01285609
#
# Stress axis : x y z
#
# Youngs Moduli (GPa) = 74.45940 70.95560 82.89527
#
# Poissons Ratio (x) = 0.57291 0.29409
# Poissons Ratio (y) = 0.60120 0.14453
# Poissons Ratio (z) = 0.26416 0.12371
#
# Static dielectric constant tensor:
#      x y z
#    x 4.289730 0.000000 0.000000 
#    y 0.000000 3.261730 0.000000 
#    z 0.000000 0.000000 3.450380 
# 
# 
# High freq. dielectric constant tensor:
#      x y z
#    x 1.754170 0.000000 0.000000 
#    y 0.000000 1.704000 0.000000 
#    z 0.000000 0.000000 1.742490 
# 
# From -- ./inp_files/2116.got.cif
#   From: 2010.03.12/outbox.cif.g09.slc.cpg/sg49_2_cif.got.tgz:2116.got - 2010.04.14 03:58:27.
