data_PCOD8202862
_publ_section_title
;
Structure prediction by ZEFSAII (Michael W. Deem and Ramdas Pophale) SiO2 
 PCOD8202862
Probable space group: P C C M
;
_chemical_formula_sum "Si O2"
_cell_formula_units_Z 64
_cell_length_a 16.297526
_cell_length_b 22.714466
_cell_length_c 8.994483
_cell_angle_alpha 90.000000
_cell_angle_beta 90.000000
_cell_angle_gamma 90.000000
_cell_volume 3329.664066
_symmetry_space_group_name_H-M "P C C M"
_symmetry_group_IT_number 49
_symmetry_cell_setting 'orthorhombic'
loop_
_space_group_symop_operation_xyz
x,y,z
-x,-y,z
x,-y,1/2-z
-x,y,1/2-z
-x,-y,-z
x,y,-z
-x,y,1/2+z
x,-y,1/2+z
loop_
_atom_site_type_symbol
_atom_site_label
_atom_site_fract_x
_atom_site_fract_y
_atom_site_fract_z
Si Si1 0.221278 0.316033 0.836326
Si Si2 0.583673 0.857328 0.676454
Si Si3 0.259043 0.556972 0.325575
Si Si4 0.580987 0.398646 0.175919
Si Si5 0.076523 0.230701 0.166741
Si Si6 0.631703 0.269822 0.826733
Si Si7 0.263180 0.939166 0.824452
Si Si8 0.912942 0.110847 0.177047
O O1 0.208304 0.383842 0.785996
O O2 0.134785 0.285841 0.840706
O O3 0.275708 0.276881 0.728248
O O4 0.263032 0.316473 0.000000
O O5 0.500000 0.883519 0.750000
O O6 0.572778 0.860560 0.500000
O O7 0.592211 0.790033 0.738166
O O8 0.666777 0.892041 0.725308
O O9 0.216208 0.500000 0.250000
O O10 0.267189 0.545733 0.500000
O O11 0.347452 0.564654 0.251247
O O12 0.500000 0.424910 0.250000
O O13 0.583781 0.329076 0.218556
O O14 0.582740 0.408202 0.000000
O O15 0.106942 0.176200 0.265741
O O16 0.000000 0.258809 0.250000
O O17 0.056577 0.207566 0.000000
O O18 0.637081 0.261236 0.000000
O O19 0.169327 0.924254 0.773447
O O20 0.289121 0.000000 0.750000
O O21 0.265134 0.946098 0.000000
O O22 0.000000 0.087887 0.250000
O O23 0.923461 0.109280 0.000000
#
# Coordination Sequence:
#
# PCOD8202862 Si02
#       8
#     8   8   8   8   8   8   8   8
#     4   9  19  33  51  75 104 134 167 208 254 301
#     4  10  21  37  55  78 105 138 178 223 270 316
#     4  10  20  35  51  69  94 127 168 212 251 294
#     4  10  19  31  48  72  99 129 161 200 250 304
#     4  10  19  32  52  81 111 138 165 199 246 303
#     4   9  18  32  52  76 103 131 165 207 257 313
#     4  10  23  40  57  77 106 142 182 223 265 311
#     4  10  20  36  58  85 114 143 172 211 260 316
#
# _framework density 19.221157999999999
#
# number of rings (size 3 to 8) (size 9 to 14) (size 15 to 20)
#    0.000    2.250    0.000    3.375    0.000    5.750 
#    0.000    3.750    0.000    0.375    0.000    2.625 
#    0.000    0.000    0.000    0.000    0.000    0.000 
#
# Total GULP energy -793046.217866 kJ/mol
# GULP energy per Si atom -12391.347154 kJ/mol
# Density = 1.917741 g / cm^3
# Si number density = 19.221158 Si / 1000 Ang^3
#
#
#
# Elastic Constant Matrix: (Units=GPa)
#
#
# Indices 1 2 3 4 5 6 
#
# 1 85.8792 34.4311 25.8787 0.0000 0.0000 0.0000
# 2 34.4311 83.1535 24.6975 0.0000 0.0000 0.0000
# 3 25.8787 24.6975 43.5681 0.0000 0.0000 0.0000
# 4 0.0000 0.0000 0.0000 25.5528 0.0000 0.0000
# 5 0.0000 0.0000 0.0000 0.0000 28.1922 0.0000
# 6 0.0000 0.0000 0.0000 0.0000 0.0000 9.2654
#
#
#
# Elastic Compliance Matrix: (Units=1/GPa)
#
#
# Indices 1 2 3 4 5 6 
#
# 1 0.015418 -0.004406 -0.006660 0.000000 0.000000 0.000000
# 2 -0.004406 0.015720 -0.006294 0.000000 0.000000 0.000000
# 3 -0.006660 -0.006294 0.030477 0.000000 0.000000 0.000000
# 4 0.000000 0.000000 0.000000 0.039135 0.000000 0.000000
# 5 0.000000 0.000000 0.000000 0.000000 0.035471 0.000000
# 6 0.000000 0.000000 0.000000 0.000000 0.000000 0.107928
#
#
# Mechanical properties :
#
#
# Convention : Reuss Voigt Hill
#
# Bulk Modulus (GPa) = 37.18354 42.51281 39.84818
# Shear Modulus (GPa) = 17.37121 21.10831 19.23976
#
# Velocity S-wave (km/s) = 3.00951 3.31748 3.16724
# Velocity P-wave (km/s) = 5.60922 6.06959 5.84394
#
# Compressibility (1/GPa) = 0.02689362
#
# Stress axis : x y z
#
# Youngs Moduli (GPa) = 64.86081 63.61467 32.81202
#
# Poissons Ratio (x) = 0.28027 0.21854
# Poissons Ratio (y) = 0.28576 0.20652
# Poissons Ratio (z) = 0.43199 0.40040
#
# Static dielectric constant tensor:
#      x y z
#    x 3.623900 0.000000 0.000000 
#    y 0.000000 3.722720 0.000000 
#    z 0.000000 0.000000 3.626250 
# 
# 
# High freq. dielectric constant tensor:
#      x y z
#    x 1.734850 0.000000 0.000000 
#    y 0.000000 1.747440 0.000000 
#    z 0.000000 0.000000 1.751220 
# 
# From -- ./inp_files/5317.got.cif
#   From: 2010.03.12/outbox.cif.g09.slc.cpg/sg49_3_cif.got.tgz:5317.got - 2010.04.14 03:58:27.
