data_PCOD8202478
_publ_section_title
;
Structure prediction by ZEFSAII (Michael W. Deem and Ramdas Pophale) SiO2 
 PCOD8202478
Probable space group: P C C M
;
_chemical_formula_sum "Si O2"
_cell_formula_units_Z 64
_cell_length_a 19.096257
_cell_length_b 23.393047
_cell_length_c 8.831613
_cell_angle_alpha 90.000000
_cell_angle_beta 90.000000
_cell_angle_gamma 90.000000
_cell_volume 3945.254958
_symmetry_space_group_name_H-M "P C C M"
_symmetry_group_IT_number 49
_symmetry_cell_setting 'orthorhombic'
loop_
_space_group_symop_operation_xyz
x,y,z
-x,-y,z
x,-y,1/2-z
-x,y,1/2-z
-x,-y,-z
x,y,-z
-x,y,1/2+z
x,-y,1/2+z
loop_
_atom_site_type_symbol
_atom_site_label
_atom_site_fract_x
_atom_site_fract_y
_atom_site_fract_z
Si Si1 0.431466 0.240926 0.824145
Si Si2 0.926427 0.439742 0.820932
Si Si3 0.925333 0.774771 0.823375
Si Si4 0.429200 0.882495 0.180024
Si Si5 0.287501 0.059693 0.321841
Si Si6 0.720155 0.732261 0.826315
Si Si7 0.846860 0.658671 0.825769
Si Si8 0.799673 0.832267 0.677665
O O1 0.500000 0.271048 0.750000
O O2 0.417779 0.180732 0.744314
O O3 0.362400 0.280320 0.800033
O O4 0.446439 0.230226 0.000000
O O5 0.903613 0.500000 0.750000
O O6 0.866853 0.393810 0.781834
O O7 0.000000 0.419159 0.750000
O O8 0.934660 0.445951 0.000000
O O9 0.895457 0.712376 0.783054
O O10 0.873281 0.823089 0.760849
O O11 0.000000 0.783278 0.750000
O O12 0.932869 0.783556 0.000000
O O13 0.500000 0.909519 0.250000
O O14 0.364710 0.921629 0.233678
O O15 0.434615 0.879008 0.000000
O O16 0.287383 0.052959 0.500000
O O17 0.230886 0.106778 0.270537
O O18 0.265382 0.000000 0.250000
O O19 0.765777 0.675361 0.792376
O O20 0.743483 0.783804 0.719583
O O21 0.734827 0.751114 0.000000
O O22 0.857768 0.640583 0.000000
O O23 0.812548 0.829698 0.500000
#
# Coordination Sequence:
#
# PCOD8202478 Si02
#       8
#     8   8   8   8   8   8   8   8
#     4  10  18  28  45  68  93 125 158 190 232 281
#     4  11  21  33  49  69  96 134 172 203 236 271
#     4  10  20  33  51  75  99 125 153 187 233 280
#     4  10  19  32  46  66  90 118 153 190 230 275
#     4  10  22  35  49  67  89 117 152 191 233 280
#     4   9  18  31  48  69  94 126 159 193 237 283
#     4   9  18  32  48  70  99 127 161 199 231 271
#     4  10  19  33  50  69  93 118 149 190 233 281
#
# _framework density 16.222019
#
# number of rings (size 3 to 8) (size 9 to 14) (size 15 to 20)
#    0.000    2.125    1.250    4.875    0.000    6.250 
#    0.000    1.250    0.000    0.375    0.000    2.625 
#    0.000    0.500    0.000    5.750    0.000    1.750 
#
# Total GULP energy -793557.162452 kJ/mol
# GULP energy per Si atom -12399.330663 kJ/mol
# Density = 1.618510 g / cm^3
# Si number density = 16.222019 Si / 1000 Ang^3
#
#
#
# Elastic Constant Matrix: (Units=GPa)
#
#
# Indices 1 2 3 4 5 6 
#
# 1 133.4461 57.3090 48.2873 0.0000 0.0000 0.0000
# 2 57.3090 83.9653 41.3124 0.0000 0.0000 0.0000
# 3 48.2873 41.3124 83.0050 0.0000 0.0000 0.0000
# 4 0.0000 0.0000 0.0000 22.8940 0.0000 0.0000
# 5 0.0000 0.0000 0.0000 0.0000 26.1789 0.0000
# 6 0.0000 0.0000 0.0000 0.0000 0.0000 31.0394
#
#
#
# Elastic Compliance Matrix: (Units=1/GPa)
#
#
# Indices 1 2 3 4 5 6 
#
# 1 0.011378 -0.005971 -0.003647 0.000000 0.000000 0.000000
# 2 -0.005971 0.018906 -0.005936 0.000000 0.000000 0.000000
# 3 -0.003647 -0.005936 0.017123 0.000000 0.000000 0.000000
# 4 0.000000 0.000000 0.000000 0.043680 0.000000 0.000000
# 5 0.000000 0.000000 0.000000 0.000000 0.038199 0.000000
# 6 0.000000 0.000000 0.000000 0.000000 0.000000 0.032217
#
#
# Mechanical properties :
#
#
# Convention : Reuss Voigt Hill
#
# Bulk Modulus (GPa) = 61.35439 66.02599 63.69019
# Shear Modulus (GPa) = 25.24699 26.25628 25.75164
#
# Velocity S-wave (km/s) = 3.94933 4.02750 3.98860
# Velocity P-wave (km/s) = 7.66160 7.90047 7.78195
#
# Compressibility (1/GPa) = 0.01629875
#
# Stress axis : x y z
#
# Youngs Moduli (GPa) = 87.89135 52.89370 58.39980
#
# Poissons Ratio (x) = 0.31584 0.21298
# Poissons Ratio (y) = 0.52483 0.34665
# Poissons Ratio (z) = 0.32053 0.31397
#
# Static dielectric constant tensor:
#      x y z
#    x 3.126880 0.000000 0.000000 
#    y 0.000000 2.853030 0.000000 
#    z 0.000000 0.000000 3.125130 
# 
# 
# High freq. dielectric constant tensor:
#      x y z
#    x 1.627050 0.000000 0.000000 
#    y 0.000000 1.584930 0.000000 
#    z 0.000000 0.000000 1.636840 
# 
# From -- ./inp_files/6085.got.cif
#   From: 2010.03.12/outbox.cif.g09.slc.cpg/sg49_4_cif.got.tgz:6085.got - 2010.04.14 03:58:27.
