data_PCOD8202818
_publ_section_title
;
Structure prediction by ZEFSAII (Michael W. Deem and Ramdas Pophale) SiO2 
 PCOD8202818
Probable space group: P C C M
;
_chemical_formula_sum "Si O2"
_cell_formula_units_Z 48
_cell_length_a 17.781715
_cell_length_b 17.311051
_cell_length_c 8.939849
_cell_angle_alpha 90.000000
_cell_angle_beta 90.000000
_cell_angle_gamma 90.000000
_cell_volume 2751.865886
_symmetry_space_group_name_H-M "P C C M"
_symmetry_group_IT_number 49
_symmetry_cell_setting 'orthorhombic'
loop_
_space_group_symop_operation_xyz
x,y,z
-x,-y,z
x,-y,1/2-z
-x,y,1/2-z
-x,-y,-z
x,y,-z
-x,y,1/2+z
x,-y,1/2+z
loop_
_atom_site_type_symbol
_atom_site_label
_atom_site_fract_x
_atom_site_fract_y
_atom_site_fract_z
Si Si1 0.077632 0.916248 0.820211
Si Si2 0.190721 0.195089 0.833464
Si Si3 0.419347 0.419328 0.680101
Si Si4 0.170976 0.571580 0.835595
Si Si5 0.069432 0.326570 0.836344
Si Si6 0.295771 0.299336 0.665869
O O1 0.150867 0.866896 0.774552
O O2 0.000000 0.881587 0.750000
O O3 0.090190 0.000000 0.750000
O O4 0.070730 0.919445 0.000000
O O5 0.136909 0.267459 0.847054
O O6 0.270682 0.225565 0.766414
O O7 0.205122 0.160327 0.000000
O O8 0.388929 0.500000 0.750000
O O9 0.500000 0.400667 0.750000
O O10 0.422393 0.427379 0.500000
O O11 0.366894 0.347252 0.730024
O O12 0.209228 0.500000 0.750000
O O13 0.095366 0.596739 0.750259
O O14 0.227681 0.641743 0.843947
O O15 0.148522 0.543636 0.000000
O O16 0.000000 0.287325 0.750000
O O17 0.041760 0.350705 0.000000
O O18 0.314593 0.267763 0.500000
#
# Coordination Sequence:
#
# PCOD8202818 Si02
#       6
#     8   8   8   8   8   8
#     4  11  21  34  52  74 102 132 165 202 242 288
#     4  10  20  33  50  71  94 122 156 193 236 285
#     4  10  19  31  48  71  99 130 165 203 247 295
#     4  10  19  31  45  60  80 107 143 186 231 275
#     4  10  20  32  45  61  81 108 144 185 228 273
#     4   9  19  33  48  67  92 123 156 193 236 284
#
# _framework density 17.442710000000002
#
# number of rings (size 3 to 8) (size 9 to 14) (size 15 to 20)
#    0.000    2.000    0.000    5.500    0.000    5.667 
#    0.000    1.667    0.000    0.000    0.000    0.000 
#    0.000    0.667    0.000    7.000    0.000    3.833 
#
# Total GULP energy -594875.151294 kJ/mol
# GULP energy per Si atom -12393.232319 kJ/mol
# Density = 1.740301 g / cm^3
# Si number density = 17.442710 Si / 1000 Ang^3
#
#
#
# Elastic Constant Matrix: (Units=GPa)
#
#
# Indices 1 2 3 4 5 6 
#
# 1 76.8395 29.4154 38.2717 0.0000 0.0000 0.0000
# 2 29.4154 57.5457 38.5872 0.0000 0.0000 0.0000
# 3 38.2717 38.5872 146.5621 0.0000 0.0000 0.0000
# 4 0.0000 0.0000 0.0000 25.6449 0.0000 0.0000
# 5 0.0000 0.0000 0.0000 0.0000 19.8515 0.0000
# 6 0.0000 0.0000 0.0000 0.0000 0.0000 30.8686
#
#
#
# Elastic Compliance Matrix: (Units=1/GPa)
#
#
# Indices 1 2 3 4 5 6 
#
# 1 0.016963 -0.006923 -0.002607 0.000000 0.000000 0.000000
# 2 -0.006923 0.023928 -0.004492 0.000000 0.000000 0.000000
# 3 -0.002607 -0.004492 0.008686 0.000000 0.000000 0.000000
# 4 0.000000 0.000000 0.000000 0.038994 0.000000 0.000000
# 5 0.000000 0.000000 0.000000 0.000000 0.050374 0.000000
# 6 0.000000 0.000000 0.000000 0.000000 0.000000 0.032395
#
#
# Mechanical properties :
#
#
# Convention : Reuss Voigt Hill
#
# Bulk Modulus (GPa) = 46.43813 54.83290 50.63551
# Shear Modulus (GPa) = 24.20573 26.91786 25.56179
#
# Velocity S-wave (km/s) = 3.72926 3.93264 3.83230
# Velocity P-wave (km/s) = 6.72490 7.21977 6.97672
#
# Compressibility (1/GPa) = 0.02153403
#
# Stress axis : x y z
#
# Youngs Moduli (GPa) = 58.95302 41.79139 115.12146
#
# Poissons Ratio (x) = 0.28931 0.30010
# Poissons Ratio (y) = 0.40812 0.51715
# Poissons Ratio (z) = 0.15368 0.18773
#
# Static dielectric constant tensor:
#      x y z
#    x 3.141800 0.000000 0.000000 
#    y 0.000000 3.061050 0.000000 
#    z 0.000000 0.000000 3.906730 
# 
# 
# High freq. dielectric constant tensor:
#      x y z
#    x 1.644780 0.000000 0.000000 
#    y 0.000000 1.643990 0.000000 
#    z 0.000000 0.000000 1.695850 
# 
# From -- ./inp_files/4883.got.cif
#   From: 2010.03.12/outbox.cif.g09.slc.cpg/sg49_3_cif.got.tgz:4883.got - 2010.04.14 03:58:27.
