data_PCOD8202490
_publ_section_title
;
Structure prediction by ZEFSAII (Michael W. Deem and Ramdas Pophale) SiO2 
 PCOD8202490
Probable space group: P C C M
;
_chemical_formula_sum "Si O2"
_cell_formula_units_Z 56
_cell_length_a 29.855200
_cell_length_b 13.588508
_cell_length_c 8.495583
_cell_angle_alpha 90.000000
_cell_angle_beta 90.000000
_cell_angle_gamma 90.000000
_cell_volume 3446.552882
_symmetry_space_group_name_H-M "P C C M"
_symmetry_group_IT_number 49
_symmetry_cell_setting 'orthorhombic'
loop_
_space_group_symop_operation_xyz
x,y,z
-x,-y,z
x,-y,1/2-z
-x,y,1/2-z
-x,-y,-z
x,y,-z
-x,y,1/2+z
x,-y,1/2+z
loop_
_atom_site_type_symbol
_atom_site_label
_atom_site_fract_x
_atom_site_fract_y
_atom_site_fract_z
Si Si1 0.321011 0.715062 0.315568
Si Si2 0.369761 0.104149 0.314827
Si Si3 0.236980 0.389590 0.686527
Si Si4 0.860322 0.392226 0.815762
Si Si5 0.547542 0.786761 0.185658
Si Si6 0.955589 0.389941 0.815025
Si Si7 0.597010 0.395512 0.814163
O O1 0.325438 0.734662 0.500000
O O2 0.331884 0.815609 0.224010
O O3 0.271254 0.682414 0.272095
O O4 0.355565 0.630060 0.265504
O O5 0.378025 0.100488 0.500000
O O6 0.416156 0.130792 0.228870
O O7 0.352687 0.000000 0.250000
O O8 0.242732 0.500000 0.750000
O O9 0.245504 0.390033 0.500000
O O10 0.187543 0.344158 0.731366
O O11 0.860242 0.500000 0.750000
O O12 0.907492 0.339277 0.763229
O O13 0.861543 0.403363 0.000000
O O14 0.500000 0.823574 0.250000
O O15 0.559602 0.683955 0.268849
O O16 0.546214 0.771063 0.000000
O O17 0.955723 0.500000 0.750000
O O18 0.000000 0.333195 0.750000
O O19 0.960028 0.392487 0.000000
O O20 0.580345 0.500000 0.750000
O O21 0.603488 0.398061 0.000000
#
# Coordination Sequence:
#
# PCOD8202490 Si02
#       7
#     8   8   8   8   8   8   8
#     4  11  21  34  50  71  94 119 149 184 221 265
#     4  11  22  39  59  79  98 120 146 179 218 260
#     4  10  18  29  43  62  87 118 151 188 227 268
#     4   8  15  24  34  48  71 101 138 179 222 263
#     4  11  22  38  56  78 102 126 153 184 218 258
#     4   9  14  20  29  43  62  91 130 176 221 262
#     4  11  21  35  52  72  96 126 157 188 221 259
#
# _framework density 16.248118999999999
#
# number of rings (size 3 to 8) (size 9 to 14) (size 15 to 20)
#    0.000    1.857    0.000    8.571    0.000    1.714 
#    0.000    2.857    0.000    0.000    0.000    0.000 
#    0.000    0.000    0.000    0.000    0.000    0.714 
#
# Total GULP energy -693920.762119 kJ/mol
# GULP energy per Si atom -12391.442181 kJ/mol
# Density = 1.621114 g / cm^3
# Si number density = 16.248119 Si / 1000 Ang^3
#
#
#
# Elastic Constant Matrix: (Units=GPa)
#
#
# Indices 1 2 3 4 5 6 
#
# 1 132.3213 21.6783 26.1564 0.0000 0.0000 0.0000
# 2 21.6783 59.4785 11.5538 0.0000 0.0000 0.0000
# 3 26.1564 11.5538 73.1492 0.0000 0.0000 0.0000
# 4 0.0000 0.0000 0.0000 21.1623 0.0000 0.0000
# 5 0.0000 0.0000 0.0000 0.0000 24.2062 0.0000
# 6 0.0000 0.0000 0.0000 0.0000 0.0000 6.4724
#
#
#
# Elastic Compliance Matrix: (Units=1/GPa)
#
#
# Indices 1 2 3 4 5 6 
#
# 1 0.008501 -0.002587 -0.002631 0.000000 0.000000 0.000000
# 2 -0.002587 0.018132 -0.001939 0.000000 0.000000 0.000000
# 3 -0.002631 -0.001939 0.014918 0.000000 0.000000 0.000000
# 4 0.000000 0.000000 0.000000 0.047254 0.000000 0.000000
# 5 0.000000 0.000000 0.000000 0.000000 0.041312 0.000000
# 6 0.000000 0.000000 0.000000 0.000000 0.000000 0.154503
#
#
# Mechanical properties :
#
#
# Convention : Reuss Voigt Hill
#
# Bulk Modulus (GPa) = 36.71507 42.63624 39.67566
# Shear Modulus (GPa) = 16.23303 24.07221 20.15262
#
# Velocity S-wave (km/s) = 3.16424 3.85325 3.52562
# Velocity P-wave (km/s) = 5.99962 6.78929 6.40663
#
# Compressibility (1/GPa) = 0.02723677
#
# Stress axis : x y z
#
# Youngs Moduli (GPa) = 117.62794 55.14978 67.03406
#
# Poissons Ratio (x) = 0.14269 0.17638
# Poissons Ratio (y) = 0.30435 0.12997
# Poissons Ratio (z) = 0.30951 0.10692
#
# Static dielectric constant tensor:
#      x y z
#    x 3.869000 0.000000 0.000000 
#    y 0.000000 2.568910 0.000000 
#    z 0.000000 0.000000 3.161090 
# 
# 
# High freq. dielectric constant tensor:
#      x y z
#    x 1.639080 0.000000 0.000000 
#    y 0.000000 1.563300 0.000000 
#    z 0.000000 0.000000 1.647800 
# 
# From -- ./inp_files/7027.got.cif
#   From: 2010.03.12/outbox.cif.g09.slc.cpg/sg49_4_cif.got.tgz:7027.got - 2010.04.14 03:58:27.
