data_PCOD8202298
_publ_section_title
;
Structure prediction by ZEFSAII (Michael W. Deem and Ramdas Pophale) SiO2 
 PCOD8202298
Probable space group: P C C M
;
_chemical_formula_sum "Si O2"
_cell_formula_units_Z 64
_cell_length_a 14.318040
_cell_length_b 30.882984
_cell_length_c 8.740431
_cell_angle_alpha 90.000000
_cell_angle_beta 90.000000
_cell_angle_gamma 90.000000
_cell_volume 3864.876995
_symmetry_space_group_name_H-M "P C C M"
_symmetry_group_IT_number 49
_symmetry_cell_setting 'orthorhombic'
loop_
_space_group_symop_operation_xyz
x,y,z
-x,-y,z
x,-y,1/2-z
-x,y,1/2-z
-x,-y,-z
x,y,-z
-x,y,1/2+z
x,-y,1/2+z
loop_
_atom_site_type_symbol
_atom_site_label
_atom_site_fract_x
_atom_site_fract_y
_atom_site_fract_z
Si Si1 0.101288 0.205121 0.679437
Si Si2 0.211109 0.879513 0.822141
Si Si3 0.101299 0.370161 0.180085
Si Si4 0.103576 0.457075 0.317975
Si Si5 0.207518 0.716382 0.323316
Si Si6 0.901781 0.953987 0.180478
Si Si7 0.594540 0.251144 0.321660
Si Si8 0.593873 0.841686 0.677968
O O1 0.090367 0.204309 0.500000
O O2 0.160128 0.163860 0.736383
O O3 0.152899 0.248945 0.723730
O O4 0.000000 0.203019 0.750000
O O5 0.177740 0.919703 0.721570
O O6 0.321505 0.874654 0.792557
O O7 0.189257 0.888243 0.000000
O O8 0.149563 0.412497 0.257709
O O9 0.170615 0.331030 0.218627
O O10 0.000000 0.359643 0.250000
O O11 0.089593 0.377981 0.000000
O O12 0.155059 0.500000 0.250000
O O13 0.103103 0.458984 0.500000
O O14 0.000000 0.456228 0.250000
O O15 0.188658 0.727590 0.500000
O O16 0.318020 0.717577 0.285761
O O17 0.000000 0.937929 0.250000
O O18 0.872450 0.000000 0.250000
O O19 0.912259 0.958515 0.000000
O O20 0.500000 0.271284 0.250000
O O21 0.577844 0.245496 0.500000
O O22 0.617065 0.204282 0.252955
O O23 0.500000 0.862180 0.750000
O O24 0.578342 0.833346 0.500000
#
# Coordination Sequence:
#
# PCOD8202298 Si02
#       8
#     8   8   8   8   8   8   8   8
#     4  11  22  34  48  68  98 132 167 202 239 281
#     4  10  21  36  53  76 103 131 166 204 243 289
#     4  10  19  31  44  63  91 126 164 201 240 285
#     4  10  17  27  43  63  86 117 156 200 243 284
#     4  10  21  34  48  67  95 130 166 202 242 289
#     4  11  22  37  58  80 105 134 165 201 244 290
#     4  10  19  32  50  71  95 125 163 205 247 291
#     4  10  19  33  52  76 102 129 162 203 246 290
#
# _framework density 16.559387999999998
#
# number of rings (size 3 to 8) (size 9 to 14) (size 15 to 20)
#    0.000    1.750    1.250    6.750    0.000    5.500 
#    0.000    0.000    0.000    0.375    0.000    2.625 
#    0.000    0.500    0.000    5.750    0.000    1.750 
#
# Total GULP energy -793606.121930 kJ/mol
# GULP energy per Si atom -12400.095655 kJ/mol
# Density = 1.652170 g / cm^3
# Si number density = 16.559388 Si / 1000 Ang^3
#
#
#
# Elastic Constant Matrix: (Units=GPa)
#
#
# Indices 1 2 3 4 5 6 
#
# 1 104.8955 57.5008 51.4308 0.0000 0.0000 0.0000
# 2 57.5008 110.1895 57.1881 0.0000 0.0000 0.0000
# 3 51.4308 57.1881 113.1418 0.0000 0.0000 0.0000
# 4 0.0000 0.0000 0.0000 24.4588 0.0000 0.0000
# 5 0.0000 0.0000 0.0000 0.0000 21.7511 0.0000
# 6 0.0000 0.0000 0.0000 0.0000 0.0000 10.0834
#
#
#
# Elastic Compliance Matrix: (Units=1/GPa)
#
#
# Indices 1 2 3 4 5 6 
#
# 1 0.014429 -0.005593 -0.003732 0.000000 0.000000 0.000000
# 2 -0.005593 0.014470 -0.004772 0.000000 0.000000 0.000000
# 3 -0.003732 -0.004772 0.012947 0.000000 0.000000 0.000000
# 4 0.000000 0.000000 0.000000 0.040885 0.000000 0.000000
# 5 0.000000 0.000000 0.000000 0.000000 0.045975 0.000000
# 6 0.000000 0.000000 0.000000 0.000000 0.000000 0.099173
#
#
# Mechanical properties :
#
#
# Convention : Reuss Voigt Hill
#
# Bulk Modulus (GPa) = 73.24409 73.38513 73.31461
# Shear Modulus (GPa) = 19.18482 22.06580 20.62531
#
# Velocity S-wave (km/s) = 3.40744 3.65434 3.53304
# Velocity P-wave (km/s) = 7.73356 7.88785 7.81109
#
# Compressibility (1/GPa) = 0.01365298
#
# Stress axis : x y z
#
# Youngs Moduli (GPa) = 69.30564 69.10738 77.23825
#
# Poissons Ratio (x) = 0.38648 0.28826
# Poissons Ratio (y) = 0.38759 0.36857
# Poissons Ratio (z) = 0.25866 0.32977
#
# Static dielectric constant tensor:
#      x y z
#    x 3.108490 0.000000 0.000000 
#    y 0.000000 3.362710 0.000000 
#    z 0.000000 0.000000 3.239150 
# 
# 
# High freq. dielectric constant tensor:
#      x y z
#    x 1.616990 0.000000 0.000000 
#    y 0.000000 1.628360 0.000000 
#    z 0.000000 0.000000 1.655420 
# 
# From -- ./inp_files/4510.got.cif
#   From: 2010.03.12/outbox.cif.g09.slc.cpg/sg49_3_cif.got.tgz:4510.got - 2010.04.14 03:58:27.
