data_PCOD8202445
_publ_section_title
;
Structure prediction by ZEFSAII (Michael W. Deem and Ramdas Pophale) SiO2 
 PCOD8202445
Probable space group: P C C M
;
_chemical_formula_sum "Si O2"
_cell_formula_units_Z 56
_cell_length_a 18.184405
_cell_length_b 21.373501
_cell_length_c 8.836289
_cell_angle_alpha 90.000000
_cell_angle_beta 90.000000
_cell_angle_gamma 90.000000
_cell_volume 3434.350949
_symmetry_space_group_name_H-M "P C C M"
_symmetry_group_IT_number 49
_symmetry_cell_setting 'orthorhombic'
loop_
_space_group_symop_operation_xyz
x,y,z
-x,-y,z
x,-y,1/2-z
-x,y,1/2-z
-x,-y,-z
x,y,-z
-x,y,1/2+z
x,-y,1/2+z
loop_
_atom_site_type_symbol
_atom_site_label
_atom_site_fract_x
_atom_site_fract_y
_atom_site_fract_z
Si Si1 0.701859 0.630150 0.332843
Si Si2 0.797182 0.245489 0.831066
Si Si3 0.577980 0.935551 0.821333
Si Si4 0.078078 0.684293 0.679861
Si Si5 0.578263 0.304853 0.323424
Si Si6 0.845000 0.565574 0.319837
Si Si7 0.331093 0.814864 0.677282
O O1 0.671162 0.614701 0.500000
O O2 0.748364 0.693064 0.337385
O O3 0.632724 0.637978 0.221106
O O4 0.758726 0.576589 0.277897
O O5 0.867883 0.259095 0.727388
O O6 0.747644 0.190365 0.759473
O O7 0.822282 0.226011 0.000000
O O8 0.500000 0.917127 0.750000
O O9 0.635785 0.881868 0.779701
O O10 0.607763 0.000000 0.750000
O O11 0.567991 0.943256 0.000000
O O12 0.073985 0.679731 0.500000
O O13 0.104069 0.618195 0.746473
O O14 0.000000 0.701414 0.750000
O O15 0.500000 0.316006 0.250000
O O16 0.566533 0.305278 0.500000
O O17 0.612379 0.238981 0.267122
O O18 0.870206 0.500000 0.250000
O O19 0.856520 0.566948 0.500000
O O20 0.317460 0.807072 0.500000
#
# Coordination Sequence:
#
# PCOD8202445 Si02
#       7
#     8   8   8   8   8   8   8
#     4   8  16  30  45  62  86 112 141 178 220 267
#     4   9  17  30  48  69  91 117 149 185 226 272
#     4  10  19  30  43  61  90 127 167 204 241 280
#     4  11  21  34  51  71  98 126 151 182 221 266
#     4  10  18  27  42  63  86 111 143 183 230 275
#     4  10  20  34  51  71  92 118 152 185 220 265
#     4   9  18  30  44  64  89 120 156 193 230 274
#
# _framework density 16.305847
#
# number of rings (size 3 to 8) (size 9 to 14) (size 15 to 20)
#    0.000    2.429    0.000    4.714    0.000    6.000 
#    0.000    1.429    0.000    0.429    0.000    3.000 
#    0.000    0.571    0.000    6.000    0.000    3.286 
#
# Total GULP energy -694284.334648 kJ/mol
# GULP energy per Si atom -12397.934547 kJ/mol
# Density = 1.626873 g / cm^3
# Si number density = 16.305847 Si / 1000 Ang^3
#
#
#
# Elastic Constant Matrix: (Units=GPa)
#
#
# Indices 1 2 3 4 5 6 
#
# 1 109.8611 39.1804 52.8315 0.0000 0.0000 0.0000
# 2 39.1804 57.4097 30.2589 0.0000 0.0000 0.0000
# 3 52.8315 30.2589 97.3743 0.0000 0.0000 0.0000
# 4 0.0000 0.0000 0.0000 21.4351 0.0000 0.0000
# 5 0.0000 0.0000 0.0000 0.0000 30.3062 0.0000
# 6 0.0000 0.0000 0.0000 0.0000 0.0000 20.7629
#
#
#
# Elastic Compliance Matrix: (Units=1/GPa)
#
#
# Indices 1 2 3 4 5 6 
#
# 1 0.014204 -0.006735 -0.005614 0.000000 0.000000 0.000000
# 2 -0.006735 0.024024 -0.003811 0.000000 0.000000 0.000000
# 3 -0.005614 -0.003811 0.014500 0.000000 0.000000 0.000000
# 4 0.000000 0.000000 0.000000 0.046652 0.000000 0.000000
# 5 0.000000 0.000000 0.000000 0.000000 0.032997 0.000000
# 6 0.000000 0.000000 0.000000 0.000000 0.000000 0.048163
#
#
# Mechanical properties :
#
#
# Convention : Reuss Voigt Hill
#
# Bulk Modulus (GPa) = 49.00077 56.57631 52.78854
# Shear Modulus (GPa) = 22.76230 23.99245 23.37738
#
# Velocity S-wave (km/s) = 3.74031 3.84005 3.79051
# Velocity P-wave (km/s) = 6.98351 7.37791 7.18342
#
# Compressibility (1/GPa) = 0.02040784
#
# Stress axis : x y z
#
# Youngs Moduli (GPa) = 70.40333 41.62525 68.96691
#
# Poissons Ratio (x) = 0.28034 0.38715
# Poissons Ratio (y) = 0.47416 0.26285
# Poissons Ratio (z) = 0.39522 0.15864
#
# Static dielectric constant tensor:
#      x y z
#    x 3.104560 0.000000 0.000000 
#    y 0.000000 2.949350 0.000000 
#    z 0.000000 0.000000 3.234760 
# 
# 
# High freq. dielectric constant tensor:
#      x y z
#    x 1.617970 0.000000 0.000000 
#    y 0.000000 1.591470 0.000000 
#    z 0.000000 0.000000 1.642470 
# 
# From -- ./inp_files/5212.got.cif
#   From: 2010.03.12/outbox.cif.g09.slc.cpg/sg49_3_cif.got.tgz:5212.got - 2010.04.14 03:58:27.
