data_PCOD8202357
_publ_section_title
;
Structure prediction by ZEFSAII (Michael W. Deem and Ramdas Pophale) SiO2 
 PCOD8202357
Probable space group: P C C M
;
_chemical_formula_sum "Si O2"
_cell_formula_units_Z 64
_cell_length_a 14.376172
_cell_length_b 25.966056
_cell_length_c 8.602579
_cell_angle_alpha 90.000000
_cell_angle_beta 90.000000
_cell_angle_gamma 90.000000
_cell_volume 3211.278111
_symmetry_space_group_name_H-M "P C C M"
_symmetry_group_IT_number 49
_symmetry_cell_setting 'orthorhombic'
loop_
_space_group_symop_operation_xyz
x,y,z
-x,-y,z
x,-y,1/2-z
-x,y,1/2-z
-x,-y,-z
x,y,-z
-x,y,1/2+z
x,-y,1/2+z
loop_
_atom_site_type_symbol
_atom_site_label
_atom_site_fract_x
_atom_site_fract_y
_atom_site_fract_z
Si Si1 0.206575 0.158375 0.316310
Si Si2 0.597204 0.203375 0.182754
Si Si3 0.216304 0.944111 0.682671
Si Si4 0.900819 0.445607 0.182163
Si Si5 0.783789 0.355865 0.318530
Si Si6 0.409839 0.943447 0.184294
Si Si7 0.402483 0.678650 0.184241
Si Si8 0.899071 0.745227 0.183395
O O1 0.203416 0.151291 0.500000
O O2 0.313081 0.170700 0.260054
O O3 0.159528 0.106317 0.238577
O O4 0.140165 0.204569 0.267452
O O5 0.500000 0.181405 0.250000
O O6 0.611205 0.262126 0.235166
O O7 0.589264 0.198132 0.000000
O O8 0.215944 0.951142 0.500000
O O9 0.314497 0.922847 0.747189
O O10 0.185110 0.000000 0.750000
O O11 0.866743 0.500000 0.250000
O O12 0.826859 0.402290 0.222396
O O13 0.000000 0.428864 0.250000
O O14 0.911252 0.451461 0.000000
O O15 0.793223 0.367586 0.500000
O O16 0.676745 0.353939 0.268450
O O17 0.833814 0.302698 0.273051
O O18 0.500000 0.912409 0.250000
O O19 0.418063 0.000000 0.250000
O O20 0.406927 0.941549 0.000000
O O21 0.500000 0.657802 0.250000
O O22 0.397323 0.671527 0.000000
O O23 0.000000 0.732439 0.250000
O O24 0.903290 0.754887 0.000000
#
# Coordination Sequence:
#
# PCOD8202357 Si02
#       8
#     8   8   8   8   8   8   8   8
#     4  11  22  39  59  83 115 150 188 236 290 348
#     4   9  19  33  53  79 112 151 191 235 285 342
#     4  11  22  37  55  77 103 138 182 228 280 342
#     4  11  22  38  60  88 125 167 212 261 312 366
#     4  11  22  37  60  91 125 164 208 251 299 356
#     4  10  17  28  45  67  95 130 170 215 266 319
#     4  10  19  34  55  84 119 161 204 250 300 351
#     4  11  24  40  61  89 120 154 191 237 293 353
#
# _framework density 19.929760999999999
#
# number of rings (size 3 to 8) (size 9 to 14) (size 15 to 20)
#    0.000    1.500    1.250    6.750    0.000    4.500 
#    0.000    1.250    0.000    0.750    0.000    5.250 
#    0.000    0.000    0.000    0.000    0.000    0.000 
#
# Total GULP energy -793285.538661 kJ/mol
# GULP energy per Si atom -12395.086542 kJ/mol
# Density = 1.988440 g / cm^3
# Si number density = 19.929761 Si / 1000 Ang^3
#
#
#
# Elastic Constant Matrix: (Units=GPa)
#
#
# Indices 1 2 3 4 5 6 
#
# 1 87.6058 40.7860 29.8103 0.0000 0.0000 0.0000
# 2 40.7860 109.5000 42.0544 0.0000 0.0000 0.0000
# 3 29.8103 42.0544 124.0906 0.0000 0.0000 0.0000
# 4 0.0000 0.0000 0.0000 28.9371 0.0000 0.0000
# 5 0.0000 0.0000 0.0000 0.0000 32.4522 0.0000
# 6 0.0000 0.0000 0.0000 0.0000 0.0000 -445.6718
#
#
#
# Elastic Compliance Matrix: (Units=1/GPa)
#
#
# Indices 1 2 3 4 5 6 
#
# 1 0.014172 -0.004566 -0.001857 0.000000 0.000000 0.000000
# 2 -0.004566 0.011970 -0.002960 0.000000 0.000000 0.000000
# 3 -0.001857 -0.002960 0.009508 0.000000 0.000000 0.000000
# 4 0.000000 0.000000 0.000000 0.034558 0.000000 0.000000
# 5 0.000000 0.000000 0.000000 0.000000 0.030815 0.000000
# 6 0.000000 0.000000 0.000000 0.000000 0.000000 -0.002244
#
#
# Mechanical properties :
#
#
# Convention : Reuss Voigt Hill
#
# Bulk Modulus (GPa) = 59.22545 60.72197 59.97371
# Shear Modulus (GPa) = 40.59368 -62.95347 -11.17990
#
# Velocity S-wave (km/s) = 4.51803 -5.62639 -2.37104
# Velocity P-wave (km/s) = 7.54973 3.41675 4.76047
#
# Compressibility (1/GPa) = 0.01688463
#
# Stress axis : x y z
#
# Youngs Moduli (GPa) = 70.56004 83.54441 105.17581
#
# Poissons Ratio (x) = 0.38142 0.19535
# Poissons Ratio (y) = 0.32214 0.31130
# Poissons Ratio (z) = 0.13106 0.24727
#
# Static dielectric constant tensor:
#      x y z
#    x 4.144910 0.000000 0.000000 
#    y 0.000000 3.656220 0.000000 
#    z 0.000000 0.000000 3.652610 
# 
# 
# High freq. dielectric constant tensor:
#      x y z
#    x 1.761740 0.000000 0.000000 
#    y 0.000000 1.777600 0.000000 
#    z 0.000000 0.000000 1.788590 
# 
# From -- ./inp_files/4315.got.cif
#   From: 2010.03.12/outbox.cif.g09.slc.cpg/sg49_3_cif.got.tgz:4315.got - 2010.04.14 03:58:27.
