data_PCOD8202816
_publ_section_title
;
Structure prediction by ZEFSAII (Michael W. Deem and Ramdas Pophale) SiO2 
 PCOD8202816
Probable space group: P C C M
;
_chemical_formula_sum "Si O2"
_cell_formula_units_Z 64
_cell_length_a 30.221845
_cell_length_b 15.326923
_cell_length_c 8.855550
_cell_angle_alpha 90.000000
_cell_angle_beta 90.000000
_cell_angle_gamma 90.000000
_cell_volume 4101.960641
_symmetry_space_group_name_H-M "P C C M"
_symmetry_group_IT_number 49
_symmetry_cell_setting 'orthorhombic'
loop_
_space_group_symop_operation_xyz
x,y,z
-x,-y,z
x,-y,1/2-z
-x,y,1/2-z
-x,-y,-z
x,y,-z
-x,y,1/2+z
x,-y,1/2+z
loop_
_atom_site_type_symbol
_atom_site_label
_atom_site_fract_x
_atom_site_fract_y
_atom_site_fract_z
Si Si1 0.396558 0.586803 0.829349
Si Si2 0.232713 0.905084 0.177686
Si Si3 0.863176 0.907549 0.324983
Si Si4 0.546584 0.907812 0.320247
Si Si5 0.708656 0.237985 0.672802
Si Si6 0.395982 0.236843 0.826408
Si Si7 0.042395 0.904398 0.822320
Si Si8 0.708787 0.586335 0.669620
O O1 0.415679 0.500000 0.750000
O O2 0.413080 0.670060 0.734633
O O3 0.343892 0.583349 0.830358
O O4 0.414896 0.592510 0.000000
O O5 0.183926 0.862441 0.216609
O O6 0.270076 0.842648 0.241460
O O7 0.238237 0.000000 0.250000
O O8 0.239813 0.914634 0.000000
O O9 0.863894 0.927493 0.500000
O O10 0.909711 0.857795 0.283739
O O11 0.863294 0.000000 0.250000
O O12 0.500000 0.877678 0.250000
O O13 0.542566 0.916144 0.500000
O O14 0.583445 0.837957 0.276885
O O15 0.561145 0.000000 0.250000
O O16 0.723511 0.236147 0.500000
O O17 0.656355 0.229240 0.690815
O O18 0.725926 0.328516 0.743007
O O19 0.410899 0.226667 0.000000
O O20 0.000000 0.853256 0.750000
O O21 0.043759 0.000000 0.750000
O O22 0.034749 0.910915 0.000000
O O23 0.727889 0.500000 0.750000
O O24 0.727399 0.589515 0.500000
#
# Coordination Sequence:
#
# PCOD8202816 Si02
#       8
#     8   8   8   8   8   8   8   8
#     4   9  16  27  45  70  97 124 150 176 209 249
#     4  10  19  31  44  57  78 111 149 185 220 258
#     4   8  15  25  36  49  67  95 131 170 210 253
#     4  11  22  38  58  77  96 118 146 179 217 260
#     4  10  20  32  46  66  91 117 147 182 217 254
#     4  10  20  34  51  72  96 120 147 180 216 253
#     4   9  14  20  30  46  66  87 117 160 209 253
#     4   9  16  27  44  65  89 115 143 176 214 255
#
# _framework density 15.602295
#
# number of rings (size 3 to 8) (size 9 to 14) (size 15 to 20)
#    0.000    2.500    0.000    4.125    0.000    6.000 
#    0.000    0.000    0.000    0.375    0.000    2.625 
#    0.000    0.000    0.000    0.000    0.000    0.625 
#
# Total GULP energy -792994.711035 kJ/mol
# GULP energy per Si atom -12390.542360 kJ/mol
# Density = 1.556678 g / cm^3
# Si number density = 15.602295 Si / 1000 Ang^3
#
#
#
# Elastic Constant Matrix: (Units=GPa)
#
#
# Indices 1 2 3 4 5 6 
#
# 1 39.4688 35.5967 33.9769 0.0000 0.0000 0.0000
# 2 35.5967 90.0155 47.6481 0.0000 0.0000 0.0000
# 3 33.9769 47.6481 114.9480 0.0000 0.0000 0.0000
# 4 0.0000 0.0000 0.0000 26.8475 0.0000 0.0000
# 5 0.0000 0.0000 0.0000 0.0000 18.0001 0.0000
# 6 0.0000 0.0000 0.0000 0.0000 0.0000 -0.1562
#
#
#
# Elastic Compliance Matrix: (Units=1/GPa)
#
#
# Indices 1 2 3 4 5 6 
#
# 1 0.043784 -0.013405 -0.007385 0.000000 0.000000 0.000000
# 2 -0.013405 0.018336 -0.003638 0.000000 0.000000 0.000000
# 3 -0.007385 -0.003638 0.012391 0.000000 0.000000 0.000000
# 4 0.000000 0.000000 0.000000 0.037247 0.000000 0.000000
# 5 0.000000 0.000000 0.000000 0.000000 0.055555 0.000000
# 6 0.000000 0.000000 0.000000 0.000000 0.000000 -6.403287
#
#
# Mechanical properties :
#
#
# Convention : Reuss Voigt Hill
#
# Bulk Modulus (GPa) = 38.98101 53.20841 46.09471
# Shear Modulus (GPa) = -0.80925 17.41899 8.30487
#
# Velocity S-wave (km/s) = -0.72097 3.34494 2.30963
# Velocity P-wave (km/s) = 4.93410 7.00679 6.05972
#
# Compressibility (1/GPa) = 0.02565351
#
# Stress axis : x y z
#
# Youngs Moduli (GPa) = 22.83932 54.53701 80.70575
#
# Poissons Ratio (x) = 0.73108 0.59603
# Poissons Ratio (y) = 0.30617 0.29363
# Poissons Ratio (z) = 0.16867 0.19842
#
# Static dielectric constant tensor:
#      x y z
#    x 3.311580 0.000000 0.000000 
#    y 0.000000 2.779410 0.000000 
#    z 0.000000 0.000000 3.193820 
# 
# 
# High freq. dielectric constant tensor:
#      x y z
#    x 1.578800 0.000000 0.000000 
#    y 0.000000 1.562610 0.000000 
#    z 0.000000 0.000000 1.621830 
# 
# From -- ./inp_files/4540.got.cif
#   From: 2010.03.12/outbox.cif.g09.slc.cpg/sg49_3_cif.got.tgz:4540.got - 2010.04.14 03:58:27.
