data_PCOD8202561
_publ_section_title
;
Structure prediction by ZEFSAII (Michael W. Deem and Ramdas Pophale) SiO2 
 PCOD8202561
Probable space group: P C C M
;
_chemical_formula_sum "Si O2"
_cell_formula_units_Z 64
_cell_length_a 22.162707
_cell_length_b 8.778319
_cell_length_c 16.503298
_cell_angle_alpha 90.000000
_cell_angle_beta 90.000000
_cell_angle_gamma 90.000000
_cell_volume 3210.738277
_symmetry_space_group_name_H-M "P C C M"
_symmetry_group_IT_number 49
_symmetry_cell_setting 'orthorhombic'
loop_
_space_group_symop_operation_xyz
x,y,z
-x,-y,z
x,-y,1/2-z
-x,y,1/2-z
-x,-y,-z
x,y,-z
-x,y,1/2+z
x,-y,1/2+z
loop_
_atom_site_type_symbol
_atom_site_label
_atom_site_fract_x
_atom_site_fract_y
_atom_site_fract_z
Si Si1 0.659152 0.394308 0.174666
Si Si2 0.365052 0.688996 0.407166
Si Si3 0.002410 0.171131 0.096696
Si Si4 0.874891 0.322355 0.403207
Si Si5 0.569965 0.175894 0.737684
Si Si6 0.115183 0.661566 0.904768
Si Si7 0.759720 0.191084 0.095294
Si Si8 0.242276 0.847969 0.404234
O O1 0.678015 0.500000 0.250000
O O2 0.633560 0.506387 0.104871
O O3 0.606889 0.275799 0.197838
O O4 0.717115 0.304822 0.143782
O O5 0.378517 0.729754 0.500000
O O6 0.415134 0.774280 0.353972
O O7 0.299730 0.749197 0.378007
O O8 0.063948 0.245673 0.128747
O O9 0.945402 0.264297 0.132404
O O10 0.000414 0.171581 0.000000
O O11 0.000000 0.000000 0.130316
O O12 0.872038 0.321194 0.500000
O O13 0.873295 0.493856 0.368451
O O14 0.817597 0.230451 0.367186
O O15 0.500000 0.208356 0.750000
O O16 0.586588 0.000000 0.750000
O O17 0.171395 0.769119 0.884583
O O18 0.106024 0.645108 0.000000
O O19 0.749396 0.019977 0.127781
O O20 0.745604 0.207722 0.000000
O O21 0.235339 0.853697 0.500000
#
# Coordination Sequence:
#
# PCOD8202561 Si02
#       8
#     8   8   8   8   8   8   8   8
#     4  10  21  35  55  80 108 141 176 219 271 327
#     4  10  20  36  58  85 115 147 186 229 274 325
#     4   9  15  22  32  50  82 126 171 210 257 319
#     4   9  15  23  35  55  88 128 168 211 264 319
#     4  10  22  42  63  84 115 152 185 223 272 324
#     4   9  16  24  37  58  88 128 171 215 262 313
#     4  10  18  30  48  72 102 136 177 222 268 319
#     4   9  17  28  46  72 102 136 173 218 268 315
#
# _framework density 19.933109999999999
#
# number of rings (size 3 to 8) (size 9 to 14) (size 15 to 20)
#    0.000    2.500    0.000    3.000    0.000    8.750 
#    0.000    3.750    0.000    0.000    0.000    0.000 
#    0.000   17.000    0.000   32.250    0.000   42.875 
#
# Total GULP energy -793597.133158 kJ/mol
# GULP energy per Si atom -12399.955206 kJ/mol
# Density = 1.988774 g / cm^3
# Si number density = 19.933110 Si / 1000 Ang^3
#
#
#
# Elastic Constant Matrix: (Units=GPa)
#
#
# Indices 1 2 3 4 5 6 
#
# 1 144.8352 76.5882 44.7614 0.0000 0.0000 0.0000
# 2 76.5882 163.0533 31.6868 0.0000 0.0000 0.0000
# 3 44.7614 31.6868 40.8028 0.0000 0.0000 0.0000
# 4 0.0000 0.0000 0.0000 18.7050 0.0000 0.0000
# 5 0.0000 0.0000 0.0000 0.0000 13.2047 0.0000
# 6 0.0000 0.0000 0.0000 0.0000 0.0000 38.0542
#
#
#
# Elastic Compliance Matrix: (Units=1/GPa)
#
#
# Indices 1 2 3 4 5 6 
#
# 1 0.012035 -0.003636 -0.010379 0.000000 0.000000 0.000000
# 2 -0.003636 0.008322 -0.002474 0.000000 0.000000 0.000000
# 3 -0.010379 -0.002474 0.037815 0.000000 0.000000 0.000000
# 4 0.000000 0.000000 0.000000 0.053462 0.000000 0.000000
# 5 0.000000 0.000000 0.000000 0.000000 0.075731 0.000000
# 6 0.000000 0.000000 0.000000 0.000000 0.000000 0.026278
#
#
# Mechanical properties :
#
#
# Convention : Reuss Voigt Hill
#
# Bulk Modulus (GPa) = 39.69136 72.75157 56.22146
# Shear Modulus (GPa) = 19.60663 27.03643 23.32153
#
# Velocity S-wave (km/s) = 3.13968 3.68687 3.42422
# Velocity P-wave (km/s) = 5.75317 7.39602 6.62571
#
# Compressibility (1/GPa) = 0.02519440
#
# Stress axis : x y z
#
# Youngs Moduli (GPa) = 83.09441 120.17055 26.44478
#
# Poissons Ratio (x) = 0.43692 0.27446
# Poissons Ratio (y) = 0.30212 0.06542
# Poissons Ratio (z) = 0.86240 0.29727
#
# Static dielectric constant tensor:
#      x y z
#    x 3.616000 0.000000 0.000000 
#    y 0.000000 3.942730 0.000000 
#    z 0.000000 0.000000 3.166710 
# 
# 
# High freq. dielectric constant tensor:
#      x y z
#    x 1.779190 0.000000 0.000000 
#    y 0.000000 1.798360 0.000000 
#    z 0.000000 0.000000 1.728810 
# 
# From -- ./inp_files/18325.got.cif
#   From: 2010.03.12/outbox.cif.g09.slc.cpg/sg49_10_cif.got.tgz:18325.got - 2010.04.14 03:58:27.
