data_PCOD8202868
_publ_section_title
;
Structure prediction by ZEFSAII (Michael W. Deem and Ramdas Pophale) SiO2 
 PCOD8202868
Probable space group: P C C M
;
_chemical_formula_sum "Si O2"
_cell_formula_units_Z 34
_cell_length_a 5.160935
_cell_length_b 15.964130
_cell_length_c 20.907248
_cell_angle_alpha 90.000000
_cell_angle_beta 90.000000
_cell_angle_gamma 90.000000
_cell_volume 1722.544760
_symmetry_space_group_name_H-M "P C C M"
_symmetry_group_IT_number 49
_symmetry_cell_setting 'orthorhombic'
loop_
_space_group_symop_operation_xyz
x,y,z
-x,-y,z
x,-y,1/2-z
-x,y,1/2-z
-x,-y,-z
x,y,-z
-x,y,1/2+z
x,-y,1/2+z
loop_
_atom_site_type_symbol
_atom_site_label
_atom_site_fract_x
_atom_site_fract_y
_atom_site_fract_z
Si Si1 0.000000 0.500000 0.750000
Si Si2 0.995978 0.184543 0.676881
Si Si3 0.502243 0.095370 0.826486
Si Si4 0.400149 0.593661 0.928602
Si Si5 0.887560 0.627967 0.147207
O O1 0.170110 0.438200 0.795164
O O2 0.746889 0.142247 0.644020
O O3 0.991497 0.284401 0.673270
O O4 0.000000 0.156433 0.750000
O O5 0.251841 0.145256 0.644494
O O6 0.500000 0.100005 0.750000
O O7 0.500000 0.000000 0.850634
O O8 0.500000 0.500000 0.931594
O O9 0.616300 0.644984 0.888882
O O10 0.115552 0.592579 0.897751
O O11 0.378614 0.631750 0.000000
#
# Coordination Sequence:
#
# PCOD8202868 Si02
#       5
#     2   8   8   8   8
#     4  12  24  38  54  86 114 162 176 220 272 342
#     4  10  19  31  48  77 110 141 173 221 264 327
#     4   9  17  30  48  70 104 146 179 207 260 327
#     4  11  23  40  58  76 102 148 199 241 270 303
#     4  12  23  38  56  82 115 146 191 223 272 330
#
# _framework density 19.738240000000001
#
# number of rings (size 3 to 8) (size 9 to 14) (size 15 to 20)
#    0.000    1.412    3.529    2.824    0.000    6.588 
#    0.000    0.000    0.000    0.000    0.000    0.000 
#    0.000   65.882    0.000    0.000    0.000    0.000 
#
# Total GULP energy -421470.589792 kJ/mol
# GULP energy per Si atom -12396.193817 kJ/mol
# Density = 1.969331 g / cm^3
# Si number density = 19.738240 Si / 1000 Ang^3
#
#
#
# Elastic Constant Matrix: (Units=GPa)
#
#
# Indices 1 2 3 4 5 6 
#
# 1 146.9262 43.9851 35.5345 0.0000 0.0000 0.0000
# 2 43.9851 129.2550 16.0683 0.0000 0.0000 0.0000
# 3 35.5345 16.0683 68.0129 0.0000 0.0000 0.0000
# 4 0.0000 0.0000 0.0000 8.1602 0.0000 0.0000
# 5 0.0000 0.0000 0.0000 0.0000 11.7313 0.0000
# 6 0.0000 0.0000 0.0000 0.0000 0.0000 38.0047
#
#
#
# Elastic Compliance Matrix: (Units=1/GPa)
#
#
# Indices 1 2 3 4 5 6 
#
# 1 0.008456 -0.002399 -0.003851 0.000000 0.000000 0.000000
# 2 -0.002399 0.008651 -0.000791 0.000000 0.000000 0.000000
# 3 -0.003851 -0.000791 0.016902 0.000000 0.000000 0.000000
# 4 0.000000 0.000000 0.000000 0.122546 0.000000 0.000000
# 5 0.000000 0.000000 0.000000 0.000000 0.085242 0.000000
# 6 0.000000 0.000000 0.000000 0.000000 0.000000 0.026313
#
#
# Mechanical properties :
#
#
# Convention : Reuss Voigt Hill
#
# Bulk Modulus (GPa) = 50.18077 59.48552 54.83315
# Shear Modulus (GPa) = 17.31103 28.15298 22.73201
#
# Velocity S-wave (km/s) = 2.96468 3.78076 3.39731
# Velocity P-wave (km/s) = 6.09897 7.01865 6.57491
#
# Compressibility (1/GPa) = 0.01992795
#
# Stress axis : x y z
#
# Youngs Moduli (GPa) = 118.26449 115.59092 59.16476
#
# Poissons Ratio (x) = 0.27727 0.22785
# Poissons Ratio (y) = 0.28368 0.04678
# Poissons Ratio (z) = 0.45545 0.09139
#
# Static dielectric constant tensor:
#      x y z
#    x 3.947530 0.000000 0.000000 
#    y 0.000000 3.505950 0.000000 
#    z 0.000000 0.000000 3.368350 
# 
# 
# High freq. dielectric constant tensor:
#      x y z
#    x 1.785660 0.000000 0.000000 
#    y 0.000000 1.770030 0.000000 
#    z 0.000000 0.000000 1.711640 
# 
# From -- ./inp_files/15167.got.cif
#   From: 2010.03.12/outbox.cif.g09.slc.cpg/sg49_8_cif.got.tgz:15167.got - 2010.04.14 03:58:27.
