data_PCOD8202664
_publ_section_title
;
Structure prediction by ZEFSAII (Michael W. Deem and Ramdas Pophale) SiO2 
 PCOD8202664
Probable space group: P C C M
;
_chemical_formula_sum "Si O2"
_cell_formula_units_Z 64
_cell_length_a 20.012714
_cell_length_b 20.141529
_cell_length_c 8.808007
_cell_angle_alpha 90.000000
_cell_angle_beta 90.000000
_cell_angle_gamma 90.000000
_cell_volume 3550.390118
_symmetry_space_group_name_H-M "P C C M"
_symmetry_group_IT_number 49
_symmetry_cell_setting 'orthorhombic'
loop_
_space_group_symop_operation_xyz
x,y,z
-x,-y,z
x,-y,1/2-z
-x,y,1/2-z
-x,-y,-z
x,y,-z
-x,y,1/2+z
x,-y,1/2+z
loop_
_atom_site_type_symbol
_atom_site_label
_atom_site_fract_x
_atom_site_fract_y
_atom_site_fract_z
Si Si1 0.432077 0.711482 0.819337
Si Si2 0.601105 0.566006 0.670076
Si Si3 0.067950 0.295349 0.178380
Si Si4 0.298225 0.746719 0.321082
Si Si5 0.832235 0.186363 0.679479
Si Si6 0.123543 0.565248 0.679332
Si Si7 0.254241 0.387018 0.326412
Si Si8 0.929279 0.071195 0.318288
O O1 0.500000 0.742023 0.750000
O O2 0.425318 0.635459 0.758075
O O3 0.369189 0.755558 0.763342
O O4 0.432888 0.714147 0.000000
O O5 0.572550 0.500000 0.750000
O O6 0.574518 0.562061 0.500000
O O7 0.680987 0.566309 0.678947
O O8 0.127452 0.249885 0.243844
O O9 0.080062 0.371276 0.226461
O O10 0.000000 0.269090 0.250000
O O11 0.062253 0.287518 0.000000
O O12 0.311381 0.747505 0.500000
O O13 0.246000 0.805724 0.272162
O O14 0.263828 0.677772 0.276401
O O15 0.835982 0.188471 0.500000
O O16 0.868652 0.119229 0.735831
O O17 0.088040 0.500000 0.750000
O O18 0.131747 0.558701 0.500000
O O19 0.195581 0.569626 0.756871
O O20 0.239492 0.365441 0.500000
O O21 0.935597 0.067543 0.500000
O O22 0.000000 0.096489 0.250000
O O23 0.911054 0.000000 0.250000
#
# Coordination Sequence:
#
# PCOD8202664 Si02
#       8
#     8   8   8   8   8   8   8   8
#     4  10  21  36  50  71  99 130 167 209 259 316
#     4   9  19  31  44  64  90 117 154 198 244 304
#     4  10  21  37  52  70  94 125 166 211 259 313
#     4  10  18  33  55  76 100 131 166 210 261 304
#     4   9  18  34  55  78 105 137 175 214 256 305
#     4  11  22  35  50  66  90 120 160 210 266 323
#     4  10  19  32  48  70  95 121 159 205 256 314
#     4  10  19  33  53  79 115 152 186 219 253 304
#
# _framework density 18.026188000000001
#
# number of rings (size 3 to 8) (size 9 to 14) (size 15 to 20)
#    0.000    2.125    1.250    3.750    0.000    5.500 
#    0.000    5.625    0.000    0.000    0.000    0.000 
#    0.000    0.500    0.000    5.750    0.000    1.750 
#
# Total GULP energy -793309.913223 kJ/mol
# GULP energy per Si atom -12395.467394 kJ/mol
# Density = 1.798516 g / cm^3
# Si number density = 18.026188 Si / 1000 Ang^3
#
#
#
# Elastic Constant Matrix: (Units=GPa)
#
#
# Indices 1 2 3 4 5 6 
#
# 1 122.4481 53.6902 36.8029 0.0000 0.0000 0.0000
# 2 53.6902 78.7593 28.0517 0.0000 0.0000 0.0000
# 3 36.8029 28.0517 66.3820 0.0000 0.0000 0.0000
# 4 0.0000 0.0000 0.0000 17.7876 0.0000 0.0000
# 5 0.0000 0.0000 0.0000 0.0000 20.9570 0.0000
# 6 0.0000 0.0000 0.0000 0.0000 0.0000 17.6883
#
#
#
# Elastic Compliance Matrix: (Units=1/GPa)
#
#
# Indices 1 2 3 4 5 6 
#
# 1 0.012453 -0.007098 -0.003904 0.000000 0.000000 0.000000
# 2 -0.007098 0.018993 -0.004091 0.000000 0.000000 0.000000
# 3 -0.003904 -0.004091 0.018957 0.000000 0.000000 0.000000
# 4 0.000000 0.000000 0.000000 0.056219 0.000000 0.000000
# 5 0.000000 0.000000 0.000000 0.000000 0.047717 0.000000
# 6 0.000000 0.000000 0.000000 0.000000 0.000000 0.056535
#
#
# Mechanical properties :
#
#
# Convention : Reuss Voigt Hill
#
# Bulk Modulus (GPa) = 49.46444 56.07545 52.76994
# Shear Modulus (GPa) = 20.17769 21.22288 20.70028
#
# Velocity S-wave (km/s) = 3.34930 3.43496 3.39240
# Velocity P-wave (km/s) = 6.51590 6.84888 6.68447
#
# Compressibility (1/GPa) = 0.02021654
#
# Stress axis : x y z
#
# Youngs Moduli (GPa) = 80.30436 52.65153 52.74970
#
# Poissons Ratio (x) = 0.37374 0.20595
# Poissons Ratio (y) = 0.57003 0.21578
# Poissons Ratio (z) = 0.31353 0.21537
#
# Static dielectric constant tensor:
#      x y z
#    x 3.457820 0.000000 0.000000 
#    y 0.000000 3.183940 0.000000 
#    z 0.000000 0.000000 3.250990 
# 
# 
# High freq. dielectric constant tensor:
#      x y z
#    x 1.698920 0.000000 0.000000 
#    y 0.000000 1.657980 0.000000 
#    z 0.000000 0.000000 1.696070 
# 
# From -- ./inp_files/6058.got.cif
#   From: 2010.03.12/outbox.cif.g09.slc.cpg/sg49_4_cif.got.tgz:6058.got - 2010.04.14 03:58:27.
