data_PCOD8202063
_publ_section_title
;
Structure prediction by ZEFSAII (Michael W. Deem and Ramdas Pophale) SiO2 
 PCOD8202063
Probable space group: P N N N
;
_chemical_formula_sum "Si O2"
_cell_formula_units_Z 56
_cell_length_a 16.313928
_cell_length_b 9.447234
_cell_length_c 18.850959
_cell_angle_alpha 90.000000
_cell_angle_beta 90.000000
_cell_angle_gamma 90.000000
_cell_volume 2905.337988
_symmetry_space_group_name_H-M "P N N N"
_symmetry_group_IT_number 48
_space_group.IT_coordinate_system_code '2'
_symmetry_cell_setting 'orthorhombic'
loop_
_space_group_symop_operation_xyz
x,y,z
1/2-x,1/2-y,z
x,1/2-y,1/2-z
1/2-x,y,1/2-z
-x,-y,-z
1/2+x,1/2+y,-z
-x,1/2+y,1/2+z
1/2+x,-y,1/2+z
loop_
_atom_site_type_symbol
_atom_site_label
_atom_site_fract_x
_atom_site_fract_y
_atom_site_fract_z
Si Si1 0.895338 0.750000 0.250000
Si Si2 0.175111 0.961964 0.705478
Si Si3 0.325785 0.354041 0.007462
Si Si4 0.778561 0.405306 0.050345
Si Si5 0.537839 0.669722 0.103363
Si Si6 0.549955 0.143439 0.998844
Si Si7 0.536949 0.250000 0.250000
Si Si8 0.974722 0.854933 0.892699
O O1 0.837610 0.617653 0.236015
O O2 0.953825 0.785165 0.184219
O O3 0.250000 0.893083 0.750000
O O4 0.197176 0.981522 0.623335
O O5 0.093481 0.870005 0.714987
O O6 0.250000 0.250000 0.020375
O O7 0.293301 0.510869 0.989794
O O8 0.379522 0.298084 0.941318
O O9 0.381449 0.357777 0.078494
O O10 0.750000 0.250000 0.071459
O O11 0.855188 0.398527 0.997653
O O12 0.516419 0.505809 0.093813
O O13 0.466004 0.767739 0.072392
O O14 0.528563 0.238064 0.067109
O O15 0.500000 0.000000 0.000000
O O16 0.477403 0.317447 0.190627
#
# Coordination Sequence:
#
# PCOD8202063 Si02
#       8
#     4   8   8   8   8   8   4   8
#     4  12  23  40  58  92 127 164 202 244 321 374
#     4  12  24  37  58  93 133 165 204 255 317 390
#     4  11  23  41  62  91 124 167 208 263 317 373
#     4  12  22  37  61  93 126 162 205 254 315 369
#     4  11  23  41  61  90 129 167 203 255 313 387
#     4  11  22  38  62  90 120 162 212 259 304 371
#     4  12  23  42  63  90 126 174 218 260 313 390
#     4  11  23  43  63  88 127 170 216 258 315 382
#
# _framework density 19.274864999999998
#
# number of rings (size 3 to 8) (size 9 to 14) (size 15 to 20)
#    0.000    0.571    2.857    9.000    0.000    0.000 
#    0.000    0.357    0.000    0.000    0.000    3.500 
#    0.000    0.000    0.000    0.000    0.000    0.000 
#
# Total GULP energy -694678.748777 kJ/mol
# GULP energy per Si atom -12404.977657 kJ/mol
# Density = 1.923099 g / cm^3
# Si number density = 19.274865 Si / 1000 Ang^3
#
#
#
# Elastic Constant Matrix: (Units=GPa)
#
#
# Indices 1 2 3 4 5 6 
#
# 1 107.1687 17.3133 68.2367 0.0000 0.0000 0.0000
# 2 17.3133 82.3358 45.7338 0.0000 0.0000 0.0000
# 3 68.2367 45.7338 125.4825 0.0000 0.0000 0.0000
# 4 0.0000 0.0000 0.0000 33.8337 0.0000 0.0000
# 5 0.0000 0.0000 0.0000 0.0000 28.8896 0.0000
# 6 0.0000 0.0000 0.0000 0.0000 0.0000 32.2398
#
#
#
# Elastic Compliance Matrix: (Units=1/GPa)
#
#
# Indices 1 2 3 4 5 6 
#
# 1 0.014452 0.001663 -0.008465 0.000000 0.000000 0.000000
# 2 0.001663 0.015420 -0.006524 0.000000 0.000000 0.000000
# 3 -0.008465 -0.006524 0.014950 0.000000 0.000000 0.000000
# 4 0.000000 0.000000 0.000000 0.029556 0.000000 0.000000
# 5 0.000000 0.000000 0.000000 0.000000 0.034615 0.000000
# 6 0.000000 0.000000 0.000000 0.000000 0.000000 0.031018
#
#
# Mechanical properties :
#
#
# Convention : Reuss Voigt Hill
#
# Bulk Modulus (GPa) = 55.03703 64.17272 59.60488
# Shear Modulus (GPa) = 28.94852 31.23951 30.09402
#
# Velocity S-wave (km/s) = 3.87961 4.03021 3.95563
# Velocity P-wave (km/s) = 6.97741 7.41772 7.20093
#
# Compressibility (1/GPa) = 0.01816958
#
# Stress axis : x y z
#
# Youngs Moduli (GPa) = 69.19243 64.85247 66.88751
#
# Poissons Ratio (x) = -0.10785 0.56622
# Poissons Ratio (y) = -0.11507 0.43639
# Poissons Ratio (z) = 0.58573 0.42311
#
# Static dielectric constant tensor:
#      x y z
#    x 3.498360 0.000000 0.000000 
#    y 0.000000 3.734950 0.000000 
#    z 0.000000 0.000000 3.529170 
# 
# 
# High freq. dielectric constant tensor:
#      x y z
#    x 1.739560 0.000000 0.000000 
#    y 0.000000 1.774520 0.000000 
#    z 0.000000 0.000000 1.739490 
# 
# From -- ./inp_files/34499.got.cif
#   From: 2010.06.25/outbox.cif.g09.slc.cpg/sg48_18_cif.got.tgz:34499.got - 2010.06.26 18:06:46.
