data_PCOD8202402
_publ_section_title
;
Structure prediction by ZEFSAII (Michael W. Deem and Ramdas Pophale) SiO2 
 PCOD8202402
Probable space group: P C C M
;
_chemical_formula_sum "Si O2"
_cell_formula_units_Z 64
_cell_length_a 28.520517
_cell_length_b 13.891610
_cell_length_c 8.837276
_cell_angle_alpha 90.000000
_cell_angle_beta 90.000000
_cell_angle_gamma 90.000000
_cell_volume 3501.292511
_symmetry_space_group_name_H-M "P C C M"
_symmetry_group_IT_number 49
_symmetry_cell_setting 'orthorhombic'
loop_
_space_group_symop_operation_xyz
x,y,z
-x,-y,z
x,-y,1/2-z
-x,y,1/2-z
-x,-y,-z
x,y,-z
-x,y,1/2+z
x,-y,1/2+z
loop_
_atom_site_type_symbol
_atom_site_label
_atom_site_fract_x
_atom_site_fract_y
_atom_site_fract_z
Si Si1 0.862128 0.223927 0.676799
Si Si2 0.724971 0.724846 0.677602
Si Si3 0.815421 0.396262 0.177070
Si Si4 0.951292 0.898345 0.821198
Si Si5 0.772689 0.896542 0.822243
Si Si6 0.448222 0.093889 0.180388
Si Si7 0.639709 0.399871 0.174875
Si Si8 0.450205 0.714979 0.177345
O O1 0.857420 0.245260 0.500000
O O2 0.855920 0.324494 0.763882
O O3 0.912511 0.180858 0.719921
O O4 0.822851 0.146756 0.727872
O O5 0.725645 0.747287 0.500000
O O6 0.765099 0.648032 0.721762
O O7 0.732009 0.825028 0.764920
O O8 0.675452 0.681634 0.734217
O O9 0.821556 0.500000 0.250000
O O10 0.821277 0.408407 0.000000
O O11 0.000000 0.862049 0.750000
O O12 0.936143 0.000000 0.750000
O O13 0.956736 0.911983 0.000000
O O14 0.765388 0.000000 0.750000
O O15 0.768585 0.908176 0.000000
O O16 0.500000 0.095623 0.250000
O O17 0.425873 0.192849 0.240919
O O18 0.421816 0.000000 0.250000
O O19 0.448789 0.089057 0.000000
O O20 0.651521 0.500000 0.250000
O O21 0.585808 0.371582 0.206309
O O22 0.649577 0.414270 0.000000
O O23 0.500000 0.686097 0.250000
O O24 0.457357 0.736823 0.000000
#
# Coordination Sequence:
#
# PCOD8202402 Si02
#       8
#     8   8   8   8   8   8   8   8
#     4   9  19  33  49  72 103 137 175 214 256 302
#     4   9  19  36  54  76 103 133 167 204 246 296
#     4  10  19  31  52  77 102 130 164 208 256 303
#     4  10  19  31  48  71 101 137 174 216 258 304
#     4  10  19  32  52  78 107 140 172 207 249 299
#     4  10  17  28  48  73  99 127 157 193 234 280
#     4  10  22  38  57  77 101 131 165 205 249 296
#     4  10  20  35  53  76 103 132 165 204 245 289
#
# _framework density 18.278963999999998
#
# number of rings (size 3 to 8) (size 9 to 14) (size 15 to 20)
#    0.000    2.250    0.000    4.875    0.000    3.750 
#    0.000    1.875    0.000    0.375    0.000    2.625 
#    0.000    0.000    0.000    0.000    0.000    0.000 
#
# Total GULP energy -793555.012575 kJ/mol
# GULP energy per Si atom -12399.297071 kJ/mol
# Density = 1.823736 g / cm^3
# Si number density = 18.278964 Si / 1000 Ang^3
#
#
#
# Elastic Constant Matrix: (Units=GPa)
#
#
# Indices 1 2 3 4 5 6 
#
# 1 96.9016 60.3060 44.6784 0.0000 0.0000 0.0000
# 2 60.3060 147.7946 62.6074 0.0000 0.0000 0.0000
# 3 44.6784 62.6074 97.8599 0.0000 0.0000 0.0000
# 4 0.0000 0.0000 0.0000 34.8530 0.0000 0.0000
# 5 0.0000 0.0000 0.0000 0.0000 22.6074 0.0000
# 6 0.0000 0.0000 0.0000 0.0000 0.0000 19.2926
#
#
#
# Elastic Compliance Matrix: (Units=1/GPa)
#
#
# Indices 1 2 3 4 5 6 
#
# 1 0.014889 -0.004384 -0.003993 0.000000 0.000000 0.000000
# 2 -0.004384 0.010572 -0.004762 0.000000 0.000000 0.000000
# 3 -0.003993 -0.004762 0.015089 0.000000 0.000000 0.000000
# 4 0.000000 0.000000 0.000000 0.028692 0.000000 0.000000
# 5 0.000000 0.000000 0.000000 0.000000 0.044233 0.000000
# 6 0.000000 0.000000 0.000000 0.000000 0.000000 0.051833
#
#
# Mechanical properties :
#
#
# Convention : Reuss Voigt Hill
#
# Bulk Modulus (GPa) = 70.06998 75.30442 72.68720
# Shear Modulus (GPa) = 25.46548 27.01488 26.24018
#
# Velocity S-wave (km/s) = 3.73655 3.84855 3.79296
# Velocity P-wave (km/s) = 7.55200 7.81250 7.68335
#
# Compressibility (1/GPa) = 0.01427145
#
# Stress axis : x y z
#
# Youngs Moduli (GPa) = 67.16341 94.58688 66.27556
#
# Poissons Ratio (x) = 0.41465 0.26464
# Poissons Ratio (y) = 0.29443 0.31563
# Poissons Ratio (z) = 0.26819 0.45045
#
# Static dielectric constant tensor:
#      x y z
#    x 3.259830 0.000000 0.000000 
#    y 0.000000 3.733460 0.000000 
#    z 0.000000 0.000000 3.419900 
# 
# 
# High freq. dielectric constant tensor:
#      x y z
#    x 1.686680 0.000000 0.000000 
#    y 0.000000 1.711550 0.000000 
#    z 0.000000 0.000000 1.717670 
# 
# From -- ./inp_files/6997.got.cif
#   From: 2010.03.12/outbox.cif.g09.slc.cpg/sg49_4_cif.got.tgz:6997.got - 2010.04.14 03:58:27.
