data_PCOD8202092
_publ_section_title
;
Structure prediction by ZEFSAII (Michael W. Deem and Ramdas Pophale) SiO2 
 PCOD8202092
Probable space group: P N N N
;
_chemical_formula_sum "Si O2"
_cell_formula_units_Z 58
_cell_length_a 8.424485
_cell_length_b 27.618022
_cell_length_c 11.511655
_cell_angle_alpha 90.000000
_cell_angle_beta 90.000000
_cell_angle_gamma 90.000000
_cell_volume 2678.389280
_symmetry_space_group_name_H-M "P N N N"
_symmetry_group_IT_number 48
_space_group.IT_coordinate_system_code '2'
_symmetry_cell_setting 'orthorhombic'
loop_
_space_group_symop_operation_xyz
x,y,z
1/2-x,1/2-y,z
x,1/2-y,1/2-z
1/2-x,y,1/2-z
-x,-y,-z
1/2+x,1/2+y,-z
-x,1/2+y,1/2+z
1/2+x,-y,1/2+z
loop_
_atom_site_type_symbol
_atom_site_label
_atom_site_fract_x
_atom_site_fract_y
_atom_site_fract_z
Si Si1 0.750000 0.250000 0.250000
Si Si2 0.104770 0.123160 0.899384
Si Si3 0.072243 0.012234 0.281927
Si Si4 0.557081 0.590236 0.338019
Si Si5 0.009954 0.672876 0.802149
Si Si6 0.090276 0.918174 0.571775
Si Si7 0.197210 0.305468 0.419446
Si Si8 0.063228 0.951484 0.942159
O O1 0.635373 0.216115 0.170521
O O2 0.028487 0.127768 0.769997
O O3 0.264167 0.092037 0.884581
O O4 0.141191 0.176273 0.953759
O O5 0.990483 0.095808 0.988192
O O6 0.250000 0.997864 0.250000
O O7 0.052733 0.043729 0.399698
O O8 0.004677 0.049632 0.187129
O O9 0.972860 0.963170 0.287474
O O10 0.439433 0.603787 0.443310
O O11 0.943083 0.682000 0.671926
O O12 0.860066 0.667582 0.887642
O O13 0.105220 0.623426 0.829078
O O14 0.247612 0.950453 0.565690
O O15 0.250000 0.250000 0.418896
O O16 0.000000 0.000000 0.000000
#
# Coordination Sequence:
#
# PCOD8202092 Si02
#       8
#     2   8   8   8   8   8   8   8
#     4  12  24  42  68 104 138 166 200 284 352 416
#     4  11  24  42  69  91 132 176 229 278 334 405
#     4  12  25  41  64  95 134 181 229 278 341 402
#     4  11  24  45  62  89 133 182 222 277 326 401
#     4  11  24  42  68 102 138 166 217 273 357 413
#     4  12  26  40  67  99 136 176 233 284 343 410
#     4  11  22  46  71 101 132 175 216 284 354 427
#     4  12  24  42  65  99 138 184 231 287 342 411
#
# _framework density 21.654806000000001
#
# number of rings (size 3 to 8) (size 9 to 14) (size 15 to 20)
#    0.000    0.552    4.138    4.552    7.724    0.000 
#    0.000    1.379    0.000    0.000    0.000    0.000 
#    0.000    0.000    0.000    0.000    0.000    0.000 
#
# Total GULP energy -718898.355826 kJ/mol
# GULP energy per Si atom -12394.799238 kJ/mol
# Density = 2.160552 g / cm^3
# Si number density = 21.654806 Si / 1000 Ang^3
#
#
#
# Elastic Constant Matrix: (Units=GPa)
#
#
# Indices 1 2 3 4 5 6 
#
# 1 100.2331 36.2348 39.2389 0.0000 0.0000 0.0000
# 2 36.2348 97.2186 54.7599 0.0000 0.0000 0.0000
# 3 39.2389 54.7599 136.6036 0.0000 0.0000 0.0000
# 4 0.0000 0.0000 0.0000 23.8331 0.0000 0.0000
# 5 0.0000 0.0000 0.0000 0.0000 30.1976 0.0000
# 6 0.0000 0.0000 0.0000 0.0000 0.0000 32.8527
#
#
#
# Elastic Compliance Matrix: (Units=1/GPa)
#
#
# Indices 1 2 3 4 5 6 
#
# 1 0.011994 -0.003268 -0.002135 0.000000 0.000000 0.000000
# 2 -0.003268 0.014176 -0.004744 0.000000 0.000000 0.000000
# 3 -0.002135 -0.004744 0.009836 0.000000 0.000000 0.000000
# 4 0.000000 0.000000 0.000000 0.041958 0.000000 0.000000
# 5 0.000000 0.000000 0.000000 0.000000 0.033115 0.000000
# 6 0.000000 0.000000 0.000000 0.000000 0.000000 0.030439
#
#
# Mechanical properties :
#
#
# Convention : Reuss Voigt Hill
#
# Bulk Modulus (GPa) = 63.64739 66.05806 64.85272
# Shear Modulus (GPa) = 29.93123 30.96480 30.44801
#
# Velocity S-wave (km/s) = 3.72183 3.78554 3.75382
# Velocity P-wave (km/s) = 6.92278 7.04829 6.98582
#
# Compressibility (1/GPa) = 0.01571156
#
# Stress axis : x y z
#
# Youngs Moduli (GPa) = 83.37560 70.54083 101.67141
#
# Poissons Ratio (x) = 0.23049 0.21711
# Poissons Ratio (y) = 0.27243 0.48235
# Poissons Ratio (z) = 0.17804 0.33466
#
# Static dielectric constant tensor:
#      x y z
#    x 4.021980 0.000000 0.000000 
#    y 0.000000 3.691600 0.000000 
#    z 0.000000 0.000000 4.302080 
# 
# 
# High freq. dielectric constant tensor:
#      x y z
#    x 1.856230 0.000000 0.000000 
#    y 0.000000 1.832410 0.000000 
#    z 0.000000 0.000000 1.851110 
# 
# From -- ./inp_files/18958.got.cif
#   From: 2010.06.25/outbox.cif.g09.slc.cpg/sg48_10_cif.got.tgz:18958.got - 2010.06.26 18:06:46.
