data_PCOD8202330
_publ_section_title
;
Structure prediction by ZEFSAII (Michael W. Deem and Ramdas Pophale) SiO2 
 PCOD8202330
Probable space group: P C C M
;
_chemical_formula_sum "Si O2"
_cell_formula_units_Z 40
_cell_length_a 9.225111
_cell_length_b 26.055945
_cell_length_c 8.659226
_cell_angle_alpha 90.000000
_cell_angle_beta 90.000000
_cell_angle_gamma 90.000000
_cell_volume 2081.409363
_symmetry_space_group_name_H-M "P C C M"
_symmetry_group_IT_number 49
_symmetry_cell_setting 'orthorhombic'
loop_
_space_group_symop_operation_xyz
x,y,z
-x,-y,z
x,-y,1/2-z
-x,y,1/2-z
-x,-y,-z
x,y,-z
-x,y,1/2+z
x,-y,1/2+z
loop_
_atom_site_type_symbol
_atom_site_label
_atom_site_fract_x
_atom_site_fract_y
_atom_site_fract_z
Si Si1 0.341206 0.746646 0.682253
Si Si2 0.161374 0.051201 0.683443
Si Si3 0.656578 0.553770 0.182924
Si Si4 0.159260 0.844915 0.316938
Si Si5 0.841439 0.349555 0.317551
O O1 0.500000 0.746272 0.750000
O O2 0.353015 0.743784 0.500000
O O3 0.259371 0.797967 0.735584
O O4 0.253280 0.697741 0.746872
O O5 0.161359 0.049736 0.500000
O O6 0.233946 0.103688 0.745474
O O7 0.000000 0.051798 0.750000
O O8 0.241124 0.000000 0.750000
O O9 0.714433 0.500000 0.250000
O O10 0.500000 0.567695 0.250000
O O11 0.767895 0.597491 0.236503
O O12 0.643898 0.549800 0.000000
O O13 0.148082 0.850579 0.500000
O O14 0.000000 0.835170 0.250000
O O15 0.852332 0.346643 0.500000
O O16 0.000000 0.345821 0.250000
#
# Coordination Sequence:
#
# PCOD8202330 Si02
#       5
#     8   8   8   8   8
#     4  10  22  38  56  78 105 137 176 217 262 316
#     4  10  17  27  45  71 103 137 172 212 258 307
#     4  10  20  35  56  81 110 143 182 220 262 313
#     4  10  19  32  51  77 106 136 172 215 260 310
#     4  10  22  38  56  81 109 140 177 220 266 315
#
# _framework density 19.217746999999999
#
# number of rings (size 3 to 8) (size 9 to 14) (size 15 to 20)
#    0.000    2.000    0.000    6.600    0.000    4.400 
#    0.000    2.000    0.000    0.600    0.000    4.200 
#    0.000    0.000    0.000    0.000    0.000    0.000 
#
# Total GULP energy -495978.439314 kJ/mol
# GULP energy per Si atom -12399.460983 kJ/mol
# Density = 1.917401 g / cm^3
# Si number density = 19.217747 Si / 1000 Ang^3
#
#
#
# Elastic Constant Matrix: (Units=GPa)
#
#
# Indices 1 2 3 4 5 6 
#
# 1 120.2861 98.3618 34.1494 0.0000 0.0000 0.0000
# 2 98.3618 212.3252 62.5753 0.0000 0.0000 0.0000
# 3 34.1494 62.5753 84.9413 0.0000 0.0000 0.0000
# 4 0.0000 0.0000 0.0000 32.7717 0.0000 0.0000
# 5 0.0000 0.0000 0.0000 0.0000 26.8265 0.0000
# 6 0.0000 0.0000 0.0000 0.0000 0.0000 23.5219
#
#
#
# Elastic Compliance Matrix: (Units=1/GPa)
#
#
# Indices 1 2 3 4 5 6 
#
# 1 0.013456 -0.005926 -0.001044 0.000000 0.000000 0.000000
# 2 -0.005926 0.008625 -0.003972 0.000000 0.000000 0.000000
# 3 -0.001044 -0.003972 0.015119 0.000000 0.000000 0.000000
# 4 0.000000 0.000000 0.000000 0.030514 0.000000 0.000000
# 5 0.000000 0.000000 0.000000 0.000000 0.037277 0.000000
# 6 0.000000 0.000000 0.000000 0.000000 0.000000 0.042514
#
#
# Mechanical properties :
#
#
# Convention : Reuss Voigt Hill
#
# Bulk Modulus (GPa) = 65.29090 89.74730 77.51910
# Shear Modulus (GPa) = 28.65439 31.45508 30.05474
#
# Velocity S-wave (km/s) = 3.86559 4.05009 3.95891
# Velocity P-wave (km/s) = 7.34654 8.28689 7.83085
#
# Compressibility (1/GPa) = 0.01531607
#
# Stress axis : x y z
#
# Youngs Moduli (GPa) = 74.31846 115.93534 66.14299
#
# Poissons Ratio (x) = 0.68700 0.06907
# Poissons Ratio (y) = 0.44039 0.26272
# Poissons Ratio (z) = 0.07761 0.46049
#
# Static dielectric constant tensor:
#      x y z
#    x 3.224890 0.000000 0.000000 
#    y 0.000000 4.458820 0.000000 
#    z 0.000000 0.000000 3.491030 
# 
# 
# High freq. dielectric constant tensor:
#      x y z
#    x 1.715690 0.000000 0.000000 
#    y 0.000000 1.777460 0.000000 
#    z 0.000000 0.000000 1.752570 
# 
# From -- ./inp_files/1884.got.cif
#   From: 2010.03.12/outbox.cif.g09.slc.cpg/sg49_1_cif.got.tgz:1884.got - 2010.04.14 03:58:27.
