data_PCOD8202202
_publ_section_title
;
Structure prediction by ZEFSAII (Michael W. Deem and Ramdas Pophale) SiO2 
 PCOD8202202
Probable space group: P C C M
;
_chemical_formula_sum "Si O2"
_cell_formula_units_Z 40
_cell_length_a 9.596028
_cell_length_b 26.315303
_cell_length_c 8.629632
_cell_angle_alpha 90.000000
_cell_angle_beta 90.000000
_cell_angle_gamma 90.000000
_cell_volume 2179.175249
_symmetry_space_group_name_H-M "P C C M"
_symmetry_group_IT_number 49
_symmetry_cell_setting 'orthorhombic'
loop_
_space_group_symop_operation_xyz
x,y,z
-x,-y,z
x,-y,1/2-z
-x,y,1/2-z
-x,-y,-z
x,y,-z
-x,y,1/2+z
x,-y,1/2+z
loop_
_atom_site_type_symbol
_atom_site_label
_atom_site_fract_x
_atom_site_fract_y
_atom_site_fract_z
Si Si1 0.347124 0.846385 0.682539
Si Si2 0.150842 0.649883 0.178277
Si Si3 0.844399 0.449367 0.317696
Si Si4 0.344748 0.949245 0.183724
Si Si5 0.153679 0.762214 0.180451
O O1 0.500000 0.836798 0.750000
O O2 0.358723 0.853269 0.500000
O O3 0.274870 0.897142 0.755248
O O4 0.252415 0.798848 0.723619
O O5 0.232174 0.603202 0.264047
O O6 0.220246 0.705423 0.199568
O O7 0.000000 0.655658 0.250000
O O8 0.137610 0.634679 0.000000
O O9 0.768931 0.500000 0.250000
O O10 0.846541 0.453321 0.500000
O O11 0.000000 0.447058 0.250000
O O12 0.500000 0.948630 0.250000
O O13 0.268041 0.000000 0.250000
O O14 0.344463 0.950822 0.000000
O O15 0.000000 0.766014 0.250000
O O16 0.148840 0.777589 0.000000
#
# Coordination Sequence:
#
# PCOD8202202 Si02
#       5
#     8   8   8   8   8
#     4  11  21  34  52  75 102 131 164 204 246 288
#     4   9  16  26  40  58  83 114 151 190 231 279
#     4  10  16  22  33  50  76 108 145 185 230 278
#     4  10  17  28  46  70  98 126 158 196 240 288
#     4  10  20  34  51  72  98 131 167 203 243 291
#
# _framework density 18.355568000000002
#
# number of rings (size 3 to 8) (size 9 to 14) (size 15 to 20)
#    0.000    2.000    0.000   10.200    0.000    2.400 
#    0.000    0.000    0.000    0.600    0.000    4.200 
#    0.000    0.800    0.000    8.400    0.000    6.200 
#
# Total GULP energy -495618.325004 kJ/mol
# GULP energy per Si atom -12390.458125 kJ/mol
# Density = 1.831379 g / cm^3
# Si number density = 18.355568 Si / 1000 Ang^3
#
#
#
# Elastic Constant Matrix: (Units=GPa)
#
#
# Indices 1 2 3 4 5 6 
#
# 1 27.8330 31.4148 18.9360 0.0000 0.0000 0.0000
# 2 31.4148 173.7572 74.0214 0.0000 0.0000 0.0000
# 3 18.9360 74.0214 184.0412 0.0000 0.0000 0.0000
# 4 0.0000 0.0000 0.0000 38.4279 0.0000 0.0000
# 5 0.0000 0.0000 0.0000 0.0000 16.5621 0.0000
# 6 0.0000 0.0000 0.0000 0.0000 0.0000 45.9356
#
#
#
# Elastic Compliance Matrix: (Units=1/GPa)
#
#
# Indices 1 2 3 4 5 6 
#
# 1 0.045556 -0.007530 -0.001659 0.000000 0.000000 0.000000
# 2 -0.007530 0.008190 -0.002519 0.000000 0.000000 0.000000
# 3 -0.001659 -0.002519 0.006617 0.000000 0.000000 0.000000
# 4 0.000000 0.000000 0.000000 0.026023 0.000000 0.000000
# 5 0.000000 0.000000 0.000000 0.000000 0.060379 0.000000
# 6 0.000000 0.000000 0.000000 0.000000 0.000000 0.021770
#
#
# Mechanical properties :
#
#
# Convention : Reuss Voigt Hill
#
# Bulk Modulus (GPa) = 27.06533 70.48620 48.77577
# Shear Modulus (GPa) = 24.47799 37.60242 31.04020
#
# Velocity S-wave (km/s) = 3.65574 4.53101 4.11670
# Velocity P-wave (km/s) = 5.70931 8.11524 7.01618
#
# Compressibility (1/GPa) = 0.03694763
#
# Stress axis : x y z
#
# Youngs Moduli (GPa) = 21.95109 122.10486 151.11572
#
# Poissons Ratio (x) = 0.91942 0.25067
# Poissons Ratio (y) = 0.16529 0.38068
# Poissons Ratio (z) = 0.03641 0.30760
#
# Static dielectric constant tensor:
#      x y z
#    x 2.615410 0.000000 0.000000 
#    y 0.000000 5.175600 0.000000 
#    z 0.000000 0.000000 3.299810 
# 
# 
# High freq. dielectric constant tensor:
#      x y z
#    x 1.612110 0.000000 0.000000 
#    y 0.000000 1.753220 0.000000 
#    z 0.000000 0.000000 1.738040 
# 
# From -- ./inp_files/1935.got.cif
#   From: 2010.03.12/outbox.cif.g09.slc.cpg/sg49_1_cif.got.tgz:1935.got - 2010.04.14 03:58:27.
