data_PCOD8202201
_publ_section_title
;
Structure prediction by ZEFSAII (Michael W. Deem and Ramdas Pophale) SiO2 
 PCOD8202201
Probable space group: P C C M
;
_chemical_formula_sum "Si O2"
_cell_formula_units_Z 58
_cell_length_a 14.155163
_cell_length_b 27.800647
_cell_length_c 8.965456
_cell_angle_alpha 90.000000
_cell_angle_beta 90.000000
_cell_angle_gamma 90.000000
_cell_volume 3528.110360
_symmetry_space_group_name_H-M "P C C M"
_symmetry_group_IT_number 49
_symmetry_cell_setting 'orthorhombic'
loop_
_space_group_symop_operation_xyz
x,y,z
-x,-y,z
x,-y,1/2-z
-x,y,1/2-z
-x,-y,-z
x,y,-z
-x,y,1/2+z
x,-y,1/2+z
loop_
_atom_site_type_symbol
_atom_site_label
_atom_site_fract_x
_atom_site_fract_y
_atom_site_fract_z
Si Si1 0.089353 0.642885 0.325458
Si Si2 0.500000 0.500000 0.250000
Si Si3 0.348222 0.424214 0.335471
Si Si4 0.600468 0.139126 0.826626
Si Si5 0.604533 0.952773 0.821019
Si Si6 0.600241 0.244974 0.827767
Si Si7 0.139968 0.452469 0.674126
Si Si8 0.699323 0.668827 0.826026
O O1 0.072767 0.639914 0.500000
O O2 0.086547 0.590423 0.254108
O O3 0.189848 0.666290 0.286884
O O4 0.000000 0.671195 0.250000
O O5 0.432686 0.463401 0.339886
O O6 0.340582 0.401838 0.500000
O O7 0.251961 0.450843 0.291958
O O8 0.360476 0.378217 0.226403
O O9 0.500000 0.144947 0.750000
O O10 0.656254 0.096228 0.737967
O O11 0.648237 0.191768 0.809568
O O12 0.589432 0.124622 0.000000
O O13 0.500000 0.950775 0.750000
O O14 0.655412 0.000000 0.750000
O O15 0.603047 0.955525 0.000000
O O16 0.500000 0.248544 0.750000
O O17 0.669512 0.283111 0.756067
O O18 0.584612 0.257207 0.000000
O O19 0.098998 0.500000 0.750000
O O20 0.117143 0.451937 0.500000
O O21 0.680126 0.673835 0.000000
#
# Coordination Sequence:
#
# PCOD8202201 Si02
#       8
#     8   2   8   8   8   8   8   8
#     4  10  21  37  56  77  95 116 142 177 221 271
#     4  12  22  36  52  74  92 120 156 186 224 268
#     4  10  22  36  51  69  92 120 149 182 221 263
#     4   9  16  26  39  57  80 110 149 192 232 272
#     4  10  16  22  33  50  75 108 146 191 236 276
#     4  10  20  33  50  69  93 124 159 196 235 272
#     4  10  19  34  52  71  94 119 142 172 210 256
#     4  10  22  38  55  73  96 120 150 188 227 274
#
# _framework density 16.439394
#
# number of rings (size 3 to 8) (size 9 to 14) (size 15 to 20)
#    0.000    2.069    0.690    4.759    0.966    5.241 
#    0.000    1.379    0.000    0.000    0.000    0.000 
#    0.000    0.000    0.000    0.000    0.000    0.690 
#
# Total GULP energy -718619.616846 kJ/mol
# GULP energy per Si atom -12389.993394 kJ/mol
# Density = 1.640198 g / cm^3
# Si number density = 16.439394 Si / 1000 Ang^3
#
#
#
# Elastic Constant Matrix: (Units=GPa)
#
#
# Indices 1 2 3 4 5 6 
#
# 1 58.9815 33.4446 30.7112 0.0000 0.0000 0.0000
# 2 33.4446 128.1787 71.1322 0.0000 0.0000 0.0000
# 3 30.7112 71.1322 120.3694 0.0000 0.0000 0.0000
# 4 0.0000 0.0000 0.0000 29.5858 0.0000 0.0000
# 5 0.0000 0.0000 0.0000 0.0000 18.5739 0.0000
# 6 0.0000 0.0000 0.0000 0.0000 0.0000 5.6385
#
#
#
# Elastic Compliance Matrix: (Units=1/GPa)
#
#
# Indices 1 2 3 4 5 6 
#
# 1 0.020648 -0.003666 -0.003102 0.000000 0.000000 0.000000
# 2 -0.003666 0.012260 -0.006309 0.000000 0.000000 0.000000
# 3 -0.003102 -0.006309 0.012828 0.000000 0.000000 0.000000
# 4 0.000000 0.000000 0.000000 0.033800 0.000000 0.000000
# 5 0.000000 0.000000 0.000000 0.000000 0.053839 0.000000
# 6 0.000000 0.000000 0.000000 0.000000 0.000000 0.177353
#
#
# Mechanical properties :
#
#
# Convention : Reuss Voigt Hill
#
# Bulk Modulus (GPa) = 51.07013 64.23396 57.65205
# Shear Modulus (GPa) = 14.55988 22.24240 18.40114
#
# Velocity S-wave (km/s) = 2.97925 3.68230 3.34927
# Velocity P-wave (km/s) = 6.55498 7.56552 7.07831
#
# Compressibility (1/GPa) = 0.01958092
#
# Stress axis : x y z
#
# Youngs Moduli (GPa) = 48.42983 81.56879 77.95680
#
# Poissons Ratio (x) = 0.29906 0.24179
# Poissons Ratio (y) = 0.17756 0.49186
# Poissons Ratio (z) = 0.15021 0.51465
#
# Static dielectric constant tensor:
#      x y z
#    x 2.928400 0.000000 0.000000 
#    y 0.000000 3.797580 0.000000 
#    z 0.000000 0.000000 3.226390 
# 
# 
# High freq. dielectric constant tensor:
#      x y z
#    x 1.583180 0.000000 0.000000 
#    y 0.000000 1.630190 0.000000 
#    z 0.000000 0.000000 1.653780 
# 
# From -- ./inp_files/4475.got.cif
#   From: 2010.03.12/outbox.cif.g09.slc.cpg/sg49_3_cif.got.tgz:4475.got - 2010.04.14 03:58:27.
