data_PCOD8202956
_publ_section_title
;
Structure prediction by ZEFSAII (Michael W. Deem and Ramdas Pophale) SiO2 
 PCOD8202956
Probable space group: P C C M
;
_chemical_formula_sum "Si O2"
_cell_formula_units_Z 56
_cell_length_a 24.620427
_cell_length_b 14.053145
_cell_length_c 8.970510
_cell_angle_alpha 90.000000
_cell_angle_beta 90.000000
_cell_angle_gamma 90.000000
_cell_volume 3103.746500
_symmetry_space_group_name_H-M "P C C M"
_symmetry_group_IT_number 49
_symmetry_cell_setting 'orthorhombic'
loop_
_space_group_symop_operation_xyz
x,y,z
-x,-y,z
x,-y,1/2-z
-x,y,1/2-z
-x,-y,-z
x,y,-z
-x,y,1/2+z
x,-y,1/2+z
loop_
_atom_site_type_symbol
_atom_site_label
_atom_site_fract_x
_atom_site_fract_y
_atom_site_fract_z
Si Si1 0.432815 0.120087 0.500000
Si Si2 0.898297 0.401346 0.319341
Si Si3 0.218870 0.403909 0.322106
Si Si4 0.055626 0.216478 0.319900
Si Si5 0.636990 0.888604 0.236414
Si Si6 0.256116 0.772519 0.668838
Si Si7 0.848317 0.100482 0.676204
Si Si8 0.551590 0.104211 0.500000
O O1 0.390612 0.154519 0.378947
O O2 0.493944 0.162306 0.500000
O O3 0.449926 0.009993 0.500000
O O4 0.920115 0.500000 0.250000
O O5 0.899044 0.402472 0.500000
O O6 0.837933 0.382006 0.259272
O O7 0.936525 0.319769 0.254289
O O8 0.243483 0.500000 0.250000
O O9 0.211256 0.414130 0.500000
O O10 0.258526 0.316548 0.282227
O O11 0.054055 0.222096 0.500000
O O12 0.101986 0.145294 0.266034
O O13 0.000000 0.175821 0.250000
O O14 0.691072 0.836046 0.189085
O O15 0.651446 0.000000 0.250000
O O16 0.586123 0.862759 0.137043
O O17 0.253410 0.734262 0.500000
O O18 0.204052 0.835660 0.705664
O O19 0.861493 0.091710 0.500000
O O20 0.835380 0.000000 0.750000
#
# Coordination Sequence:
#
# PCOD8202956 Si02
#       8
#     4   8   8   8   8   8   8   4
#     4   9  18  28  50  74 109 153 204 244 274 331
#     4  11  21  38  62  90 120 150 185 228 285 348
#     4  11  22  37  60  86 114 149 187 229 284 346
#     4  12  25  43  64  88 115 148 193 240 288 345
#     4  10  19  32  49  78 115 156 200 238 282 329
#     4  11  22  37  57  82 119 154 190 236 288 341
#     4  11  24  42  62  85 114 152 194 238 290 342
#     4   9  16  32  48  72 109 159 198 238 286 323
#
# _framework density 18.042711000000001
#
# number of rings (size 3 to 8) (size 9 to 14) (size 15 to 20)
#    0.000    1.286    2.143    6.000    1.000    2.857 
#    0.000    2.857    0.000    0.000    0.000    0.000 
#    0.000    3.429    0.000    0.000    0.000    0.000 
#
# Total GULP energy -693762.476789 kJ/mol
# GULP energy per Si atom -12388.615657 kJ/mol
# Density = 1.800165 g / cm^3
# Si number density = 18.042711 Si / 1000 Ang^3
#
#
#
# Elastic Constant Matrix: (Units=GPa)
#
#
# Indices 1 2 3 4 5 6 
#
# 1 81.9886 31.1334 26.1068 0.0000 0.0000 0.0000
# 2 31.1334 83.9413 42.7745 0.0000 0.0000 0.0000
# 3 26.1068 42.7745 151.4943 0.0000 0.0000 0.0000
# 4 0.0000 0.0000 0.0000 30.3552 0.0000 0.0000
# 5 0.0000 0.0000 0.0000 0.0000 32.1188 0.0000
# 6 0.0000 0.0000 0.0000 0.0000 0.0000 24.8670
#
#
#
# Elastic Compliance Matrix: (Units=1/GPa)
#
#
# Indices 1 2 3 4 5 6 
#
# 1 0.014361 -0.004749 -0.001134 0.000000 0.000000 0.000000
# 2 -0.004749 0.015485 -0.003554 0.000000 0.000000 0.000000
# 3 -0.001134 -0.003554 0.007800 0.000000 0.000000 0.000000
# 4 0.000000 0.000000 0.000000 0.032943 0.000000 0.000000
# 5 0.000000 0.000000 0.000000 0.000000 0.031134 0.000000
# 6 0.000000 0.000000 0.000000 0.000000 0.000000 0.040214
#
#
# Mechanical properties :
#
#
# Convention : Reuss Voigt Hill
#
# Bulk Modulus (GPa) = 53.26798 57.49486 55.38142
# Shear Modulus (GPa) = 29.92777 31.96215 30.94496
#
# Velocity S-wave (km/s) = 4.07715 4.21345 4.14586
# Velocity P-wave (km/s) = 7.19386 7.45695 7.32658
#
# Compressibility (1/GPa) = 0.01877301
#
# Stress axis : x y z
#
# Youngs Moduli (GPa) = 69.63257 64.57725 128.20824
#
# Poissons Ratio (x) = 0.30665 0.14540
# Poissons Ratio (y) = 0.33066 0.45565
# Poissons Ratio (z) = 0.07897 0.22951
#
# Static dielectric constant tensor:
#      x y z
#    x 3.354880 0.000000 0.000000 
#    y 0.000000 3.247310 0.000000 
#    z 0.000000 0.000000 3.594580 
# 
# 
# High freq. dielectric constant tensor:
#      x y z
#    x 1.694030 0.000000 0.000000 
#    y 0.000000 1.674430 0.000000 
#    z 0.000000 0.000000 1.725160 
# 
# From -- ./inp_files/5850.got.cif
#   From: 2010.03.12/outbox.cif.g09.slc.cpg/sg49_3_cif.got.tgz:5850.got - 2010.04.14 03:58:27.
