data_PCOD8202018
_publ_section_title
;
Structure prediction by ZEFSAII (Michael W. Deem and Ramdas Pophale) SiO2 
 PCOD8202018
Probable space group: P N N N
;
_chemical_formula_sum "Si O2"
_cell_formula_units_Z 64
_cell_length_a 11.743592
_cell_length_b 12.653773
_cell_length_c 23.942665
_cell_angle_alpha 90.000000
_cell_angle_beta 90.000000
_cell_angle_gamma 90.000000
_cell_volume 3557.897913
_symmetry_space_group_name_H-M "P N N N"
_symmetry_group_IT_number 48
_space_group.IT_coordinate_system_code '2'
_symmetry_cell_setting 'orthorhombic'
loop_
_space_group_symop_operation_xyz
x,y,z
1/2-x,1/2-y,z
x,1/2-y,1/2-z
1/2-x,y,1/2-z
-x,-y,-z
1/2+x,1/2+y,-z
-x,1/2+y,1/2+z
1/2+x,-y,1/2+z
loop_
_atom_site_type_symbol
_atom_site_label
_atom_site_fract_x
_atom_site_fract_y
_atom_site_fract_z
Si Si1 0.975061 0.166293 0.019044
Si Si2 0.029058 0.465681 0.586364
Si Si3 0.770181 0.527052 0.046719
Si Si4 0.617936 0.370660 0.817488
Si Si5 0.157568 0.178563 0.452093
Si Si6 0.878124 0.126566 0.688757
Si Si7 0.022372 0.513288 0.092146
Si Si8 0.321662 0.664245 0.480598
O O1 0.087079 0.235818 0.014229
O O2 0.984342 0.090075 0.072930
O O3 0.876054 0.254090 0.025211
O O4 0.965139 0.100737 0.961365
O O5 0.166071 0.443275 0.588095
O O6 0.969103 0.438969 0.645163
O O7 0.889203 0.510368 0.078646
O O8 0.776093 0.613698 0.999078
O O9 0.740039 0.416692 0.014633
O O10 0.602789 0.402476 0.752998
O O11 0.749273 0.395148 0.832715
O O12 0.589476 0.247369 0.824046
O O13 0.250000 0.250000 0.417097
O O14 0.080251 0.101719 0.414055
O O15 0.963104 0.050217 0.655476
O O16 0.082823 0.599260 0.052206
O O17 0.250000 0.750000 0.441992
#
# Coordination Sequence:
#
# PCOD8202018 Si02
#       8
#     8   8   8   8   8   8   8   8
#     4  11  21  34  49  79 115 145 182 214 258 333
#     4  11  23  32  54  82 108 145 183 220 271 320
#     4  11  21  35  48  77 117 151 177 211 265 334
#     4   9  20  39  57  80 105 133 177 233 277 307
#     4  11  21  34  48  77 120 148 175 220 272 327
#     4   9  20  38  59  78 103 135 180 230 272 320
#     4  11  22  33  55  80 106 151 184 215 275 329
#     4  11  20  33  51  77 112 147 186 217 256 325
#
# _framework density 17.988150000000001
#
# number of rings (size 3 to 8) (size 9 to 14) (size 15 to 20)
#    0.000    1.500    5.000    2.250    5.250    0.000 
#    0.000    0.625    0.000    2.250    0.000    0.000 
#    0.000    0.000    0.000    0.000    0.000    0.000 
#
# Total GULP energy -792878.491873 kJ/mol
# GULP energy per Si atom -12388.726436 kJ/mol
# Density = 1.794721 g / cm^3
# Si number density = 17.988150 Si / 1000 Ang^3
#
#
#
# Elastic Constant Matrix: (Units=GPa)
#
#
# Indices 1 2 3 4 5 6 
#
# 1 100.8640 42.4563 37.5877 0.0000 0.0000 0.0000
# 2 42.4563 92.8126 33.6326 0.0000 0.0000 0.0000
# 3 37.5877 33.6326 76.4171 0.0000 0.0000 0.0000
# 4 0.0000 0.0000 0.0000 19.2315 0.0000 0.0000
# 5 0.0000 0.0000 0.0000 0.0000 27.7858 0.0000
# 6 0.0000 0.0000 0.0000 0.0000 0.0000 33.9586
#
#
#
# Elastic Compliance Matrix: (Units=1/GPa)
#
#
# Indices 1 2 3 4 5 6 
#
# 1 0.013556 -0.004503 -0.004686 0.000000 0.000000 0.000000
# 2 -0.004503 0.014315 -0.004085 0.000000 0.000000 0.000000
# 3 -0.004686 -0.004085 0.017189 0.000000 0.000000 0.000000
# 4 0.000000 0.000000 0.000000 0.051998 0.000000 0.000000
# 5 0.000000 0.000000 0.000000 0.000000 0.035990 0.000000
# 6 0.000000 0.000000 0.000000 0.000000 0.000000 0.029448
#
#
# Mechanical properties :
#
#
# Convention : Reuss Voigt Hill
#
# Bulk Modulus (GPa) = 54.02145 55.27187 54.64666
# Shear Modulus (GPa) = 25.61296 26.62301 26.11798
#
# Velocity S-wave (km/s) = 3.77753 3.85129 3.81459
# Velocity P-wave (km/s) = 7.00879 7.11127 7.06021
#
# Compressibility (1/GPa) = 0.01851116
#
# Stress axis : x y z
#
# Youngs Moduli (GPa) = 73.76771 69.85865 58.17682
#
# Poissons Ratio (x) = 0.31458 0.27262
# Poissons Ratio (y) = 0.33218 0.23766
# Poissons Ratio (z) = 0.34568 0.28539
#
# Static dielectric constant tensor:
#      x y z
#    x 3.640500 0.000000 0.000000 
#    y 0.000000 3.617700 0.000000 
#    z 0.000000 0.000000 2.959050 
# 
# 
# High freq. dielectric constant tensor:
#      x y z
#    x 1.712650 0.000000 0.000000 
#    y 0.000000 1.712450 0.000000 
#    z 0.000000 0.000000 1.640290 
# 
# From -- ./inp_files/36391.got.cif
#   From: 2010.06.25/outbox.cif.g09.slc.cpg/sg48_19_cif.got.tgz:36391.got - 2010.06.26 18:06:46.
