data_PCOD8202867
_publ_section_title
;
Structure prediction by ZEFSAII (Michael W. Deem and Ramdas Pophale) SiO2 
 PCOD8202867
Probable space group: P C C M
;
_chemical_formula_sum "Si O2"
_cell_formula_units_Z 56
_cell_length_a 24.403004
_cell_length_b 13.992727
_cell_length_c 9.420459
_cell_angle_alpha 90.000000
_cell_angle_beta 90.000000
_cell_angle_gamma 90.000000
_cell_volume 3216.753009
_symmetry_space_group_name_H-M "P C C M"
_symmetry_group_IT_number 49
_symmetry_cell_setting 'orthorhombic'
loop_
_space_group_symop_operation_xyz
x,y,z
-x,-y,z
x,-y,1/2-z
-x,y,1/2-z
-x,-y,-z
x,y,-z
-x,y,1/2+z
x,-y,1/2+z
loop_
_atom_site_type_symbol
_atom_site_label
_atom_site_fract_x
_atom_site_fract_y
_atom_site_fract_z
Si Si1 0.257448 0.274161 0.334886
Si Si2 0.052989 0.726510 0.167731
Si Si3 0.552552 0.392633 0.000000
Si Si4 0.843310 0.403868 0.837282
Si Si5 0.568305 0.618477 0.000000
Si Si6 0.899204 0.095440 0.666475
Si Si7 0.770544 0.905632 0.835377
Si Si8 0.634262 0.612345 0.736651
O O1 0.252427 0.244351 0.500000
O O2 0.204411 0.333266 0.285308
O O3 0.262081 0.180949 0.237158
O O4 0.310080 0.338611 0.309346
O O5 0.098779 0.646359 0.186634
O O6 0.069450 0.821996 0.250508
O O7 0.000000 0.685733 0.250000
O O8 0.042415 0.747280 0.000000
O O9 0.553180 0.507139 0.000000
O O10 0.493333 0.339135 0.000000
O O11 0.585691 0.357888 0.133976
O O12 0.840903 0.500000 0.750000
O O13 0.833727 0.431577 0.000000
O O14 0.607969 0.653803 0.122671
O O15 0.916722 0.090020 0.500000
O O16 0.834841 0.114247 0.679550
O O17 0.915929 0.000000 0.750000
O O18 0.753528 0.000000 0.750000
O O19 0.753381 0.915903 0.000000
O O20 0.646539 0.500000 0.750000
#
# Coordination Sequence:
#
# PCOD8202867 Si02
#       8
#     8   8   4   8   4   8   8   8
#     4  11  21  36  55  79 114 146 181 226 274 325
#     4  11  23  40  59  81 108 140 182 228 272 325
#     4   9  16  32  46  72 105 153 192 228 274 309
#     4  10  23  40  58  79 106 144 183 226 277 323
#     4   9  18  28  50  70 107 149 196 234 262 317
#     4  10  20  36  59  86 112 140 173 216 271 333
#     4  10  21  36  58  84 110 142 177 217 270 331
#     4  10  19  31  48  76 111 151 192 229 270 314
#
# _framework density 17.408859
#
# number of rings (size 3 to 8) (size 9 to 14) (size 15 to 20)
#    0.000    1.857    2.143    2.143    1.000    5.143 
#    0.000    2.857    0.000    0.000    0.000    0.000 
#    0.000    3.429    0.000    0.000    0.000    0.000 
#
# Total GULP energy -694126.393235 kJ/mol
# GULP energy per Si atom -12395.114165 kJ/mol
# Density = 1.736924 g / cm^3
# Si number density = 17.408859 Si / 1000 Ang^3
#
#
#
# Elastic Constant Matrix: (Units=GPa)
#
#
# Indices 1 2 3 4 5 6 
#
# 1 72.6933 30.4226 33.0225 0.0000 0.0000 0.0000
# 2 30.4226 84.5514 50.5624 0.0000 0.0000 0.0000
# 3 33.0225 50.5624 132.0349 0.0000 0.0000 0.0000
# 4 0.0000 0.0000 0.0000 33.0076 0.0000 0.0000
# 5 0.0000 0.0000 0.0000 0.0000 33.0256 0.0000
# 6 0.0000 0.0000 0.0000 0.0000 0.0000 2.3475
#
#
#
# Elastic Compliance Matrix: (Units=1/GPa)
#
#
# Indices 1 2 3 4 5 6 
#
# 1 0.016782 -0.004576 -0.002445 0.000000 0.000000 0.000000
# 2 -0.004576 0.016588 -0.005208 0.000000 0.000000 0.000000
# 3 -0.002445 -0.005208 0.010179 0.000000 0.000000 0.000000
# 4 0.000000 0.000000 0.000000 0.030296 0.000000 0.000000
# 5 0.000000 0.000000 0.000000 0.000000 0.030280 0.000000
# 6 0.000000 0.000000 0.000000 0.000000 0.000000 0.425991
#
#
# Mechanical properties :
#
#
# Convention : Reuss Voigt Hill
#
# Bulk Modulus (GPa) = 52.37836 57.47718 54.92777
# Shear Modulus (GPa) = 8.91364 25.36095 17.13730
#
# Velocity S-wave (km/s) = 2.26524 3.82093 3.14092
# Velocity P-wave (km/s) = 6.08229 7.24939 6.69133
#
# Compressibility (1/GPa) = 0.01909185
#
# Stress axis : x y z
#
# Youngs Moduli (GPa) = 59.58664 60.28430 98.23665
#
# Poissons Ratio (x) = 0.27589 0.24017
# Poissons Ratio (y) = 0.27270 0.51159
# Poissons Ratio (z) = 0.14568 0.31395
#
# Static dielectric constant tensor:
#      x y z
#    x 3.289810 0.000000 0.000000 
#    y 0.000000 3.829570 0.000000 
#    z 0.000000 0.000000 3.463890 
# 
# 
# High freq. dielectric constant tensor:
#      x y z
#    x 1.670120 0.000000 0.000000 
#    y 0.000000 1.643680 0.000000 
#    z 0.000000 0.000000 1.693860 
# 
# From -- ./inp_files/5845.got.cif
#   From: 2010.03.12/outbox.cif.g09.slc.cpg/sg49_3_cif.got.tgz:5845.got - 2010.04.14 03:58:27.
