data_PCOD8202856
_publ_section_title
;
Structure prediction by ZEFSAII (Michael W. Deem and Ramdas Pophale) SiO2 
 PCOD8202856
Probable space group: P C C M
;
_chemical_formula_sum "Si O2"
_cell_formula_units_Z 48
_cell_length_a 23.608774
_cell_length_b 13.753135
_cell_length_c 8.691170
_cell_angle_alpha 90.000000
_cell_angle_beta 90.000000
_cell_angle_gamma 90.000000
_cell_volume 2821.976453
_symmetry_space_group_name_H-M "P C C M"
_symmetry_group_IT_number 49
_symmetry_cell_setting 'orthorhombic'
loop_
_space_group_symop_operation_xyz
x,y,z
-x,-y,z
x,-y,1/2-z
-x,y,1/2-z
-x,-y,-z
x,y,-z
-x,y,1/2+z
x,-y,1/2+z
loop_
_atom_site_type_symbol
_atom_site_label
_atom_site_fract_x
_atom_site_fract_y
_atom_site_fract_z
Si Si1 0.727446 0.395521 0.680177
Si Si2 0.060650 0.396899 0.682402
Si Si3 0.558932 0.895072 0.317872
Si Si4 0.161275 0.717253 0.317926
Si Si5 0.779086 0.894199 0.681034
Si Si6 0.331956 0.222081 0.320839
O O1 0.715801 0.500000 0.750000
O O2 0.726186 0.405897 0.500000
O O3 0.787968 0.353939 0.735858
O O4 0.677801 0.322474 0.731287
O O5 0.081011 0.500000 0.750000
O O6 0.056686 0.405003 0.500000
O O7 0.104666 0.314766 0.731654
O O8 0.000000 0.367206 0.750000
O O9 0.500000 0.854991 0.250000
O O10 0.554339 0.904844 0.500000
O O11 0.607946 0.820816 0.267794
O O12 0.573695 0.000000 0.250000
O O13 0.152160 0.714412 0.500000
O O14 0.174830 0.826090 0.263572
O O15 0.790609 0.895307 0.500000
O O16 0.716202 0.856459 0.720710
O O17 0.786592 0.000000 0.750000
O O18 0.331086 0.246527 0.500000
#
# Coordination Sequence:
#
# PCOD8202856 Si02
#       6
#     8   8   8   8   8   8
#     4  10  20  32  50  73  99 129 161 198 242 289
#     4  11  21  34  52  75 102 133 166 203 245 290
#     4  10  19  31  48  71  98 129 161 199 241 287
#     4  10  20  34  51  74 101 131 165 202 243 290
#     4  10  19  32  50  73 100 131 164 202 244 290
#     4   9  19  33  49  70  98 129 163 200 242 288
#
# _framework density 17.009356
#
# number of rings (size 3 to 8) (size 9 to 14) (size 15 to 20)
#    0.000    2.000    0.000    5.500    0.000    5.333 
#    0.000    0.000    0.000    1.000    0.000    7.000 
#    0.000    0.000    0.000    0.000    0.000    0.000 
#
# Total GULP energy -595375.743615 kJ/mol
# GULP energy per Si atom -12403.661325 kJ/mol
# Density = 1.697064 g / cm^3
# Si number density = 17.009356 Si / 1000 Ang^3
#
#
#
# Elastic Constant Matrix: (Units=GPa)
#
#
# Indices 1 2 3 4 5 6 
#
# 1 111.1744 68.7476 47.0516 0.0000 0.0000 0.0000
# 2 68.7476 130.0069 45.3701 0.0000 0.0000 0.0000
# 3 47.0516 45.3701 90.1409 0.0000 0.0000 0.0000
# 4 0.0000 0.0000 0.0000 31.8951 0.0000 0.0000
# 5 0.0000 0.0000 0.0000 0.0000 24.5024 0.0000
# 6 0.0000 0.0000 0.0000 0.0000 0.0000 19.8187
#
#
#
# Elastic Compliance Matrix: (Units=1/GPa)
#
#
# Indices 1 2 3 4 5 6 
#
# 1 0.014779 -0.006214 -0.004586 0.000000 0.000000 0.000000
# 2 -0.006214 0.011944 -0.002768 0.000000 0.000000 0.000000
# 3 -0.004586 -0.002768 0.014881 0.000000 0.000000 0.000000
# 4 0.000000 0.000000 0.000000 0.031353 0.000000 0.000000
# 5 0.000000 0.000000 0.000000 0.000000 0.040812 0.000000
# 6 0.000000 0.000000 0.000000 0.000000 0.000000 0.050458
#
#
# Mechanical properties :
#
#
# Convention : Reuss Voigt Hill
#
# Bulk Modulus (GPa) = 69.12617 72.62900 70.87758
# Shear Modulus (GPa) = 25.48605 26.58677 26.03641
#
# Velocity S-wave (km/s) = 3.87506 3.95785 3.91667
# Velocity P-wave (km/s) = 7.79421 7.97987 7.88759
#
# Compressibility (1/GPa) = 0.01446630
#
# Stress axis : x y z
#
# Youngs Moduli (GPa) = 67.66448 83.72354 67.20042
#
# Poissons Ratio (x) = 0.52030 0.30820
# Poissons Ratio (y) = 0.42050 0.18601
# Poissons Ratio (z) = 0.31033 0.23174
#
# Static dielectric constant tensor:
#      x y z
#    x 3.217340 0.000000 0.000000 
#    y 0.000000 3.206550 0.000000 
#    z 0.000000 0.000000 3.284850 
# 
# 
# High freq. dielectric constant tensor:
#      x y z
#    x 1.647270 0.000000 0.000000 
#    y 0.000000 1.647690 0.000000 
#    z 0.000000 0.000000 1.673250 
# 
# From -- ./inp_files/2904.got.cif
#   From: 2010.03.12/outbox.cif.g09.slc.cpg/sg49_2_cif.got.tgz:2904.got - 2010.04.14 03:58:27.
