data_PCOD8202186
_publ_section_title
;
Structure prediction by ZEFSAII (Michael W. Deem and Ramdas Pophale) SiO2 
 PCOD8202186
Probable space group: P C C M
;
_chemical_formula_sum "Si O2"
_cell_formula_units_Z 64
_cell_length_a 14.790838
_cell_length_b 29.821240
_cell_length_c 8.691741
_cell_angle_alpha 90.000000
_cell_angle_beta 90.000000
_cell_angle_gamma 90.000000
_cell_volume 3833.762940
_symmetry_space_group_name_H-M "P C C M"
_symmetry_group_IT_number 49
_symmetry_cell_setting 'orthorhombic'
loop_
_space_group_symop_operation_xyz
x,y,z
-x,-y,z
x,-y,1/2-z
-x,y,1/2-z
-x,-y,-z
x,y,-z
-x,y,1/2+z
x,-y,1/2+z
loop_
_atom_site_type_symbol
_atom_site_label
_atom_site_fract_x
_atom_site_fract_y
_atom_site_fract_z
Si Si1 0.399222 0.955416 0.818129
Si Si2 0.095185 0.642524 0.683721
Si Si3 0.598184 0.867803 0.179211
Si Si4 0.842615 0.454039 0.675692
Si Si5 0.370867 0.545567 0.678286
Si Si6 0.268750 0.307417 0.819886
Si Si7 0.400078 0.231309 0.180245
Si Si8 0.588720 0.634085 0.678861
O O1 0.500000 0.953781 0.750000
O O2 0.349142 0.909332 0.762550
O O3 0.350196 0.000000 0.750000
O O4 0.400742 0.958329 0.000000
O O5 0.095123 0.641427 0.500000
O O6 0.116605 0.592163 0.747625
O O7 0.167978 0.680420 0.741330
O O8 0.000000 0.658872 0.750000
O O9 0.500000 0.864727 0.250000
O O10 0.640688 0.818712 0.210489
O O11 0.592516 0.879013 0.000000
O O12 0.881650 0.500000 0.750000
O O13 0.871249 0.456734 0.500000
O O14 0.736140 0.451559 0.698718
O O15 0.408214 0.500000 0.750000
O O16 0.398965 0.551649 0.500000
O O17 0.418719 0.581539 0.788180
O O18 0.322776 0.264445 0.748111
O O19 0.325528 0.350963 0.776897
O O20 0.263804 0.300333 0.000000
O O21 0.500000 0.238996 0.250000
O O22 0.412134 0.239991 0.000000
O O23 0.500000 0.658406 0.750000
O O24 0.598342 0.645629 0.500000
#
# Coordination Sequence:
#
# PCOD8202186 Si02
#       8
#     8   8   8   8   8   8   8   8
#     4  10  16  22  32  48  72 107 146 189 233 270
#     4  10  21  37  55  75  98 122 148 181 223 269
#     4   9  15  24  36  55  79 107 145 187 228 272
#     4   9  18  33  53  74  96 121 142 173 213 257
#     4  10  19  35  54  73  96 121 149 179 217 258
#     4  10  20  38  55  70  95 123 151 190 233 272
#     4   9  18  30  48  68  90 120 153 191 235 276
#     4  12  24  36  52  74  96 123 154 185 221 264
#
# _framework density 16.69378
#
# number of rings (size 3 to 8) (size 9 to 14) (size 15 to 20)
#    0.000    2.125    1.250    4.500    0.000    4.000 
#    0.000    2.500    0.000    0.000    0.000    0.000 
#    0.000    0.000    0.000    0.000    0.000    0.625 
#
# Total GULP energy -792870.024747 kJ/mol
# GULP energy per Si atom -12388.594137 kJ/mol
# Density = 1.665578 g / cm^3
# Si number density = 16.693780 Si / 1000 Ang^3
#
#
#
# Elastic Constant Matrix: (Units=GPa)
#
#
# Indices 1 2 3 4 5 6 
#
# 1 72.6729 40.5200 15.7290 0.0000 0.0000 0.0000
# 2 40.5200 128.8569 30.1316 0.0000 0.0000 0.0000
# 3 15.7290 30.1316 43.4795 0.0000 0.0000 0.0000
# 4 0.0000 0.0000 0.0000 31.6901 0.0000 0.0000
# 5 0.0000 0.0000 0.0000 0.0000 17.4893 0.0000
# 6 0.0000 0.0000 0.0000 0.0000 0.0000 23.1800
#
#
#
# Elastic Compliance Matrix: (Units=1/GPa)
#
#
# Indices 1 2 3 4 5 6 
#
# 1 0.016990 -0.004661 -0.002916 0.000000 0.000000 0.000000
# 2 -0.004661 0.010540 -0.005618 0.000000 0.000000 0.000000
# 3 -0.002916 -0.005618 0.027948 0.000000 0.000000 0.000000
# 4 0.000000 0.000000 0.000000 0.031556 0.000000 0.000000
# 5 0.000000 0.000000 0.000000 0.000000 0.057178 0.000000
# 6 0.000000 0.000000 0.000000 0.000000 0.000000 0.043141
#
#
# Mechanical properties :
#
#
# Convention : Reuss Voigt Hill
#
# Bulk Modulus (GPa) = 34.37926 46.41893 40.39910
# Shear Modulus (GPa) = 22.37756 25.04713 23.71234
#
# Velocity S-wave (km/s) = 3.66522 3.87769 3.77295
# Velocity P-wave (km/s) = 6.20891 6.92207 6.57517
#
# Compressibility (1/GPa) = 0.02908730
#
# Stress axis : x y z
#
# Youngs Moduli (GPa) = 58.85761 94.87770 35.78094
#
# Poissons Ratio (x) = 0.44220 0.10435
# Poissons Ratio (y) = 0.27432 0.20102
# Poissons Ratio (z) = 0.17165 0.53304
#
# Static dielectric constant tensor:
#      x y z
#    x 2.946260 0.000000 0.000000 
#    y 0.000000 4.284770 0.000000 
#    z 0.000000 0.000000 3.085320 
# 
# 
# High freq. dielectric constant tensor:
#      x y z
#    x 1.590230 0.000000 0.000000 
#    y 0.000000 1.646430 0.000000 
#    z 0.000000 0.000000 1.643940 
# 
# From -- ./inp_files/4514.got.cif
#   From: 2010.03.12/outbox.cif.g09.slc.cpg/sg49_3_cif.got.tgz:4514.got - 2010.04.14 03:58:27.
