data_PCOD8202075
_publ_section_title
;
Structure prediction by ZEFSAII (Michael W. Deem and Ramdas Pophale) SiO2 
 PCOD8202075
Probable space group: P N N N
;
_chemical_formula_sum "Si O2"
_cell_formula_units_Z 32
_cell_length_a 7.716159
_cell_length_b 14.317267
_cell_length_c 13.876523
_cell_angle_alpha 90.000000
_cell_angle_beta 90.000000
_cell_angle_gamma 90.000000
_cell_volume 1532.999284
_symmetry_space_group_name_H-M "P N N N"
_symmetry_group_IT_number 48
_space_group.IT_coordinate_system_code '2'
_symmetry_cell_setting 'orthorhombic'
loop_
_space_group_symop_operation_xyz
x,y,z
1/2-x,1/2-y,z
x,1/2-y,1/2-z
1/2-x,y,1/2-z
-x,-y,-z
1/2+x,1/2+y,-z
-x,1/2+y,1/2+z
1/2+x,-y,1/2+z
loop_
_atom_site_type_symbol
_atom_site_label
_atom_site_fract_x
_atom_site_fract_y
_atom_site_fract_z
Si Si1 0.097532 0.024905 0.320033
Si Si2 0.750000 0.393817 0.250000
Si Si3 0.608877 0.679808 0.524234
Si Si4 0.750000 0.250000 0.090771
Si Si5 0.415197 0.155722 0.806954
O O1 0.250000 0.057046 0.250000
O O2 0.119312 0.079004 0.421647
O O3 0.914790 0.045716 0.273195
O O4 0.083030 0.911878 0.324087
O O5 0.690760 0.334334 0.158240
O O6 0.750000 0.750000 0.572766
O O7 0.415275 0.722141 0.527070
O O8 0.660685 0.671439 0.413440
O O9 0.473803 0.250000 0.750000
O O10 0.250000 0.112040 0.750000
#
# Coordination Sequence:
#
# PCOD8202075 Si02
#       5
#     8   4   8   4   8
#     4  11  23  39  66  99 127 171 223 278 334 407
#     4   9  18  38  57  88 136 158 197 268 342 381
#     4  11  22  41  66  98 131 172 224 281 337 396
#     4   9  20  34  61  92 122 168 205 260 329 406
#     4  11  23  45  65  85 132 185 220 277 336 388
#
# _framework density 20.874113000000001
#
# number of rings (size 3 to 8) (size 9 to 14) (size 15 to 20)
#    0.000    1.500    3.750    2.250    0.000    5.000 
#    0.000    1.250    0.000    0.000    0.000    0.000 
#    0.000    0.000    0.000    0.000    0.000    0.000 
#
# Total GULP energy -396446.956843 kJ/mol
# GULP energy per Si atom -12388.967401 kJ/mol
# Density = 2.082660 g / cm^3
# Si number density = 20.874113 Si / 1000 Ang^3
#
#
#
# Elastic Constant Matrix: (Units=GPa)
#
#
# Indices 1 2 3 4 5 6 
#
# 1 81.1848 37.0548 56.3726 0.0000 0.0000 0.0000
# 2 37.0548 121.1919 54.7679 0.0000 0.0000 0.0000
# 3 56.3726 54.7679 129.9740 0.0000 0.0000 0.0000
# 4 0.0000 0.0000 0.0000 24.8457 0.0000 0.0000
# 5 0.0000 0.0000 0.0000 0.0000 28.6311 0.0000
# 6 0.0000 0.0000 0.0000 0.0000 0.0000 -66.2744
#
#
#
# Elastic Compliance Matrix: (Units=1/GPa)
#
#
# Indices 1 2 3 4 5 6 
#
# 1 0.018204 -0.002468 -0.006856 0.000000 0.000000 0.000000
# 2 -0.002468 0.010527 -0.003365 0.000000 0.000000 0.000000
# 3 -0.006856 -0.003365 0.012085 0.000000 0.000000 0.000000
# 4 0.000000 0.000000 0.000000 0.040248 0.000000 0.000000
# 5 0.000000 0.000000 0.000000 0.000000 0.034927 0.000000
# 6 0.000000 0.000000 0.000000 0.000000 0.000000 -0.015089
#
#
# Mechanical properties :
#
#
# Convention : Reuss Voigt Hill
#
# Bulk Modulus (GPa) = 64.77251 69.86015 67.31633
# Shear Modulus (GPa) = 38.04376 9.71750 23.88063
#
# Velocity S-wave (km/s) = 4.27375 2.15995 3.38602
# Velocity P-wave (km/s) = 7.44652 6.30560 6.89968
#
# Compressibility (1/GPa) = 0.01543865
#
# Stress axis : x y z
#
# Youngs Moduli (GPa) = 54.93162 94.99583 82.74431
#
# Poissons Ratio (x) = 0.23444 0.56728
# Poissons Ratio (y) = 0.13556 0.27846
# Poissons Ratio (z) = 0.37660 0.31969
#
# Static dielectric constant tensor:
#      x y z
#    x 3.509330 0.000000 0.000000 
#    y 0.000000 4.036230 0.000000 
#    z 0.000000 0.000000 3.609180 
# 
# 
# High freq. dielectric constant tensor:
#      x y z
#    x 1.813260 0.000000 0.000000 
#    y 0.000000 1.826650 0.000000 
#    z 0.000000 0.000000 1.812540 
# 
# From -- ./inp_files/10293.got.cif
#   From: 2010.06.25/outbox.cif.g09.slc.cpg/sg48_6_cif.got.tgz:10293.got - 2010.06.26 18:06:46.
