data_PCOD8202740
_publ_section_title
;
Structure prediction by ZEFSAII (Michael W. Deem and Ramdas Pophale) SiO2 
 PCOD8202740
Probable space group: P C C M
;
_chemical_formula_sum "Si O2"
_cell_formula_units_Z 48
_cell_length_a 13.462586
_cell_length_b 24.061945
_cell_length_c 8.887213
_cell_angle_alpha 90.000000
_cell_angle_beta 90.000000
_cell_angle_gamma 90.000000
_cell_volume 2878.888265
_symmetry_space_group_name_H-M "P C C M"
_symmetry_group_IT_number 49
_symmetry_cell_setting 'orthorhombic'
loop_
_space_group_symop_operation_xyz
x,y,z
-x,-y,z
x,-y,1/2-z
-x,y,1/2-z
-x,-y,-z
x,y,-z
-x,y,1/2+z
x,-y,1/2+z
loop_
_atom_site_type_symbol
_atom_site_label
_atom_site_fract_x
_atom_site_fract_y
_atom_site_fract_z
Si Si1 0.107588 0.674946 0.675771
Si Si2 0.200895 0.223437 0.323982
Si Si3 0.106701 0.552071 0.325829
Si Si4 0.298839 0.058984 0.176412
Si Si5 0.600202 0.160875 0.176092
Si Si6 0.100092 0.121654 0.823922
O O1 0.096185 0.688320 0.500000
O O2 0.185935 0.716234 0.751902
O O3 0.154083 0.613049 0.700637
O O4 0.000000 0.681923 0.750000
O O5 0.178307 0.225216 0.500000
O O6 0.313467 0.205188 0.289722
O O7 0.123915 0.181009 0.249068
O O8 0.167094 0.500000 0.250000
O O9 0.095420 0.538856 0.500000
O O10 0.000000 0.554258 0.250000
O O11 0.375439 0.101984 0.248613
O O12 0.186444 0.077672 0.211969
O O13 0.318804 0.000000 0.250000
O O14 0.319399 0.055847 0.000000
O O15 0.500000 0.184858 0.250000
O O16 0.585439 0.151516 0.000000
O O17 0.000000 0.097542 0.750000
O O18 0.084879 0.130343 0.000000
#
# Coordination Sequence:
#
# PCOD8202740 Si02
#       6
#     8   8   8   8   8   8
#     4  10  19  29  43  65  94 128 163 196 230 268
#     4  10  20  33  49  69  93 120 152 190 229 272
#     4   9  16  25  38  57  84 121 161 197 230 263
#     4  10  21  36  53  73  96 121 151 187 225 268
#     4  10  21  37  56  75  94 117 146 183 230 280
#     4  10  20  33  49  68  93 125 156 188 226 267
#
# _framework density 16.673103000000001
#
# number of rings (size 3 to 8) (size 9 to 14) (size 15 to 20)
#    0.000    2.167    0.000    4.000    0.000    6.667 
#    0.000    3.333    0.000    0.000    0.000    0.000 
#    0.000    0.667    0.000    7.333    0.000    5.333 
#
# Total GULP energy -595154.925924 kJ/mol
# GULP energy per Si atom -12399.060957 kJ/mol
# Density = 1.663515 g / cm^3
# Si number density = 16.673103 Si / 1000 Ang^3
#
#
#
# Elastic Constant Matrix: (Units=GPa)
#
#
# Indices 1 2 3 4 5 6 
#
# 1 72.4670 28.8965 38.0535 0.0000 0.0000 0.0000
# 2 28.8965 117.1729 53.5506 0.0000 0.0000 0.0000
# 3 38.0535 53.5506 108.3697 0.0000 0.0000 0.0000
# 4 0.0000 0.0000 0.0000 30.3322 0.0000 0.0000
# 5 0.0000 0.0000 0.0000 0.0000 26.7659 0.0000
# 6 0.0000 0.0000 0.0000 0.0000 0.0000 13.6996
#
#
#
# Elastic Compliance Matrix: (Units=1/GPa)
#
#
# Indices 1 2 3 4 5 6 
#
# 1 0.017247 -0.001919 -0.005108 0.000000 0.000000 0.000000
# 2 -0.001919 0.011238 -0.004879 0.000000 0.000000 0.000000
# 3 -0.005108 -0.004879 0.013432 0.000000 0.000000 0.000000
# 4 0.000000 0.000000 0.000000 0.032968 0.000000 0.000000
# 5 0.000000 0.000000 0.000000 0.000000 0.037361 0.000000
# 6 0.000000 0.000000 0.000000 0.000000 0.000000 0.072995
#
#
# Mechanical properties :
#
#
# Convention : Reuss Voigt Hill
#
# Bulk Modulus (GPa) = 55.23435 59.89009 57.56222
# Shear Modulus (GPa) = 23.24634 25.99346 24.61990
#
# Velocity S-wave (km/s) = 3.73801 3.95271 3.84685
# Velocity P-wave (km/s) = 7.19930 7.53857 7.37089
#
# Compressibility (1/GPa) = 0.01810468
#
# Stress axis : x y z
#
# Youngs Moduli (GPa) = 57.98183 88.98760 74.44728
#
# Poissons Ratio (x) = 0.17076 0.38027
# Poissons Ratio (y) = 0.11126 0.36324
# Poissons Ratio (z) = 0.29617 0.43419
#
# Static dielectric constant tensor:
#      x y z
#    x 2.898010 0.000000 0.000000 
#    y 0.000000 3.614700 0.000000 
#    z 0.000000 0.000000 3.312940 
# 
# 
# High freq. dielectric constant tensor:
#      x y z
#    x 1.604070 0.000000 0.000000 
#    y 0.000000 1.643350 0.000000 
#    z 0.000000 0.000000 1.666490 
# 
# From -- ./inp_files/2879.got.cif
#   From: 2010.03.12/outbox.cif.g09.slc.cpg/sg49_2_cif.got.tgz:2879.got - 2010.04.14 03:58:27.
