data_PCOD8202994
_publ_section_title
;
Structure prediction by ZEFSAII (Michael W. Deem and Ramdas Pophale) SiO2 
 PCOD8202994
Probable space group: P C C M
;
_chemical_formula_sum "Si O2"
_cell_formula_units_Z 52
_cell_length_a 16.763822
_cell_length_b 18.889279
_cell_length_c 9.121733
_cell_angle_alpha 90.000000
_cell_angle_beta 90.000000
_cell_angle_gamma 90.000000
_cell_volume 2888.456145
_symmetry_space_group_name_H-M "P C C M"
_symmetry_group_IT_number 49
_symmetry_cell_setting 'orthorhombic'
loop_
_space_group_symop_operation_xyz
x,y,z
-x,-y,z
x,-y,1/2-z
-x,y,1/2-z
-x,-y,-z
x,y,-z
-x,y,1/2+z
x,-y,1/2+z
loop_
_atom_site_type_symbol
_atom_site_label
_atom_site_fract_x
_atom_site_fract_y
_atom_site_fract_z
Si Si1 0.191205 0.500000 0.250000
Si Si2 0.306230 0.816971 0.332681
Si Si3 0.920360 0.624781 0.167086
Si Si4 0.422384 0.684060 0.660904
Si Si5 0.187389 0.731051 0.165498
Si Si6 0.311504 0.392344 0.347498
Si Si7 0.418600 0.076158 0.321824
O O1 0.138179 0.443002 0.163210
O O2 0.251493 0.458217 0.354148
O O3 0.292916 0.844396 0.500000
O O4 0.363578 0.749875 0.336775
O O5 0.220136 0.797617 0.260371
O O6 0.344677 0.876008 0.227881
O O7 0.885386 0.693326 0.249641
O O8 0.000000 0.600698 0.250000
O O9 0.939077 0.645953 0.000000
O O10 0.500000 0.705043 0.750000
O O11 0.450943 0.664502 0.500000
O O12 0.377097 0.613206 0.719594
O O13 0.260272 0.678237 0.156257
O O14 0.160459 0.753511 0.000000
O O15 0.359896 0.394512 0.500000
O O16 0.500000 0.107470 0.250000
O O17 0.424817 0.072823 0.500000
O O18 0.403923 0.000000 0.250000
#
# Coordination Sequence:
#
# PCOD8202994 Si02
#       7
#     4   8   8   8   8   8   8
#     4  10  21  34  53  72  92 122 160 194 237 296
#     4  10  19  32  51  74  98 129 167 204 246 295
#     4  11  22  35  52  75 102 129 158 195 240 293
#     4  10  20  32  48  68  90 117 154 201 247 290
#     4   9  18  33  51  72  97 126 160 198 241 289
#     4   9  18  32  49  67  89 117 151 194 241 289
#     4  11  21  33  48  70 103 141 178 216 255 294
#
# _framework density 18.002697000000001
#
# number of rings (size 3 to 8) (size 9 to 14) (size 15 to 20)
#    0.000    2.000    0.000    4.846    0.000    9.846 
#    0.000    0.385    0.000    1.846    0.000    0.000 
#    0.000    0.615    0.000    6.154    0.000    3.692 
#
# Total GULP energy -644268.992285 kJ/mol
# GULP energy per Si atom -12389.788313 kJ/mol
# Density = 1.796172 g / cm^3
# Si number density = 18.002697 Si / 1000 Ang^3
#
#
#
# Elastic Constant Matrix: (Units=GPa)
#
#
# Indices 1 2 3 4 5 6 
#
# 1 38.1559 21.8425 33.6403 0.0000 0.0000 0.0000
# 2 21.8425 53.9569 31.0825 0.0000 0.0000 0.0000
# 3 33.6403 31.0825 170.4002 0.0000 0.0000 0.0000
# 4 0.0000 0.0000 0.0000 2.8688 0.0000 0.0000
# 5 0.0000 0.0000 0.0000 0.0000 27.7344 0.0000
# 6 0.0000 0.0000 0.0000 0.0000 0.0000 22.3698
#
#
#
# Elastic Compliance Matrix: (Units=1/GPa)
#
#
# Indices 1 2 3 4 5 6 
#
# 1 0.037870 -0.012318 -0.005229 0.000000 0.000000 0.000000
# 2 -0.012318 0.024716 -0.002077 0.000000 0.000000 0.000000
# 3 -0.005229 -0.002077 0.007280 0.000000 0.000000 0.000000
# 4 0.000000 0.000000 0.000000 0.348578 0.000000 0.000000
# 5 0.000000 0.000000 0.000000 0.000000 0.036056 0.000000
# 6 0.000000 0.000000 0.000000 0.000000 0.000000 0.044703
#
#
# Mechanical properties :
#
#
# Convention : Reuss Voigt Hill
#
# Bulk Modulus (GPa) = 32.66046 48.40485 40.53265
# Shear Modulus (GPa) = 9.11315 22.32443 15.71879
#
# Velocity S-wave (km/s) = 2.25235 3.52527 2.95809
# Velocity P-wave (km/s) = 4.99455 6.59666 5.85070
#
# Compressibility (1/GPa) = 0.03061806
#
# Stress axis : x y z
#
# Youngs Moduli (GPa) = 26.40589 40.45952 137.36789
#
# Poissons Ratio (x) = 0.49838 0.71836
# Poissons Ratio (y) = 0.32527 0.28526
# Poissons Ratio (z) = 0.13809 0.08402
#
# Static dielectric constant tensor:
#      x y z
#    x 3.189860 0.000000 0.000000 
#    y 0.000000 3.254830 0.000000 
#    z 0.000000 0.000000 3.718520 
# 
# 
# High freq. dielectric constant tensor:
#      x y z
#    x 1.674520 0.000000 0.000000 
#    y 0.000000 1.661040 0.000000 
#    z 0.000000 0.000000 1.720360 
# 
# From -- ./inp_files/5033.got.cif
#   From: 2010.03.12/outbox.cif.g09.slc.cpg/sg49_3_cif.got.tgz:5033.got - 2010.04.14 03:58:27.
