data_PCOD8202587
_publ_section_title
;
Structure prediction by ZEFSAII (Michael W. Deem and Ramdas Pophale) SiO2 
 PCOD8202587
Probable space group: P C C M
;
_chemical_formula_sum "Si O2"
_cell_formula_units_Z 56
_cell_length_a 21.646953
_cell_length_b 18.476183
_cell_length_c 8.547794
_cell_angle_alpha 90.000000
_cell_angle_beta 90.000000
_cell_angle_gamma 90.000000
_cell_volume 3418.716409
_symmetry_space_group_name_H-M "P C C M"
_symmetry_group_IT_number 49
_symmetry_cell_setting 'orthorhombic'
loop_
_space_group_symop_operation_xyz
x,y,z
-x,-y,z
x,-y,1/2-z
-x,y,1/2-z
-x,-y,-z
x,y,-z
-x,y,1/2+z
x,-y,1/2+z
loop_
_atom_site_type_symbol
_atom_site_label
_atom_site_fract_x
_atom_site_fract_y
_atom_site_fract_z
Si Si1 0.566399 0.077860 0.315028
Si Si2 0.130938 0.796929 0.826966
Si Si3 0.254834 0.293497 0.329499
Si Si4 0.933883 0.666069 0.815125
Si Si5 0.179105 0.420975 0.687337
Si Si6 0.202435 0.077833 0.184438
Si Si7 0.319448 0.157535 0.687398
O O1 0.500000 0.101241 0.250000
O O2 0.563556 0.073553 0.500000
O O3 0.614976 0.137457 0.259611
O O4 0.586785 0.000000 0.250000
O O5 0.192457 0.751378 0.847109
O O6 0.080585 0.748105 0.738289
O O7 0.146038 0.869013 0.728954
O O8 0.105826 0.817672 0.000000
O O9 0.281850 0.312486 0.500000
O O10 0.235188 0.369037 0.246456
O O11 0.303604 0.239059 0.246170
O O12 0.886108 0.607140 0.749627
O O13 0.000000 0.642559 0.750000
O O14 0.933151 0.662243 0.000000
O O15 0.193505 0.500000 0.750000
O O16 0.177870 0.418877 0.500000
O O17 0.267432 0.101138 0.259874
O O18 0.184055 0.000000 0.250000
O O19 0.211018 0.075667 0.000000
O O20 0.321903 0.157444 0.500000
#
# Coordination Sequence:
#
# PCOD8202587 Si02
#       7
#     8   8   8   8   8   8   8
#     4  11  21  33  46  64  91 127 165 202 239 281
#     4   9  17  32  49  67  90 117 148 189 234 278
#     4   7  14  28  47  66  89 118 149 183 226 272
#     4  11  21  34  51  71  92 121 156 190 225 272
#     4  10  19  33  50  72  99 127 154 187 229 276
#     4  11  20  30  45  68  93 120 153 193 237 282
#     4  10  18  31  48  67  91 123 159 198 236 276
#
# _framework density 16.380417000000001
#
# number of rings (size 3 to 8) (size 9 to 14) (size 15 to 20)
#    0.000    2.143    0.000    7.714    0.000    0.286 
#    0.000    3.571    0.000    0.429    0.000    3.000 
#    0.000    0.571    0.000    6.571    0.000    2.000 
#
# Total GULP energy -694013.973623 kJ/mol
# GULP energy per Si atom -12393.106672 kJ/mol
# Density = 1.634313 g / cm^3
# Si number density = 16.380417 Si / 1000 Ang^3
#
#
#
# Elastic Constant Matrix: (Units=GPa)
#
#
# Indices 1 2 3 4 5 6 
#
# 1 69.7803 55.6410 29.9203 0.0000 0.0000 0.0000
# 2 55.6410 128.9681 39.3382 0.0000 0.0000 0.0000
# 3 29.9203 39.3382 115.5482 0.0000 0.0000 0.0000
# 4 0.0000 0.0000 0.0000 24.3622 0.0000 0.0000
# 5 0.0000 0.0000 0.0000 0.0000 21.8486 0.0000
# 6 0.0000 0.0000 0.0000 0.0000 0.0000 21.9119
#
#
#
# Elastic Compliance Matrix: (Units=1/GPa)
#
#
# Indices 1 2 3 4 5 6 
#
# 1 0.022647 -0.008907 -0.002832 0.000000 0.000000 0.000000
# 2 -0.008907 0.012155 -0.001832 0.000000 0.000000 0.000000
# 3 -0.002832 -0.001832 0.010011 0.000000 0.000000 0.000000
# 4 0.000000 0.000000 0.000000 0.041047 0.000000 0.000000
# 5 0.000000 0.000000 0.000000 0.000000 0.045770 0.000000
# 6 0.000000 0.000000 0.000000 0.000000 0.000000 0.045637
#
#
# Mechanical properties :
#
#
# Convention : Reuss Voigt Hill
#
# Bulk Modulus (GPa) = 56.58557 62.67728 59.63143
# Shear Modulus (GPa) = 23.77556 26.25102 25.01329
#
# Velocity S-wave (km/s) = 3.81394 4.00757 3.91195
# Velocity P-wave (km/s) = 7.34945 7.73051 7.54239
#
# Compressibility (1/GPa) = 0.01767235
#
# Stress axis : x y z
#
# Youngs Moduli (GPa) = 44.15578 82.26837 99.88637
#
# Poissons Ratio (x) = 0.73275 0.28287
# Poissons Ratio (y) = 0.39329 0.18298
# Poissons Ratio (z) = 0.12505 0.15071
#
# Static dielectric constant tensor:
#      x y z
#    x 2.965600 0.000000 0.000000 
#    y 0.000000 3.398730 0.000000 
#    z 0.000000 0.000000 3.168800 
# 
# 
# High freq. dielectric constant tensor:
#      x y z
#    x 1.598170 0.000000 0.000000 
#    y 0.000000 1.623970 0.000000 
#    z 0.000000 0.000000 1.639960 
# 
# From -- ./inp_files/5893.got.cif
#   From: 2010.03.12/outbox.cif.g09.slc.cpg/sg49_3_cif.got.tgz:5893.got - 2010.04.14 03:58:27.
