data_PCOD8202463
_publ_section_title
;
Structure prediction by ZEFSAII (Michael W. Deem and Ramdas Pophale) SiO2 
 PCOD8202463
Probable space group: P C C M
;
_chemical_formula_sum "Si O2"
_cell_formula_units_Z 64
_cell_length_a 26.255905
_cell_length_b 18.385768
_cell_length_c 8.865218
_cell_angle_alpha 90.000000
_cell_angle_beta 90.000000
_cell_angle_gamma 90.000000
_cell_volume 4279.550816
_symmetry_space_group_name_H-M "P C C M"
_symmetry_group_IT_number 49
_symmetry_cell_setting 'orthorhombic'
loop_
_space_group_symop_operation_xyz
x,y,z
-x,-y,z
x,-y,1/2-z
-x,y,1/2-z
-x,-y,-z
x,y,-z
-x,y,1/2+z
x,-y,1/2+z
loop_
_atom_site_type_symbol
_atom_site_label
_atom_site_fract_x
_atom_site_fract_y
_atom_site_fract_z
Si Si1 0.751563 0.921646 0.679200
Si Si2 0.651515 0.838615 0.676858
Si Si3 0.242487 0.576963 0.679588
Si Si4 0.052134 0.424280 0.675713
Si Si5 0.804101 0.795350 0.830423
Si Si6 0.698015 0.712124 0.166521
Si Si7 0.552049 0.921560 0.319856
Si Si8 0.152013 0.337081 0.324269
O O1 0.754153 0.926572 0.500000
O O2 0.697219 0.889943 0.736617
O O3 0.797186 0.870295 0.738606
O O4 0.759476 0.000000 0.750000
O O5 0.653401 0.837790 0.500000
O O6 0.657775 0.755223 0.730638
O O7 0.597625 0.869242 0.733688
O O8 0.256632 0.500000 0.750000
O O9 0.236606 0.572065 0.500000
O O10 0.289390 0.630731 0.724616
O O11 0.189514 0.605596 0.745749
O O12 0.069574 0.500000 0.750000
O O13 0.043084 0.438319 0.500000
O O14 0.094792 0.363707 0.703815
O O15 0.000000 0.395533 0.750000
O O16 0.751135 0.753676 0.834530
O O17 0.844558 0.743554 0.746508
O O18 0.823169 0.812271 0.000000
O O19 0.674178 0.709431 0.000000
O O20 0.500000 0.889371 0.250000
O O21 0.547766 0.927725 0.500000
O O22 0.563185 0.000000 0.250000
O O23 0.166221 0.333393 0.500000
#
# Coordination Sequence:
#
# PCOD8202463 Si02
#       8
#     8   8   8   8   8   8   8   8
#     4  10  18  28  42  61  85 112 141 174 208 246
#     4   9  18  29  42  59  80 108 141 172 206 245
#     4  10  19  29  42  62  85 112 142 172 205 245
#     4  10  20  31  44  61  83 110 142 177 212 246
#     4   9  17  29  43  60  82 109 139 172 207 247
#     4   8  16  28  41  58  80 105 136 169 203 242
#     4  10  19  30  42  59  81 107 139 173 207 242
#     4  10  19  30  44  62  83 111 143 175 210 249
#
# _framework density 14.954841999999999
#
# number of rings (size 3 to 8) (size 9 to 14) (size 15 to 20)
#    0.000    2.500    0.000    4.500    0.000    8.000 
#    0.000    0.000    0.000    0.000    0.000    0.000 
#    0.000    1.000    0.000   10.750    0.000    6.875 
#
# Total GULP energy -793426.333289 kJ/mol
# GULP energy per Si atom -12397.286458 kJ/mol
# Density = 1.492080 g / cm^3
# Si number density = 14.954842 Si / 1000 Ang^3
#
#
#
# Elastic Constant Matrix: (Units=GPa)
#
#
# Indices 1 2 3 4 5 6 
#
# 1 77.9204 55.1203 40.7533 0.0000 0.0000 0.0000
# 2 55.1203 117.2571 47.8422 0.0000 0.0000 0.0000
# 3 40.7533 47.8422 82.6858 0.0000 0.0000 0.0000
# 4 0.0000 0.0000 0.0000 29.0815 0.0000 0.0000
# 5 0.0000 0.0000 0.0000 0.0000 18.1843 0.0000
# 6 0.0000 0.0000 0.0000 0.0000 0.0000 24.5518
#
#
#
# Elastic Compliance Matrix: (Units=1/GPa)
#
#
# Indices 1 2 3 4 5 6 
#
# 1 0.021400 -0.007535 -0.006188 0.000000 0.000000 0.000000
# 2 -0.007535 0.013817 -0.004281 0.000000 0.000000 0.000000
# 3 -0.006188 -0.004281 0.017620 0.000000 0.000000 0.000000
# 4 0.000000 0.000000 0.000000 0.034386 0.000000 0.000000
# 5 0.000000 0.000000 0.000000 0.000000 0.054992 0.000000
# 6 0.000000 0.000000 0.000000 0.000000 0.000000 0.040730
#
#
# Mechanical properties :
#
#
# Convention : Reuss Voigt Hill
#
# Bulk Modulus (GPa) = 59.41538 62.81056 61.11297
# Shear Modulus (GPa) = 22.26542 23.30669 22.78605
#
# Velocity S-wave (km/s) = 3.86274 3.95203 3.90764
# Velocity P-wave (km/s) = 7.72725 7.93196 7.83028
#
# Compressibility (1/GPa) = 0.01683066
#
# Stress axis : x y z
#
# Youngs Moduli (GPa) = 46.72866 72.37479 56.75220
#
# Poissons Ratio (x) = 0.54536 0.35116
# Poissons Ratio (y) = 0.35211 0.24294
# Poissons Ratio (z) = 0.28914 0.30981
#
# Static dielectric constant tensor:
#      x y z
#    x 2.798370 0.000000 0.000000 
#    y 0.000000 2.988390 0.000000 
#    z 0.000000 0.000000 3.050470 
# 
# 
# High freq. dielectric constant tensor:
#      x y z
#    x 1.537090 0.000000 0.000000 
#    y 0.000000 1.563080 0.000000 
#    z 0.000000 0.000000 1.589540 
# 
# From -- ./inp_files/6795.got.cif
#   From: 2010.03.12/outbox.cif.g09.slc.cpg/sg49_4_cif.got.tgz:6795.got - 2010.04.14 03:58:27.
