data_PCOD8202059
_publ_section_title
;
Structure prediction by ZEFSAII (Michael W. Deem and Ramdas Pophale) SiO2 
 PCOD8202059
Probable space group: P N N N
;
_chemical_formula_sum "Si O2"
_cell_formula_units_Z 56
_cell_length_a 20.211931
_cell_length_b 16.530364
_cell_length_c 8.026048
_cell_angle_alpha 90.000000
_cell_angle_beta 90.000000
_cell_angle_gamma 90.000000
_cell_volume 2681.587525
_symmetry_space_group_name_H-M "P N N N"
_symmetry_group_IT_number 48
_space_group.IT_coordinate_system_code '2'
_symmetry_cell_setting 'orthorhombic'
loop_
_space_group_symop_operation_xyz
x,y,z
1/2-x,1/2-y,z
x,1/2-y,1/2-z
1/2-x,y,1/2-z
-x,-y,-z
1/2+x,1/2+y,-z
-x,1/2+y,1/2+z
1/2+x,-y,1/2+z
loop_
_atom_site_type_symbol
_atom_site_label
_atom_site_fract_x
_atom_site_fract_y
_atom_site_fract_z
Si Si1 0.399727 0.956645 0.564540
Si Si2 0.957365 0.605301 0.570866
Si Si3 0.286131 0.880139 0.426603
Si Si4 0.521959 0.732384 0.444060
Si Si5 0.161637 0.935770 0.579310
Si Si6 0.374979 0.734871 0.443074
Si Si7 0.439677 0.057309 0.054482
O O1 0.464507 0.902445 0.537900
O O2 0.351294 0.936729 0.408336
O O3 0.362395 0.929821 0.732002
O O4 0.418475 0.051266 0.565923
O O5 0.936177 0.698599 0.543190
O O6 0.939231 0.569911 0.749218
O O7 0.250000 0.864290 0.250000
O O8 0.241118 0.932216 0.557259
O O9 0.316720 0.796163 0.506874
O O10 0.524068 0.750000 0.250000
O O11 0.448222 0.742191 0.521752
O O12 0.553307 0.644640 0.469992
O O13 0.144361 0.856447 0.474572
O O14 0.129307 0.015783 0.497430
O O15 0.381814 0.750000 0.250000
O O16 0.500000 0.000000 0.000000
#
# Coordination Sequence:
#
# PCOD8202059 Si02
#       7
#     8   8   8   8   8   8   8
#     4  11  24  40  63  93 129 173 228 277 340 389
#     4  11  23  41  66  93 133 169 225 289 343 400
#     4  12  24  41  62  90 135 181 226 267 330 410
#     4  11  23  39  66  95 134 170 223 282 345 392
#     4  12  24  40  62  92 135 175 224 273 326 412
#     4  11  22  37  62  90 131 178 224 267 328 398
#     4  12  23  40  66  97 129 174 223 282 339 403
#
# _framework density 20.883151999999999
#
# number of rings (size 3 to 8) (size 9 to 14) (size 15 to 20)
#    0.000    0.571    5.714    3.000    2.000    0.571 
#    0.000    1.429    0.000    0.857    0.000    6.000 
#    0.000    0.000    0.000    0.000    0.000    0.000 
#
# Total GULP energy -693798.188689 kJ/mol
# GULP energy per Si atom -12389.253369 kJ/mol
# Density = 2.083562 g / cm^3
# Si number density = 20.883152 Si / 1000 Ang^3
#
#
#
# Elastic Constant Matrix: (Units=GPa)
#
#
# Indices 1 2 3 4 5 6 
#
# 1 95.3244 68.0421 29.1661 0.0000 0.0000 0.0000
# 2 68.0421 180.5560 38.7940 0.0000 0.0000 0.0000
# 3 29.1661 38.7940 67.4082 0.0000 0.0000 0.0000
# 4 0.0000 0.0000 0.0000 35.5807 0.0000 0.0000
# 5 0.0000 0.0000 0.0000 0.0000 24.8045 0.0000
# 6 0.0000 0.0000 0.0000 0.0000 0.0000 38.5122
#
#
#
# Elastic Compliance Matrix: (Units=1/GPa)
#
#
# Indices 1 2 3 4 5 6 
#
# 1 0.015128 -0.004901 -0.003725 0.000000 0.000000 0.000000
# 2 -0.004901 0.007907 -0.002430 0.000000 0.000000 0.000000
# 3 -0.003725 -0.002430 0.017846 0.000000 0.000000 0.000000
# 4 0.000000 0.000000 0.000000 0.028105 0.000000 0.000000
# 5 0.000000 0.000000 0.000000 0.000000 0.040315 0.000000
# 6 0.000000 0.000000 0.000000 0.000000 0.000000 0.025966
#
#
# Mechanical properties :
#
#
# Convention : Reuss Voigt Hill
#
# Bulk Modulus (GPa) = 53.28050 68.36590 60.82320
# Shear Modulus (GPa) = 30.55550 33.59857 32.07703
#
# Velocity S-wave (km/s) = 3.82928 4.01544 3.92347
# Velocity P-wave (km/s) = 6.71716 7.36931 7.05078
#
# Compressibility (1/GPa) = 0.01876859
#
# Stress axis : x y z
#
# Youngs Moduli (GPa) = 66.10081 126.46309 56.03630
#
# Poissons Ratio (x) = 0.61975 0.20875
# Poissons Ratio (y) = 0.32394 0.13619
# Poissons Ratio (z) = 0.24625 0.30735
#
# Static dielectric constant tensor:
#      x y z
#    x 4.286400 0.000000 0.000000 
#    y 0.000000 4.064330 0.000000 
#    z 0.000000 0.000000 3.751930 
# 
# 
# High freq. dielectric constant tensor:
#      x y z
#    x 1.802440 0.000000 0.000000 
#    y 0.000000 1.821320 0.000000 
#    z 0.000000 0.000000 1.819390 
# 
# From -- ./inp_files/13102.got.cif
#   From: 2010.06.25/outbox.cif.g09.slc.cpg/sg48_7_cif.got.tgz:13102.got - 2010.06.26 18:06:46.
