data_PCOD8202735
_publ_section_title
;
Structure prediction by ZEFSAII (Michael W. Deem and Ramdas Pophale) SiO2 
 PCOD8202735
Probable space group: P C C M
;
_chemical_formula_sum "Si O2"
_cell_formula_units_Z 64
_cell_length_a 21.348206
_cell_length_b 21.636735
_cell_length_c 8.944564
_cell_angle_alpha 90.000000
_cell_angle_beta 90.000000
_cell_angle_gamma 90.000000
_cell_volume 4131.543092
_symmetry_space_group_name_H-M "P C C M"
_symmetry_group_IT_number 49
_symmetry_cell_setting 'orthorhombic'
loop_
_space_group_symop_operation_xyz
x,y,z
-x,-y,z
x,-y,1/2-z
-x,y,1/2-z
-x,-y,-z
x,y,-z
-x,y,1/2+z
x,-y,1/2+z
loop_
_atom_site_type_symbol
_atom_site_label
_atom_site_fract_x
_atom_site_fract_y
_atom_site_fract_z
Si Si1 0.435757 0.064631 0.825116
Si Si2 0.932129 0.563796 0.179621
Si Si3 0.735578 0.442893 0.164275
Si Si4 0.157745 0.656646 0.165991
Si Si5 0.649894 0.639707 0.832254
Si Si6 0.648447 0.178401 0.672934
Si Si7 0.564000 0.273787 0.174326
Si Si8 0.757862 0.742292 0.165506
O O1 0.500000 0.091000 0.750000
O O2 0.374998 0.108458 0.800478
O O3 0.417552 0.000000 0.750000
O O4 0.449368 0.055438 0.000000
O O5 0.904001 0.500000 0.250000
O O6 0.892171 0.624198 0.224578
O O7 0.000000 0.574118 0.250000
O O8 0.934795 0.557905 0.000000
O O9 0.767678 0.500000 0.250000
O O10 0.783503 0.387542 0.154089
O O11 0.674055 0.422530 0.254486
O O12 0.715406 0.464562 0.000000
O O13 0.183802 0.722618 0.228295
O O14 0.128914 0.667431 0.000000
O O15 0.589172 0.662178 0.742292
O O16 0.703461 0.691484 0.828240
O O17 0.629577 0.624009 0.000000
O O18 0.634344 0.198330 0.500000
O O19 0.611425 0.218895 0.791614
O O20 0.723110 0.191836 0.705391
O O21 0.500000 0.254342 0.250000
O O22 0.554569 0.281928 0.000000
O O23 0.786913 0.746001 0.000000
#
# Coordination Sequence:
#
# PCOD8202735 Si02
#       8
#     8   8   8   8   8   8   8   8
#     4  10  19  30  43  60  84 115 149 184 218 256
#     4  11  21  33  47  63  86 116 149 183 217 253
#     4  10  19  29  43  62  81 102 128 159 197 240
#     4  10  19  30  44  64  87 109 137 171 207 247
#     4   9  17  30  44  58  78  99 122 156 197 240
#     4   9  18  31  45  62  84 108 137 173 212 251
#     4  11  20  29  43  61  79  99 125 157 197 243
#     4   8  15  28  44  61  81 105 132 166 209 251
#
# _framework density 15.490581000000001
#
# number of rings (size 3 to 8) (size 9 to 14) (size 15 to 20)
#    0.000    2.250    0.000    6.000    0.000    7.500 
#    0.000    0.000    0.000    0.375    0.000    2.625 
#    0.000    0.000    0.000    0.000    0.000    0.625 
#
# Total GULP energy -793036.688691 kJ/mol
# GULP energy per Si atom -12391.198261 kJ/mol
# Density = 1.545532 g / cm^3
# Si number density = 15.490581 Si / 1000 Ang^3
#
#
#
# Elastic Constant Matrix: (Units=GPa)
#
#
# Indices 1 2 3 4 5 6 
#
# 1 49.3905 30.1539 33.7398 0.0000 0.0000 0.0000
# 2 30.1539 54.5082 30.6040 0.0000 0.0000 0.0000
# 3 33.7398 30.6040 132.3396 0.0000 0.0000 0.0000
# 4 0.0000 0.0000 0.0000 17.6156 0.0000 0.0000
# 5 0.0000 0.0000 0.0000 0.0000 22.8168 0.0000
# 6 0.0000 0.0000 0.0000 0.0000 0.0000 26.5003
#
#
#
# Elastic Compliance Matrix: (Units=1/GPa)
#
#
# Indices 1 2 3 4 5 6 
#
# 1 0.033052 -0.015575 -0.004825 0.000000 0.000000 0.000000
# 2 -0.015575 0.028423 -0.002602 0.000000 0.000000 0.000000
# 3 -0.004825 -0.002602 0.009388 0.000000 0.000000 0.000000
# 4 0.000000 0.000000 0.000000 0.056768 0.000000 0.000000
# 5 0.000000 0.000000 0.000000 0.000000 0.043827 0.000000
# 6 0.000000 0.000000 0.000000 0.000000 0.000000 0.037735
#
#
# Mechanical properties :
#
#
# Convention : Reuss Voigt Hill
#
# Bulk Modulus (GPa) = 40.22714 47.24817 43.73765
# Shear Modulus (GPa) = 18.97650 22.83590 20.90620
#
# Velocity S-wave (km/s) = 3.50385 3.84367 3.67769
# Velocity P-wave (km/s) = 6.51110 7.08984 6.80662
#
# Compressibility (1/GPa) = 0.02485884
#
# Stress axis : x y z
#
# Youngs Moduli (GPa) = 30.25564 35.18273 106.51804
#
# Poissons Ratio (x) = 0.54798 0.51391
# Poissons Ratio (y) = 0.47124 0.27716
# Poissons Ratio (z) = 0.14597 0.09155
#
# Static dielectric constant tensor:
#      x y z
#    x 2.869180 0.000000 0.000000 
#    y 0.000000 2.877620 0.000000 
#    z 0.000000 0.000000 3.269920 
# 
# 
# High freq. dielectric constant tensor:
#      x y z
#    x 1.559820 0.000000 0.000000 
#    y 0.000000 1.557360 0.000000 
#    z 0.000000 0.000000 1.614540 
# 
# From -- ./inp_files/6129.got.cif
#   From: 2010.03.12/outbox.cif.g09.slc.cpg/sg49_4_cif.got.tgz:6129.got - 2010.04.14 03:58:27.
