data_PCOD8202844
_publ_section_title
;
Structure prediction by ZEFSAII (Michael W. Deem and Ramdas Pophale) SiO2 
 PCOD8202844
Probable space group: P C C M
;
_chemical_formula_sum "Si O2"
_cell_formula_units_Z 56
_cell_length_a 15.171294
_cell_length_b 20.036256
_cell_length_c 8.720444
_cell_angle_alpha 90.000000
_cell_angle_beta 90.000000
_cell_angle_gamma 90.000000
_cell_volume 2650.805079
_symmetry_space_group_name_H-M "P C C M"
_symmetry_group_IT_number 49
_symmetry_cell_setting 'orthorhombic'
loop_
_space_group_symop_operation_xyz
x,y,z
-x,-y,z
x,-y,1/2-z
-x,y,1/2-z
-x,-y,-z
x,y,-z
-x,y,1/2+z
x,-y,1/2+z
loop_
_atom_site_type_symbol
_atom_site_label
_atom_site_fract_x
_atom_site_fract_y
_atom_site_fract_z
Si Si1 0.326421 0.789876 0.821956
Si Si2 0.908997 0.389644 0.678398
Si Si3 0.728109 0.066722 0.180495
Si Si4 0.151277 0.755344 0.327963
Si Si5 0.591181 0.330150 0.680250
Si Si6 0.271574 0.431156 0.681804
Si Si7 0.910812 0.100833 0.674778
O O1 0.326656 0.867496 0.767636
O O2 0.229570 0.759474 0.794768
O O3 0.397370 0.747994 0.724395
O O4 0.350349 0.782947 0.000000
O O5 0.903449 0.409095 0.500000
O O6 0.905808 0.310117 0.704332
O O7 0.829583 0.424641 0.767706
O O8 0.000000 0.416444 0.750000
O O9 0.828215 0.070186 0.237282
O O10 0.683078 0.000000 0.250000
O O11 0.728627 0.061707 0.000000
O O12 0.192778 0.752589 0.500000
O O13 0.088030 0.818933 0.311866
O O14 0.500000 0.357373 0.750000
O O15 0.589437 0.339871 0.500000
O O16 0.672709 0.370298 0.750358
O O17 0.310083 0.500000 0.750000
O O18 0.279755 0.431242 0.500000
O O19 0.905756 0.076821 0.500000
O O20 0.000000 0.072903 0.750000
#
# Coordination Sequence:
#
# PCOD8202844 Si02
#       7
#     8   8   8   8   8   8   8
#     4  10  20  36  61  91 123 160 203 253 310 369
#     4  11  22  37  59  90 126 170 219 267 318 372
#     4  10  21  36  55  81 114 156 204 251 306 371
#     4   9  18  32  53  80 115 157 203 254 312 370
#     4  12  25  44  71 103 134 166 207 255 312 378
#     4  12  26  46  69  96 131 172 214 262 318 376
#     4  10  19  31  47  72 107 150 199 255 312 367
#
# _framework density 21.125657
#
# number of rings (size 3 to 8) (size 9 to 14) (size 15 to 20)
#    0.000    1.429    1.429    4.714    0.000    3.714 
#    0.000    4.286    0.000    0.429    0.000    3.000 
#    0.000    0.000    0.000    0.000    0.000    0.000 
#
# Total GULP energy -694560.010979 kJ/mol
# GULP energy per Si atom -12402.857339 kJ/mol
# Density = 2.107757 g / cm^3
# Si number density = 21.125657 Si / 1000 Ang^3
#
#
#
# Elastic Constant Matrix: (Units=GPa)
#
#
# Indices 1 2 3 4 5 6 
#
# 1 80.8464 23.3651 37.8429 0.0000 0.0000 0.0000
# 2 23.3651 107.4947 48.3795 0.0000 0.0000 0.0000
# 3 37.8429 48.3795 138.1989 0.0000 0.0000 0.0000
# 4 0.0000 0.0000 0.0000 28.4474 0.0000 0.0000
# 5 0.0000 0.0000 0.0000 0.0000 33.8044 0.0000
# 6 0.0000 0.0000 0.0000 0.0000 0.0000 10.2769
#
#
#
# Elastic Compliance Matrix: (Units=1/GPa)
#
#
# Indices 1 2 3 4 5 6 
#
# 1 0.014419 -0.001611 -0.003384 0.000000 0.000000 0.000000
# 2 -0.001611 0.011223 -0.003488 0.000000 0.000000 0.000000
# 3 -0.003384 -0.003488 0.009384 0.000000 0.000000 0.000000
# 4 0.000000 0.000000 0.000000 0.035153 0.000000 0.000000
# 5 0.000000 0.000000 0.000000 0.000000 0.029582 0.000000
# 6 0.000000 0.000000 0.000000 0.000000 0.000000 0.097305
#
#
# Mechanical properties :
#
#
# Convention : Reuss Voigt Hill
#
# Bulk Modulus (GPa) = 55.37316 60.63501 58.00409
# Shear Modulus (GPa) = 22.72206 28.96925 25.84566
#
# Velocity S-wave (km/s) = 3.28314 3.70710 3.50154
# Velocity P-wave (km/s) = 6.37497 6.86206 6.62299
#
# Compressibility (1/GPa) = 0.01805929
#
# Stress axis : x y z
#
# Youngs Moduli (GPa) = 69.35357 89.10619 106.56897
#
# Poissons Ratio (x) = 0.14354 0.36067
# Poissons Ratio (y) = 0.11172 0.37167
# Poissons Ratio (z) = 0.23472 0.31077
#
# Static dielectric constant tensor:
#      x y z
#    x 3.534630 0.000000 0.000000 
#    y 0.000000 4.129970 0.000000 
#    z 0.000000 0.000000 3.836020 
# 
# 
# High freq. dielectric constant tensor:
#      x y z
#    x 1.797320 0.000000 0.000000 
#    y 0.000000 1.839500 0.000000 
#    z 0.000000 0.000000 1.837310 
# 
# From -- ./inp_files/4062.got.cif
#   From: 2010.03.12/outbox.cif.g09.slc.cpg/sg49_3_cif.got.tgz:4062.got - 2010.04.14 03:58:27.
