data_PCOD8202038
_publ_section_title
;
Structure prediction by ZEFSAII (Michael W. Deem and Ramdas Pophale) SiO2 
 PCOD8202038
Probable space group: P N N N
;
_chemical_formula_sum "Si O2"
_cell_formula_units_Z 64
_cell_length_a 15.883907
_cell_length_b 20.877120
_cell_length_c 9.770261
_cell_angle_alpha 90.000000
_cell_angle_beta 90.000000
_cell_angle_gamma 90.000000
_cell_volume 3239.918522
_symmetry_space_group_name_H-M "P N N N"
_symmetry_group_IT_number 48
_space_group.IT_coordinate_system_code '2'
_symmetry_cell_setting 'orthorhombic'
loop_
_space_group_symop_operation_xyz
x,y,z
1/2-x,1/2-y,z
x,1/2-y,1/2-z
1/2-x,y,1/2-z
-x,-y,-z
1/2+x,1/2+y,-z
-x,1/2+y,1/2+z
1/2+x,-y,1/2+z
loop_
_atom_site_type_symbol
_atom_site_label
_atom_site_fract_x
_atom_site_fract_y
_atom_site_fract_z
Si Si1 0.568545 0.072555 0.235817
Si Si2 0.391758 0.383681 0.826623
Si Si3 0.638959 0.615084 0.486609
Si Si4 0.940001 0.820886 0.731111
Si Si5 0.199853 0.316873 0.452503
Si Si6 0.333256 0.512641 0.954461
Si Si7 0.449449 0.542823 0.202041
Si Si8 0.855873 0.469686 0.968477
O O1 0.512644 0.132343 0.283730
O O2 0.645817 0.067156 0.342235
O O3 0.605287 0.077536 0.082547
O O4 0.514238 0.008493 0.240336
O O5 0.366973 0.366838 0.671947
O O6 0.336635 0.444248 0.878933
O O7 0.492768 0.395757 0.837497
O O8 0.365911 0.322839 0.920592
O O9 0.578589 0.662515 0.572722
O O10 0.734311 0.624839 0.538217
O O11 0.609769 0.542320 0.514131
O O12 0.976467 0.750000 0.750000
O O13 0.851911 0.826546 0.812888
O O14 0.250000 0.250000 0.456815
O O15 0.244362 0.528909 0.020517
O O16 0.403727 0.513716 0.071349
O O17 0.382476 0.558934 0.321478
#
# Coordination Sequence:
#
# PCOD8202038 Si02
#       8
#     8   8   8   8   8   8   8   8
#     4  11  22  38  60  86 124 160 203 252 314 368
#     4  11  23  38  59  87 124 165 202 250 304 366
#     4  12  23  37  60  87 128 162 209 249 297 364
#     4  12  25  43  60  87 124 170 209 251 296 369
#     4  12  25  41  60  86 129 170 209 240 294 368
#     4  11  22  36  59  91 121 156 202 258 311 363
#     4  11  21  36  57  89 122 160 200 253 313 364
#     4  12  22  37  62  92 120 161 206 255 316 366
#
# _framework density 19.753584
#
# number of rings (size 3 to 8) (size 9 to 14) (size 15 to 20)
#    0.000    0.500    6.250    5.625    0.000    2.000 
#    0.000    0.000    0.000    1.500    0.000    0.000 
#    0.000    4.000    0.000    0.000    0.000    0.000 
#
# Total GULP energy -793620.103416 kJ/mol
# GULP energy per Si atom -12400.314116 kJ/mol
# Density = 1.970862 g / cm^3
# Si number density = 19.753584 Si / 1000 Ang^3
#
#
#
# Elastic Constant Matrix: (Units=GPa)
#
#
# Indices 1 2 3 4 5 6 
#
# 1 86.1546 40.7131 24.1552 0.0000 0.0000 0.0000
# 2 40.7131 70.0243 31.5782 0.0000 0.0000 0.0000
# 3 24.1552 31.5782 104.4695 0.0000 0.0000 0.0000
# 4 0.0000 0.0000 0.0000 23.1453 0.0000 0.0000
# 5 0.0000 0.0000 0.0000 0.0000 40.3636 0.0000
# 6 0.0000 0.0000 0.0000 0.0000 0.0000 40.9275
#
#
#
# Elastic Compliance Matrix: (Units=1/GPa)
#
#
# Indices 1 2 3 4 5 6 
#
# 1 0.016100 -0.008895 -0.001034 0.000000 0.000000 0.000000
# 2 -0.008895 0.021448 -0.004427 0.000000 0.000000 0.000000
# 3 -0.001034 -0.004427 0.011149 0.000000 0.000000 0.000000
# 4 0.000000 0.000000 0.000000 0.043205 0.000000 0.000000
# 5 0.000000 0.000000 0.000000 0.000000 0.024775 0.000000
# 6 0.000000 0.000000 0.000000 0.000000 0.000000 0.024433
#
#
# Mechanical properties :
#
#
# Convention : Reuss Voigt Hill
#
# Bulk Modulus (GPa) = 50.03168 50.39348 50.21258
# Shear Modulus (GPa) = 28.33112 31.83409 30.08260
#
# Velocity S-wave (km/s) = 3.79123 4.01878 3.90666
# Velocity P-wave (km/s) = 6.67439 6.86298 6.76934
#
# Compressibility (1/GPa) = 0.01998733
#
# Stress axis : x y z
#
# Youngs Moduli (GPa) = 62.11126 46.62357 89.69157
#
# Poissons Ratio (x) = 0.41469 0.09275
# Poissons Ratio (y) = 0.55245 0.39703
# Poissons Ratio (z) = 0.06423 0.20639
#
# Static dielectric constant tensor:
#      x y z
#    x 3.762480 0.000000 0.000000 
#    y 0.000000 3.441990 0.000000 
#    z 0.000000 0.000000 3.849790 
# 
# 
# High freq. dielectric constant tensor:
#      x y z
#    x 1.770600 0.000000 0.000000 
#    y 0.000000 1.721680 0.000000 
#    z 0.000000 0.000000 1.791610 
# 
# From -- ./inp_files/13296.got.cif
#   From: 2010.06.25/outbox.cif.g09.slc.cpg/sg48_7_cif.got.tgz:13296.got - 2010.06.26 18:06:46.
