data_PCOD8202593
_publ_section_title
;
Structure prediction by ZEFSAII (Michael W. Deem and Ramdas Pophale) SiO2 
 PCOD8202593
Probable space group: P C C M
;
_chemical_formula_sum "Si O2"
_cell_formula_units_Z 64
_cell_length_a 18.989930
_cell_length_b 23.503647
_cell_length_c 8.742053
_cell_angle_alpha 90.000000
_cell_angle_beta 90.000000
_cell_angle_gamma 90.000000
_cell_volume 3901.863343
_symmetry_space_group_name_H-M "P C C M"
_symmetry_group_IT_number 49
_symmetry_cell_setting 'orthorhombic'
loop_
_space_group_symop_operation_xyz
x,y,z
-x,-y,z
x,-y,1/2-z
-x,y,1/2-z
-x,-y,-z
x,y,-z
-x,y,1/2+z
x,-y,1/2+z
loop_
_atom_site_type_symbol
_atom_site_label
_atom_site_fract_x
_atom_site_fract_y
_atom_site_fract_z
Si Si1 0.573229 0.271601 0.175739
Si Si2 0.928773 0.383913 0.319482
Si Si3 0.288504 0.665277 0.178955
Si Si4 0.655685 0.161501 0.818950
Si Si5 0.929897 0.744662 0.821431
Si Si6 0.222038 0.774370 0.679417
Si Si7 0.215956 0.561042 0.681897
Si Si8 0.574351 0.939090 0.181651
O O1 0.500000 0.288761 0.250000
O O2 0.628751 0.322093 0.205009
O O3 0.604705 0.212195 0.239460
O O4 0.557826 0.262214 0.000000
O O5 0.934288 0.385539 0.500000
O O6 0.919706 0.319484 0.257265
O O7 0.861946 0.420331 0.263704
O O8 0.000000 0.411118 0.250000
O O9 0.242598 0.710923 0.270839
O O10 0.273383 0.603470 0.246731
O O11 0.269391 0.669369 0.000000
O O12 0.735439 0.177922 0.773318
O O13 0.634866 0.104489 0.730599
O O14 0.651500 0.152065 0.000000
O O15 0.860911 0.782117 0.782399
O O16 0.000000 0.773122 0.750000
O O17 0.941673 0.741367 0.000000
O O18 0.237246 0.781337 0.500000
O O19 0.233508 0.500000 0.750000
O O20 0.223204 0.560936 0.500000
O O21 0.500000 0.918024 0.250000
O O22 0.594999 0.000000 0.250000
O O23 0.568411 0.943220 0.000000
#
# Coordination Sequence:
#
# PCOD8202593 Si02
#       8
#     8   8   8   8   8   8   8   8
#     4   9  19  32  49  73  98 122 152 189 234 283
#     4   9  18  32  47  66  91 120 154 191 230 279
#     4  10  20  34  50  70  94 121 153 191 235 288
#     4  10  20  33  48  73 104 134 171 209 243 289
#     4   9  17  29  45  67  94 125 160 195 236 291
#     4  10  18  31  49  71  98 128 162 202 246 291
#     4  11  22  36  51  69  91 118 154 193 235 285
#     4  11  21  34  51  72 101 141 180 216 251 289
#
# _framework density 16.402418999999998
#
# number of rings (size 3 to 8) (size 9 to 14) (size 15 to 20)
#    0.000    2.125    1.250    4.125    0.000    6.250 
#    0.000    1.250    0.000    0.375    0.000    2.625 
#    0.000    0.500    0.000    5.250    0.000    2.875 
#
# Total GULP energy -793607.675443 kJ/mol
# GULP energy per Si atom -12400.119929 kJ/mol
# Density = 1.636509 g / cm^3
# Si number density = 16.402419 Si / 1000 Ang^3
#
#
#
# Elastic Constant Matrix: (Units=GPa)
#
#
# Indices 1 2 3 4 5 6 
#
# 1 110.4208 49.8506 41.3173 0.0000 0.0000 0.0000
# 2 49.8506 86.2304 31.9629 0.0000 0.0000 0.0000
# 3 41.3173 31.9629 68.7546 0.0000 0.0000 0.0000
# 4 0.0000 0.0000 0.0000 24.7168 0.0000 0.0000
# 5 0.0000 0.0000 0.0000 0.0000 30.4675 0.0000
# 6 0.0000 0.0000 0.0000 0.0000 0.0000 22.3805
#
#
#
# Elastic Compliance Matrix: (Units=1/GPa)
#
#
# Indices 1 2 3 4 5 6 
#
# 1 0.013805 -0.005927 -0.005541 0.000000 0.000000 0.000000
# 2 -0.005927 0.016556 -0.004135 0.000000 0.000000 0.000000
# 3 -0.005541 -0.004135 0.019796 0.000000 0.000000 0.000000
# 4 0.000000 0.000000 0.000000 0.040458 0.000000 0.000000
# 5 0.000000 0.000000 0.000000 0.000000 0.032822 0.000000
# 6 0.000000 0.000000 0.000000 0.000000 0.000000 0.044682
#
#
# Mechanical properties :
#
#
# Convention : Reuss Voigt Hill
#
# Bulk Modulus (GPa) = 52.76391 56.85192 54.80792
# Shear Modulus (GPa) = 24.31405 24.99797 24.65601
#
# Velocity S-wave (km/s) = 3.85430 3.90813 3.88131
# Velocity P-wave (km/s) = 7.21427 7.42298 7.31937
#
# Compressibility (1/GPa) = 0.01895235
#
# Stress axis : x y z
#
# Youngs Moduli (GPa) = 72.43524 60.40088 50.51452
#
# Poissons Ratio (x) = 0.35801 0.27989
# Poissons Ratio (y) = 0.42934 0.20886
# Poissons Ratio (z) = 0.40134 0.24974
#
# Static dielectric constant tensor:
#      x y z
#    x 3.230720 0.000000 0.000000 
#    y 0.000000 2.890790 0.000000 
#    z 0.000000 0.000000 3.116110 
# 
# 
# High freq. dielectric constant tensor:
#      x y z
#    x 1.628920 0.000000 0.000000 
#    y 0.000000 1.597040 0.000000 
#    z 0.000000 0.000000 1.642440 
# 
# From -- ./inp_files/5405.got.cif
#   From: 2010.03.12/outbox.cif.g09.slc.cpg/sg49_3_cif.got.tgz:5405.got - 2010.04.14 03:58:27.
