data_PCOD8202852
_publ_section_title
;
Structure prediction by ZEFSAII (Michael W. Deem and Ramdas Pophale) SiO2 
 PCOD8202852
Probable space group: P C C M
;
_chemical_formula_sum "Si O2"
_cell_formula_units_Z 64
_cell_length_a 35.388938
_cell_length_b 5.192771
_cell_length_c 14.862549
_cell_angle_alpha 90.000000
_cell_angle_beta 90.000000
_cell_angle_gamma 90.000000
_cell_volume 2731.240855
_symmetry_space_group_name_H-M "P C C M"
_symmetry_group_IT_number 49
_symmetry_cell_setting 'orthorhombic'
loop_
_space_group_symop_operation_xyz
x,y,z
-x,-y,z
x,-y,1/2-z
-x,y,1/2-z
-x,-y,-z
x,y,-z
-x,y,1/2+z
x,-y,1/2+z
loop_
_atom_site_type_symbol
_atom_site_label
_atom_site_fract_x
_atom_site_fract_y
_atom_site_fract_z
Si Si1 0.279119 0.671365 0.392932
Si Si2 0.978246 0.749573 0.107316
Si Si3 0.150186 0.200373 0.392599
Si Si4 0.235263 0.827754 0.107159
Si Si5 0.476453 0.255950 0.396741
Si Si6 0.893214 0.701207 0.107361
Si Si7 0.395933 0.919158 0.150786
Si Si8 0.636560 0.578164 0.850464
O O1 0.282061 0.675742 0.500000
O O2 0.258575 0.416007 0.357497
O O3 0.320745 0.676362 0.351821
O O4 0.255361 0.914312 0.356166
O O5 0.935657 0.731955 0.144663
O O6 0.000000 0.500000 0.143238
O O7 0.977876 0.758737 0.000000
O O8 0.000000 0.000000 0.145431
O O9 0.150392 0.209289 0.500000
O O10 0.192828 0.198220 0.354992
O O11 0.126675 0.443592 0.354649
O O12 0.130454 0.942809 0.356669
O O13 0.234159 0.835114 0.000000
O O14 0.500000 0.500000 0.356711
O O15 0.466205 0.313861 0.500000
O O16 0.437966 0.197119 0.344019
O O17 0.500000 0.000000 0.385405
O O18 0.893683 0.693223 0.000000
O O19 0.369932 0.700251 0.101097
O O20 0.380918 0.000000 0.250000
O O21 0.389975 0.198900 0.102514
O O22 0.622714 0.500000 0.750000
#
# Coordination Sequence:
#
# PCOD8202852 Si02
#       8
#     8   8   8   8   8   8   8   8
#     4  10  19  31  48  70  93 120 155 191 235 288
#     4   9  15  21  27  36  53  78 113 161 211 257
#     4   9  15  23  34  48  68  93 122 162 215 271
#     4   9  17  28  42  62  87 111 140 184 233 281
#     4  10  21  37  57  82 111 140 171 210 254 297
#     4   9  15  21  30  43  59  86 123 160 211 274
#     4  10  21  37  55  77 104 135 170 205 242 287
#     4  10  21  36  53  74 102 132 164 203 243 283
#
# _framework density 23.432569999999998
#
# number of rings (size 3 to 8) (size 9 to 14) (size 15 to 20)
#    0.000    2.500    0.000    3.000    0.000    7.250 
#    0.000    0.625    0.000    0.000    0.000    0.000 
#    0.000    0.000    0.000    0.000    0.000    0.000 
#
# Total GULP energy -793218.614135 kJ/mol
# GULP energy per Si atom -12394.040846 kJ/mol
# Density = 2.337924 g / cm^3
# Si number density = 23.432570 Si / 1000 Ang^3
#
#
#
# Elastic Constant Matrix: (Units=GPa)
#
#
# Indices 1 2 3 4 5 6 
#
# 1 197.7291 111.1606 2.5551 0.0000 0.0000 0.0000
# 2 111.1606 262.4347 5.5023 0.0000 0.0000 0.0000
# 3 2.5551 5.5023 5.3036 0.0000 0.0000 0.0000
# 4 0.0000 0.0000 0.0000 -9.6873 0.0000 0.0000
# 5 0.0000 0.0000 0.0000 0.0000 10.7770 0.0000
# 6 0.0000 0.0000 0.0000 0.0000 0.0000 54.9772
#
#
#
# Elastic Compliance Matrix: (Units=1/GPa)
#
#
# Indices 1 2 3 4 5 6 
#
# 1 0.006639 -0.002806 -0.000287 0.000000 0.000000 0.000000
# 2 -0.002806 0.005081 -0.003920 0.000000 0.000000 0.000000
# 3 -0.000287 -0.003920 0.192758 0.000000 0.000000 0.000000
# 4 0.000000 0.000000 0.000000 -0.103227 0.000000 0.000000
# 5 0.000000 0.000000 0.000000 0.000000 0.092790 0.000000
# 6 0.000000 0.000000 0.000000 0.000000 0.000000 0.018189
#
#
# Mechanical properties :
#
#
# Convention : Reuss Voigt Hill
#
# Bulk Modulus (GPa) = 5.25067 78.21151 41.73109
# Shear Modulus (GPa) = 17.25689 34.29667 25.77678
#
# Velocity S-wave (km/s) = 2.71670 3.82990 3.32028
# Velocity P-wave (km/s) = 3.47653 7.28060 5.70497
#
# Compressibility (1/GPa) = 0.19045176
#
# Stress axis : x y z
#
# Youngs Moduli (GPa) = 150.63460 196.80513 5.18785
#
# Poissons Ratio (x) = 0.55222 0.00149
# Poissons Ratio (y) = 0.42267 0.02034
# Poissons Ratio (z) = 0.04327 0.77144
#
# Static dielectric constant tensor:
#      x y z
#    x 3.994010 0.000000 0.000000 
#    y 0.000000 4.728450 0.000000 
#    z 0.000000 0.000000 3.471810 
# 
# 
# High freq. dielectric constant tensor:
#      x y z
#    x 1.932190 0.000000 0.000000 
#    y 0.000000 1.955070 0.000000 
#    z 0.000000 0.000000 1.870950 
# 
# From -- ./inp_files/18430.got.cif
#   From: 2010.03.12/outbox.cif.g09.slc.cpg/sg49_10_cif.got.tgz:18430.got - 2010.04.14 03:58:27.
