data_PCOD8202764
_publ_section_title
;
Structure prediction by ZEFSAII (Michael W. Deem and Ramdas Pophale) SiO2 
 PCOD8202764
Probable space group: P C C M
;
_chemical_formula_sum "Si O2"
_cell_formula_units_Z 58
_cell_length_a 14.906169
_cell_length_b 25.227789
_cell_length_c 9.180170
_cell_angle_alpha 90.000000
_cell_angle_beta 90.000000
_cell_angle_gamma 90.000000
_cell_volume 3452.200049
_symmetry_space_group_name_H-M "P C C M"
_symmetry_group_IT_number 49
_symmetry_cell_setting 'orthorhombic'
loop_
_space_group_symop_operation_xyz
x,y,z
-x,-y,z
x,-y,1/2-z
-x,y,1/2-z
-x,-y,-z
x,y,-z
-x,y,1/2+z
x,-y,1/2+z
loop_
_atom_site_type_symbol
_atom_site_label
_atom_site_fract_x
_atom_site_fract_y
_atom_site_fract_z
Si Si1 0.403901 0.845226 0.327463
Si Si2 0.593019 0.447725 0.672244
Si Si3 0.086397 0.238122 0.664684
Si Si4 0.085012 0.635652 0.836440
Si Si5 0.330928 0.047831 0.841731
Si Si6 0.736747 0.758722 0.830313
Si Si7 0.500000 0.000000 0.750000
Si Si8 0.258375 0.362407 0.167702
O O1 0.500000 0.845905 0.250000
O O2 0.419687 0.850660 0.500000
O O3 0.335305 0.892671 0.274535
O O4 0.352449 0.791079 0.286912
O O5 0.633884 0.500000 0.750000
O O6 0.500000 0.433681 0.750000
O O7 0.579512 0.457840 0.500000
O O8 0.656533 0.398209 0.702763
O O9 0.084998 0.216163 0.500000
O O10 0.082150 0.301212 0.666103
O O11 0.177564 0.219079 0.742527
O O12 0.000000 0.214974 0.750000
O O13 0.175655 0.615478 0.760990
O O14 0.000000 0.612272 0.750000
O O15 0.082066 0.613477 0.000000
O O16 0.437256 0.034997 0.855494
O O17 0.282970 0.000000 0.750000
O O18 0.284537 0.048014 0.000000
O O19 0.716754 0.697765 0.789518
O O20 0.759642 0.765477 0.000000
O O21 0.229262 0.365776 0.000000
#
# Coordination Sequence:
#
# PCOD8202764 Si02
#       8
#     8   8   8   8   8   8   2   8
#     4  10  19  30  42  59  86 121 154 184 218 259
#     4  10  20  34  52  71  90 113 148 191 231 265
#     4   9  16  27  44  65  88 114 147 183 220 258
#     4   9  16  26  44  69  94 120 147 177 212 258
#     4   9  16  25  39  57  77 105 145 186 222 255
#     4   9  18  31  45  63  91 122 150 179 217 263
#     4   8  14  20  38  52  74  96 140 184 216 244
#     4   9  18  32  48  67  91 119 148 181 220 265
#
# _framework density 16.800879999999999
#
# number of rings (size 3 to 8) (size 9 to 14) (size 15 to 20)
#    0.414    2.345    0.690    1.862    0.000    6.069 
#    0.000    0.000    0.000    0.414    0.000    2.897 
#    0.000    0.552    0.000    6.345    0.000    2.207 
#
# Total GULP energy -718631.145680 kJ/mol
# GULP energy per Si atom -12390.192167 kJ/mol
# Density = 1.676264 g / cm^3
# Si number density = 16.800880 Si / 1000 Ang^3
#
#
#
# Elastic Constant Matrix: (Units=GPa)
#
#
# Indices 1 2 3 4 5 6 
#
# 1 80.1268 47.4886 53.6947 0.0000 0.0000 0.0000
# 2 47.4886 76.5132 39.2392 0.0000 0.0000 0.0000
# 3 53.6947 39.2392 97.8269 0.0000 0.0000 0.0000
# 4 0.0000 0.0000 0.0000 17.7737 0.0000 0.0000
# 5 0.0000 0.0000 0.0000 0.0000 27.0739 0.0000
# 6 0.0000 0.0000 0.0000 0.0000 0.0000 2.5658
#
#
#
# Elastic Compliance Matrix: (Units=1/GPa)
#
#
# Indices 1 2 3 4 5 6 
#
# 1 0.025269 -0.010790 -0.009542 0.000000 0.000000 0.000000
# 2 -0.010790 0.021062 -0.002526 0.000000 0.000000 0.000000
# 3 -0.009542 -0.002526 0.016472 0.000000 0.000000 0.000000
# 4 0.000000 0.000000 0.000000 0.056263 0.000000 0.000000
# 5 0.000000 0.000000 0.000000 0.000000 0.036936 0.000000
# 6 0.000000 0.000000 0.000000 0.000000 0.000000 0.389738
#
#
# Mechanical properties :
#
#
# Convention : Reuss Voigt Hill
#
# Bulk Modulus (GPa) = 58.51860 59.47910 58.99885
# Shear Modulus (GPa) = 8.37307 17.08564 12.72936
#
# Velocity S-wave (km/s) = 2.23484 3.19242 2.75555
# Velocity P-wave (km/s) = 6.44714 7.00485 6.73178
#
# Compressibility (1/GPa) = 0.01708858
#
# Stress axis : x y z
#
# Youngs Moduli (GPa) = 39.57366 47.47901 60.70775
#
# Poissons Ratio (x) = 0.51231 0.57925
# Poissons Ratio (y) = 0.42701 0.15333
# Poissons Ratio (z) = 0.37760 0.11991
#
# Static dielectric constant tensor:
#      x y z
#    x 2.960060 0.000000 0.000000 
#    y 0.000000 3.053840 0.000000 
#    z 0.000000 0.000000 3.218210 
# 
# 
# High freq. dielectric constant tensor:
#      x y z
#    x 1.623360 0.000000 0.000000 
#    y 0.000000 1.621220 0.000000 
#    z 0.000000 0.000000 1.652760 
# 
# From -- ./inp_files/4474.got.cif
#   From: 2010.03.12/outbox.cif.g09.slc.cpg/sg49_3_cif.got.tgz:4474.got - 2010.04.14 03:58:27.
