data_PCOD8202034
_publ_section_title
;
Structure prediction by ZEFSAII (Michael W. Deem and Ramdas Pophale) SiO2 
 PCOD8202034
Probable space group: P N N N
;
_chemical_formula_sum "Si O2"
_cell_formula_units_Z 54
_cell_length_a 10.979177
_cell_length_b 21.210459
_cell_length_c 11.902872
_cell_angle_alpha 90.000000
_cell_angle_beta 90.000000
_cell_angle_gamma 90.000000
_cell_volume 2771.862077
_symmetry_space_group_name_H-M "P N N N"
_symmetry_group_IT_number 48
_space_group.IT_coordinate_system_code '2'
_symmetry_cell_setting 'orthorhombic'
loop_
_space_group_symop_operation_xyz
x,y,z
1/2-x,1/2-y,z
x,1/2-y,1/2-z
1/2-x,y,1/2-z
-x,-y,-z
1/2+x,1/2+y,-z
-x,1/2+y,1/2+z
1/2+x,-y,1/2+z
loop_
_atom_site_type_symbol
_atom_site_label
_atom_site_fract_x
_atom_site_fract_y
_atom_site_fract_z
Si Si1 0.750000 0.750000 0.750000
Si Si2 0.973131 0.447688 0.232147
Si Si3 0.956965 0.125274 0.476611
Si Si4 0.892460 0.246145 0.116933
Si Si5 0.723017 0.925285 0.014227
Si Si6 0.250000 0.020733 0.750000
Si Si7 0.410822 0.347942 0.112406
Si Si8 0.669987 0.037493 0.858750
O O1 0.666114 0.706363 0.827216
O O2 0.905486 0.407386 0.135751
O O3 0.861082 0.478548 0.299085
O O4 0.064347 0.405822 0.304416
O O5 0.046167 0.504778 0.177816
O O6 0.952036 0.199758 0.458826
O O7 0.872475 0.101930 0.579587
O O8 0.098580 0.108173 0.480382
O O9 0.750000 0.250000 0.091445
O O10 0.918595 0.250000 0.250000
O O11 0.958926 0.181862 0.073865
O O12 0.711568 0.936053 0.146397
O O13 0.835072 0.877422 0.990676
O O14 0.741133 0.990211 0.943522
O O15 0.750000 0.055369 0.750000
#
# Coordination Sequence:
#
# PCOD8202034 Si02
#       8
#     2   8   8   8   8   4   8   8
#     4  12  20  40  62  90 124 160 216 270 320 360
#     4  11  21  36  62  92 130 164 203 262 334 384
#     4  11  21  41  62  90 131 173 207 264 329 390
#     4  11  24  40  61  93 127 166 209 266 332 381
#     4  11  23  39  64  91 131 164 215 267 326 388
#     4  12  24  40  58  94 132 176 200 256 342 404
#     4  12  22  37  64  96 126 164 216 281 314 392
#     4  11  20  40  63  95 127 169 213 261 324 397
#
# _framework density 19.481489
#
# number of rings (size 3 to 8) (size 9 to 14) (size 15 to 20)
#    0.000    0.741    6.667    3.556    2.074    0.593 
#    2.667    0.000    0.000    6.222    0.000    0.000 
#    0.000    0.000    0.000    0.000    0.000    0.000 
#
# Total GULP energy -669417.688214 kJ/mol
# GULP energy per Si atom -12396.623856 kJ/mol
# Density = 1.943715 g / cm^3
# Si number density = 19.481489 Si / 1000 Ang^3
#
#
#
# Elastic Constant Matrix: (Units=GPa)
#
#
# Indices 1 2 3 4 5 6 
#
# 1 91.3671 36.3771 32.0430 0.0000 0.0000 0.0000
# 2 36.3771 88.8053 42.2457 0.0000 0.0000 0.0000
# 3 32.0430 42.2457 87.8478 0.0000 0.0000 0.0000
# 4 0.0000 0.0000 0.0000 23.8965 0.0000 0.0000
# 5 0.0000 0.0000 0.0000 0.0000 30.1192 0.0000
# 6 0.0000 0.0000 0.0000 0.0000 0.0000 15.9979
#
#
#
# Elastic Compliance Matrix: (Units=1/GPa)
#
#
# Indices 1 2 3 4 5 6 
#
# 1 0.013650 -0.004179 -0.002969 0.000000 0.000000 0.000000
# 2 -0.004179 0.015880 -0.006112 0.000000 0.000000 0.000000
# 3 -0.002969 -0.006112 0.015406 0.000000 0.000000 0.000000
# 4 0.000000 0.000000 0.000000 0.041847 0.000000 0.000000
# 5 0.000000 0.000000 0.000000 0.000000 0.033201 0.000000
# 6 0.000000 0.000000 0.000000 0.000000 0.000000 0.062508
#
#
# Mechanical properties :
#
#
# Convention : Reuss Voigt Hill
#
# Bulk Modulus (GPa) = 54.30434 54.37243 54.33838
# Shear Modulus (GPa) = 23.23935 24.49301 23.86618
#
# Velocity S-wave (km/s) = 3.45758 3.54961 3.50390
# Velocity P-wave (km/s) = 6.62383 6.69104 6.65752
#
# Compressibility (1/GPa) = 0.01841473
#
# Stress axis : x y z
#
# Youngs Moduli (GPa) = 73.26009 62.97176 64.91035
#
# Poissons Ratio (x) = 0.26315 0.19274
# Poissons Ratio (y) = 0.30614 0.39676
# Poissons Ratio (z) = 0.21753 0.38491
#
# Static dielectric constant tensor:
#      x y z
#    x 3.718820 0.000000 0.000000 
#    y 0.000000 3.575790 0.000000 
#    z 0.000000 0.000000 3.347440 
# 
# 
# High freq. dielectric constant tensor:
#      x y z
#    x 1.773850 0.000000 0.000000 
#    y 0.000000 1.749940 0.000000 
#    z 0.000000 0.000000 1.728800 
# 
# From -- ./inp_files/20297.got.cif
#   From: 2010.06.25/outbox.cif.g09.slc.cpg/sg48_11_cif.got.tgz:20297.got - 2010.06.26 18:06:46.
