data_PCOD8202666
_publ_section_title
;
Structure prediction by ZEFSAII (Michael W. Deem and Ramdas Pophale) SiO2 
 PCOD8202666
Probable space group: P C C M
;
_chemical_formula_sum "Si O2"
_cell_formula_units_Z 56
_cell_length_a 18.707220
_cell_length_b 19.020158
_cell_length_c 8.648045
_cell_angle_alpha 90.000000
_cell_angle_beta 90.000000
_cell_angle_gamma 90.000000
_cell_volume 3077.097906
_symmetry_space_group_name_H-M "P C C M"
_symmetry_group_IT_number 49
_symmetry_cell_setting 'orthorhombic'
loop_
_space_group_symop_operation_xyz
x,y,z
-x,-y,z
x,-y,1/2-z
-x,y,1/2-z
-x,-y,-z
x,y,-z
-x,y,1/2+z
x,-y,1/2+z
loop_
_atom_site_type_symbol
_atom_site_label
_atom_site_fract_x
_atom_site_fract_y
_atom_site_fract_z
Si Si1 0.710134 0.792286 0.818430
Si Si2 0.075208 0.841689 0.816805
Si Si3 0.808074 0.426363 0.181974
Si Si4 0.849409 0.713762 0.816425
Si Si5 0.424530 0.710505 0.316555
Si Si6 0.643267 0.573914 0.317524
Si Si7 0.206316 0.075051 0.817412
O O1 0.773528 0.743107 0.754005
O O2 0.634289 0.766173 0.751139
O O3 0.727505 0.873104 0.775024
O O4 0.708235 0.782085 0.000000
O O5 0.089282 0.762693 0.755742
O O6 0.133990 0.896700 0.758179
O O7 0.000000 0.867971 0.750000
O O8 0.073670 0.842040 0.000000
O O9 0.835460 0.500000 0.250000
O O10 0.857150 0.365736 0.256519
O O11 0.725686 0.413653 0.229821
O O12 0.818490 0.426766 0.000000
O O13 0.856177 0.716919 0.000000
O O14 0.500000 0.735425 0.250000
O O15 0.427954 0.710134 0.500000
O O16 0.405658 0.633018 0.258474
O O17 0.616401 0.500000 0.250000
O O18 0.632602 0.574612 0.500000
O O19 0.227391 0.000000 0.750000
O O20 0.194249 0.071181 0.000000
#
# Coordination Sequence:
#
# PCOD8202666 Si02
#       7
#     8   8   8   8   8   8   8
#     4   8  17  33  54  75 103 136 173 215 263 314
#     4  11  22  37  56  83 115 149 181 216 256 310
#     4  10  19  30  48  75 104 136 178 227 275 322
#     4  10  18  33  55  78 104 140 180 224 270 317
#     4  11  21  35  52  74 102 139 178 224 274 325
#     4  10  20  33  49  72 101 137 177 223 271 326
#     4  10  20  37  59  87 113 143 176 214 261 313
#
# _framework density 18.198965999999999
#
# number of rings (size 3 to 8) (size 9 to 14) (size 15 to 20)
#    0.000    2.000    1.429    4.286    0.000    1.714 
#    0.000    5.000    0.000    0.857    0.000    6.000 
#    0.000    0.000    0.000    0.000    0.000    0.000 
#
# Total GULP energy -694447.121407 kJ/mol
# GULP energy per Si atom -12400.841454 kJ/mol
# Density = 1.815754 g / cm^3
# Si number density = 18.198966 Si / 1000 Ang^3
#
#
#
# Elastic Constant Matrix: (Units=GPa)
#
#
# Indices 1 2 3 4 5 6 
#
# 1 79.4354 43.4835 30.6337 0.0000 0.0000 0.0000
# 2 43.4835 128.6314 43.0362 0.0000 0.0000 0.0000
# 3 30.6337 43.0362 100.4311 0.0000 0.0000 0.0000
# 4 0.0000 0.0000 0.0000 31.2664 0.0000 0.0000
# 5 0.0000 0.0000 0.0000 0.0000 24.2665 0.0000
# 6 0.0000 0.0000 0.0000 0.0000 0.0000 24.1250
#
#
#
# Elastic Compliance Matrix: (Units=1/GPa)
#
#
# Indices 1 2 3 4 5 6 
#
# 1 0.016200 -0.004463 -0.003029 0.000000 0.000000 0.000000
# 2 -0.004463 0.010305 -0.003054 0.000000 0.000000 0.000000
# 3 -0.003029 -0.003054 0.012190 0.000000 0.000000 0.000000
# 4 0.000000 0.000000 0.000000 0.031983 0.000000 0.000000
# 5 0.000000 0.000000 0.000000 0.000000 0.041209 0.000000
# 6 0.000000 0.000000 0.000000 0.000000 0.000000 0.041451
#
#
# Mechanical properties :
#
#
# Convention : Reuss Voigt Hill
#
# Bulk Modulus (GPa) = 56.81187 60.31161 58.56174
# Shear Modulus (GPa) = 27.73191 28.68787 28.20989
#
# Velocity S-wave (km/s) = 3.90785 3.97463 3.94138
# Velocity P-wave (km/s) = 7.18655 7.36720 7.27744
#
# Compressibility (1/GPa) = 0.01760196
#
# Stress axis : x y z
#
# Youngs Moduli (GPa) = 61.72843 97.04244 82.03560
#
# Poissons Ratio (x) = 0.43310 0.24848
# Poissons Ratio (y) = 0.27549 0.25057
# Poissons Ratio (z) = 0.18697 0.29641
#
# Static dielectric constant tensor:
#      x y z
#    x 3.346560 0.000000 0.000000 
#    y 0.000000 3.326580 0.000000 
#    z 0.000000 0.000000 3.308200 
# 
# 
# High freq. dielectric constant tensor:
#      x y z
#    x 1.680750 0.000000 0.000000 
#    y 0.000000 1.704270 0.000000 
#    z 0.000000 0.000000 1.711090 
# 
# From -- ./inp_files/5197.got.cif
#   From: 2010.03.12/outbox.cif.g09.slc.cpg/sg49_3_cif.got.tgz:5197.got - 2010.04.14 03:58:27.
