data_PCOD8202589
_publ_section_title
;
Structure prediction by ZEFSAII (Michael W. Deem and Ramdas Pophale) SiO2 
 PCOD8202589
Probable space group: P C C M
;
_chemical_formula_sum "Si O2"
_cell_formula_units_Z 64
_cell_length_a 20.085813
_cell_length_b 19.858172
_cell_length_c 9.071381
_cell_angle_alpha 90.000000
_cell_angle_beta 90.000000
_cell_angle_gamma 90.000000
_cell_volume 3618.279327
_symmetry_space_group_name_H-M "P C C M"
_symmetry_group_IT_number 49
_symmetry_cell_setting 'orthorhombic'
loop_
_space_group_symop_operation_xyz
x,y,z
-x,-y,z
x,-y,1/2-z
-x,y,1/2-z
-x,-y,-z
x,y,-z
-x,y,1/2+z
x,-y,1/2+z
loop_
_atom_site_type_symbol
_atom_site_label
_atom_site_fract_x
_atom_site_fract_y
_atom_site_fract_z
Si Si1 0.435421 0.885650 0.667819
Si Si2 0.293505 0.932597 0.674735
Si Si3 0.289272 0.434969 0.329527
Si Si4 0.563530 0.393760 0.172933
Si Si5 0.807714 0.158488 0.167976
Si Si6 0.930876 0.068957 0.174470
Si Si7 0.262871 0.711898 0.169756
Si Si8 0.605251 0.264526 0.669738
O O1 0.500000 0.914595 0.750000
O O2 0.443078 0.907180 0.500000
O O3 0.368234 0.918592 0.732683
O O4 0.432336 0.805646 0.686109
O O5 0.290644 0.938811 0.500000
O O6 0.246063 0.872355 0.722787
O O7 0.266159 0.000000 0.750000
O O8 0.257796 0.500000 0.250000
O O9 0.281167 0.449159 0.500000
O O10 0.367126 0.429242 0.284323
O O11 0.250052 0.366236 0.283453
O O12 0.500000 0.430422 0.250000
O O13 0.565244 0.317699 0.232604
O O14 0.551456 0.392962 0.000000
O O15 0.880797 0.130659 0.207407
O O16 0.802653 0.240343 0.186429
O O17 0.789980 0.138227 0.000000
O O18 0.000000 0.089828 0.250000
O O19 0.904105 0.000000 0.250000
O O20 0.940481 0.056909 0.000000
O O21 0.319840 0.743881 0.270753
O O22 0.288284 0.710918 0.000000
O O23 0.608016 0.288240 0.500000
#
# Coordination Sequence:
#
# PCOD8202589 Si02
#       8
#     8   8   8   8   8   8   8   8
#     4  10  22  35  48  66  89 117 156 205 257 310
#     4  11  23  38  52  72  97 125 165 210 258 308
#     4   9  19  33  48  67  94 126 159 198 249 305
#     4  10  20  32  45  65  89 118 155 199 249 307
#     4  10  20  35  57  81 104 136 173 210 251 295
#     4  10  20  34  53  80 113 149 182 209 245 291
#     4   9  18  33  52  74  99 127 162 204 249 296
#     4  10  18  31  48  69  92 118 154 200 252 306
#
# _framework density 17.687965999999999
#
# number of rings (size 3 to 8) (size 9 to 14) (size 15 to 20)
#    0.000    2.125    1.250    3.375    0.000    8.000 
#    0.000    2.500    0.000    0.000    0.000    0.000 
#    0.000    0.500    0.000    6.250    0.000    0.000 
#
# Total GULP energy -793351.315929 kJ/mol
# GULP energy per Si atom -12396.114311 kJ/mol
# Density = 1.764771 g / cm^3
# Si number density = 17.687966 Si / 1000 Ang^3
#
#
#
# Elastic Constant Matrix: (Units=GPa)
#
#
# Indices 1 2 3 4 5 6 
#
# 1 79.9865 48.3839 32.9694 0.0000 0.0000 0.0000
# 2 48.3839 106.6931 38.6401 0.0000 0.0000 0.0000
# 3 32.9694 38.6401 66.9575 0.0000 0.0000 0.0000
# 4 0.0000 0.0000 0.0000 21.8140 0.0000 0.0000
# 5 0.0000 0.0000 0.0000 0.0000 17.0996 0.0000
# 6 0.0000 0.0000 0.0000 0.0000 0.0000 13.7468
#
#
#
# Elastic Compliance Matrix: (Units=1/GPa)
#
#
# Indices 1 2 3 4 5 6 
#
# 1 0.018678 -0.006497 -0.005447 0.000000 0.000000 0.000000
# 2 -0.006497 0.014109 -0.004943 0.000000 0.000000 0.000000
# 3 -0.005447 -0.004943 0.020470 0.000000 0.000000 0.000000
# 4 0.000000 0.000000 0.000000 0.045842 0.000000 0.000000
# 5 0.000000 0.000000 0.000000 0.000000 0.058481 0.000000
# 6 0.000000 0.000000 0.000000 0.000000 0.000000 0.072744
#
#
# Mechanical properties :
#
#
# Convention : Reuss Voigt Hill
#
# Bulk Modulus (GPa) = 51.33112 54.84710 53.08911
# Shear Modulus (GPa) = 18.47797 19.44165 18.95981
#
# Velocity S-wave (km/s) = 3.23563 3.31893 3.27755
# Velocity P-wave (km/s) = 6.56067 6.76480 6.66352
#
# Compressibility (1/GPa) = 0.01948136
#
# Stress axis : x y z
#
# Youngs Moduli (GPa) = 53.54002 70.87534 48.85299
#
# Poissons Ratio (x) = 0.46050 0.26612
# Poissons Ratio (y) = 0.34786 0.24148
# Poissons Ratio (z) = 0.29165 0.35034
#
# Static dielectric constant tensor:
#      x y z
#    x 3.053920 0.000000 0.000000 
#    y 0.000000 3.311840 0.000000 
#    z 0.000000 0.000000 3.310350 
# 
# 
# High freq. dielectric constant tensor:
#      x y z
#    x 1.641350 0.000000 0.000000 
#    y 0.000000 1.682560 0.000000 
#    z 0.000000 0.000000 1.690980 
# 
# From -- ./inp_files/6070.got.cif
#   From: 2010.03.12/outbox.cif.g09.slc.cpg/sg49_4_cif.got.tgz:6070.got - 2010.04.14 03:58:27.
