data_PCOD8202770
_publ_section_title
;
Structure prediction by ZEFSAII (Michael W. Deem and Ramdas Pophale) SiO2 
 PCOD8202770
Probable space group: P C C M
;
_chemical_formula_sum "Si O2"
_cell_formula_units_Z 56
_cell_length_a 21.414669
_cell_length_b 18.253337
_cell_length_c 9.022167
_cell_angle_alpha 90.000000
_cell_angle_beta 90.000000
_cell_angle_gamma 90.000000
_cell_volume 3526.667370
_symmetry_space_group_name_H-M "P C C M"
_symmetry_group_IT_number 49
_symmetry_cell_setting 'orthorhombic'
loop_
_space_group_symop_operation_xyz
x,y,z
-x,-y,z
x,-y,1/2-z
-x,y,1/2-z
-x,-y,-z
x,y,-z
-x,y,1/2+z
x,-y,1/2+z
loop_
_atom_site_type_symbol
_atom_site_label
_atom_site_fract_x
_atom_site_fract_y
_atom_site_fract_z
Si Si1 0.183558 0.925505 0.668771
Si Si2 0.316690 0.330407 0.326879
Si Si3 0.937253 0.835317 0.824772
Si Si4 0.869421 0.715694 0.328622
Si Si5 0.752658 0.782361 0.171456
Si Si6 0.800791 0.424490 0.170864
Si Si7 0.436303 0.423968 0.325073
O O1 0.172656 0.946493 0.500000
O O2 0.119909 0.887101 0.727280
O O3 0.242965 0.870658 0.687682
O O4 0.199543 0.000000 0.750000
O O5 0.308103 0.312803 0.500000
O O6 0.311366 0.254137 0.232567
O O7 0.263251 0.386956 0.270837
O O8 0.384060 0.363662 0.292060
O O9 0.924867 0.752037 0.767533
O O10 0.000000 0.866405 0.750000
O O11 0.944788 0.833484 0.000000
O O12 0.881984 0.733870 0.500000
O O13 0.804472 0.750082 0.279210
O O14 0.861139 0.628342 0.303069
O O15 0.764761 0.760788 0.000000
O O16 0.814941 0.500000 0.250000
O O17 0.791472 0.442398 0.000000
O O18 0.415556 0.500000 0.250000
O O19 0.500000 0.395479 0.250000
O O20 0.445868 0.436389 0.500000
#
# Coordination Sequence:
#
# PCOD8202770 Si02
#       7
#     8   8   8   8   8   8   8
#     4   9  19  32  46  67  93 118 143 171 209 256
#     4   9  18  30  43  62  87 117 152 187 221 262
#     4  10  20  33  48  67  87 112 147 179 210 253
#     4   9  17  30  45  62  85 112 141 176 218 261
#     4   9  17  29  45  66  88 112 145 181 216 258
#     4   9  17  27  41  62  85 108 138 176 220 263
#     4  10  19  30  43  61  89 124 162 196 230 268
#
# _framework density 15.879013
#
# number of rings (size 3 to 8) (size 9 to 14) (size 15 to 20)
#    0.000    2.714    0.000    4.286    0.000    7.714 
#    0.000    1.429    0.000    0.429    0.000    3.000 
#    0.000    0.571    0.000    6.286    0.000    4.571 
#
# Total GULP energy -693979.709973 kJ/mol
# GULP energy per Si atom -12392.494821 kJ/mol
# Density = 1.584287 g / cm^3
# Si number density = 15.879013 Si / 1000 Ang^3
#
#
#
# Elastic Constant Matrix: (Units=GPa)
#
#
# Indices 1 2 3 4 5 6 
#
# 1 57.1491 41.5245 28.9675 0.0000 0.0000 0.0000
# 2 41.5245 105.7538 49.8888 0.0000 0.0000 0.0000
# 3 28.9675 49.8888 69.0722 0.0000 0.0000 0.0000
# 4 0.0000 0.0000 0.0000 29.0609 0.0000 0.0000
# 5 0.0000 0.0000 0.0000 0.0000 23.7408 0.0000
# 6 0.0000 0.0000 0.0000 0.0000 0.0000 19.2757
#
#
#
# Elastic Compliance Matrix: (Units=1/GPa)
#
#
# Indices 1 2 3 4 5 6 
#
# 1 0.025698 -0.007594 -0.005293 0.000000 0.000000 0.000000
# 2 -0.007594 0.016587 -0.008796 0.000000 0.000000 0.000000
# 3 -0.005293 -0.008796 0.023050 0.000000 0.000000 0.000000
# 4 0.000000 0.000000 0.000000 0.034411 0.000000 0.000000
# 5 0.000000 0.000000 0.000000 0.000000 0.042122 0.000000
# 6 0.000000 0.000000 0.000000 0.000000 0.000000 0.051879
#
#
# Mechanical properties :
#
#
# Convention : Reuss Voigt Hill
#
# Bulk Modulus (GPa) = 45.51375 52.52631 49.02003
# Shear Modulus (GPa) = 20.45543 21.85510 21.15527
#
# Velocity S-wave (km/s) = 3.59305 3.71395 3.65400
# Velocity P-wave (km/s) = 6.77779 7.17928 6.98142
#
# Compressibility (1/GPa) = 0.02197138
#
# Stress axis : x y z
#
# Youngs Moduli (GPa) = 38.91294 60.28858 43.38392
#
# Poissons Ratio (x) = 0.45782 0.22962
# Poissons Ratio (y) = 0.29550 0.38159
# Poissons Ratio (z) = 0.20595 0.53027
#
# Static dielectric constant tensor:
#      x y z
#    x 2.945330 0.000000 0.000000 
#    y 0.000000 3.113230 0.000000 
#    z 0.000000 0.000000 3.109130 
# 
# 
# High freq. dielectric constant tensor:
#      x y z
#    x 1.576600 0.000000 0.000000 
#    y 0.000000 1.596390 0.000000 
#    z 0.000000 0.000000 1.622380 
# 
# From -- ./inp_files/5177.got.cif
#   From: 2010.03.12/outbox.cif.g09.slc.cpg/sg49_3_cif.got.tgz:5177.got - 2010.04.14 03:58:27.
