data_PCOD8202795
_publ_section_title
;
Structure prediction by ZEFSAII (Michael W. Deem and Ramdas Pophale) SiO2 
 PCOD8202795
Probable space group: P C C M
;
_chemical_formula_sum "Si O2"
_cell_formula_units_Z 44
_cell_length_a 12.930960
_cell_length_b 21.465857
_cell_length_c 9.143677
_cell_angle_alpha 90.000000
_cell_angle_beta 90.000000
_cell_angle_gamma 90.000000
_cell_volume 2538.048264
_symmetry_space_group_name_H-M "P C C M"
_symmetry_group_IT_number 49
_symmetry_cell_setting 'orthorhombic'
loop_
_space_group_symop_operation_xyz
x,y,z
-x,-y,z
x,-y,1/2-z
-x,y,1/2-z
-x,-y,-z
x,y,-z
-x,y,1/2+z
x,-y,1/2+z
loop_
_atom_site_type_symbol
_atom_site_label
_atom_site_fract_x
_atom_site_fract_y
_atom_site_fract_z
Si Si1 0.395707 0.887303 0.838180
Si Si2 0.792426 0.805627 0.674625
Si Si3 0.109009 0.556505 0.330707
Si Si4 0.735030 0.000000 0.750000
Si Si5 0.889642 0.694911 0.171105
Si Si6 0.095024 0.088534 0.163231
O O1 0.500000 0.891033 0.750000
O O2 0.319966 0.832804 0.780110
O O3 0.337127 0.953673 0.842077
O O4 0.430668 0.870683 0.000000
O O5 0.805373 0.802274 0.500000
O O6 0.805702 0.738435 0.749135
O O7 0.879112 0.850484 0.741888
O O8 0.172826 0.500000 0.250000
O O9 0.095272 0.539291 0.500000
O O10 0.158262 0.625161 0.312939
O O11 0.000000 0.559911 0.250000
O O12 0.808988 0.958905 0.853515
O O13 0.000000 0.702139 0.250000
O O14 0.902899 0.712279 0.000000
O O15 0.000000 0.056359 0.250000
O O16 0.061471 0.108007 0.000000
#
# Coordination Sequence:
#
# PCOD8202795 Si02
#       6
#     8   8   8   4   8   8
#     4  10  22  38  55  74  93 115 147 189 238 288
#     4  10  21  36  51  69  94 123 158 196 234 281
#     4   9  16  25  39  61  91 127 165 199 229 264
#     4  10  22  36  54  74  94 120 154 188 228 282
#     4  10  19  30  46  69  97 131 167 199 233 272
#     4  11  22  35  51  70  96 127 157 192 232 275
#
# _framework density 17.336155000000002
#
# number of rings (size 3 to 8) (size 9 to 14) (size 15 to 20)
#    0.000    2.000    0.000    4.364    0.000   10.182 
#    0.000    0.000    0.000    0.000    0.000    0.000 
#    0.000    0.727    0.000    8.000    0.000    5.818 
#
# Total GULP energy -545250.580058 kJ/mol
# GULP energy per Si atom -12392.058638 kJ/mol
# Density = 1.729670 g / cm^3
# Si number density = 17.336155 Si / 1000 Ang^3
#
#
#
# Elastic Constant Matrix: (Units=GPa)
#
#
# Indices 1 2 3 4 5 6 
#
# 1 85.6641 42.9201 44.6726 0.0000 0.0000 0.0000
# 2 42.9201 129.3984 55.3765 0.0000 0.0000 0.0000
# 3 44.6726 55.3765 127.8042 0.0000 0.0000 0.0000
# 4 0.0000 0.0000 0.0000 19.5300 0.0000 0.0000
# 5 0.0000 0.0000 0.0000 0.0000 15.6938 0.0000
# 6 0.0000 0.0000 0.0000 0.0000 0.0000 9.9448
#
#
#
# Elastic Compliance Matrix: (Units=1/GPa)
#
#
# Indices 1 2 3 4 5 6 
#
# 1 0.015437 -0.003451 -0.003900 0.000000 0.000000 0.000000
# 2 -0.003451 0.010259 -0.003239 0.000000 0.000000 0.000000
# 3 -0.003900 -0.003239 0.010591 0.000000 0.000000 0.000000
# 4 0.000000 0.000000 0.000000 0.051203 0.000000 0.000000
# 5 0.000000 0.000000 0.000000 0.000000 0.063720 0.000000
# 6 0.000000 0.000000 0.000000 0.000000 0.000000 0.100555
#
#
# Mechanical properties :
#
#
# Convention : Reuss Voigt Hill
#
# Bulk Modulus (GPa) = 66.19817 69.86723 68.03270
# Shear Modulus (GPa) = 17.98689 22.36020 20.17355
#
# Velocity S-wave (km/s) = 3.22458 3.59528 3.41496
# Velocity P-wave (km/s) = 7.22023 7.59102 7.40795
#
# Compressibility (1/GPa) = 0.01510616
#
# Stress axis : x y z
#
# Youngs Moduli (GPa) = 64.78134 97.47761 94.41832
#
# Poissons Ratio (x) = 0.33639 0.36827
# Poissons Ratio (y) = 0.22356 0.30580
# Poissons Ratio (z) = 0.25267 0.31571
#
# Static dielectric constant tensor:
#      x y z
#    x 2.910130 0.000000 0.000000 
#    y 0.000000 3.885930 0.000000 
#    z 0.000000 0.000000 3.293270 
# 
# 
# High freq. dielectric constant tensor:
#      x y z
#    x 1.621490 0.000000 0.000000 
#    y 0.000000 1.673460 0.000000 
#    z 0.000000 0.000000 1.685850 
# 
# From -- ./inp_files/2855.got.cif
#   From: 2010.03.12/outbox.cif.g09.slc.cpg/sg49_2_cif.got.tgz:2855.got - 2010.04.14 03:58:27.
