data_PCOD8202547
_publ_section_title
;
Structure prediction by ZEFSAII (Michael W. Deem and Ramdas Pophale) SiO2 
 PCOD8202547
Probable space group: P C C M
;
_chemical_formula_sum "Si O2"
_cell_formula_units_Z 64
_cell_length_a 18.908345
_cell_length_b 23.318853
_cell_length_c 8.894880
_cell_angle_alpha 90.000000
_cell_angle_beta 90.000000
_cell_angle_gamma 90.000000
_cell_volume 3921.938651
_symmetry_space_group_name_H-M "P C C M"
_symmetry_group_IT_number 49
_symmetry_cell_setting 'orthorhombic'
loop_
_space_group_symop_operation_xyz
x,y,z
-x,-y,z
x,-y,1/2-z
-x,y,1/2-z
-x,-y,-z
x,y,-z
-x,y,1/2+z
x,-y,1/2+z
loop_
_atom_site_type_symbol
_atom_site_label
_atom_site_fract_x
_atom_site_fract_y
_atom_site_fract_z
Si Si1 0.572561 0.271074 0.174882
Si Si2 0.928904 0.383276 0.323511
Si Si3 0.291000 0.659613 0.171597
Si Si4 0.657287 0.171420 0.675131
Si Si5 0.927886 0.748875 0.822421
Si Si6 0.213007 0.776074 0.822997
Si Si7 0.214742 0.560063 0.677093
Si Si8 0.573577 0.941472 0.175305
O O1 0.500000 0.291415 0.250000
O O2 0.627712 0.322900 0.197326
O O3 0.599682 0.213428 0.252767
O O4 0.561476 0.257295 0.000000
O O5 0.937068 0.389066 0.500000
O O6 0.918110 0.317417 0.275477
O O7 0.862012 0.419217 0.263564
O O8 0.000000 0.408757 0.250000
O O9 0.241497 0.712881 0.216477
O O10 0.273916 0.606210 0.277857
O O11 0.277131 0.641536 0.000000
O O12 0.664234 0.186392 0.500000
O O13 0.733385 0.177524 0.754013
O O14 0.632395 0.106700 0.702882
O O15 0.863219 0.784706 0.752968
O O16 0.000000 0.772915 0.750000
O O17 0.930119 0.757504 0.000000
O O18 0.207690 0.786153 0.000000
O O19 0.234867 0.500000 0.750000
O O20 0.214781 0.553336 0.500000
O O21 0.500000 0.922058 0.250000
O O22 0.601801 0.000000 0.250000
O O23 0.559921 0.951714 0.000000
#
# Coordination Sequence:
#
# PCOD8202547 Si02
#       8
#     8   8   8   8   8   8   8   8
#     4  10  20  33  51  76 100 125 155 191 239 287
#     4   9  19  32  47  67  90 120 154 189 229 275
#     4   9  19  34  50  69  93 119 151 189 231 284
#     4  10  20  32  48  72 101 133 167 205 243 282
#     4  10  18  30  47  69  96 127 162 196 237 290
#     4  10  19  31  49  72  97 127 160 199 245 289
#     4  11  22  35  50  69  90 118 154 191 235 282
#     4  10  20  32  48  69  97 136 176 210 244 281
#
# _framework density 16.318460000000002
#
# number of rings (size 3 to 8) (size 9 to 14) (size 15 to 20)
#    0.000    2.125    1.250    3.750    0.000    7.250 
#    0.000    1.250    0.000    0.375    0.000    2.625 
#    0.000    0.500    0.000    5.250    0.000    2.875 
#
# Total GULP energy -793788.604095 kJ/mol
# GULP energy per Si atom -12402.946939 kJ/mol
# Density = 1.628132 g / cm^3
# Si number density = 16.318460 Si / 1000 Ang^3
#
#
#
# Elastic Constant Matrix: (Units=GPa)
#
#
# Indices 1 2 3 4 5 6 
#
# 1 122.9712 47.3947 57.2017 0.0000 0.0000 0.0000
# 2 47.3947 76.6256 45.9173 0.0000 0.0000 0.0000
# 3 57.2017 45.9173 98.4292 0.0000 0.0000 0.0000
# 4 0.0000 0.0000 0.0000 23.3646 0.0000 0.0000
# 5 0.0000 0.0000 0.0000 0.0000 32.8826 0.0000
# 6 0.0000 0.0000 0.0000 0.0000 0.0000 21.6816
#
#
#
# Elastic Compliance Matrix: (Units=1/GPa)
#
#
# Indices 1 2 3 4 5 6 
#
# 1 0.012201 -0.004577 -0.004955 0.000000 0.000000 0.000000
# 2 -0.004577 0.019831 -0.006591 0.000000 0.000000 0.000000
# 3 -0.004955 -0.006591 0.016114 0.000000 0.000000 0.000000
# 4 0.000000 0.000000 0.000000 0.042800 0.000000 0.000000
# 5 0.000000 0.000000 0.000000 0.000000 0.030411 0.000000
# 6 0.000000 0.000000 0.000000 0.000000 0.000000 0.046122
#
#
# Mechanical properties :
#
#
# Convention : Reuss Voigt Hill
#
# Bulk Modulus (GPa) = 62.89726 66.56147 64.72937
# Shear Modulus (GPa) = 24.38698 25.41990 24.90344
#
# Velocity S-wave (km/s) = 3.86999 3.95110 3.91076
# Velocity P-wave (km/s) = 7.65483 7.85446 7.75529
#
# Compressibility (1/GPa) = 0.01589894
#
# Stress axis : x y z
#
# Youngs Moduli (GPa) = 81.95933 50.42520 62.05693
#
# Poissons Ratio (x) = 0.23081 0.30752
# Poissons Ratio (y) = 0.37515 0.40904
# Poissons Ratio (z) = 0.40614 0.33237
#
# Static dielectric constant tensor:
#      x y z
#    x 3.140750 0.000000 0.000000 
#    y 0.000000 2.817900 0.000000 
#    z 0.000000 0.000000 3.163710 
# 
# 
# High freq. dielectric constant tensor:
#      x y z
#    x 1.626740 0.000000 0.000000 
#    y 0.000000 1.591230 0.000000 
#    z 0.000000 0.000000 1.644460 
# 
# From -- ./inp_files/5404.got.cif
#   From: 2010.03.12/outbox.cif.g09.slc.cpg/sg49_3_cif.got.tgz:5404.got - 2010.04.14 03:58:27.
