data_PCOD8202906
_publ_section_title
;
Structure prediction by ZEFSAII (Michael W. Deem and Ramdas Pophale) SiO2 
 PCOD8202906
Probable space group: P C C M
;
_chemical_formula_sum "Si O2"
_cell_formula_units_Z 56
_cell_length_a 30.275784
_cell_length_b 5.071322
_cell_length_c 18.732234
_cell_angle_alpha 90.000000
_cell_angle_beta 90.000000
_cell_angle_gamma 90.000000
_cell_volume 2876.114417
_symmetry_space_group_name_H-M "P C C M"
_symmetry_group_IT_number 49
_symmetry_cell_setting 'orthorhombic'
loop_
_space_group_symop_operation_xyz
x,y,z
-x,-y,z
x,-y,1/2-z
-x,y,1/2-z
-x,-y,-z
x,y,-z
-x,y,1/2+z
x,-y,1/2+z
loop_
_atom_site_type_symbol
_atom_site_label
_atom_site_fract_x
_atom_site_fract_y
_atom_site_fract_z
Si Si1 0.251003 0.423392 0.081358
Si Si2 0.396419 0.999589 0.665254
Si Si3 0.162303 0.511295 0.665876
Si Si4 0.450548 0.498054 0.334819
Si Si5 0.691858 0.086827 0.081336
Si Si6 0.028971 0.747140 0.078451
Si Si7 0.890847 0.980878 0.333637
O O1 0.208062 0.421252 0.129595
O O2 0.286391 0.640225 0.107943
O O3 0.271475 0.136325 0.088662
O O4 0.237442 0.488076 0.000000
O O5 0.425681 0.240835 0.637540
O O6 0.348432 0.012033 0.631547
O O7 0.390572 0.000000 0.750000
O O8 0.422223 0.743755 0.637447
O O9 0.169576 0.500000 0.750000
O O10 0.148010 0.218534 0.643662
O O11 0.124873 0.727045 0.641648
O O12 0.500000 0.500000 0.367126
O O13 0.453611 0.500000 0.250000
O O14 0.674927 0.112034 0.000000
O O15 0.066301 0.850448 0.131569
O O16 0.000000 0.500000 0.110015
O O17 0.047909 0.661259 0.000000
O O18 0.000000 0.000000 0.066175
O O19 0.900505 0.000000 0.250000
#
# Coordination Sequence:
#
# PCOD8202906 Si02
#       7
#     8   8   8   8   8   8   8
#     4  10  21  36  54  76 101 135 176 211 254 313
#     4  10  19  31  51  76  98 129 171 208 250 306
#     4  10  21  36  55  79 108 138 172 218 265 308
#     4   9  17  30  49  74 102 129 163 210 256 299
#     4  10  21  36  52  73 104 136 167 210 259 306
#     4  10  21  37  57  82 111 143 182 226 267 309
#     4  10  21  37  55  80 111 142 176 215 265 321
#
# _framework density 19.470714000000001
#
# number of rings (size 3 to 8) (size 9 to 14) (size 15 to 20)
#    0.000    2.143    0.000    3.000    0.000    4.286 
#    0.000    0.714    0.000    2.571    0.000    0.000 
#    0.000    0.000    0.000    0.000    0.000    0.000 
#
# Total GULP energy -694169.404579 kJ/mol
# GULP energy per Si atom -12395.882225 kJ/mol
# Density = 1.942640 g / cm^3
# Si number density = 19.470714 Si / 1000 Ang^3
#
#
#
# Elastic Constant Matrix: (Units=GPa)
#
#
# Indices 1 2 3 4 5 6 
#
# 1 109.7193 31.9424 43.3815 0.0000 0.0000 0.0000
# 2 31.9424 118.1593 28.1024 0.0000 0.0000 0.0000
# 3 43.3815 28.1024 39.2806 0.0000 0.0000 0.0000
# 4 0.0000 0.0000 0.0000 16.0043 0.0000 0.0000
# 5 0.0000 0.0000 0.0000 0.0000 67.4778 0.0000
# 6 0.0000 0.0000 0.0000 0.0000 0.0000 36.6239
#
#
#
# Elastic Compliance Matrix: (Units=1/GPa)
#
#
# Indices 1 2 3 4 5 6 
#
# 1 0.016181 -0.000150 -0.017763 0.000000 0.000000 0.000000
# 2 -0.000150 0.010200 -0.007132 0.000000 0.000000 0.000000
# 3 -0.017763 -0.007132 0.050178 0.000000 0.000000 0.000000
# 4 0.000000 0.000000 0.000000 0.062483 0.000000 0.000000
# 5 0.000000 0.000000 0.000000 0.000000 0.014820 0.000000
# 6 0.000000 0.000000 0.000000 0.000000 0.000000 0.027305
#
#
# Mechanical properties :
#
#
# Convention : Reuss Voigt Hill
#
# Bulk Modulus (GPa) = 37.77985 52.66797 45.22391
# Shear Modulus (GPa) = 20.82640 34.93673 27.88156
#
# Velocity S-wave (km/s) = 3.27406 4.24054 3.78825
# Velocity P-wave (km/s) = 5.80846 7.14736 6.51241
#
# Compressibility (1/GPa) = 0.02646913
#
# Stress axis : x y z
#
# Youngs Moduli (GPa) = 61.80044 98.04078 19.92892
#
# Poissons Ratio (x) = 0.01466 0.35401
# Poissons Ratio (y) = 0.00924 0.14213
# Poissons Ratio (z) = 1.09779 0.69924
#
# Static dielectric constant tensor:
#      x y z
#    x 3.348720 0.000000 0.000000 
#    y 0.000000 4.132390 0.000000 
#    z 0.000000 0.000000 3.346440 
# 
# 
# High freq. dielectric constant tensor:
#      x y z
#    x 1.759540 0.000000 0.000000 
#    y 0.000000 1.784050 0.000000 
#    z 0.000000 0.000000 1.729710 
# 
# From -- ./inp_files/14630.got.cif
#   From: 2010.03.12/outbox.cif.g09.slc.cpg/sg49_8_cif.got.tgz:14630.got - 2010.04.14 03:58:27.
