data_PCOD8202050
_publ_section_title
;
Structure prediction by ZEFSAII (Michael W. Deem and Ramdas Pophale) SiO2 
 PCOD8202050
Probable space group: P N N N
;
_chemical_formula_sum "Si O2"
_cell_formula_units_Z 64
_cell_length_a 11.072421
_cell_length_b 13.570206
_cell_length_c 18.955756
_cell_angle_alpha 90.000000
_cell_angle_beta 90.000000
_cell_angle_gamma 90.000000
_cell_volume 2848.197760
_symmetry_space_group_name_H-M "P N N N"
_symmetry_group_IT_number 48
_space_group.IT_coordinate_system_code '2'
_symmetry_cell_setting 'orthorhombic'
loop_
_space_group_symop_operation_xyz
x,y,z
1/2-x,1/2-y,z
x,1/2-y,1/2-z
1/2-x,y,1/2-z
-x,-y,-z
1/2+x,1/2+y,-z
-x,1/2+y,1/2+z
1/2+x,-y,1/2+z
loop_
_atom_site_type_symbol
_atom_site_label
_atom_site_fract_x
_atom_site_fract_y
_atom_site_fract_z
Si Si1 0.523209 0.188441 0.442589
Si Si2 0.266698 0.881973 0.473476
Si Si3 0.163895 0.079945 0.516900
Si Si4 0.967578 0.019895 0.883165
Si Si5 0.377365 0.190501 0.576666
Si Si6 0.137650 0.323020 0.130841
Si Si7 0.117225 0.501653 0.230325
Si Si8 0.033724 0.857774 0.391168
O O1 0.660981 0.190299 0.471538
O O2 0.432854 0.227911 0.502826
O O3 0.490081 0.263049 0.378858
O O4 0.479756 0.078945 0.427450
O O5 0.352921 0.919450 0.410846
O O6 0.156999 0.825559 0.433024
O O7 0.225197 0.973343 0.522089
O O8 0.231989 0.169246 0.564010
O O9 0.165683 0.105357 0.434433
O O10 0.032905 0.070293 0.552463
O O11 0.086805 0.081822 0.898744
O O12 0.961924 0.995602 0.800760
O O13 0.444702 0.266754 0.630985
O O14 0.250000 0.250000 0.144049
O O15 0.121027 0.391984 0.198449
O O16 0.250000 0.538624 0.250000
O O17 0.059319 0.581941 0.179125
#
# Coordination Sequence:
#
# PCOD8202050 Si02
#       8
#     8   8   8   8   8   8   8   8
#     4  11  21  39  69 101 132 173 227 288 345 407
#     4  11  21  40  68 100 140 174 218 290 358 391
#     4  12  20  43  69 102 137 169 230 295 344 403
#     4  11  22  42  65  91 139 189 229 263 345 422
#     4  11  22  41  69  97 133 179 224 288 347 400
#     4  12  22  39  70 105 138 172 230 287 341 408
#     4  12  26  44  61  98 147 183 222 275 339 416
#     4  12  25  39  68 107 136 175 229 291 345 403
#
# _framework density 22.47035
#
# number of rings (size 3 to 8) (size 9 to 14) (size 15 to 20)
#    0.000    0.500    7.500    2.250    0.000    4.250 
#    0.000    1.250    0.000    1.500    0.000    0.000 
#    0.000    0.000    0.000    0.000    0.000    0.000 
#
# Total GULP energy -793175.237650 kJ/mol
# GULP energy per Si atom -12393.363088 kJ/mol
# Density = 2.241921 g / cm^3
# Si number density = 22.470350 Si / 1000 Ang^3
#
#
#
# Elastic Constant Matrix: (Units=GPa)
#
#
# Indices 1 2 3 4 5 6 
#
# 1 120.6309 18.4676 32.2723 0.0000 0.0000 0.0000
# 2 18.4676 69.8147 16.9362 0.0000 0.0000 0.0000
# 3 32.2723 16.9362 83.0564 0.0000 0.0000 0.0000
# 4 0.0000 0.0000 0.0000 33.7851 0.0000 0.0000
# 5 0.0000 0.0000 0.0000 0.0000 24.4623 0.0000
# 6 0.0000 0.0000 0.0000 0.0000 0.0000 31.1172
#
#
#
# Elastic Compliance Matrix: (Units=1/GPa)
#
#
# Indices 1 2 3 4 5 6 
#
# 1 0.009437 -0.001690 -0.003322 0.000000 0.000000 0.000000
# 2 -0.001690 0.015372 -0.002478 0.000000 0.000000 0.000000
# 3 -0.003322 -0.002478 0.013836 0.000000 0.000000 0.000000
# 4 0.000000 0.000000 0.000000 0.029599 0.000000 0.000000
# 5 0.000000 0.000000 0.000000 0.000000 0.040879 0.000000
# 6 0.000000 0.000000 0.000000 0.000000 0.000000 0.032137
#
#
# Mechanical properties :
#
#
# Convention : Reuss Voigt Hill
#
# Bulk Modulus (GPa) = 42.25728 45.42825 43.84277
# Shear Modulus (GPa) = 30.46387 31.59466 31.02926
#
# Velocity S-wave (km/s) = 3.68603 3.75381 3.72007
# Velocity P-wave (km/s) = 6.07967 6.24892 6.16488
#
# Compressibility (1/GPa) = 0.02366456
#
# Stress axis : x y z
#
# Youngs Moduli (GPa) = 105.96203 65.05395 72.27457
#
# Poissons Ratio (x) = 0.10997 0.24011
# Poissons Ratio (y) = 0.17912 0.17907
# Poissons Ratio (z) = 0.35203 0.16118
#
# Static dielectric constant tensor:
#      x y z
#    x 4.310670 0.000000 0.000000 
#    y 0.000000 4.274580 0.000000 
#    z 0.000000 0.000000 3.806220 
# 
# 
# High freq. dielectric constant tensor:
#      x y z
#    x 1.892290 0.000000 0.000000 
#    y 0.000000 1.916570 0.000000 
#    z 0.000000 0.000000 1.844970 
# 
# From -- ./inp_files/31186.got.cif
#   From: 2010.06.25/outbox.cif.g09.slc.cpg/sg48_16_cif.got.tgz:31186.got - 2010.06.26 18:06:46.
