data_PCOD8202257
_publ_section_title
;
Structure prediction by ZEFSAII (Michael W. Deem and Ramdas Pophale) SiO2 
 PCOD8202257
Probable space group: P C C M
;
_chemical_formula_sum "Si O2"
_cell_formula_units_Z 48
_cell_length_a 13.684136
_cell_length_b 24.032289
_cell_length_c 8.738622
_cell_angle_alpha 90.000000
_cell_angle_beta 90.000000
_cell_angle_gamma 90.000000
_cell_volume 2873.792940
_symmetry_space_group_name_H-M "P C C M"
_symmetry_group_IT_number 49
_symmetry_cell_setting 'orthorhombic'
loop_
_space_group_symop_operation_xyz
x,y,z
-x,-y,z
x,-y,1/2-z
-x,y,1/2-z
-x,-y,-z
x,y,-z
-x,y,1/2+z
x,-y,1/2+z
loop_
_atom_site_type_symbol
_atom_site_label
_atom_site_fract_x
_atom_site_fract_y
_atom_site_fract_z
Si Si1 0.108488 0.444738 0.817693
Si Si2 0.106458 0.667033 0.818898
Si Si3 0.285444 0.057289 0.181102
Si Si4 0.219208 0.777447 0.178131
Si Si5 0.395936 0.166864 0.820535
Si Si6 0.105269 0.886788 0.179908
O O1 0.162158 0.500000 0.750000
O O2 0.157376 0.387782 0.756086
O O3 0.000000 0.443758 0.750000
O O4 0.108008 0.446726 0.000000
O O5 0.175240 0.718292 0.774266
O O6 0.000000 0.678491 0.750000
O O7 0.096382 0.659144 0.000000
O O8 0.358112 0.106408 0.235030
O O9 0.177897 0.068068 0.247806
O O10 0.327161 0.000000 0.250000
O O11 0.279268 0.053408 0.000000
O O12 0.319775 0.785865 0.268936
O O13 0.140998 0.824792 0.223192
O O14 0.243944 0.780416 0.000000
O O15 0.500000 0.180439 0.750000
O O16 0.406242 0.168784 0.000000
O O17 0.000000 0.896999 0.250000
O O18 0.101068 0.896278 0.000000
#
# Coordination Sequence:
#
# PCOD8202257 Si02
#       6
#     8   8   8   8   8   8
#     4  10  17  26  39  57  85 123 164 202 235 270
#     4  10  18  28  43  66  95 128 162 196 231 271
#     4  10  21  36  52  72  94 119 150 187 226 271
#     4   9  19  33  49  69  95 123 154 191 231 274
#     4  10  21  36  55  74  94 118 147 184 231 281
#     4  10  19  32  49  69  94 125 156 189 226 269
#
# _framework density 16.702666000000001
#
# number of rings (size 3 to 8) (size 9 to 14) (size 15 to 20)
#    0.000    2.167    0.000    5.500    0.000    4.667 
#    0.000    3.333    0.000    0.000    0.000    0.000 
#    0.000    0.667    0.000    7.000    0.000    3.000 
#
# Total GULP energy -595210.961124 kJ/mol
# GULP energy per Si atom -12400.228357 kJ/mol
# Density = 1.666465 g / cm^3
# Si number density = 16.702666 Si / 1000 Ang^3
#
#
#
# Elastic Constant Matrix: (Units=GPa)
#
#
# Indices 1 2 3 4 5 6 
#
# 1 83.8875 34.0317 32.3738 0.0000 0.0000 0.0000
# 2 34.0317 122.7129 45.6179 0.0000 0.0000 0.0000
# 3 32.3738 45.6179 88.5699 0.0000 0.0000 0.0000
# 4 0.0000 0.0000 0.0000 26.0658 0.0000 0.0000
# 5 0.0000 0.0000 0.0000 0.0000 21.7434 0.0000
# 6 0.0000 0.0000 0.0000 0.0000 0.0000 7.4216
#
#
#
# Elastic Compliance Matrix: (Units=1/GPa)
#
#
# Indices 1 2 3 4 5 6 
#
# 1 0.014489 -0.002535 -0.003990 0.000000 0.000000 0.000000
# 2 -0.002535 0.010522 -0.004493 0.000000 0.000000 0.000000
# 3 -0.003990 -0.004493 0.015063 0.000000 0.000000 0.000000
# 4 0.000000 0.000000 0.000000 0.038364 0.000000 0.000000
# 5 0.000000 0.000000 0.000000 0.000000 0.045991 0.000000
# 6 0.000000 0.000000 0.000000 0.000000 0.000000 0.134742
#
#
# Mechanical properties :
#
#
# Convention : Reuss Voigt Hill
#
# Bulk Modulus (GPa) = 55.43823 57.69077 56.56450
# Shear Modulus (GPa) = 17.40821 23.25596 20.33208
#
# Velocity S-wave (km/s) = 3.23188 3.73547 3.49276
# Velocity P-wave (km/s) = 6.86950 7.29519 7.08554
#
# Compressibility (1/GPa) = 0.01803809
#
# Stress axis : x y z
#
# Youngs Moduli (GPa) = 69.01768 95.03606 66.38683
#
# Poissons Ratio (x) = 0.24090 0.26491
# Poissons Ratio (y) = 0.17494 0.29828
# Poissons Ratio (z) = 0.27541 0.42700
#
# Static dielectric constant tensor:
#      x y z
#    x 2.859740 0.000000 0.000000 
#    y 0.000000 3.722040 0.000000 
#    z 0.000000 0.000000 3.220670 
# 
# 
# High freq. dielectric constant tensor:
#      x y z
#    x 1.602440 0.000000 0.000000 
#    y 0.000000 1.648960 0.000000 
#    z 0.000000 0.000000 1.661150 
# 
# From -- ./inp_files/2883.got.cif
#   From: 2010.03.12/outbox.cif.g09.slc.cpg/sg49_2_cif.got.tgz:2883.got - 2010.04.14 03:58:27.
