data_PCOD8202279
_publ_section_title
;
Structure prediction by ZEFSAII (Michael W. Deem and Ramdas Pophale) SiO2 
 PCOD8202279
Probable space group: P C C M
;
_chemical_formula_sum "Si O2"
_cell_formula_units_Z 64
_cell_length_a 26.778191
_cell_length_b 18.238828
_cell_length_c 8.667742
_cell_angle_alpha 90.000000
_cell_angle_beta 90.000000
_cell_angle_gamma 90.000000
_cell_volume 4233.349634
_symmetry_space_group_name_H-M "P C C M"
_symmetry_group_IT_number 49
_symmetry_cell_setting 'orthorhombic'
loop_
_space_group_symop_operation_xyz
x,y,z
-x,-y,z
x,-y,1/2-z
-x,y,1/2-z
-x,-y,-z
x,y,-z
-x,y,1/2+z
x,-y,1/2+z
loop_
_atom_site_type_symbol
_atom_site_label
_atom_site_fract_x
_atom_site_fract_y
_atom_site_fract_z
Si Si1 0.351454 0.421726 0.679418
Si Si2 0.151191 0.919380 0.182713
Si Si3 0.448363 0.335987 0.682802
Si Si4 0.049804 0.081555 0.816464
Si Si5 0.246013 0.154914 0.183337
Si Si6 0.601358 0.795599 0.827387
Si Si7 0.298493 0.297104 0.170049
Si Si8 0.342307 0.921563 0.817263
O O1 0.340006 0.500000 0.750000
O O2 0.354732 0.432008 0.500000
O O3 0.403849 0.388985 0.742518
O O4 0.305683 0.366604 0.718101
O O5 0.100875 0.882380 0.253463
O O6 0.195817 0.866276 0.229586
O O7 0.161331 0.000000 0.250000
O O8 0.146271 0.925344 0.000000
O O9 0.500000 0.367817 0.750000
O O10 0.450186 0.333936 0.500000
O O11 0.440840 0.253416 0.745279
O O12 0.000000 0.121999 0.750000
O O13 0.050065 0.000000 0.750000
O O14 0.048791 0.081733 0.000000
O O15 0.255658 0.240643 0.226404
O O16 0.290501 0.103548 0.241644
O O17 0.240992 0.144288 0.000000
O O18 0.651567 0.749665 0.835685
O O19 0.611858 0.868260 0.727813
O O20 0.583597 0.816773 0.000000
O O21 0.285790 0.327628 0.000000
O O22 0.356747 0.000000 0.750000
O O23 0.335857 0.924018 0.000000
#
# Coordination Sequence:
#
# PCOD8202279 Si02
#       8
#     8   8   8   8   8   8   8   8
#     4  10  20  32  48  68  91 114 140 168 198 234
#     4  11  20  29  40  57  81 110 144 185 227 265
#     4  10  20  33  49  69  89 113 139 167 200 239
#     4  10  17  27  40  54  73 101 139 182 225 268
#     4  10  19  31  44  61  84 111 140 174 215 257
#     4   9  17  31  48  65  84 108 136 168 202 243
#     4   8  16  30  47  63  83 109 137 166 201 243
#     4  11  20  30  44  63  85 109 137 171 209 251
#
# _framework density 15.118050999999999
#
# number of rings (size 3 to 8) (size 9 to 14) (size 15 to 20)
#    0.000    2.125    0.000    7.125    0.000    5.250 
#    0.000    1.250    0.000    0.375    0.000    2.625 
#    0.000    0.000    0.000    0.000    0.000    0.625 
#
# Total GULP energy -793380.083533 kJ/mol
# GULP energy per Si atom -12396.563805 kJ/mol
# Density = 1.508364 g / cm^3
# Si number density = 15.118051 Si / 1000 Ang^3
#
#
#
# Elastic Constant Matrix: (Units=GPa)
#
#
# Indices 1 2 3 4 5 6 
#
# 1 58.9700 29.4241 24.3290 0.0000 0.0000 0.0000
# 2 29.4241 81.2501 29.8364 0.0000 0.0000 0.0000
# 3 24.3290 29.8364 99.6869 0.0000 0.0000 0.0000
# 4 0.0000 0.0000 0.0000 21.5631 0.0000 0.0000
# 5 0.0000 0.0000 0.0000 0.0000 24.2717 0.0000
# 6 0.0000 0.0000 0.0000 0.0000 0.0000 11.9355
#
#
#
# Elastic Compliance Matrix: (Units=1/GPa)
#
#
# Indices 1 2 3 4 5 6 
#
# 1 0.021620 -0.006619 -0.003295 0.000000 0.000000 0.000000
# 2 -0.006619 0.015854 -0.003130 0.000000 0.000000 0.000000
# 3 -0.003295 -0.003130 0.011772 0.000000 0.000000 0.000000
# 4 0.000000 0.000000 0.000000 0.046376 0.000000 0.000000
# 5 0.000000 0.000000 0.000000 0.000000 0.041200 0.000000
# 6 0.000000 0.000000 0.000000 0.000000 0.000000 0.083784
#
#
# Mechanical properties :
#
#
# Convention : Reuss Voigt Hill
#
# Bulk Modulus (GPa) = 43.18193 45.23178 44.20685
# Shear Modulus (GPa) = 19.65299 21.97522 20.81410
#
# Velocity S-wave (km/s) = 3.60942 3.81671 3.71451
# Velocity P-wave (km/s) = 6.78201 7.02902 6.90662
#
# Compressibility (1/GPa) = 0.02315784
#
# Stress axis : x y z
#
# Youngs Moduli (GPa) = 46.25299 63.07506 84.94479
#
# Poissons Ratio (x) = 0.41753 0.27992
# Poissons Ratio (y) = 0.30617 0.26585
# Poissons Ratio (z) = 0.15242 0.19740
#
# Static dielectric constant tensor:
#      x y z
#    x 3.226210 0.000000 0.000000 
#    y 0.000000 2.854030 0.000000 
#    z 0.000000 0.000000 3.071590 
# 
# 
# High freq. dielectric constant tensor:
#      x y z
#    x 1.556910 0.000000 0.000000 
#    y 0.000000 1.545440 0.000000 
#    z 0.000000 0.000000 1.599690 
# 
# From -- ./inp_files/6800.got.cif
#   From: 2010.03.12/outbox.cif.g09.slc.cpg/sg49_4_cif.got.tgz:6800.got - 2010.04.14 03:58:27.
