data_PCOD8202267
_publ_section_title
;
Structure prediction by ZEFSAII (Michael W. Deem and Ramdas Pophale) SiO2 
 PCOD8202267
Probable space group: P C C M
;
_chemical_formula_sum "Si O2"
_cell_formula_units_Z 64
_cell_length_a 22.959653
_cell_length_b 19.305102
_cell_length_c 8.825022
_cell_angle_alpha 90.000000
_cell_angle_beta 90.000000
_cell_angle_gamma 90.000000
_cell_volume 3911.589011
_symmetry_space_group_name_H-M "P C C M"
_symmetry_group_IT_number 49
_symmetry_cell_setting 'orthorhombic'
loop_
_space_group_symop_operation_xyz
x,y,z
-x,-y,z
x,-y,1/2-z
-x,y,1/2-z
-x,-y,-z
x,y,-z
-x,y,1/2+z
x,-y,1/2+z
loop_
_atom_site_type_symbol
_atom_site_label
_atom_site_fract_x
_atom_site_fract_y
_atom_site_fract_z
Si Si1 0.133844 0.929032 0.820034
Si Si2 0.375028 0.427641 0.825227
Si Si3 0.561280 0.298359 0.822459
Si Si4 0.733175 0.655723 0.175154
Si Si5 0.766714 0.853301 0.821437
Si Si6 0.061125 0.203104 0.324961
Si Si7 0.670582 0.782906 0.324699
Si Si8 0.172320 0.279155 0.677740
O O1 0.199325 0.917078 0.756446
O O2 0.091322 0.867254 0.763430
O O3 0.108971 0.000000 0.750000
O O4 0.136342 0.933239 0.000000
O O5 0.391007 0.500000 0.750000
O O6 0.413274 0.367825 0.750723
O O7 0.305128 0.413913 0.807131
O O8 0.392619 0.430859 0.000000
O O9 0.500000 0.279070 0.750000
O O10 0.602316 0.231030 0.791146
O O11 0.554835 0.312345 0.000000
O O12 0.701778 0.712178 0.278070
O O13 0.799510 0.651151 0.245110
O O14 0.735625 0.679134 0.000000
O O15 0.698543 0.847567 0.769277
O O16 0.796984 0.783755 0.763710
O O17 0.770700 0.862063 0.000000
O O18 0.049097 0.192622 0.500000
O O19 0.103042 0.269898 0.295189
O O20 0.000000 0.218880 0.250000
O O21 0.681946 0.798116 0.500000
O O22 0.186353 0.276134 0.500000
#
# Coordination Sequence:
#
# PCOD8202267 Si02
#       8
#     8   8   8   8   8   8   8   8
#     4  10  20  33  45  61  85 114 148 182 215 253
#     4  10  20  32  45  62  86 114 148 182 214 253
#     4  10  20  32  46  63  86 116 149 182 217 252
#     4   9  16  26  42  63  82 104 135 174 215 256
#     4  10  17  26  43  64  83 107 137 173 216 257
#     4   9  19  31  43  60  84 114 147 180 212 248
#     4   9  16  27  43  62  83 108 136 172 216 258
#     4   9  16  27  42  61  83 107 136 173 215 257
#
# _framework density 16.361637999999999
#
# number of rings (size 3 to 8) (size 9 to 14) (size 15 to 20)
#    0.000    2.500    0.000    5.625    0.000    6.500 
#    0.000    2.500    0.000    0.000    0.000    0.000 
#    0.000    1.000    0.000   10.750    0.000    7.125 
#
# Total GULP energy -792855.927539 kJ/mol
# GULP energy per Si atom -12388.373868 kJ/mol
# Density = 1.632440 g / cm^3
# Si number density = 16.361638 Si / 1000 Ang^3
#
#
#
# Elastic Constant Matrix: (Units=GPa)
#
#
# Indices 1 2 3 4 5 6 
#
# 1 110.8994 21.8738 44.6432 0.0000 0.0000 0.0000
# 2 21.8738 7.0482 9.6713 0.0000 0.0000 0.0000
# 3 44.6432 9.6713 89.7467 0.0000 0.0000 0.0000
# 4 0.0000 0.0000 0.0000 20.5976 0.0000 0.0000
# 5 0.0000 0.0000 0.0000 0.0000 29.4202 0.0000
# 6 0.0000 0.0000 0.0000 0.0000 0.0000 17.5992
#
#
#
# Elastic Compliance Matrix: (Units=1/GPa)
#
#
# Indices 1 2 3 4 5 6 
#
# 1 0.024866 -0.070643 -0.004756 0.000000 0.000000 0.000000
# 2 -0.070643 0.367199 -0.004430 0.000000 0.000000 0.000000
# 3 -0.004756 -0.004430 0.013986 0.000000 0.000000 0.000000
# 4 0.000000 0.000000 0.000000 0.048549 0.000000 0.000000
# 5 0.000000 0.000000 0.000000 0.000000 0.033990 0.000000
# 6 0.000000 0.000000 0.000000 0.000000 0.000000 0.056821
#
#
# Mechanical properties :
#
#
# Convention : Reuss Voigt Hill
#
# Bulk Modulus (GPa) = 4.05858 40.00789 22.03324
# Shear Modulus (GPa) = 6.35163 22.29047 14.32105
#
# Velocity S-wave (km/s) = 1.97242 3.69502 2.96173
# Velocity P-wave (km/s) = 2.77005 6.53526 5.01910
#
# Compressibility (1/GPa) = 0.24639151
#
# Stress axis : x y z
#
# Youngs Moduli (GPa) = 40.21632 2.72332 71.50108
#
# Poissons Ratio (x) = 0.19238 0.34008
# Poissons Ratio (y) = 2.84101 0.31674
# Poissons Ratio (z) = 0.19128 0.01206
#
# Static dielectric constant tensor:
#      x y z
#    x 3.698850 0.000000 0.000000 
#    y 0.000000 3.012860 0.000000 
#    z 0.000000 0.000000 3.204950 
# 
# 
# High freq. dielectric constant tensor:
#      x y z
#    x 1.625100 0.000000 0.000000 
#    y 0.000000 1.575060 0.000000 
#    z 0.000000 0.000000 1.649000 
# 
# From -- ./inp_files/6639.got.cif
#   From: 2010.03.12/outbox.cif.g09.slc.cpg/sg49_4_cif.got.tgz:6639.got - 2010.04.14 03:58:27.
