data_PCOD8202990
_publ_section_title
;
Structure prediction by ZEFSAII (Michael W. Deem and Ramdas Pophale) SiO2 
 PCOD8202990
Probable space group: P C C M
;
_chemical_formula_sum "Si O2"
_cell_formula_units_Z 58
_cell_length_a 26.290228
_cell_length_b 14.411770
_cell_length_c 9.035218
_cell_angle_alpha 90.000000
_cell_angle_beta 90.000000
_cell_angle_gamma 90.000000
_cell_volume 3423.342176
_symmetry_space_group_name_H-M "P C C M"
_symmetry_group_IT_number 49
_symmetry_cell_setting 'orthorhombic'
loop_
_space_group_symop_operation_xyz
x,y,z
-x,-y,z
x,-y,1/2-z
-x,y,1/2-z
-x,-y,-z
x,y,-z
-x,y,1/2+z
x,-y,1/2+z
loop_
_atom_site_type_symbol
_atom_site_label
_atom_site_fract_x
_atom_site_fract_y
_atom_site_fract_z
Si Si1 0.162928 0.784611 0.170942
Si Si2 0.097912 0.914476 0.337138
Si Si3 0.314731 0.591085 0.326564
Si Si4 0.206996 0.590598 0.825636
Si Si5 0.448218 0.095680 0.826128
Si Si6 0.261142 0.099508 0.324959
Si Si7 0.349349 0.791461 0.669761
Si Si8 0.000000 0.000000 0.750000
O O1 0.112612 0.818749 0.257045
O O2 0.169774 0.676329 0.205655
O O3 0.212070 0.841703 0.225211
O O4 0.152798 0.802555 0.000000
O O5 0.120979 0.912289 0.500000
O O6 0.036697 0.931657 0.344727
O O7 0.124534 0.000000 0.250000
O O8 0.339932 0.500000 0.250000
O O9 0.306918 0.571628 0.500000
O O10 0.260651 0.610703 0.251036
O O11 0.349544 0.681103 0.298271
O O12 0.181758 0.500000 0.750000
O O13 0.215486 0.575633 0.000000
O O14 0.500000 0.131204 0.750000
O O15 0.405998 0.173508 0.797003
O O16 0.430326 0.000000 0.750000
O O17 0.457123 0.078441 0.000000
O O18 0.263557 0.086987 0.500000
O O19 0.310753 0.155342 0.275460
O O20 0.259500 0.000000 0.250000
O O21 0.333575 0.811521 0.500000
#
# Coordination Sequence:
#
# PCOD8202990 Si02
#       8
#     8   8   8   8   8   8   8   2
#     4  10  21  34  49  73 105 138 174 211 252 302
#     4  10  20  33  53  75 103 137 174 214 255 299
#     4  10  19  32  51  74 100 132 169 211 253 304
#     4  10  19  33  50  73 102 136 174 215 254 302
#     4  10  20  35  53  75  99 127 166 209 255 304
#     4  11  22  34  47  69 103 139 172 205 247 302
#     4  10  21  35  52  74 100 132 170 211 254 306
#     4   8  22  36  54  80 104 136 182 220 260 296
#
# _framework density 16.942506999999999
#
# number of rings (size 3 to 8) (size 9 to 14) (size 15 to 20)
#    0.414    1.517    1.379    4.345    0.000    6.069 
#    0.000    0.000    0.000    0.414    0.000    3.379 
#    0.000    3.310    0.000    0.000    0.000    0.000 
#
# Total GULP energy -718992.855500 kJ/mol
# GULP energy per Si atom -12396.428543 kJ/mol
# Density = 1.690394 g / cm^3
# Si number density = 16.942507 Si / 1000 Ang^3
#
#
#
# Elastic Constant Matrix: (Units=GPa)
#
#
# Indices 1 2 3 4 5 6 
#
# 1 78.9185 58.7203 42.5422 0.0000 0.0000 0.0000
# 2 58.7203 136.4495 65.0048 0.0000 0.0000 0.0000
# 3 42.5422 65.0048 106.7961 0.0000 0.0000 0.0000
# 4 0.0000 0.0000 0.0000 25.7481 0.0000 0.0000
# 5 0.0000 0.0000 0.0000 0.0000 19.1776 0.0000
# 6 0.0000 0.0000 0.0000 0.0000 0.0000 23.5339
#
#
#
# Elastic Compliance Matrix: (Units=1/GPa)
#
#
# Indices 1 2 3 4 5 6 
#
# 1 0.019666 -0.006663 -0.003778 0.000000 0.000000 0.000000
# 2 -0.006663 0.012579 -0.005003 0.000000 0.000000 0.000000
# 3 -0.003778 -0.005003 0.013914 0.000000 0.000000 0.000000
# 4 0.000000 0.000000 0.000000 0.038838 0.000000 0.000000
# 5 0.000000 0.000000 0.000000 0.000000 0.052144 0.000000
# 6 0.000000 0.000000 0.000000 0.000000 0.000000 0.042492
#
#
# Mechanical properties :
#
#
# Convention : Reuss Voigt Hill
#
# Bulk Modulus (GPa) = 65.48320 72.74430 69.11375
# Shear Modulus (GPa) = 23.18994 24.08504 23.63749
#
# Velocity S-wave (km/s) = 3.70367 3.77447 3.73924
# Velocity P-wave (km/s) = 7.55140 7.87557 7.71519
#
# Compressibility (1/GPa) = 0.01527109
#
# Stress axis : x y z
#
# Youngs Moduli (GPa) = 50.84982 79.49488 71.87201
#
# Poissons Ratio (x) = 0.52969 0.27154
# Poissons Ratio (y) = 0.33882 0.35955
# Poissons Ratio (z) = 0.19212 0.39768
#
# Static dielectric constant tensor:
#      x y z
#    x 2.918360 0.000000 0.000000 
#    y 0.000000 3.342480 0.000000 
#    z 0.000000 0.000000 3.264840 
# 
# 
# High freq. dielectric constant tensor:
#      x y z
#    x 1.621810 0.000000 0.000000 
#    y 0.000000 1.654170 0.000000 
#    z 0.000000 0.000000 1.668610 
# 
# From -- ./inp_files/6781.got.cif
#   From: 2010.03.12/outbox.cif.g09.slc.cpg/sg49_4_cif.got.tgz:6781.got - 2010.04.14 03:58:27.
