data_PCOD8202401
_publ_section_title
;
Structure prediction by ZEFSAII (Michael W. Deem and Ramdas Pophale) SiO2 
 PCOD8202401
Probable space group: P C C M
;
_chemical_formula_sum "Si O2"
_cell_formula_units_Z 48
_cell_length_a 30.884744
_cell_length_b 9.104122
_cell_length_c 8.487795
_cell_angle_alpha 90.000000
_cell_angle_beta 90.000000
_cell_angle_gamma 90.000000
_cell_volume 2386.585274
_symmetry_space_group_name_H-M "P C C M"
_symmetry_group_IT_number 49
_symmetry_cell_setting 'orthorhombic'
loop_
_space_group_symop_operation_xyz
x,y,z
-x,-y,z
x,-y,1/2-z
-x,y,1/2-z
-x,-y,-z
x,y,-z
-x,y,1/2+z
x,-y,1/2+z
loop_
_atom_site_type_symbol
_atom_site_label
_atom_site_fract_x
_atom_site_fract_y
_atom_site_fract_z
Si Si1 0.788289 0.838745 0.314938
Si Si2 0.708642 0.662722 0.814549
Si Si3 0.043512 0.664253 0.185580
Si Si4 0.629391 0.837251 0.685924
Si Si5 0.867753 0.337581 0.684805
Si Si6 0.454359 0.342029 0.316444
O O1 0.797237 0.842690 0.500000
O O2 0.746316 0.743348 0.279676
O O3 0.829281 0.770471 0.227905
O O4 0.779601 0.000000 0.250000
O O5 0.705509 0.500000 0.750000
O O6 0.663434 0.740340 0.780566
O O7 0.718765 0.664090 0.000000
O O8 0.043660 0.500000 0.250000
O O9 0.088162 0.736055 0.246401
O O10 0.000000 0.745534 0.250000
O O11 0.042443 0.665817 0.000000
O O12 0.639237 0.831041 0.500000
O O13 0.581947 0.776468 0.727408
O O14 0.632803 0.000000 0.750000
O O15 0.858257 0.500000 0.750000
O O16 0.872678 0.351564 0.500000
O O17 0.440846 0.500000 0.250000
O O18 0.500000 0.284774 0.250000
O O19 0.459600 0.361575 0.500000
#
# Coordination Sequence:
#
# PCOD8202401 Si02
#       6
#     8   8   8   8   8   8
#     4  12  25  43  63  87 118 154 193 238 290 348
#     4  12  25  43  66  92 120 154 194 241 290 346
#     4  10  17  28  47  76 111 149 190 239 292 344
#     4  11  24  41  61  89 122 160 199 243 295 352
#     4  11  21  36  57  85 117 153 195 242 291 346
#     4  10  21  37  60  87 118 155 200 247 297 349
#
# _framework density 20.112418999999999
#
# number of rings (size 3 to 8) (size 9 to 14) (size 15 to 20)
#    0.000    1.000    0.000   10.500    0.000    4.333 
#    0.000    1.667    0.000    0.500    0.000    3.500 
#    0.000    0.000    0.000    0.000    0.000    0.000 
#
# Total GULP energy -595343.286748 kJ/mol
# GULP energy per Si atom -12402.985141 kJ/mol
# Density = 2.006664 g / cm^3
# Si number density = 20.112419 Si / 1000 Ang^3
#
#
#
# Elastic Constant Matrix: (Units=GPa)
#
#
# Indices 1 2 3 4 5 6 
#
# 1 129.2642 52.5710 35.4087 0.0000 0.0000 0.0000
# 2 52.5710 111.9773 23.6695 0.0000 0.0000 0.0000
# 3 35.4087 23.6695 138.8830 0.0000 0.0000 0.0000
# 4 0.0000 0.0000 0.0000 23.1486 0.0000 0.0000
# 5 0.0000 0.0000 0.0000 0.0000 33.3477 0.0000
# 6 0.0000 0.0000 0.0000 0.0000 0.0000 121.2167
#
#
#
# Elastic Compliance Matrix: (Units=1/GPa)
#
#
# Indices 1 2 3 4 5 6 
#
# 1 0.009983 -0.004304 -0.001812 0.000000 0.000000 0.000000
# 2 -0.004304 0.011120 -0.000798 0.000000 0.000000 0.000000
# 3 -0.001812 -0.000798 0.007798 0.000000 0.000000 0.000000
# 4 0.000000 0.000000 0.000000 0.043199 0.000000 0.000000
# 5 0.000000 0.000000 0.000000 0.000000 0.029987 0.000000
# 6 0.000000 0.000000 0.000000 0.000000 0.000000 0.008250
#
#
# Mechanical properties :
#
#
# Convention : Reuss Voigt Hill
#
# Bulk Modulus (GPa) = 66.33945 67.04697 66.69321
# Shear Modulus (GPa) = 38.70352 53.44095 46.07224
#
# Velocity S-wave (km/s) = 4.39151 5.16031 4.79136
# Velocity P-wave (km/s) = 7.66614 8.30142 7.99010
#
# Compressibility (1/GPa) = 0.01507399
#
# Stress axis : x y z
#
# Youngs Moduli (GPa) = 100.17392 89.93191 128.23541
#
# Poissons Ratio (x) = 0.38704 0.23232
# Poissons Ratio (y) = 0.43112 0.10231
# Poissons Ratio (z) = 0.18148 0.07175
#
# Static dielectric constant tensor:
#      x y z
#    x 4.619570 0.000000 0.000000 
#    y 0.000000 3.388950 0.000000 
#    z 0.000000 0.000000 4.013450 
# 
# 
# High freq. dielectric constant tensor:
#      x y z
#    x 1.810810 0.000000 0.000000 
#    y 0.000000 1.763410 0.000000 
#    z 0.000000 0.000000 1.808930 
# 
# From -- ./inp_files/6870.got.cif
#   From: 2010.03.12/outbox.cif.g09.slc.cpg/sg49_4_cif.got.tgz:6870.got - 2010.04.14 03:58:27.
