data_PCOD8202799
_publ_section_title
;
Structure prediction by ZEFSAII (Michael W. Deem and Ramdas Pophale) SiO2 
 PCOD8202799
Probable space group: P C C M
;
_chemical_formula_sum "Si O2"
_cell_formula_units_Z 64
_cell_length_a 14.999883
_cell_length_b 24.541456
_cell_length_c 8.959434
_cell_angle_alpha 90.000000
_cell_angle_beta 90.000000
_cell_angle_gamma 90.000000
_cell_volume 3298.137604
_symmetry_space_group_name_H-M "P C C M"
_symmetry_group_IT_number 49
_symmetry_cell_setting 'orthorhombic'
loop_
_space_group_symop_operation_xyz
x,y,z
-x,-y,z
x,-y,1/2-z
-x,y,1/2-z
-x,-y,-z
x,y,-z
-x,y,1/2+z
x,-y,1/2+z
loop_
_atom_site_type_symbol
_atom_site_label
_atom_site_fract_x
_atom_site_fract_y
_atom_site_fract_z
Si Si1 0.719445 0.141408 0.826769
Si Si2 0.911353 0.180382 0.826413
Si Si3 0.585624 0.763480 0.670762
Si Si4 0.849415 0.297727 0.168748
Si Si5 0.269301 0.553284 0.324692
Si Si6 0.088061 0.584633 0.169629
Si Si7 0.591715 0.941589 0.821486
Si Si8 0.325436 0.670393 0.672856
O O1 0.822420 0.147636 0.776682
O O2 0.672469 0.199676 0.801614
O O3 0.673922 0.096973 0.721046
O O4 0.710923 0.123722 0.000000
O O5 0.902894 0.243955 0.782905
O O6 0.000000 0.155927 0.750000
O O7 0.925148 0.172748 0.000000
O O8 0.500000 0.790609 0.750000
O O9 0.561000 0.757948 0.500000
O O10 0.600252 0.702821 0.735157
O O11 0.914204 0.349597 0.173915
O O12 0.770905 0.306484 0.285471
O O13 0.810047 0.290013 0.000000
O O14 0.314615 0.500000 0.250000
O O15 0.259288 0.544794 0.500000
O O16 0.171923 0.560473 0.255548
O O17 0.330249 0.605990 0.288299
O O18 0.000000 0.562271 0.250000
O O19 0.090742 0.563466 0.000000
O O20 0.500000 0.918269 0.750000
O O21 0.611870 0.000000 0.750000
O O22 0.582227 0.945765 0.000000
O O23 0.342207 0.681174 0.500000
#
# Coordination Sequence:
#
# PCOD8202799 Si02
#       8
#     8   8   8   8   8   8   8   8
#     4  10  21  38  58  84 122 160 197 241 285 334
#     4  10  20  34  52  78 113 154 198 241 285 333
#     4  11  22  37  58  85 119 153 186 224 279 341
#     4   9  17  32  50  71 102 143 184 225 276 328
#     4  10  21  36  53  73  96 128 174 222 274 334
#     4  10  19  30  47  69  98 131 171 220 275 334
#     4  11  22  38  62  91 123 159 200 241 290 344
#     4  10  20  34  54  79 107 138 177 223 273 334
#
# _framework density 19.404890000000002
#
# number of rings (size 3 to 8) (size 9 to 14) (size 15 to 20)
#    0.000    1.875    1.250    3.750    0.000    5.250 
#    0.000    1.250    0.000    0.750    0.000    5.250 
#    0.000    0.000    0.000    0.000    0.000    0.000 
#
# Total GULP energy -793609.213373 kJ/mol
# GULP energy per Si atom -12400.143959 kJ/mol
# Density = 1.936072 g / cm^3
# Si number density = 19.404890 Si / 1000 Ang^3
#
#
#
# Elastic Constant Matrix: (Units=GPa)
#
#
# Indices 1 2 3 4 5 6 
#
# 1 102.1063 39.1634 48.2687 0.0000 0.0000 0.0000
# 2 39.1634 85.3515 51.0075 0.0000 0.0000 0.0000
# 3 48.2687 51.0075 114.7029 0.0000 0.0000 0.0000
# 4 0.0000 0.0000 0.0000 26.9183 0.0000 0.0000
# 5 0.0000 0.0000 0.0000 0.0000 33.3477 0.0000
# 6 0.0000 0.0000 0.0000 0.0000 0.0000 17.9328
#
#
#
# Elastic Compliance Matrix: (Units=1/GPa)
#
#
# Indices 1 2 3 4 5 6 
#
# 1 0.013022 -0.003677 -0.003844 0.000000 0.000000 0.000000
# 2 -0.003677 0.016995 -0.006010 0.000000 0.000000 0.000000
# 3 -0.003844 -0.006010 0.013009 0.000000 0.000000 0.000000
# 4 0.000000 0.000000 0.000000 0.037149 0.000000 0.000000
# 5 0.000000 0.000000 0.000000 0.000000 0.029987 0.000000
# 6 0.000000 0.000000 0.000000 0.000000 0.000000 0.055764
#
#
# Mechanical properties :
#
#
# Convention : Reuss Voigt Hill
#
# Bulk Modulus (GPa) = 62.65034 64.33778 63.49406
# Shear Modulus (GPa) = 25.21299 26.55450 25.88375
#
# Velocity S-wave (km/s) = 3.60851 3.70326 3.65619
# Velocity P-wave (km/s) = 7.05108 7.17725 7.11444
#
# Compressibility (1/GPa) = 0.01596160
#
# Stress axis : x y z
#
# Youngs Moduli (GPa) = 76.79570 58.83919 76.87214
#
# Poissons Ratio (x) = 0.21638 0.29552
# Poissons Ratio (y) = 0.28242 0.46202
# Poissons Ratio (z) = 0.29523 0.35364
#
# Static dielectric constant tensor:
#      x y z
#    x 3.371110 0.000000 0.000000 
#    y 0.000000 3.551640 0.000000 
#    z 0.000000 0.000000 3.566250 
# 
# 
# High freq. dielectric constant tensor:
#      x y z
#    x 1.736190 0.000000 0.000000 
#    y 0.000000 1.744160 0.000000 
#    z 0.000000 0.000000 1.761930 
# 
# From -- ./inp_files/4312.got.cif
#   From: 2010.03.12/outbox.cif.g09.slc.cpg/sg49_3_cif.got.tgz:4312.got - 2010.04.14 03:58:27.
