data_PCOD8202300
_publ_section_title
;
Structure prediction by ZEFSAII (Michael W. Deem and Ramdas Pophale) SiO2 
 PCOD8202300
Probable space group: P C C M
;
_chemical_formula_sum "Si O2"
_cell_formula_units_Z 64
_cell_length_a 30.912973
_cell_length_b 14.331946
_cell_length_c 8.653150
_cell_angle_alpha 90.000000
_cell_angle_beta 90.000000
_cell_angle_gamma 90.000000
_cell_volume 3833.718052
_symmetry_space_group_name_H-M "P C C M"
_symmetry_group_IT_number 49
_symmetry_cell_setting 'orthorhombic'
loop_
_space_group_symop_operation_xyz
x,y,z
-x,-y,z
x,-y,1/2-z
-x,y,1/2-z
-x,-y,-z
x,y,-z
-x,y,1/2+z
x,-y,1/2+z
loop_
_atom_site_type_symbol
_atom_site_label
_atom_site_fract_x
_atom_site_fract_y
_atom_site_fract_z
Si Si1 0.953291 0.598889 0.316742
Si Si2 0.123282 0.290765 0.183202
Si Si3 0.741483 0.095286 0.318277
Si Si4 0.369389 0.397605 0.316911
Si Si5 0.543188 0.396083 0.316510
Si Si6 0.713271 0.719979 0.681169
Si Si7 0.839409 0.904426 0.182125
Si Si8 0.796321 0.398750 0.183256
O O1 0.936874 0.500000 0.250000
O O2 0.955736 0.591832 0.500000
O O3 0.920978 0.680115 0.265270
O O4 0.000000 0.624612 0.250000
O O5 0.132680 0.184519 0.236044
O O6 0.161096 0.358441 0.238237
O O7 0.118560 0.299260 0.000000
O O8 0.740713 0.088977 0.500000
O O9 0.711946 0.180433 0.263830
O O10 0.790504 0.109288 0.255479
O O11 0.721824 0.000000 0.250000
O O12 0.361614 0.500000 0.250000
O O13 0.374104 0.404458 0.500000
O O14 0.412582 0.349051 0.245452
O O15 0.329002 0.335488 0.264732
O O16 0.543805 0.500000 0.250000
O O17 0.500000 0.344913 0.250000
O O18 0.541939 0.396262 0.500000
O O19 0.713166 0.736685 0.500000
O O20 0.755768 0.664057 0.733068
O O21 0.859623 0.000000 0.250000
O O22 0.839456 0.912727 0.000000
O O23 0.786937 0.500000 0.250000
O O24 0.802691 0.402983 0.000000
#
# Coordination Sequence:
#
# PCOD8202300 Si02
#       8
#     8   8   8   8   8   8   8   8
#     4  11  22  38  58  81 105 135 166 203 247 291
#     4  11  21  36  54  77 104 132 167 205 245 292
#     4  10  19  33  52  73  96 127 164 207 251 294
#     4  10  19  31  45  65  94 130 169 207 248 295
#     4  10  17  27  43  63  87 119 160 206 251 294
#     4  10  21  34  48  68  97 132 168 205 246 293
#     4   9  19  33  52  76 101 129 162 203 248 292
#     4  11  22  34  48  69  98 134 170 206 242 285
#
# _framework density 16.693977
#
# number of rings (size 3 to 8) (size 9 to 14) (size 15 to 20)
#    0.000    1.750    1.250    6.000    0.000    3.000 
#    0.000    0.000    0.000    0.375    0.000    2.625 
#    0.000    0.500    0.000    5.250    0.000    2.250 
#
# Total GULP energy -793676.913526 kJ/mol
# GULP energy per Si atom -12401.201774 kJ/mol
# Density = 1.665598 g / cm^3
# Si number density = 16.693977 Si / 1000 Ang^3
#
#
#
# Elastic Constant Matrix: (Units=GPa)
#
#
# Indices 1 2 3 4 5 6 
#
# 1 109.5687 53.1753 42.1189 0.0000 0.0000 0.0000
# 2 53.1753 112.3980 38.3397 0.0000 0.0000 0.0000
# 3 42.1189 38.3397 85.9104 0.0000 0.0000 0.0000
# 4 0.0000 0.0000 0.0000 27.9790 0.0000 0.0000
# 5 0.0000 0.0000 0.0000 0.0000 22.6463 0.0000
# 6 0.0000 0.0000 0.0000 0.0000 0.0000 9.6850
#
#
#
# Elastic Compliance Matrix: (Units=1/GPa)
#
#
# Indices 1 2 3 4 5 6 
#
# 1 0.013069 -0.004715 -0.004303 0.000000 0.000000 0.000000
# 2 -0.004715 0.012196 -0.003131 0.000000 0.000000 0.000000
# 3 -0.004303 -0.003131 0.015147 0.000000 0.000000 0.000000
# 4 0.000000 0.000000 0.000000 0.035741 0.000000 0.000000
# 5 0.000000 0.000000 0.000000 0.000000 0.044157 0.000000
# 6 0.000000 0.000000 0.000000 0.000000 0.000000 0.103252
#
#
# Mechanical properties :
#
#
# Convention : Reuss Voigt Hill
#
# Bulk Modulus (GPa) = 62.06027 63.90500 62.98263
# Shear Modulus (GPa) = 19.74474 23.67829 21.71152
#
# Velocity S-wave (km/s) = 3.44284 3.77022 3.61024
# Velocity P-wave (km/s) = 7.28424 7.57074 7.42887
#
# Compressibility (1/GPa) = 0.01611337
#
# Stress axis : x y z
#
# Youngs Moduli (GPa) = 76.51582 81.99622 66.01990
#
# Poissons Ratio (x) = 0.38663 0.28409
# Poissons Ratio (y) = 0.36079 0.20670
# Poissons Ratio (z) = 0.32926 0.25672
#
# Static dielectric constant tensor:
#      x y z
#    x 3.504430 0.000000 0.000000 
#    y 0.000000 3.072140 0.000000 
#    z 0.000000 0.000000 3.198490 
# 
# 
# High freq. dielectric constant tensor:
#      x y z
#    x 1.635970 0.000000 0.000000 
#    y 0.000000 1.621220 0.000000 
#    z 0.000000 0.000000 1.658840 
# 
# From -- ./inp_files/7050.got.cif
#   From: 2010.03.12/outbox.cif.g09.slc.cpg/sg49_4_cif.got.tgz:7050.got - 2010.04.14 03:58:27.
