data_PCOD8202325
_publ_section_title
;
Structure prediction by ZEFSAII (Michael W. Deem and Ramdas Pophale) SiO2 
 PCOD8202325
Probable space group: P C C M
;
_chemical_formula_sum "Si O2"
_cell_formula_units_Z 48
_cell_length_a 15.593932
_cell_length_b 19.723319
_cell_length_c 8.699709
_cell_angle_alpha 90.000000
_cell_angle_beta 90.000000
_cell_angle_gamma 90.000000
_cell_volume 2675.718128
_symmetry_space_group_name_H-M "P C C M"
_symmetry_group_IT_number 49
_symmetry_cell_setting 'orthorhombic'
loop_
_space_group_symop_operation_xyz
x,y,z
-x,-y,z
x,-y,1/2-z
-x,y,1/2-z
-x,-y,-z
x,y,-z
-x,y,1/2+z
x,-y,1/2+z
loop_
_atom_site_type_symbol
_atom_site_label
_atom_site_fract_x
_atom_site_fract_y
_atom_site_fract_z
Si Si1 0.909945 0.675150 0.180851
Si Si2 0.758229 0.573727 0.180967
Si Si3 0.908795 0.180681 0.182880
Si Si4 0.770418 0.926318 0.319627
Si Si5 0.417695 0.925930 0.820604
Si Si6 0.585459 0.424651 0.817278
O O1 0.838979 0.619879 0.222584
O O2 0.881532 0.745898 0.255562
O O3 0.000000 0.649711 0.250000
O O4 0.920593 0.685578 0.000000
O O5 0.776704 0.500000 0.250000
O O6 0.673801 0.609038 0.257174
O O7 0.743142 0.567147 0.000000
O O8 0.839663 0.126609 0.244538
O O9 0.000000 0.158154 0.250000
O O10 0.913163 0.182902 0.000000
O O11 0.780236 0.935348 0.500000
O O12 0.675870 0.895202 0.279677
O O13 0.786763 0.000000 0.250000
O O14 0.500000 0.884952 0.750000
O O15 0.417964 0.000000 0.750000
O O16 0.432046 0.930204 0.000000
O O17 0.587051 0.500000 0.750000
O O18 0.500000 0.387478 0.750000
O O19 0.581966 0.424701 0.000000
#
# Coordination Sequence:
#
# PCOD8202325 Si02
#       6
#     8   8   8   8   8   8
#     4  10  21  36  54  74  97 128 165 203 243 294
#     4  10  20  33  50  75 103 129 163 204 246 291
#     4  10  20  35  53  72  95 126 164 201 241 292
#     4   9  19  32  48  72 100 128 159 198 241 285
#     4   9  15  25  41  64  93 123 155 189 229 276
#     4  10  17  27  45  69  99 132 164 199 241 288
#
# _framework density 17.939108999999998
#
# number of rings (size 3 to 8) (size 9 to 14) (size 15 to 20)
#    0.000    2.333    0.000    6.500    0.000    5.333 
#    0.000    3.333    0.000    1.000    0.000    4.667 
#    0.000    0.000    0.000    0.000    0.000    0.000 
#
# Total GULP energy -594868.958961 kJ/mol
# GULP energy per Si atom -12393.103312 kJ/mol
# Density = 1.789828 g / cm^3
# Si number density = 17.939109 Si / 1000 Ang^3
#
#
#
# Elastic Constant Matrix: (Units=GPa)
#
#
# Indices 1 2 3 4 5 6 
#
# 1 187.0097 82.0305 73.9133 0.0000 0.0000 0.0000
# 2 82.0305 68.4986 37.9575 0.0000 0.0000 0.0000
# 3 73.9133 37.9575 108.2782 0.0000 0.0000 0.0000
# 4 0.0000 0.0000 0.0000 13.8918 0.0000 0.0000
# 5 0.0000 0.0000 0.0000 0.0000 43.9050 0.0000
# 6 0.0000 0.0000 0.0000 0.0000 0.0000 3.9981
#
#
#
# Elastic Compliance Matrix: (Units=1/GPa)
#
#
# Indices 1 2 3 4 5 6 
#
# 1 0.012580 -0.012791 -0.004103 0.000000 0.000000 0.000000
# 2 -0.012791 0.031125 -0.002179 0.000000 0.000000 0.000000
# 3 -0.004103 -0.002179 0.012800 0.000000 0.000000 0.000000
# 4 0.000000 0.000000 0.000000 0.071985 0.000000 0.000000
# 5 0.000000 0.000000 0.000000 0.000000 0.022776 0.000000
# 6 0.000000 0.000000 0.000000 0.000000 0.000000 0.250118
#
#
# Mechanical properties :
#
#
# Convention : Reuss Voigt Hill
#
# Bulk Modulus (GPa) = 54.47432 83.50991 68.99211
# Shear Modulus (GPa) = 11.21954 23.68467 17.45211
#
# Velocity S-wave (km/s) = 2.50356 3.63751 3.12244
# Velocity P-wave (km/s) = 6.22810 8.01841 7.17928
#
# Compressibility (1/GPa) = 0.01835727
#
# Stress axis : x y z
#
# Youngs Moduli (GPa) = 79.49198 32.12893 78.12236
#
# Poissons Ratio (x) = 0.41097 0.32056
# Poissons Ratio (y) = 1.01680 0.17025
# Poissons Ratio (z) = 0.32618 0.07002
#
# Static dielectric constant tensor:
#      x y z
#    x 4.680590 0.000000 0.000000 
#    y 0.000000 3.707570 0.000000 
#    z 0.000000 0.000000 3.428080 
# 
# 
# High freq. dielectric constant tensor:
#      x y z
#    x 1.722510 0.000000 0.000000 
#    y 0.000000 1.640540 0.000000 
#    z 0.000000 0.000000 1.710810 
# 
# From -- ./inp_files/3865.got.cif
#   From: 2010.03.12/outbox.cif.g09.slc.cpg/sg49_2_cif.got.tgz:3865.got - 2010.04.14 03:58:27.
