data_PCOD8202782
_publ_section_title
;
Structure prediction by ZEFSAII (Michael W. Deem and Ramdas Pophale) SiO2 
 PCOD8202782
Probable space group: P C C M
;
_chemical_formula_sum "Si O2"
_cell_formula_units_Z 48
_cell_length_a 13.647879
_cell_length_b 24.049364
_cell_length_c 8.771579
_cell_angle_alpha 90.000000
_cell_angle_beta 90.000000
_cell_angle_gamma 90.000000
_cell_volume 2879.032307
_symmetry_space_group_name_H-M "P C C M"
_symmetry_group_IT_number 49
_symmetry_cell_setting 'orthorhombic'
loop_
_space_group_symop_operation_xyz
x,y,z
-x,-y,z
x,-y,1/2-z
-x,y,1/2-z
-x,-y,-z
x,y,-z
-x,y,1/2+z
x,-y,1/2+z
loop_
_atom_site_type_symbol
_atom_site_label
_atom_site_fract_x
_atom_site_fract_y
_atom_site_fract_z
Si Si1 0.207395 0.057910 0.822470
Si Si2 0.607365 0.324396 0.321346
Si Si3 0.289768 0.777004 0.180991
Si Si4 0.398090 0.878280 0.319258
Si Si5 0.605800 0.447409 0.675713
Si Si6 0.104198 0.168827 0.181014
O O1 0.316838 0.076039 0.773243
O O2 0.131626 0.105736 0.771101
O O3 0.175867 0.000000 0.750000
O O4 0.202390 0.048978 0.000000
O O5 0.500000 0.318473 0.250000
O O6 0.600782 0.309333 0.500000
O O7 0.681789 0.284452 0.233811
O O8 0.652837 0.386480 0.297554
O O9 0.370692 0.819205 0.246597
O O10 0.182951 0.789349 0.248458
O O11 0.287378 0.781507 0.000000
O O12 0.500000 0.899578 0.250000
O O13 0.405032 0.870825 0.500000
O O14 0.665214 0.500000 0.750000
O O15 0.500000 0.445191 0.750000
O O16 0.594677 0.460606 0.500000
O O17 0.000000 0.184635 0.250000
O O18 0.104517 0.175918 0.000000
#
# Coordination Sequence:
#
# PCOD8202782 Si02
#       6
#     8   8   8   8   8   8
#     4   9  20  35  51  71  96 122 152 189 227 271
#     4  10  19  30  44  66  96 131 166 201 237 277
#     4  11  21  33  50  71  94 123 156 195 237 280
#     4  10  20  34  49  68  94 126 159 193 232 276
#     4   9  16  25  39  58  86 124 164 201 236 270
#     4  10  21  38  56  75  96 120 149 186 233 284
#
# _framework density 16.672269
#
# number of rings (size 3 to 8) (size 9 to 14) (size 15 to 20)
#    0.000    2.167    0.000    5.500    0.000    6.667 
#    0.000    3.333    0.000    0.000    0.000    0.000 
#    0.000    0.667    0.000    7.000    0.000    3.833 
#
# Total GULP energy -595062.010936 kJ/mol
# GULP energy per Si atom -12397.125228 kJ/mol
# Density = 1.663432 g / cm^3
# Si number density = 16.672269 Si / 1000 Ang^3
#
#
#
# Elastic Constant Matrix: (Units=GPa)
#
#
# Indices 1 2 3 4 5 6 
#
# 1 78.1848 28.5035 32.1563 0.0000 0.0000 0.0000
# 2 28.5035 108.0102 43.3990 0.0000 0.0000 0.0000
# 3 32.1563 43.3990 103.2225 0.0000 0.0000 0.0000
# 4 0.0000 0.0000 0.0000 31.2664 0.0000 0.0000
# 5 0.0000 0.0000 0.0000 0.0000 24.2508 0.0000
# 6 0.0000 0.0000 0.0000 0.0000 0.0000 12.7163
#
#
#
# Elastic Compliance Matrix: (Units=1/GPa)
#
#
# Indices 1 2 3 4 5 6 
#
# 1 0.015229 -0.002542 -0.003675 0.000000 0.000000 0.000000
# 2 -0.002542 0.011565 -0.004070 0.000000 0.000000 0.000000
# 3 -0.003675 -0.004070 0.012544 0.000000 0.000000 0.000000
# 4 0.000000 0.000000 0.000000 0.031983 0.000000 0.000000
# 5 0.000000 0.000000 0.000000 0.000000 0.041236 0.000000
# 6 0.000000 0.000000 0.000000 0.000000 0.000000 0.078639
#
#
# Mechanical properties :
#
#
# Convention : Reuss Voigt Hill
#
# Bulk Modulus (GPa) = 53.29926 55.28169 54.29047
# Shear Modulus (GPa) = 22.93318 26.00397 24.46857
#
# Velocity S-wave (km/s) = 3.71284 3.95361 3.83511
# Velocity P-wave (km/s) = 7.10059 7.35331 7.22806
#
# Compressibility (1/GPa) = 0.01876199
#
# Stress axis : x y z
#
# Youngs Moduli (GPa) = 65.66620 86.47000 79.71871
#
# Poissons Ratio (x) = 0.21981 0.29299
# Poissons Ratio (y) = 0.16692 0.32449
# Poissons Ratio (z) = 0.24134 0.35197
#
# Static dielectric constant tensor:
#      x y z
#    x 2.868290 0.000000 0.000000 
#    y 0.000000 3.726580 0.000000 
#    z 0.000000 0.000000 3.252830 
# 
# 
# High freq. dielectric constant tensor:
#      x y z
#    x 1.604110 0.000000 0.000000 
#    y 0.000000 1.644880 0.000000 
#    z 0.000000 0.000000 1.661440 
# 
# From -- ./inp_files/2880.got.cif
#   From: 2010.03.12/outbox.cif.g09.slc.cpg/sg49_2_cif.got.tgz:2880.got - 2010.04.14 03:58:27.
