data_PCOD8202915
_publ_section_title
;
Structure prediction by ZEFSAII (Michael W. Deem and Ramdas Pophale) SiO2 
 PCOD8202915
Probable space group: P C C M
;
_chemical_formula_sum "Si O2"
_cell_formula_units_Z 58
_cell_length_a 18.344858
_cell_length_b 17.604490
_cell_length_c 9.301008
_cell_angle_alpha 90.000000
_cell_angle_beta 90.000000
_cell_angle_gamma 90.000000
_cell_volume 3003.777919
_symmetry_space_group_name_H-M "P C C M"
_symmetry_group_IT_number 49
_symmetry_cell_setting 'orthorhombic'
loop_
_space_group_symop_operation_xyz
x,y,z
-x,-y,z
x,-y,1/2-z
-x,y,1/2-z
-x,-y,-z
x,y,-z
-x,y,1/2+z
x,-y,1/2+z
loop_
_atom_site_type_symbol
_atom_site_label
_atom_site_fract_x
_atom_site_fract_y
_atom_site_fract_z
Si Si1 0.750645 0.928394 0.344017
Si Si2 0.594399 0.860940 0.652843
Si Si3 0.670352 0.421149 0.168750
Si Si4 0.355989 0.727952 0.331223
Si Si5 0.500000 0.000000 0.750000
Si Si6 0.929371 0.697890 0.163358
Si Si7 0.159915 0.424621 0.333503
Si Si8 0.795350 0.195345 0.342648
O O1 0.781039 0.952169 0.500000
O O2 0.678277 0.880202 0.356794
O O3 0.808260 0.873902 0.266521
O O4 0.732633 0.000000 0.250000
O O5 0.569875 0.824989 0.500000
O O6 0.588352 0.795569 0.776146
O O7 0.551048 0.940602 0.665982
O O8 0.650195 0.500000 0.250000
O O9 0.628288 0.350721 0.245280
O O10 0.755711 0.403171 0.184804
O O11 0.648328 0.427346 0.000000
O O12 0.371017 0.715257 0.500000
O O13 0.271650 0.749323 0.300040
O O14 0.892764 0.634164 0.258984
O O15 0.872633 0.765415 0.154159
O O16 0.000000 0.726294 0.250000
O O17 0.948267 0.670726 0.000000
O O18 0.141716 0.500000 0.250000
O O19 0.139004 0.432948 0.500000
O O20 0.776269 0.161986 0.500000
#
# Coordination Sequence:
#
# PCOD8202915 Si02
#       8
#     8   8   8   8   2   8   8   8
#     4  10  19  33  54  80 107 136 176 219 262 313
#     4  10  22  36  54  81 115 155 192 226 263 314
#     4  10  19  31  52  80 111 143 182 232 286 336
#     4  10  19  34  55  79 109 145 188 231 278 326
#     4  12  22  40  60  86 124 164 194 222 258 308
#     4  11  22  36  52  72  99 133 175 221 272 333
#     4  10  20  33  50  72 100 136 176 221 272 327
#     4   9  19  34  52  73 101 135 172 221 271 322
#
# _framework density 19.309016
#
# number of rings (size 3 to 8) (size 9 to 14) (size 15 to 20)
#    0.000    1.931    2.069    2.276    0.000    4.690 
#    0.000    1.379    0.000    0.414    0.000    3.379 
#    0.000    3.310    0.000    0.000    0.000    0.000 
#
# Total GULP energy -718533.872826 kJ/mol
# GULP energy per Si atom -12388.515049 kJ/mol
# Density = 1.926507 g / cm^3
# Si number density = 19.309016 Si / 1000 Ang^3
#
#
#
# Elastic Constant Matrix: (Units=GPa)
#
#
# Indices 1 2 3 4 5 6 
#
# 1 33.4744 27.0366 21.1385 0.0000 0.0000 0.0000
# 2 27.0366 84.5259 71.8202 0.0000 0.0000 0.0000
# 3 21.1385 71.8202 170.5605 0.0000 0.0000 0.0000
# 4 0.0000 0.0000 0.0000 59.1586 0.0000 0.0000
# 5 0.0000 0.0000 0.0000 0.0000 -216.7640 0.0000
# 6 0.0000 0.0000 0.0000 0.0000 0.0000 21.8929
#
#
#
# Elastic Compliance Matrix: (Units=1/GPa)
#
#
# Indices 1 2 3 4 5 6 
#
# 1 0.040330 -0.013474 0.000675 0.000000 0.000000 0.000000
# 2 -0.013474 0.022923 -0.007983 0.000000 0.000000 0.000000
# 3 0.000675 -0.007983 0.009141 0.000000 0.000000 0.000000
# 4 0.000000 0.000000 0.000000 0.016904 0.000000 0.000000
# 5 0.000000 0.000000 0.000000 0.000000 -0.004613 0.000000
# 6 0.000000 0.000000 0.000000 0.000000 0.000000 0.045677
#
#
# Mechanical properties :
#
#
# Convention : Reuss Voigt Hill
#
# Bulk Modulus (GPa) = 32.43459 58.72794 45.58127
# Shear Modulus (GPa) = 27.44236 -15.90478 5.76879
#
# Velocity S-wave (km/s) = 3.77400 -2.87313 1.73035
# Velocity P-wave (km/s) = 5.98539 4.41297 5.25829
#
# Compressibility (1/GPa) = 0.03083128
#
# Stress axis : x y z
#
# Youngs Moduli (GPa) = 24.79568 43.62396 109.40062
#
# Poissons Ratio (x) = 0.58778 -0.07388
# Poissons Ratio (y) = 0.33409 0.87331
# Poissons Ratio (z) = -0.01674 0.34824
#
# Static dielectric constant tensor:
#      x y z
#    x 3.264280 0.000000 0.000000 
#    y 0.000000 3.365720 0.000000 
#    z 0.000000 0.000000 4.116910 
# 
# 
# High freq. dielectric constant tensor:
#      x y z
#    x 1.711580 0.000000 0.000000 
#    y 0.000000 1.747550 0.000000 
#    z 0.000000 0.000000 1.772980 
# 
# From -- ./inp_files/5100.got.cif
#   From: 2010.03.12/outbox.cif.g09.slc.cpg/sg49_3_cif.got.tgz:5100.got - 2010.04.14 03:58:27.
