data_PCOD8202469
_publ_section_title
;
Structure prediction by ZEFSAII (Michael W. Deem and Ramdas Pophale) SiO2 
 PCOD8202469
Probable space group: P C C M
;
_chemical_formula_sum "Si O2"
_cell_formula_units_Z 64
_cell_length_a 21.439296
_cell_length_b 18.406334
_cell_length_c 8.794497
_cell_angle_alpha 90.000000
_cell_angle_beta 90.000000
_cell_angle_gamma 90.000000
_cell_volume 3470.474230
_symmetry_space_group_name_H-M "P C C M"
_symmetry_group_IT_number 49
_symmetry_cell_setting 'orthorhombic'
loop_
_space_group_symop_operation_xyz
x,y,z
-x,-y,z
x,-y,1/2-z
-x,y,1/2-z
-x,-y,-z
x,y,-z
-x,y,1/2+z
x,-y,1/2+z
loop_
_atom_site_type_symbol
_atom_site_label
_atom_site_fract_x
_atom_site_fract_y
_atom_site_fract_z
Si Si1 0.931947 0.924062 0.182125
Si Si2 0.435243 0.627344 0.323026
Si Si3 0.613666 0.784831 0.173761
Si Si4 0.689581 0.574966 0.680893
Si Si5 0.161786 0.813861 0.172356
Si Si6 0.399359 0.927507 0.178418
Si Si7 0.256803 0.716231 0.681042
Si Si8 0.739149 0.064873 0.833379
O O1 0.891873 0.854486 0.233511
O O2 0.000000 0.911032 0.250000
O O3 0.905024 0.000000 0.250000
O O4 0.933724 0.929151 0.000000
O O5 0.500000 0.602032 0.250000
O O6 0.432356 0.605879 0.500000
O O7 0.427502 0.713412 0.300918
O O8 0.381268 0.585128 0.235074
O O9 0.576711 0.849199 0.263336
O O10 0.684897 0.767945 0.230270
O O11 0.615899 0.808901 0.000000
O O12 0.715506 0.500000 0.750000
O O13 0.692723 0.574097 0.500000
O O14 0.734135 0.637798 0.744775
O O15 0.188780 0.743730 0.259823
O O16 0.222263 0.863049 0.166717
O O17 0.138852 0.795873 0.000000
O O18 0.328329 0.923590 0.242024
O O19 0.431757 0.000000 0.250000
O O20 0.408523 0.931326 0.000000
O O21 0.255331 0.708608 0.500000
O O22 0.776466 0.000000 0.750000
O O23 0.726237 0.035274 0.000000
#
# Coordination Sequence:
#
# PCOD8202469 Si02
#       8
#     8   8   8   8   8   8   8   8
#     4  11  22  37  53  72 100 142 191 239 284 328
#     4  10  21  37  56  81 106 134 172 212 254 305
#     4   9  18  32  49  69  98 129 162 206 256 307
#     4  11  22  38  59  82 111 144 173 208 253 308
#     4  11  20  32  49  73 102 135 176 222 267 315
#     4  10  18  28  42  63  90 122 159 199 248 302
#     4  10  20  34  52  77 106 137 172 211 257 314
#     4   9  18  27  38  60  90 123 160 201 247 299
#
# _framework density 18.441285000000001
#
# number of rings (size 3 to 8) (size 9 to 14) (size 15 to 20)
#    0.000    1.875    1.250    5.250    0.000    5.250 
#    0.000    1.250    0.000    0.375    0.000    2.625 
#    0.000    0.500    0.000    5.000    0.000    3.000 
#
# Total GULP energy -793208.924888 kJ/mol
# GULP energy per Si atom -12393.889451 kJ/mol
# Density = 1.839931 g / cm^3
# Si number density = 18.441285 Si / 1000 Ang^3
#
#
#
# Elastic Constant Matrix: (Units=GPa)
#
#
# Indices 1 2 3 4 5 6 
#
# 1 61.6844 21.9338 30.3213 0.0000 0.0000 0.0000
# 2 21.9338 111.2974 53.1362 0.0000 0.0000 0.0000
# 3 30.3213 53.1362 131.1919 0.0000 0.0000 0.0000
# 4 0.0000 0.0000 0.0000 32.7143 0.0000 0.0000
# 5 0.0000 0.0000 0.0000 0.0000 -54.8727 0.0000
# 6 0.0000 0.0000 0.0000 0.0000 0.0000 13.4227
#
#
#
# Elastic Compliance Matrix: (Units=1/GPa)
#
#
# Indices 1 2 3 4 5 6 
#
# 1 0.018643 -0.002005 -0.003497 0.000000 0.000000 0.000000
# 2 -0.002005 0.011354 -0.004136 0.000000 0.000000 0.000000
# 3 -0.003497 -0.004136 0.010106 0.000000 0.000000 0.000000
# 4 0.000000 0.000000 0.000000 0.030568 0.000000 0.000000
# 5 0.000000 0.000000 0.000000 0.000000 -0.018224 0.000000
# 6 0.000000 0.000000 0.000000 0.000000 0.000000 0.074501
#
#
# Mechanical properties :
#
#
# Convention : Reuss Voigt Hill
#
# Bulk Modulus (GPa) = 48.00952 57.21738 52.61345
# Shear Modulus (GPa) = 32.64453 11.50501 22.07477
#
# Velocity S-wave (km/s) = 4.21192 2.50045 3.46357
# Velocity P-wave (km/s) = 7.05294 6.27937 6.67737
#
# Compressibility (1/GPa) = 0.02082920
#
# Stress axis : x y z
#
# Youngs Moduli (GPa) = 53.63856 88.07174 98.95462
#
# Poissons Ratio (x) = 0.17655 0.34604
# Poissons Ratio (y) = 0.10752 0.40923
# Poissons Ratio (z) = 0.18757 0.36422
#
# Static dielectric constant tensor:
#      x y z
#    x 3.102230 0.000000 0.000000 
#    y 0.000000 3.437890 0.000000 
#    z 0.000000 0.000000 3.533880 
# 
# 
# High freq. dielectric constant tensor:
#      x y z
#    x 1.676650 0.000000 0.000000 
#    y 0.000000 1.707240 0.000000 
#    z 0.000000 0.000000 1.729800 
# 
# From -- ./inp_files/5972.got.cif
#   From: 2010.03.12/outbox.cif.g09.slc.cpg/sg49_3_cif.got.tgz:5972.got - 2010.04.14 03:58:27.
