data_PCOD8202342
_publ_section_title
;
Structure prediction by ZEFSAII (Michael W. Deem and Ramdas Pophale) SiO2 
 PCOD8202342
Probable space group: P C C M
;
_chemical_formula_sum "Si O2"
_cell_formula_units_Z 48
_cell_length_a 31.364996
_cell_length_b 9.175452
_cell_length_c 8.742607
_cell_angle_alpha 90.000000
_cell_angle_beta 90.000000
_cell_angle_gamma 90.000000
_cell_volume 2516.017517
_symmetry_space_group_name_H-M "P C C M"
_symmetry_group_IT_number 49
_symmetry_cell_setting 'orthorhombic'
loop_
_space_group_symop_operation_xyz
x,y,z
-x,-y,z
x,-y,1/2-z
-x,y,1/2-z
-x,-y,-z
x,y,-z
-x,y,1/2+z
x,-y,1/2+z
loop_
_atom_site_type_symbol
_atom_site_label
_atom_site_fract_x
_atom_site_fract_y
_atom_site_fract_z
Si Si1 0.042231 0.661685 0.818256
Si Si2 0.127212 0.656406 0.678078
Si Si3 0.540912 0.159063 0.821238
Si Si4 0.634342 0.158053 0.820738
Si Si5 0.210799 0.842406 0.321702
Si Si6 0.286153 0.341476 0.318942
O O1 0.043328 0.500000 0.750000
O O2 0.086261 0.733783 0.759339
O O3 0.000000 0.741939 0.750000
O O4 0.039943 0.661199 0.000000
O O5 0.138092 0.500000 0.750000
O O6 0.117180 0.634227 0.500000
O O7 0.166676 0.760886 0.707316
O O8 0.500000 0.246562 0.750000
O O9 0.587454 0.226388 0.781325
O O10 0.541129 0.000000 0.750000
O O11 0.533633 0.149083 0.000000
O O12 0.669595 0.270719 0.759636
O O13 0.641928 0.000000 0.750000
O O14 0.639128 0.134874 0.000000
O O15 0.222060 0.853115 0.500000
O O16 0.247789 0.757878 0.235789
O O17 0.206396 0.000000 0.250000
O O18 0.281143 0.500000 0.250000
O O19 0.285021 0.353976 0.500000
#
# Coordination Sequence:
#
# PCOD8202342 Si02
#       6
#     8   8   8   8   8   8
#     4  10  17  27  46  73 106 141 177 218 262 307
#     4  10  20  34  53  79 109 141 178 219 264 312
#     4   9  15  25  42  68 100 132 168 209 255 303
#     4   9  19  33  51  76 106 138 173 216 262 312
#     4  11  24  40  59  82 109 141 177 220 268 320
#     4  11  23  39  58  80 107 139 177 220 267 320
#
# _framework density 19.077767999999999
#
# number of rings (size 3 to 8) (size 9 to 14) (size 15 to 20)
#    0.000    2.000    0.000    6.500    0.000    7.333 
#    0.000    0.000    0.000    1.000    0.000    7.000 
#    0.000    0.000    0.000    0.000    0.000    0.000 
#
# Total GULP energy -594934.897057 kJ/mol
# GULP energy per Si atom -12394.477022 kJ/mol
# Density = 1.903435 g / cm^3
# Si number density = 19.077768 Si / 1000 Ang^3
#
#
#
# Elastic Constant Matrix: (Units=GPa)
#
#
# Indices 1 2 3 4 5 6 
#
# 1 166.9361 51.8774 72.8669 0.0000 0.0000 0.0000
# 2 51.8774 80.9312 37.5735 0.0000 0.0000 0.0000
# 3 72.8669 37.5735 116.5768 0.0000 0.0000 0.0000
# 4 0.0000 0.0000 0.0000 22.7643 0.0000 0.0000
# 5 0.0000 0.0000 0.0000 0.0000 32.6393 0.0000
# 6 0.0000 0.0000 0.0000 0.0000 0.0000 18.1964
#
#
#
# Elastic Compliance Matrix: (Units=1/GPa)
#
#
# Indices 1 2 3 4 5 6 
#
# 1 0.009118 -0.003761 -0.004487 0.000000 0.000000 0.000000
# 2 -0.003761 0.016082 -0.002832 0.000000 0.000000 0.000000
# 3 -0.004487 -0.002832 0.012295 0.000000 0.000000 0.000000
# 4 0.000000 0.000000 0.000000 0.043928 0.000000 0.000000
# 5 0.000000 0.000000 0.000000 0.000000 0.030638 0.000000
# 6 0.000000 0.000000 0.000000 0.000000 0.000000 0.054956
#
#
# Mechanical properties :
#
#
# Convention : Reuss Voigt Hill
#
# Bulk Modulus (GPa) = 65.21320 76.56443 70.88882
# Shear Modulus (GPa) = 25.73478 28.19511 26.96494
#
# Velocity S-wave (km/s) = 3.67678 3.84852 3.76363
# Velocity P-wave (km/s) = 7.23063 7.74391 7.49166
#
# Compressibility (1/GPa) = 0.01533432
#
# Stress axis : x y z
#
# Youngs Moduli (GPa) = 109.67733 62.18047 81.33168
#
# Poissons Ratio (x) = 0.23389 0.36491
# Poissons Ratio (y) = 0.41255 0.23036
# Poissons Ratio (z) = 0.49209 0.17611
#
# Static dielectric constant tensor:
#      x y z
#    x 4.843590 0.000000 0.000000 
#    y 0.000000 3.098190 0.000000 
#    z 0.000000 0.000000 3.643770 
# 
# 
# High freq. dielectric constant tensor:
#      x y z
#    x 1.777590 0.000000 0.000000 
#    y 0.000000 1.688900 0.000000 
#    z 0.000000 0.000000 1.757290 
# 
# From -- ./inp_files/6864.got.cif
#   From: 2010.03.12/outbox.cif.g09.slc.cpg/sg49_4_cif.got.tgz:6864.got - 2010.04.14 03:58:27.
