data_PCOD8202253
_publ_section_title
;
Structure prediction by ZEFSAII (Michael W. Deem and Ramdas Pophale) SiO2 
 PCOD8202253
Probable space group: P C C M
;
_chemical_formula_sum "Si O2"
_cell_formula_units_Z 48
_cell_length_a 24.262694
_cell_length_b 13.747449
_cell_length_c 8.748007
_cell_angle_alpha 90.000000
_cell_angle_beta 90.000000
_cell_angle_gamma 90.000000
_cell_volume 2917.899033
_symmetry_space_group_name_H-M "P C C M"
_symmetry_group_IT_number 49
_symmetry_cell_setting 'orthorhombic'
loop_
_space_group_symop_operation_xyz
x,y,z
-x,-y,z
x,-y,1/2-z
-x,y,1/2-z
-x,-y,-z
x,y,-z
-x,y,1/2+z
x,-y,1/2+z
loop_
_atom_site_type_symbol
_atom_site_label
_atom_site_fract_x
_atom_site_fract_y
_atom_site_fract_z
Si Si1 0.166873 0.897862 0.180691
Si Si2 0.884375 0.398264 0.180464
Si Si3 0.334300 0.393202 0.317502
Si Si4 0.942481 0.205279 0.820000
Si Si5 0.445203 0.391967 0.182492
Si Si6 0.223361 0.705998 0.181198
O O1 0.105461 0.868083 0.235921
O O2 0.209940 0.815361 0.238491
O O3 0.185147 0.000000 0.250000
O O4 0.168554 0.905880 0.000000
O O5 0.903591 0.500000 0.250000
O O6 0.927419 0.315003 0.232366
O O7 0.823484 0.368493 0.241724
O O8 0.883795 0.408240 0.000000
O O9 0.325065 0.500000 0.250000
O O10 0.339507 0.399305 0.500000
O O11 0.389149 0.342660 0.245715
O O12 0.283339 0.327059 0.261670
O O13 0.000000 0.171078 0.750000
O O14 0.947452 0.200773 0.000000
O O15 0.444432 0.500000 0.250000
O O16 0.500000 0.338678 0.250000
O O17 0.446633 0.392489 0.000000
O O18 0.220696 0.704730 0.000000
#
# Coordination Sequence:
#
# PCOD8202253 Si02
#       6
#     8   8   8   8   8   8
#     4   9  18  34  51  67  85 109 137 172 216 262
#     4   9  17  30  45  62  84 114 144 174 208 248
#     4  10  17  26  41  62  87 118 149 179 212 249
#     4   9  19  33  47  63  87 112 139 172 211 255
#     4  10  17  26  38  55  82 117 154 188 215 245
#     4   8  16  30  46  62  86 114 141 172 213 259
#
# _framework density 16.450192000000001
#
# number of rings (size 3 to 8) (size 9 to 14) (size 15 to 20)
#    0.000    2.833    0.000    6.000    0.000    2.000 
#    0.000    8.333    0.000    0.000    0.000    0.000 
#    0.000    0.667    0.000    7.667    0.000    2.333 
#
# Total GULP energy -594871.307486 kJ/mol
# GULP energy per Si atom -12393.152239 kJ/mol
# Density = 1.641275 g / cm^3
# Si number density = 16.450192 Si / 1000 Ang^3
#
#
#
# Elastic Constant Matrix: (Units=GPa)
#
#
# Indices 1 2 3 4 5 6 
#
# 1 131.2044 32.7860 33.0015 0.0000 0.0000 0.0000
# 2 32.7860 79.4661 16.5077 0.0000 0.0000 0.0000
# 3 33.0015 16.5077 56.0226 0.0000 0.0000 0.0000
# 4 0.0000 0.0000 0.0000 21.8827 0.0000 0.0000
# 5 0.0000 0.0000 0.0000 0.0000 277.6569 0.0000
# 6 0.0000 0.0000 0.0000 0.0000 0.0000 14.9680
#
#
#
# Elastic Compliance Matrix: (Units=1/GPa)
#
#
# Indices 1 2 3 4 5 6 
#
# 1 0.009557 -0.002954 -0.004759 0.000000 0.000000 0.000000
# 2 -0.002954 0.014318 -0.002479 0.000000 0.000000 0.000000
# 3 -0.004759 -0.002479 0.021384 0.000000 0.000000 0.000000
# 4 0.000000 0.000000 0.000000 0.045698 0.000000 0.000000
# 5 0.000000 0.000000 0.000000 0.000000 0.003602 0.000000
# 6 0.000000 0.000000 0.000000 0.000000 0.000000 0.066809
#
#
# Mechanical properties :
#
#
# Convention : Reuss Voigt Hill
#
# Bulk Modulus (GPa) = 40.20219 47.92038 44.06128
# Shear Modulus (GPa) = 26.30977 75.19471 50.75224
#
# Velocity S-wave (km/s) = 4.00354 6.76829 5.56049
# Velocity P-wave (km/s) = 6.77221 9.50124 8.25035
#
# Compressibility (1/GPa) = 0.02487427
#
# Stress axis : x y z
#
# Youngs Moduli (GPa) = 104.63497 69.84328 46.76436
#
# Poissons Ratio (x) = 0.20634 0.22256
# Poissons Ratio (y) = 0.30913 0.11591
# Poissons Ratio (z) = 0.49798 0.17311
#
# Static dielectric constant tensor:
#      x y z
#    x 3.961410 0.000000 0.000000 
#    y 0.000000 3.063730 0.000000 
#    z 0.000000 0.000000 2.901470 
# 
# 
# High freq. dielectric constant tensor:
#      x y z
#    x 1.639680 0.000000 0.000000 
#    y 0.000000 1.595060 0.000000 
#    z 0.000000 0.000000 1.623740 
# 
# From -- ./inp_files/4160.got.cif
#   From: 2010.03.12/outbox.cif.g09.slc.cpg/sg49_3_cif.got.tgz:4160.got - 2010.04.14 03:58:27.
