data_PCOD8202435
_publ_section_title
;
Structure prediction by ZEFSAII (Michael W. Deem and Ramdas Pophale) SiO2 
 PCOD8202435
Probable space group: P C C M
;
_chemical_formula_sum "Si O2"
_cell_formula_units_Z 40
_cell_length_a 8.676233
_cell_length_b 23.107775
_cell_length_c 9.922267
_cell_angle_alpha 90.000000
_cell_angle_beta 90.000000
_cell_angle_gamma 90.000000
_cell_volume 1989.299832
_symmetry_space_group_name_H-M "P C C M"
_symmetry_group_IT_number 49
_symmetry_cell_setting 'orthorhombic'
loop_
_space_group_symop_operation_xyz
x,y,z
-x,-y,z
x,-y,1/2-z
-x,y,1/2-z
-x,-y,-z
x,y,-z
-x,y,1/2+z
x,-y,1/2+z
loop_
_atom_site_type_symbol
_atom_site_label
_atom_site_fract_x
_atom_site_fract_y
_atom_site_fract_z
Si Si1 0.340340 0.949056 0.334575
Si Si2 0.184998 0.624558 0.500000
Si Si3 0.662822 0.253251 0.500000
Si Si4 0.317080 0.824936 0.737320
Si Si5 0.675776 0.568618 0.252673
Si Si6 0.298578 0.762986 0.000000
Si Si7 0.175962 0.633714 0.000000
O O1 0.500000 0.945380 0.250000
O O2 0.358498 0.959896 0.500000
O O3 0.254061 0.887967 0.309794
O O4 0.249785 0.000000 0.250000
O O5 0.290043 0.680889 0.500000
O O6 0.226711 0.586393 0.374117
O O7 0.006383 0.638097 0.500000
O O8 0.734946 0.222433 0.629414
O O9 0.480060 0.247163 0.500000
O O10 0.500000 0.828005 0.750000
O O11 0.242855 0.802327 0.875365
O O12 0.678508 0.500000 0.250000
O O13 0.500000 0.591440 0.250000
O O14 0.761191 0.597877 0.375733
O O15 0.225168 0.700128 0.000000
#
# Coordination Sequence:
#
# PCOD8202435 Si02
#       7
#     8   4   4   8   8   4   4
#     4  10  18  26  41  67 106 149 188 236 300 363
#     4  12  25  39  64  90 125 161 193 260 309 360
#     4  10  18  35  52  76 104 149 193 236 293 344
#     4   9  18  29  47  71 101 141 193 237 288 350
#     4  11  24  43  66  91 121 161 205 246 296 367
#     4  10  20  33  54  74 108 149 193 246 283 360
#     4  12  25  41  60  94 125 155 205 250 315 364
#
# _framework density 20.107576000000002
#
# number of rings (size 3 to 8) (size 9 to 14) (size 15 to 20)
#    0.000    1.600    1.000    5.400    5.600    5.600 
#    0.000    0.000    0.000    0.000    0.000    0.000 
#    0.000    4.800    0.000    0.000    0.000    0.000 
#
# Total GULP energy -495528.313136 kJ/mol
# GULP energy per Si atom -12388.207828 kJ/mol
# Density = 2.006181 g / cm^3
# Si number density = 20.107576 Si / 1000 Ang^3
#
#
#
# Elastic Constant Matrix: (Units=GPa)
#
#
# Indices 1 2 3 4 5 6 
#
# 1 33.0337 15.2225 26.5397 0.0000 0.0000 0.0000
# 2 15.2225 124.2616 60.6830 0.0000 0.0000 0.0000
# 3 26.5397 60.6830 196.1333 0.0000 0.0000 0.0000
# 4 0.0000 0.0000 0.0000 53.6674 0.0000 0.0000
# 5 0.0000 0.0000 0.0000 0.0000 19.8345 0.0000
# 6 0.0000 0.0000 0.0000 0.0000 0.0000 -6.4018
#
#
#
# Elastic Compliance Matrix: (Units=1/GPa)
#
#
# Indices 1 2 3 4 5 6 
#
# 1 0.034511 -0.002294 -0.003960 0.000000 0.000000 0.000000
# 2 -0.002294 0.009632 -0.002670 0.000000 0.000000 0.000000
# 3 -0.003960 -0.002670 0.006460 0.000000 0.000000 0.000000
# 4 0.000000 0.000000 0.000000 0.018633 0.000000 0.000000
# 5 0.000000 0.000000 0.000000 0.000000 0.050417 0.000000
# 6 0.000000 0.000000 0.000000 0.000000 0.000000 -0.156205
#
#
# Mechanical properties :
#
#
# Convention : Reuss Voigt Hill
#
# Bulk Modulus (GPa) = 30.52867 62.03543 46.28205
# Shear Modulus (GPa) = -642.25910 30.15224 -306.05343
#
# Velocity S-wave (km/s) = -17.89148 3.87660 -12.35065
# Velocity P-wave (km/s) = 20.28770 7.13835 13.42823
#
# Compressibility (1/GPa) = 0.03275610
#
# Stress axis : x y z
#
# Youngs Moduli (GPa) = 28.97650 103.81694 154.78734
#
# Poissons Ratio (x) = 0.23813 0.61298
# Poissons Ratio (y) = 0.06646 0.41326
# Poissons Ratio (z) = 0.11475 0.27717
#
# Static dielectric constant tensor:
#      x y z
#    x 3.254160 0.000000 0.000000 
#    y 0.000000 4.304520 0.000000 
#    z 0.000000 0.000000 4.131100 
# 
# 
# High freq. dielectric constant tensor:
#      x y z
#    x 1.726760 0.000000 0.000000 
#    y 0.000000 1.813610 0.000000 
#    z 0.000000 0.000000 1.809830 
# 
# From -- ./inp_files/1808.got.cif
#   From: 2010.03.12/outbox.cif.g09.slc.cpg/sg49_1_cif.got.tgz:1808.got - 2010.04.14 03:58:27.
