data_PCOD8202487
_publ_section_title
;
Structure prediction by ZEFSAII (Michael W. Deem and Ramdas Pophale) SiO2 
 PCOD8202487
Probable space group: P C C M
;
_chemical_formula_sum "Si O2"
_cell_formula_units_Z 64
_cell_length_a 8.827030
_cell_length_b 24.337869
_cell_length_c 14.819581
_cell_angle_alpha 90.000000
_cell_angle_beta 90.000000
_cell_angle_gamma 90.000000
_cell_volume 3183.706885
_symmetry_space_group_name_H-M "P C C M"
_symmetry_group_IT_number 49
_symmetry_cell_setting 'orthorhombic'
loop_
_space_group_symop_operation_xyz
x,y,z
-x,-y,z
x,-y,1/2-z
-x,y,1/2-z
-x,-y,-z
x,y,-z
-x,y,1/2+z
x,-y,1/2+z
loop_
_atom_site_type_symbol
_atom_site_label
_atom_site_fract_x
_atom_site_fract_y
_atom_site_fract_z
Si Si1 0.677568 0.611696 0.105276
Si Si2 0.679207 0.807043 0.250000
Si Si3 0.164091 0.104484 0.149748
Si Si4 0.820208 0.311940 0.250000
Si Si5 0.835909 0.895516 0.350252
Si Si6 0.677568 0.388304 0.894724
Si Si7 0.170244 0.500000 0.106893
Si Si8 0.331498 1.000000 0.858265
O O1 0.757727 0.659999 0.159664
O O2 0.500000 0.612745 0.124845
O O3 0.742161 0.553785 0.141320
O O4 0.713768 0.620540 0.000000
O O5 0.500000 0.798410 0.250000
O O6 0.731163 0.840538 0.159296
O O7 0.765515 0.750113 0.250000
O O8 0.731163 0.840538 0.340704
O O9 0.130607 0.082551 0.250000
O O10 0.000000 0.117399 0.103072
O O11 0.250164 0.054425 0.100583
O O12 0.757727 0.340001 0.159664
O O13 0.000000 0.314474 0.250000
O O14 0.749836 0.945575 0.399417
O O15 0.742161 0.446215 0.858680
O O16 0.713768 0.379460 0.000000
O O17 0.000000 0.500000 0.146406
O O18 0.167426 0.500000 0.000000
O O19 0.500000 0.000000 0.897707
O O20 0.338631 0.000000 0.750000
#
# Coordination Sequence:
#
# PCOD8202487 Si02
#       8
#     8   8   8   8   8   8   8   8
#     4  10  21  38  59  82 108 138 173 214 259 307
#     4  10  18  29  42  59  86 122 164 206 250 300
#     4   8  14  22  33  50  76 111 151 196 247 297
#     4  12  24  37  54  77 106 140 178 216 258 310
#     4   8  14  22  33  50  76 111 151 196 247 297
#     4  10  21  38  59  82 108 138 173 214 259 307
#     4   9  17  32  55  82 110 137 167 208 259 310
#     4   9  13  17  29  49  72 106 150 192 242 298
#
# _framework density 20.102353000000001
#
# number of rings (size 3 to 8) (size 9 to 14) (size 15 to 20)
#    0.750    1.750    0.000    4.125    0.000    5.000 
#    0.000    2.500    0.000    0.000    0.000    0.000 
#    0.000    0.000    0.000    4.500    0.000   83.000 
#
# Total GULP energy -792907.821437 kJ/mol
# GULP energy per Si atom -12389.184710 kJ/mol
# Density = 2.005660 g / cm^3
# Si number density = 20.102353 Si / 1000 Ang^3
#
#
#
# Elastic Constant Matrix: (Units=GPa)
#
#
# Indices 1 2 3 4 5 6 
#
# 1 171.8547 62.5950 32.4659 0.0000 0.0000 0.0000
# 2 62.5950 163.9100 34.6847 0.0000 0.0000 0.0000
# 3 32.4659 34.6847 48.1652 0.0000 0.0000 0.0000
# 4 0.0000 0.0000 0.0000 -188.6016 0.0000 0.0000
# 5 0.0000 0.0000 0.0000 0.0000 10.5482 0.0000
# 6 0.0000 0.0000 0.0000 0.0000 0.0000 44.7831
#
#
#
# Elastic Compliance Matrix: (Units=1/GPa)
#
#
# Indices 1 2 3 4 5 6 
#
# 1 0.007199 -0.002032 -0.003389 0.000000 0.000000 0.000000
# 2 -0.002032 0.007771 -0.004227 0.000000 0.000000 0.000000
# 3 -0.003389 -0.004227 0.026090 0.000000 0.000000 0.000000
# 4 0.000000 0.000000 0.000000 -0.005302 0.000000 0.000000
# 5 0.000000 0.000000 0.000000 0.000000 0.094803 0.000000
# 6 0.000000 0.000000 0.000000 0.000000 0.000000 0.022330
#
#
# Mechanical properties :
#
#
# Convention : Reuss Voigt Hill
#
# Bulk Modulus (GPa) = 45.94590 71.49122 58.71856
# Shear Modulus (GPa) = 27.86414 -9.70843 9.07786
#
# Velocity S-wave (km/s) = 3.72709 -2.20000 2.12735
# Velocity P-wave (km/s) = 6.43640 5.40255 5.94200
#
# Compressibility (1/GPa) = 0.02176473
#
# Stress axis : x y z
#
# Youngs Moduli (GPa) = 138.90181 128.67851 38.32876
#
# Poissons Ratio (x) = 0.26149 0.12991
# Poissons Ratio (y) = 0.28226 0.16200
# Poissons Ratio (z) = 0.47079 0.54386
#
# Static dielectric constant tensor:
#      x y z
#    x 3.931100 0.000000 0.000000 
#    y 0.000000 3.622050 0.000000 
#    z 0.000000 0.000000 3.093630 
# 
# 
# High freq. dielectric constant tensor:
#      x y z
#    x 1.806930 0.000000 0.000000 
#    y 0.000000 1.782470 0.000000 
#    z 0.000000 0.000000 1.734900 
# 
# From -- ./inp_files/12112.got.cif
#   From: 2010.03.12/outbox.cif.g09.slc.cpg/sg49_7_cif.got.tgz:12112.got - 2010.04.14 03:58:27.
