data_PCOD8202824
_publ_section_title
;
Structure prediction by ZEFSAII (Michael W. Deem and Ramdas Pophale) SiO2 
 PCOD8202824
Probable space group: P C C M
;
_chemical_formula_sum "Si O2"
_cell_formula_units_Z 64
_cell_length_a 31.659858
_cell_length_b 14.330281
_cell_length_c 8.828270
_cell_angle_alpha 90.000000
_cell_angle_beta 90.000000
_cell_angle_gamma 90.000000
_cell_volume 4005.338970
_symmetry_space_group_name_H-M "P C C M"
_symmetry_group_IT_number 49
_symmetry_cell_setting 'orthorhombic'
loop_
_space_group_symop_operation_xyz
x,y,z
-x,-y,z
x,-y,1/2-z
-x,y,1/2-z
-x,-y,-z
x,y,-z
-x,y,1/2+z
x,-y,1/2+z
loop_
_atom_site_type_symbol
_atom_site_label
_atom_site_fract_x
_atom_site_fract_y
_atom_site_fract_z
Si Si1 0.796407 0.218764 0.179662
Si Si2 0.076405 0.403145 0.822010
Si Si3 0.876894 0.100919 0.178665
Si Si4 0.630629 0.901289 0.174830
Si Si5 0.174370 0.596653 0.322380
Si Si6 0.722515 0.897577 0.821182
Si Si7 0.043001 0.219506 0.320223
Si Si8 0.540578 0.102443 0.678162
O O1 0.836822 0.159923 0.235695
O O2 0.798331 0.321855 0.247989
O O3 0.754470 0.171573 0.241369
O O4 0.794873 0.225334 0.000000
O O5 0.061013 0.500000 0.750000
O O6 0.125396 0.385899 0.783830
O O7 0.049415 0.322627 0.744548
O O8 0.067639 0.404550 0.000000
O O9 0.919191 0.152608 0.234042
O O10 0.874632 0.000000 0.250000
O O11 0.876286 0.090057 0.000000
O O12 0.675650 0.852477 0.211935
O O13 0.586316 0.848141 0.218225
O O14 0.631697 0.000000 0.250000
O O15 0.628509 0.923904 0.000000
O O16 0.189867 0.500000 0.250000
O O17 0.182817 0.593501 0.500000
O O18 0.727366 0.000000 0.750000
O O19 0.731887 0.904295 0.000000
O O20 0.039952 0.224274 0.500000
O O21 0.000000 0.177810 0.250000
O O22 0.500000 0.157034 0.750000
O O23 0.533335 0.096083 0.500000
O O24 0.541874 0.000000 0.750000
#
# Coordination Sequence:
#
# PCOD8202824 Si02
#       8
#     8   8   8   8   8   8   8   8
#     4  11  21  35  53  75  99 125 155 191 230 274
#     4  10  20  35  57  82 105 130 153 182 220 266
#     4  10  23  39  56  74  97 124 154 191 229 267
#     4   8  15  25  36  50  75 108 145 188 235 279
#     4  10  20  34  55  80 103 127 152 183 222 269
#     4  10  19  31  45  65  91 123 160 199 240 282
#     4  11  23  40  57  77 101 127 156 190 226 270
#     4   9  14  20  30  46  67  97 137 185 233 277
#
# _framework density 15.978673000000001
#
# number of rings (size 3 to 8) (size 9 to 14) (size 15 to 20)
#    0.000    2.125    1.250    3.000    0.000    5.500 
#    0.000    2.500    0.000    0.000    0.000    0.000 
#    0.000    0.000    0.000    0.000    0.000    0.625 
#
# Total GULP energy -793165.072153 kJ/mol
# GULP energy per Si atom -12393.204252 kJ/mol
# Density = 1.594231 g / cm^3
# Si number density = 15.978673 Si / 1000 Ang^3
#
#
#
# Elastic Constant Matrix: (Units=GPa)
#
#
# Indices 1 2 3 4 5 6 
#
# 1 142.2294 50.3837 46.3550 0.0000 0.0000 0.0000
# 2 50.3837 82.0049 30.8077 0.0000 0.0000 0.0000
# 3 46.3550 30.8077 66.5865 0.0000 0.0000 0.0000
# 4 0.0000 0.0000 0.0000 25.4429 0.0000 0.0000
# 5 0.0000 0.0000 0.0000 0.0000 24.5459 0.0000
# 6 0.0000 0.0000 0.0000 0.0000 0.0000 9.1259
#
#
#
# Elastic Compliance Matrix: (Units=1/GPa)
#
#
# Indices 1 2 3 4 5 6 
#
# 1 0.010246 -0.004376 -0.005108 0.000000 0.000000 0.000000
# 2 -0.004376 0.016629 -0.004647 0.000000 0.000000 0.000000
# 3 -0.005108 -0.004647 0.020724 0.000000 0.000000 0.000000
# 4 0.000000 0.000000 0.000000 0.039304 0.000000 0.000000
# 5 0.000000 0.000000 0.000000 0.000000 0.040740 0.000000
# 6 0.000000 0.000000 0.000000 0.000000 0.000000 0.109578
#
#
# Mechanical properties :
#
#
# Convention : Reuss Voigt Hill
#
# Bulk Modulus (GPa) = 51.71645 60.65707 56.18676
# Shear Modulus (GPa) = 18.38713 22.70790 20.54752
#
# Velocity S-wave (km/s) = 3.39592 3.77389 3.58988
# Velocity P-wave (km/s) = 6.91466 7.55204 7.24037
#
# Compressibility (1/GPa) = 0.01933621
#
# Stress axis : x y z
#
# Youngs Moduli (GPa) = 97.59991 60.13613 48.25243
#
# Poissons Ratio (x) = 0.26316 0.24648
# Poissons Ratio (y) = 0.42710 0.22424
# Poissons Ratio (z) = 0.49856 0.27947
#
# Static dielectric constant tensor:
#      x y z
#    x 3.759310 0.000000 0.000000 
#    y 0.000000 2.744580 0.000000 
#    z 0.000000 0.000000 3.117500 
# 
# 
# High freq. dielectric constant tensor:
#      x y z
#    x 1.621880 0.000000 0.000000 
#    y 0.000000 1.567820 0.000000 
#    z 0.000000 0.000000 1.630590 
# 
# From -- ./inp_files/7042.got.cif
#   From: 2010.03.12/outbox.cif.g09.slc.cpg/sg49_4_cif.got.tgz:7042.got - 2010.04.14 03:58:27.
