data_PCOD8202322
_publ_section_title
;
Structure prediction by ZEFSAII (Michael W. Deem and Ramdas Pophale) SiO2 
 PCOD8202322
Probable space group: P C C M
;
_chemical_formula_sum "Si O2"
_cell_formula_units_Z 48
_cell_length_a 31.226562
_cell_length_b 9.690861
_cell_length_c 8.637801
_cell_angle_alpha 90.000000
_cell_angle_beta 90.000000
_cell_angle_gamma 90.000000
_cell_volume 2613.904584
_symmetry_space_group_name_H-M "P C C M"
_symmetry_group_IT_number 49
_symmetry_cell_setting 'orthorhombic'
loop_
_space_group_symop_operation_xyz
x,y,z
-x,-y,z
x,-y,1/2-z
-x,y,1/2-z
-x,-y,-z
x,y,-z
-x,y,1/2+z
x,-y,1/2+z
loop_
_atom_site_type_symbol
_atom_site_label
_atom_site_fract_x
_atom_site_fract_y
_atom_site_fract_z
Si Si1 0.954926 0.147972 0.317696
Si Si2 0.542769 0.846334 0.683880
Si Si3 0.370136 0.152055 0.816228
Si Si4 0.791549 0.350608 0.178791
Si Si5 0.706482 0.347365 0.317981
Si Si6 0.885933 0.347964 0.819311
O O1 0.959252 0.135273 0.500000
O O2 0.918421 0.254770 0.274488
O O3 0.000000 0.200656 0.250000
O O4 0.942300 0.000000 0.250000
O O5 0.500000 0.770147 0.750000
O O6 0.541856 0.845874 0.500000
O O7 0.586541 0.778047 0.746872
O O8 0.542960 0.000000 0.750000
O O9 0.331598 0.249342 0.760198
O O10 0.361932 0.000000 0.750000
O O11 0.374022 0.142832 0.000000
O O12 0.795657 0.500000 0.250000
O O13 0.751467 0.276414 0.263174
O O14 0.838250 0.281075 0.202951
O O15 0.779719 0.362543 0.000000
O O16 0.700615 0.500000 0.250000
O O17 0.706353 0.359295 0.500000
O O18 0.888566 0.500000 0.750000
O O19 0.898138 0.353006 0.000000
#
# Coordination Sequence:
#
# PCOD8202322 Si02
#       6
#     8   8   8   8   8   8
#     4  11  22  38  58  79 106 141 176 213 255 308
#     4  10  17  27  45  68  95 127 161 201 245 294
#     4  10  20  33  49  73 101 130 164 206 251 296
#     4   9  17  30  51  75 102 133 168 208 251 298
#     4  10  20  33  52  75 101 133 171 208 247 299
#     4  10  20  35  55  82 109 136 172 216 261 304
#
# _framework density 18.363333999999998
#
# number of rings (size 3 to 8) (size 9 to 14) (size 15 to 20)
#    0.000    2.000    0.000    8.000    0.000    5.000 
#    0.000    2.500    0.000    2.500    0.000    3.500 
#    0.000    0.000    0.000    0.000    0.000    0.000 
#
# Total GULP energy -594919.767718 kJ/mol
# GULP energy per Si atom -12394.161827 kJ/mol
# Density = 1.832154 g / cm^3
# Si number density = 18.363334 Si / 1000 Ang^3
#
#
#
# Elastic Constant Matrix: (Units=GPa)
#
#
# Indices 1 2 3 4 5 6 
#
# 1 172.4436 61.2264 60.8825 0.0000 0.0000 0.0000
# 2 61.2264 53.7561 30.6966 0.0000 0.0000 0.0000
# 3 60.8825 30.6966 127.9671 0.0000 0.0000 0.0000
# 4 0.0000 0.0000 0.0000 18.6205 0.0000 0.0000
# 5 0.0000 0.0000 0.0000 0.0000 33.7425 0.0000
# 6 0.0000 0.0000 0.0000 0.0000 0.0000 41.5551
#
#
#
# Elastic Compliance Matrix: (Units=1/GPa)
#
#
# Indices 1 2 3 4 5 6 
#
# 1 0.010349 -0.010400 -0.002429 0.000000 0.000000 0.000000
# 2 -0.010400 0.032007 -0.002730 0.000000 0.000000 0.000000
# 3 -0.002429 -0.002730 0.009625 0.000000 0.000000 0.000000
# 4 0.000000 0.000000 0.000000 0.053704 0.000000 0.000000
# 5 0.000000 0.000000 0.000000 0.000000 0.029636 0.000000
# 6 0.000000 0.000000 0.000000 0.000000 0.000000 0.024064
#
#
# Mechanical properties :
#
#
# Convention : Reuss Voigt Hill
#
# Bulk Modulus (GPa) = 47.93153 73.30866 60.62010
# Shear Modulus (GPa) = 25.32176 32.20769 28.76473
#
# Velocity S-wave (km/s) = 3.71742 4.19252 3.96210
# Velocity P-wave (km/s) = 6.67713 7.96518 7.34943
#
# Compressibility (1/GPa) = 0.02086309
#
# Stress axis : x y z
#
# Youngs Moduli (GPa) = 96.62524 31.24316 103.89690
#
# Poissons Ratio (x) = 0.32494 0.25236
# Poissons Ratio (y) = 1.00494 0.28360
# Poissons Ratio (z) = 0.23470 0.08528
#
# Static dielectric constant tensor:
#      x y z
#    x 4.422020 0.000000 0.000000 
#    y 0.000000 2.990930 0.000000 
#    z 0.000000 0.000000 3.545180 
# 
# 
# High freq. dielectric constant tensor:
#      x y z
#    x 1.740750 0.000000 0.000000 
#    y 0.000000 1.657410 0.000000 
#    z 0.000000 0.000000 1.734770 
# 
# From -- ./inp_files/6702.got.cif
#   From: 2010.03.12/outbox.cif.g09.slc.cpg/sg49_4_cif.got.tgz:6702.got - 2010.04.14 03:58:27.
