data_PCOD8202340
_publ_section_title
;
Structure prediction by ZEFSAII (Michael W. Deem and Ramdas Pophale) SiO2 
 PCOD8202340
Probable space group: P C C M
;
_chemical_formula_sum "Si O2"
_cell_formula_units_Z 40
_cell_length_a 26.165409
_cell_length_b 9.234442
_cell_length_c 8.593924
_cell_angle_alpha 90.000000
_cell_angle_beta 90.000000
_cell_angle_gamma 90.000000
_cell_volume 2076.489285
_symmetry_space_group_name_H-M "P C C M"
_symmetry_group_IT_number 49
_symmetry_cell_setting 'orthorhombic'
loop_
_space_group_symop_operation_xyz
x,y,z
-x,-y,z
x,-y,1/2-z
-x,y,1/2-z
-x,-y,-z
x,y,-z
-x,y,1/2+z
x,-y,1/2+z
loop_
_atom_site_type_symbol
_atom_site_label
_atom_site_fract_x
_atom_site_fract_y
_atom_site_fract_z
Si Si1 0.845914 0.157463 0.681399
Si Si2 0.746285 0.341490 0.317543
Si Si3 0.551125 0.161459 0.315726
Si Si4 0.655141 0.159407 0.816618
Si Si5 0.948985 0.161389 0.183587
O O1 0.856253 0.139394 0.500000
O O2 0.798673 0.259828 0.718834
O O3 0.896062 0.233369 0.758478
O O4 0.833799 0.000000 0.750000
O O5 0.752141 0.500000 0.250000
O O6 0.733720 0.344303 0.500000
O O7 0.701414 0.262367 0.226491
O O8 0.500000 0.241414 0.250000
O O9 0.549810 0.162231 0.500000
O O10 0.603579 0.233008 0.254130
O O11 0.551475 0.000000 0.250000
O O12 0.665615 0.000000 0.750000
O O13 0.649092 0.146675 0.000000
O O14 0.000000 0.241167 0.250000
O O15 0.947817 0.000000 0.250000
O O16 0.951664 0.161305 0.000000
#
# Coordination Sequence:
#
# PCOD8202340 Si02
#       5
#     8   8   8   8   8
#     4  10  20  34  54  80 108 138 176 218 263 313
#     4  11  24  40  57  78 106 142 181 224 272 323
#     4  10  17  28  47  75 109 141 175 216 265 316
#     4  11  21  35  56  82 111 143 181 224 268 317
#     4  10  17  27  46  73 106 138 170 210 259 309
#
# _framework density 19.263283999999999
#
# number of rings (size 3 to 8) (size 9 to 14) (size 15 to 20)
#    0.000    1.600    0.000   10.800    0.000    4.800 
#    0.000    0.000    0.000    1.200    0.000    8.400 
#    0.000    0.000    0.000    0.000    0.000    0.000 
#
# Total GULP energy -495892.575147 kJ/mol
# GULP energy per Si atom -12397.314379 kJ/mol
# Density = 1.921944 g / cm^3
# Si number density = 19.263284 Si / 1000 Ang^3
#
#
#
# Elastic Constant Matrix: (Units=GPa)
#
#
# Indices 1 2 3 4 5 6 
#
# 1 174.1549 47.5931 90.9160 0.0000 0.0000 0.0000
# 2 47.5931 63.6285 37.7027 0.0000 0.0000 0.0000
# 3 90.9160 37.7027 189.0778 0.0000 0.0000 0.0000
# 4 0.0000 0.0000 0.0000 18.0100 0.0000 0.0000
# 5 0.0000 0.0000 0.0000 0.0000 41.5053 0.0000
# 6 0.0000 0.0000 0.0000 0.0000 0.0000 -8.4943
#
#
#
# Elastic Compliance Matrix: (Units=1/GPa)
#
#
# Indices 1 2 3 4 5 6 
#
# 1 0.008698 -0.004567 -0.003272 0.000000 0.000000 0.000000
# 2 -0.004567 0.020220 -0.001836 0.000000 0.000000 0.000000
# 3 -0.003272 -0.001836 0.007228 0.000000 0.000000 0.000000
# 4 0.000000 0.000000 0.000000 0.055525 0.000000 0.000000
# 5 0.000000 0.000000 0.000000 0.000000 0.024093 0.000000
# 6 0.000000 0.000000 0.000000 0.000000 0.000000 -0.117727
#
#
# Mechanical properties :
#
#
# Convention : Reuss Voigt Hill
#
# Bulk Modulus (GPa) = 59.53529 86.58721 73.06125
# Shear Modulus (GPa) = 217.51714 26.91418 122.21566
#
# Velocity S-wave (km/s) = 10.63782 3.74194 7.97387
# Velocity P-wave (km/s) = 13.48545 7.98225 11.08092
#
# Compressibility (1/GPa) = 0.01679676
#
# Stress axis : x y z
#
# Youngs Moduli (GPa) = 114.96699 49.45494 138.35039
#
# Poissons Ratio (x) = 0.22588 0.45263
# Poissons Ratio (y) = 0.52511 0.25398
# Poissons Ratio (z) = 0.37613 0.09079
#
# Static dielectric constant tensor:
#      x y z
#    x 4.857490 0.000000 0.000000 
#    y 0.000000 2.999330 0.000000 
#    z 0.000000 0.000000 3.697120 
# 
# 
# High freq. dielectric constant tensor:
#      x y z
#    x 1.786290 0.000000 0.000000 
#    y 0.000000 1.682150 0.000000 
#    z 0.000000 0.000000 1.774270 
# 
# From -- ./inp_files/6674.got.cif
#   From: 2010.03.12/outbox.cif.g09.slc.cpg/sg49_4_cif.got.tgz:6674.got - 2010.04.14 03:58:27.
