data_PCOD8202692
_publ_section_title
;
Structure prediction by ZEFSAII (Michael W. Deem and Ramdas Pophale) SiO2 
 PCOD8202692
Probable space group: P C C M
;
_chemical_formula_sum "Si O2"
_cell_formula_units_Z 64
_cell_length_a 20.073891
_cell_length_b 20.062510
_cell_length_c 8.709137
_cell_angle_alpha 90.000000
_cell_angle_beta 90.000000
_cell_angle_gamma 90.000000
_cell_volume 3507.453727
_symmetry_space_group_name_H-M "P C C M"
_symmetry_group_IT_number 49
_symmetry_cell_setting 'orthorhombic'
loop_
_space_group_symop_operation_xyz
x,y,z
-x,-y,z
x,-y,1/2-z
-x,y,1/2-z
-x,-y,-z
x,y,-z
-x,y,1/2+z
x,-y,1/2+z
loop_
_atom_site_type_symbol
_atom_site_label
_atom_site_fract_x
_atom_site_fract_y
_atom_site_fract_z
Si Si1 0.235828 0.399768 0.676573
Si Si2 0.897277 0.568045 0.179603
Si Si3 0.207673 0.249707 0.322373
Si Si4 0.067307 0.707454 0.182556
Si Si5 0.383822 0.433247 0.320935
Si Si6 0.567767 0.293847 0.819462
Si Si7 0.665907 0.822422 0.318107
Si Si8 0.430649 0.072728 0.817894
O O1 0.214060 0.412934 0.500000
O O2 0.182025 0.431791 0.790287
O O3 0.242405 0.320776 0.704751
O O4 0.305686 0.432681 0.717589
O O5 0.927888 0.500000 0.250000
O O6 0.930162 0.630853 0.264085
O O7 0.912613 0.571995 0.000000
O O8 0.199807 0.234808 0.500000
O O9 0.132185 0.251761 0.252831
O O10 0.257754 0.191898 0.259066
O O11 0.000000 0.740696 0.250000
O O12 0.065806 0.708933 0.000000
O O13 0.415925 0.500000 0.250000
O O14 0.396697 0.434232 0.500000
O O15 0.417505 0.367225 0.249188
O O16 0.500000 0.265190 0.750000
O O17 0.626033 0.243881 0.773475
O O18 0.560969 0.298546 0.000000
O O19 0.663270 0.836586 0.500000
O O20 0.633547 0.884004 0.228829
O O21 0.500000 0.102596 0.750000
O O22 0.418491 0.000000 0.750000
O O23 0.436946 0.069264 0.000000
#
# Coordination Sequence:
#
# PCOD8202692 Si02
#       8
#     8   8   8   8   8   8   8   8
#     4   9  16  31  50  68  91 120 157 202 258 316
#     4  11  21  32  46  67  92 121 159 204 256 318
#     4   8  15  30  54  76  98 132 168 204 252 309
#     4  10  20  35  53  73  99 132 166 206 258 314
#     4  10  20  33  48  65  87 120 161 210 265 321
#     4  10  21  35  51  69  94 127 167 211 262 314
#     4  10  18  34  58  81 106 139 176 216 259 306
#     4  11  22  37  56  83 117 154 188 220 257 305
#
# _framework density 18.246856000000001
#
# number of rings (size 3 to 8) (size 9 to 14) (size 15 to 20)
#    0.000    2.125    1.250    4.500    0.000    4.000 
#    0.000    5.625    0.000    0.000    0.000    0.000 
#    0.000    0.500    0.000    5.750    0.000    1.750 
#
# Total GULP energy -793251.645546 kJ/mol
# GULP energy per Si atom -12394.556962 kJ/mol
# Density = 1.820533 g / cm^3
# Si number density = 18.246856 Si / 1000 Ang^3
#
#
#
# Elastic Constant Matrix: (Units=GPa)
#
#
# Indices 1 2 3 4 5 6 
#
# 1 110.8389 48.7582 40.0755 0.0000 0.0000 0.0000
# 2 48.7582 71.0252 26.9518 0.0000 0.0000 0.0000
# 3 40.0755 26.9518 63.7795 0.0000 0.0000 0.0000
# 4 0.0000 0.0000 0.0000 21.4494 0.0000 0.0000
# 5 0.0000 0.0000 0.0000 0.0000 19.0590 0.0000
# 6 0.0000 0.0000 0.0000 0.0000 0.0000 -63.4502
#
#
#
# Elastic Compliance Matrix: (Units=1/GPa)
#
#
# Indices 1 2 3 4 5 6 
#
# 1 0.014561 -0.007770 -0.005866 0.000000 0.000000 0.000000
# 2 -0.007770 0.020915 -0.003956 0.000000 0.000000 0.000000
# 3 -0.005866 -0.003956 0.021036 0.000000 0.000000 0.000000
# 4 0.000000 0.000000 0.000000 0.046621 0.000000 0.000000
# 5 0.000000 0.000000 0.000000 0.000000 0.052469 0.000000
# 6 0.000000 0.000000 0.000000 0.000000 0.000000 -0.015760
#
#
# Mechanical properties :
#
#
# Convention : Reuss Voigt Hill
#
# Bulk Modulus (GPa) = 46.88528 53.02384 49.95456
# Shear Modulus (GPa) = 27.45216 4.06886 15.76051
#
# Velocity S-wave (km/s) = 3.88298 1.49490 2.94213
# Velocity P-wave (km/s) = 6.77157 5.66585 6.24324
#
# Compressibility (1/GPa) = 0.02132865
#
# Stress axis : x y z
#
# Youngs Moduli (GPa) = 68.67609 47.81315 47.53660
#
# Poissons Ratio (x) = 0.37152 0.27884
# Poissons Ratio (y) = 0.53362 0.18804
# Poissons Ratio (z) = 0.40285 0.18914
#
# Static dielectric constant tensor:
#      x y z
#    x 3.695610 0.000000 0.000000 
#    y 0.000000 3.262790 0.000000 
#    z 0.000000 0.000000 3.178250 
# 
# 
# High freq. dielectric constant tensor:
#      x y z
#    x 1.711910 0.000000 0.000000 
#    y 0.000000 1.670000 0.000000 
#    z 0.000000 0.000000 1.691230 
# 
# From -- ./inp_files/6090.got.cif
#   From: 2010.03.12/outbox.cif.g09.slc.cpg/sg49_4_cif.got.tgz:6090.got - 2010.04.14 03:58:27.
