data_PCOD8202090
_publ_section_title
;
Structure prediction by ZEFSAII (Michael W. Deem and Ramdas Pophale) SiO2 
 PCOD8202090
Probable space group: P N N N
;
_chemical_formula_sum "Si O2"
_cell_formula_units_Z 48
_cell_length_a 13.155531
_cell_length_b 19.356760
_cell_length_c 9.130890
_cell_angle_alpha 90.000000
_cell_angle_beta 90.000000
_cell_angle_gamma 90.000000
_cell_volume 2325.167043
_symmetry_space_group_name_H-M "P N N N"
_symmetry_group_IT_number 48
_space_group.IT_coordinate_system_code '2'
_symmetry_cell_setting 'orthorhombic'
loop_
_space_group_symop_operation_xyz
x,y,z
1/2-x,1/2-y,z
x,1/2-y,1/2-z
1/2-x,y,1/2-z
-x,-y,-z
1/2+x,1/2+y,-z
-x,1/2+y,1/2+z
1/2+x,-y,1/2+z
loop_
_atom_site_type_symbol
_atom_site_label
_atom_site_fract_x
_atom_site_fract_y
_atom_site_fract_z
Si Si1 0.773864 0.673320 0.918847
Si Si2 0.194076 0.059841 0.892640
Si Si3 0.008118 0.976851 0.257902
Si Si4 0.494921 0.388912 0.450357
Si Si5 0.297841 0.943291 0.404293
Si Si6 0.786417 0.171621 0.406701
O O1 0.750000 0.750000 0.973925
O O2 0.750000 0.664741 0.750000
O O3 0.891190 0.655105 0.954831
O O4 0.691676 0.625305 0.000599
O O5 0.250000 0.085941 0.750000
O O6 0.090173 0.028498 0.839831
O O7 0.251070 0.997595 0.979432
O O8 0.013922 0.922445 0.390737
O O9 0.085280 0.958500 0.127262
O O10 0.016811 0.053917 0.323050
O O11 0.591351 0.338647 0.418860
O O12 0.250000 0.958285 0.250000
O O13 0.273396 0.867396 0.463760
O O14 0.750000 0.250000 0.423027
O O15 0.750000 0.142156 0.250000
#
# Coordination Sequence:
#
# PCOD8202090 Si02
#       6
#     8   8   8   8   8   8
#     4  11  26  45  69  98 137 185 226 283 339 406
#     4  12  23  40  66 100 134 177 232 279 339 400
#     4  11  23  39  69 102 134 177 225 288 336 402
#     4  11  22  46  67 101 139 176 226 287 341 389
#     4  12  23  40  66 100 134 177 232 279 339 400
#     4  11  26  45  69  98 137 185 226 283 339 406
#
# _framework density 20.643678000000001
#
# number of rings (size 3 to 8) (size 9 to 14) (size 15 to 20)
#    0.000    0.667    3.333    5.500    0.000    6.000 
#    0.000    1.667    0.000    0.000    0.000    0.000 
#    0.000    0.000    0.000    0.000    0.000    0.000 
#
# Total GULP energy -594977.623823 kJ/mol
# GULP energy per Si atom -12395.367163 kJ/mol
# Density = 2.059669 g / cm^3
# Si number density = 20.643678 Si / 1000 Ang^3
#
#
#
# Elastic Constant Matrix: (Units=GPa)
#
#
# Indices 1 2 3 4 5 6 
#
# 1 89.3347 52.6216 21.3373 0.0000 0.0000 0.0000
# 2 52.6216 121.0074 39.3288 0.0000 0.0000 0.0000
# 3 21.3373 39.3288 79.6592 0.0000 0.0000 0.0000
# 4 0.0000 0.0000 0.0000 8.2985 0.0000 0.0000
# 5 0.0000 0.0000 0.0000 0.0000 40.8151 0.0000
# 6 0.0000 0.0000 0.0000 0.0000 0.0000 33.5995
#
#
#
# Elastic Compliance Matrix: (Units=1/GPa)
#
#
# Indices 1 2 3 4 5 6 
#
# 1 0.015110 -0.006260 -0.000957 0.000000 0.000000 0.000000
# 2 -0.006260 0.012437 -0.004463 0.000000 0.000000 0.000000
# 3 -0.000957 -0.004463 0.015013 0.000000 0.000000 0.000000
# 4 0.000000 0.000000 0.000000 0.120504 0.000000 0.000000
# 5 0.000000 0.000000 0.000000 0.000000 0.024501 0.000000
# 6 0.000000 0.000000 0.000000 0.000000 0.000000 0.029762
#
#
# Mechanical properties :
#
#
# Convention : Reuss Voigt Hill
#
# Bulk Modulus (GPa) = 52.08336 57.39739 54.74038
# Shear Modulus (GPa) = 20.23581 28.32352 24.27967
#
# Velocity S-wave (km/s) = 3.13428 3.70810 3.43320
# Velocity P-wave (km/s) = 6.19538 6.79688 6.50309
#
# Compressibility (1/GPa) = 0.01919999
#
# Stress axis : x y z
#
# Youngs Moduli (GPa) = 66.18341 80.40716 66.60702
#
# Poissons Ratio (x) = 0.50332 0.06373
# Poissons Ratio (y) = 0.41428 0.29730
# Poissons Ratio (z) = 0.06332 0.35890
#
# Static dielectric constant tensor:
#      x y z
#    x 3.292510 0.000000 0.000000 
#    y 0.000000 3.694440 0.000000 
#    z 0.000000 0.000000 3.726820 
# 
# 
# High freq. dielectric constant tensor:
#      x y z
#    x 1.816410 0.000000 0.000000 
#    y 0.000000 1.798610 0.000000 
#    z 0.000000 0.000000 1.831480 
# 
# From -- ./inp_files/12804.got.cif
#   From: 2010.06.25/outbox.cif.g09.slc.cpg/sg48_7_cif.got.tgz:12804.got - 2010.06.26 18:06:46.
