data_PCOD8202525
_publ_section_title
;
Structure prediction by ZEFSAII (Michael W. Deem and Ramdas Pophale) SiO2 
 PCOD8202525
Probable space group: P C C M
;
_chemical_formula_sum "Si O2"
_cell_formula_units_Z 52
_cell_length_a 5.215507
_cell_length_b 25.706569
_cell_length_c 19.119373
_cell_angle_alpha 90.000000
_cell_angle_beta 90.000000
_cell_angle_gamma 90.000000
_cell_volume 2563.387692
_symmetry_space_group_name_H-M "P C C M"
_symmetry_group_IT_number 49
_symmetry_cell_setting 'orthorhombic'
loop_
_space_group_symop_operation_xyz
x,y,z
-x,-y,z
x,-y,1/2-z
-x,y,1/2-z
-x,-y,-z
x,y,-z
-x,y,1/2+z
x,-y,1/2+z
loop_
_atom_site_type_symbol
_atom_site_label
_atom_site_fract_x
_atom_site_fract_y
_atom_site_fract_z
Si Si1 0.000000 0.203967 0.750000
Si Si2 0.037024 0.735393 0.621844
Si Si3 0.248892 0.033862 0.580001
Si Si4 0.511619 0.209841 0.922683
Si Si5 0.624947 0.873955 0.320958
Si Si6 0.499995 0.558104 0.667171
Si Si7 0.999035 0.620124 0.833117
O O1 0.857605 0.242461 0.696261
O O2 0.826162 0.167904 0.796598
O O3 0.265679 0.752212 0.570251
O O4 0.761025 0.758382 0.601667
O O5 0.008490 0.673770 0.624835
O O6 0.243732 0.054435 0.500000
O O7 0.241639 0.080889 0.634633
O O8 0.500000 0.000000 0.593990
O O9 0.000000 0.000000 0.596311
O O10 0.442206 0.159915 0.872629
O O11 0.566049 0.187382 0.000000
O O12 0.500000 0.897462 0.250000
O O13 0.500000 0.500000 0.634929
O O14 0.500000 0.554126 0.750000
O O15 0.749844 0.589190 0.641808
O O16 0.245963 0.587457 0.641922
O O17 0.000000 0.630153 0.750000
#
# Coordination Sequence:
#
# PCOD8202525 Si02
#       7
#     4   8   8   8   8   8   8
#     4  10  22  38  57  90 123 154 192 246 296 352
#     4  11  21  37  58  83 121 153 204 241 295 361
#     4  10  24  45  67  91 123 163 204 249 300 358
#     4  11  24  40  61  86 120 162 199 243 295 359
#     4  11  23  41  64  94 123 160 200 251 299 361
#     4   9  17  28  43  70 111 155 196 237 292 364
#     4  10  18  29  49  76 109 154 193 238 303 353
#
# _framework density 20.285655999999999
#
# number of rings (size 3 to 8) (size 9 to 14) (size 15 to 20)
#    0.000    1.692    2.308    2.308    2.154    2.154 
#    0.000    3.077    0.000    0.000    0.000    0.000 
#    0.000   43.077    0.000    0.000    0.000    0.000 
#
# Total GULP energy -644494.137316 kJ/mol
# GULP energy per Si atom -12394.118025 kJ/mol
# Density = 2.023948 g / cm^3
# Si number density = 20.285656 Si / 1000 Ang^3
#
#
#
# Elastic Constant Matrix: (Units=GPa)
#
#
# Indices 1 2 3 4 5 6 
#
# 1 137.3723 49.5772 23.4296 0.0000 0.0000 0.0000
# 2 49.5772 120.8898 59.8462 0.0000 0.0000 0.0000
# 3 23.4296 59.8462 96.1273 0.0000 0.0000 0.0000
# 4 0.0000 0.0000 0.0000 24.6869 0.0000 0.0000
# 5 0.0000 0.0000 0.0000 0.0000 13.9170 0.0000
# 6 0.0000 0.0000 0.0000 0.0000 0.0000 28.8147
#
#
#
# Elastic Compliance Matrix: (Units=1/GPa)
#
#
# Indices 1 2 3 4 5 6 
#
# 1 0.008545 -0.003575 0.000143 0.000000 0.000000 0.000000
# 2 -0.003575 0.013453 -0.007504 0.000000 0.000000 0.000000
# 3 0.000143 -0.007504 0.015040 0.000000 0.000000 0.000000
# 4 0.000000 0.000000 0.000000 0.040507 0.000000 0.000000
# 5 0.000000 0.000000 0.000000 0.000000 0.071854 0.000000
# 6 0.000000 0.000000 0.000000 0.000000 0.000000 0.034705
#
#
# Mechanical properties :
#
#
# Convention : Reuss Voigt Hill
#
# Bulk Modulus (GPa) = 65.93835 68.89947 67.41891
# Shear Modulus (GPa) = 23.69301 28.25281 25.97291
#
# Velocity S-wave (km/s) = 3.42126 3.73600 3.58209
# Velocity P-wave (km/s) = 6.94134 7.25594 7.10038
#
# Compressibility (1/GPa) = 0.01516568
#
# Stress axis : x y z
#
# Youngs Moduli (GPa) = 117.02195 74.33207 66.48999
#
# Poissons Ratio (x) = 0.26576 -0.00951
# Poissons Ratio (y) = 0.41839 0.49895
# Poissons Ratio (z) = -0.01674 0.55780
#
# Static dielectric constant tensor:
#      x y z
#    x 3.447010 0.000000 0.000000 
#    y 0.000000 3.682800 0.000000 
#    z 0.000000 0.000000 3.909740 
# 
# 
# High freq. dielectric constant tensor:
#      x y z
#    x 1.797050 0.000000 0.000000 
#    y 0.000000 1.794460 0.000000 
#    z 0.000000 0.000000 1.771130 
# 
# From -- ./inp_files/19004.got.cif
#   From: 2010.03.12/outbox.cif.g09.slc.cpg/sg49_10_cif.got.tgz:19004.got - 2010.04.14 03:58:27.
