data_PCOD8202457
_publ_section_title
;
Structure prediction by ZEFSAII (Michael W. Deem and Ramdas Pophale) SiO2 
 PCOD8202457
Probable space group: P C C M
;
_chemical_formula_sum "Si O2"
_cell_formula_units_Z 64
_cell_length_a 19.286486
_cell_length_b 23.785311
_cell_length_c 9.050889
_cell_angle_alpha 90.000000
_cell_angle_beta 90.000000
_cell_angle_gamma 90.000000
_cell_volume 4151.960177
_symmetry_space_group_name_H-M "P C C M"
_symmetry_group_IT_number 49
_symmetry_cell_setting 'orthorhombic'
loop_
_space_group_symop_operation_xyz
x,y,z
-x,-y,z
x,-y,1/2-z
-x,y,1/2-z
-x,-y,-z
x,y,-z
-x,y,1/2+z
x,-y,1/2+z
loop_
_atom_site_type_symbol
_atom_site_label
_atom_site_fract_x
_atom_site_fract_y
_atom_site_fract_z
Si Si1 0.152147 0.667069 0.674848
Si Si2 0.073865 0.442894 0.177523
Si Si3 0.793727 0.163036 0.674174
Si Si4 0.431591 0.754072 0.327024
Si Si5 0.290239 0.941456 0.324867
Si Si6 0.716566 0.728410 0.824037
Si Si7 0.928446 0.775693 0.826313
Si Si8 0.568570 0.883925 0.172792
O O1 0.150436 0.670490 0.500000
O O2 0.126439 0.606168 0.727539
O O3 0.231566 0.678332 0.729556
O O4 0.101051 0.716045 0.734141
O O5 0.103365 0.500000 0.250000
O O6 0.000000 0.428964 0.250000
O O7 0.066886 0.448426 0.000000
O O8 0.783052 0.164079 0.500000
O O9 0.767712 0.102819 0.733436
O O10 0.746069 0.212905 0.740259
O O11 0.873976 0.174787 0.714677
O O12 0.500000 0.728805 0.250000
O O13 0.442411 0.746899 0.500000
O O14 0.363036 0.720122 0.270747
O O15 0.420282 0.818998 0.282772
O O16 0.287546 0.948599 0.500000
O O17 0.365533 0.919583 0.273065
O O18 0.272424 0.000000 0.250000
O O19 0.716678 0.731690 0.000000
O O20 0.000000 0.791081 0.750000
O O21 0.940968 0.772424 0.000000
O O22 0.500000 0.908624 0.250000
O O23 0.557904 0.890103 0.000000
#
# Coordination Sequence:
#
# PCOD8202457 Si02
#       8
#     8   8   8   8   8   8   8   8
#     4   8  15  25  41  64  85 107 141 176 200 230
#     4  10  18  28  41  59  85 118 150 176 200 232
#     4   8  14  27  45  60  77 102 132 160 195 244
#     4   9  15  24  41  61  81 106 133 161 196 241
#     4  10  19  31  45  60  77 101 134 167 198 235
#     4   8  12  23  43  62  78 103 138 170 198 236
#     4   9  16  27  45  66  84 103 127 163 205 243
#     4   9  17  28  42  59  79 104 132 162 194 233
#
# _framework density 15.414406
#
# number of rings (size 3 to 8) (size 9 to 14) (size 15 to 20)
#    0.000    3.125    1.250    2.625    0.000    0.750 
#    0.000    2.500    0.000    4.875    0.000    2.625 
#    0.000    0.500    0.000    6.250    0.000    0.000 
#
# Total GULP energy -793022.719181 kJ/mol
# GULP energy per Si atom -12390.979987 kJ/mol
# Density = 1.537932 g / cm^3
# Si number density = 15.414406 Si / 1000 Ang^3
#
#
#
# Elastic Constant Matrix: (Units=GPa)
#
#
# Indices 1 2 3 4 5 6 
#
# 1 145.6440 74.4074 31.6763 0.0000 0.0000 0.0000
# 2 74.4074 103.4376 24.4800 0.0000 0.0000 0.0000
# 3 31.6763 24.4800 25.5258 0.0000 0.0000 0.0000
# 4 0.0000 0.0000 0.0000 -3.6807 0.0000 0.0000
# 5 0.0000 0.0000 0.0000 0.0000 20.3624 0.0000
# 6 0.0000 0.0000 0.0000 0.0000 0.0000 26.6974
#
#
#
# Elastic Compliance Matrix: (Units=1/GPa)
#
#
# Indices 1 2 3 4 5 6 
#
# 1 0.012182 -0.006708 -0.008684 0.000000 0.000000 0.000000
# 2 -0.006708 0.016200 -0.007212 0.000000 0.000000 0.000000
# 3 -0.008684 -0.007212 0.056869 0.000000 0.000000 0.000000
# 4 0.000000 0.000000 0.000000 -0.271685 0.000000 0.000000
# 5 0.000000 0.000000 0.000000 0.000000 0.049110 0.000000
# 6 0.000000 0.000000 0.000000 0.000000 0.000000 0.037457
#
#
# Mechanical properties :
#
#
# Convention : Reuss Voigt Hill
#
# Bulk Modulus (GPa) = 24.97316 59.52610 42.24963
# Shear Modulus (GPa) = -121.02791 18.27873 -51.37459
#
# Velocity S-wave (km/s) = -8.87054 3.44731 -5.77939
# Velocity P-wave (km/s) = 9.41696 7.38555 4.13115
#
# Compressibility (1/GPa) = 0.04004299
#
# Stress axis : x y z
#
# Youngs Moduli (GPa) = 82.09150 61.73002 17.58418
#
# Poissons Ratio (x) = 0.41406 0.15270
# Poissons Ratio (y) = 0.55063 0.12682
# Poissons Ratio (z) = 0.71288 0.44521
#
# Static dielectric constant tensor:
#      x y z
#    x 3.217230 0.000000 0.000000 
#    y 0.000000 2.986510 0.000000 
#    z 0.000000 0.000000 2.627510 
# 
# 
# High freq. dielectric constant tensor:
#      x y z
#    x 1.594790 0.000000 0.000000 
#    y 0.000000 1.562180 0.000000 
#    z 0.000000 0.000000 1.559110 
# 
# From -- ./inp_files/6121.got.cif
#   From: 2010.03.12/outbox.cif.g09.slc.cpg/sg49_4_cif.got.tgz:6121.got - 2010.04.14 03:58:27.
