data_PCOD8202617
_publ_section_title
;
Structure prediction by ZEFSAII (Michael W. Deem and Ramdas Pophale) SiO2 
 PCOD8202617
Probable space group: P C C M
;
_chemical_formula_sum "Si O2"
_cell_formula_units_Z 48
_cell_length_a 30.935603
_cell_length_b 9.444498
_cell_length_c 8.472847
_cell_angle_alpha 90.000000
_cell_angle_beta 90.000000
_cell_angle_gamma 90.000000
_cell_volume 2475.522220
_symmetry_space_group_name_H-M "P C C M"
_symmetry_group_IT_number 49
_symmetry_cell_setting 'orthorhombic'
loop_
_space_group_symop_operation_xyz
x,y,z
-x,-y,z
x,-y,1/2-z
-x,y,1/2-z
-x,-y,-z
x,y,-z
-x,y,1/2+z
x,-y,1/2+z
loop_
_atom_site_type_symbol
_atom_site_label
_atom_site_fract_x
_atom_site_fract_y
_atom_site_fract_z
Si Si1 0.120781 0.843479 0.814366
Si Si2 0.625105 0.343133 0.313075
Si Si3 0.454760 0.844623 0.686027
Si Si4 0.713113 0.342131 0.186625
Si Si5 0.952723 0.349545 0.314185
Si Si6 0.802106 0.340792 0.686312
O O1 0.078523 0.776184 0.736422
O O2 0.162417 0.752484 0.771853
O O3 0.127484 0.000000 0.750000
O O4 0.114172 0.847270 0.000000
O O5 0.617883 0.500000 0.250000
O O6 0.630251 0.345530 0.500000
O O7 0.584043 0.254142 0.255212
O O8 0.668135 0.268388 0.238589
O O9 0.500000 0.782585 0.750000
O O10 0.457291 0.850529 0.500000
O O11 0.445895 0.000000 0.750000
O O12 0.708553 0.500000 0.250000
O O13 0.755288 0.273672 0.269487
O O14 0.719606 0.338387 0.000000
O O15 0.935348 0.500000 0.250000
O O16 0.954775 0.360289 0.500000
O O17 0.000000 0.314321 0.250000
O O18 0.805252 0.500000 0.750000
O O19 0.809768 0.338423 0.500000
#
# Coordination Sequence:
#
# PCOD8202617 Si02
#       6
#     8   8   8   8   8   8
#     4  12  25  42  60  85 118 154 192 235 285 339
#     4  10  20  34  53  80 109 140 176 221 272 326
#     4  10  21  36  55  76 103 138 179 220 266 320
#     4  10  18  31  53  81 110 143 180 225 275 327
#     4  11  22  40  64  92 120 153 193 238 284 333
#     4  11  21  37  60  86 114 149 190 234 277 329
#
# _framework density 19.389849000000002
#
# number of rings (size 3 to 8) (size 9 to 14) (size 15 to 20)
#    0.000    1.333    0.000   10.500    0.000    3.333 
#    0.000    4.167    0.000    2.000    0.000    0.000 
#    0.000    0.000    0.000    0.000    0.000    0.000 
#
# Total GULP energy -595251.293608 kJ/mol
# GULP energy per Si atom -12401.068617 kJ/mol
# Density = 1.934572 g / cm^3
# Si number density = 19.389849 Si / 1000 Ang^3
#
#
#
# Elastic Constant Matrix: (Units=GPa)
#
#
# Indices 1 2 3 4 5 6 
#
# 1 148.1259 59.6147 32.1925 0.0000 0.0000 0.0000
# 2 59.6147 73.8886 19.0233 0.0000 0.0000 0.0000
# 3 32.1925 19.0233 119.0020 0.0000 0.0000 0.0000
# 4 0.0000 0.0000 0.0000 25.3451 0.0000 0.0000
# 5 0.0000 0.0000 0.0000 0.0000 41.8641 0.0000
# 6 0.0000 0.0000 0.0000 0.0000 0.0000 3.6670
#
#
#
# Elastic Compliance Matrix: (Units=1/GPa)
#
#
# Indices 1 2 3 4 5 6 
#
# 1 0.010252 -0.007882 -0.001513 0.000000 0.000000 0.000000
# 2 -0.007882 0.020175 -0.001093 0.000000 0.000000 0.000000
# 3 -0.001513 -0.001093 0.008987 0.000000 0.000000 0.000000
# 4 0.000000 0.000000 0.000000 0.039455 0.000000 0.000000
# 5 0.000000 0.000000 0.000000 0.000000 0.023887 0.000000
# 6 0.000000 0.000000 0.000000 0.000000 0.000000 0.272701
#
#
# Mechanical properties :
#
#
# Convention : Reuss Voigt Hill
#
# Bulk Modulus (GPa) = 54.23695 62.51969 58.37832
# Shear Modulus (GPa) = 12.41993 29.52098 20.97046
#
# Velocity S-wave (km/s) = 2.53363 3.90615 3.29221
# Velocity P-wave (km/s) = 6.04910 7.25655 6.68016
#
# Compressibility (1/GPa) = 0.01843762
#
# Stress axis : x y z
#
# Youngs Moduli (GPa) = 97.54118 49.56751 111.26782
#
# Poissons Ratio (x) = 0.39069 0.16839
# Poissons Ratio (y) = 0.76881 0.12159
# Poissons Ratio (z) = 0.14762 0.05417
#
# Static dielectric constant tensor:
#      x y z
#    x 4.296820 0.000000 0.000000 
#    y 0.000000 3.360650 0.000000 
#    z 0.000000 0.000000 3.723240 
# 
# 
# High freq. dielectric constant tensor:
#      x y z
#    x 1.780640 0.000000 0.000000 
#    y 0.000000 1.724040 0.000000 
#    z 0.000000 0.000000 1.778560 
# 
# From -- ./inp_files/6851.got.cif
#   From: 2010.03.12/outbox.cif.g09.slc.cpg/sg49_4_cif.got.tgz:6851.got - 2010.04.14 03:58:27.
